ZINC35723431_4135
                    3D
 Schrodinger Suite 2024-2.
 51 54  0  0  1  0            999 V2000
    6.8694   57.4956   18.5005 C   0  0  0  0  0  0
    5.8678   57.3680   17.5450 C   0  0  0  0  0  0
    5.4223   56.1114   17.1593 C   0  0  0  0  0  0
    5.9962   54.9495   17.7247 C   0  0  0  0  0  0
    6.9907   55.0986   18.7181 C   0  0  0  0  0  0
    7.4304   56.3634   19.0839 C   0  0  0  0  0  0
    5.4280   53.5665   17.4008 C   0  0  0  0  0  0
    4.1706   53.1207   18.2054 C   0  0  1  0  0  0
    3.9131   52.0986   17.9090 H   0  0  0  0  0  0
    4.4382   53.0581   19.7325 C   0  0  0  0  0  0
    5.4710   52.4975   20.0981 O   0  0  0  0  0  0
    3.5292   53.6093   20.5687 N   0  0  0  0  0  0
    3.6371   53.7673   21.9433 C   0  0  0  0  0  0
    2.5987   54.0947   22.6701 N   0  0  0  0  0  0
    2.9116   54.2675   24.0110 N   0  0  0  0  0  0
    4.1878   54.0976   24.2714 C   0  0  0  0  0  0
    5.1298   53.6968   22.8530 S   0  0  0  0  0  0
    4.7864   54.1819   25.6440 C   0  0  0  0  0  0
    3.9525   54.0979   26.7672 C   0  0  0  0  0  0
    4.4894   54.1529   28.0503 C   0  0  0  0  0  0
    5.8636   54.2975   28.2132 C   0  0  0  0  0  0
    6.7043   54.3858   27.1090 C   0  0  0  0  0  0
    6.1678   54.3310   25.8236 C   0  0  0  0  0  0
    3.0539   53.9973   17.8256 N   0  0  0  0  0  0
    1.8997   53.6307   17.2406 C   0  0  0  0  0  0
    1.6043   52.4621   16.9923 O   0  0  0  0  0  0
    0.9394   54.7543   16.9217 C   0  0  0  0  0  0
   -0.4340   54.4828   16.8204 C   0  0  0  0  0  0
   -1.3391   55.5075   16.5573 C   0  0  0  0  0  0
   -0.8727   56.8080   16.3856 C   0  0  0  0  0  0
    0.4858   57.0926   16.4749 C   0  0  0  0  0  0
    1.3909   56.0711   16.7383 C   0  0  0  0  0  0
   -2.0969   58.2095   16.0099 Br  0  0  0  0  0  0
    7.2083   58.4806   18.7887 H   0  0  0  0  0  0
    5.4324   58.2559   17.1064 H   0  0  0  0  0  0
    4.6427   56.0262   16.4169 H   0  0  0  0  0  0
    7.4186   54.2273   19.1949 H   0  0  0  0  0  0
    8.2073   56.4697   19.8262 H   0  0  0  0  0  0
    6.2215   52.8283   17.5351 H   0  0  0  0  0  0
    5.1974   53.5367   16.3334 H   0  0  0  0  0  0
    2.6635   53.9510   20.1646 H   0  0  0  0  0  0
    2.8852   53.9740   26.6512 H   0  0  0  0  0  0
    3.8423   54.0805   28.9102 H   0  0  0  0  0  0
    6.2856   54.3547   29.2062 H   0  0  0  0  0  0
    7.7663   54.4959   27.2577 H   0  0  0  0  0  0
    6.8339   54.4008   24.9764 H   0  0  0  0  0  0
    3.1893   54.9715   18.0431 H   0  0  0  0  0  0
   -0.8079   53.4767   16.9530 H   0  0  0  0  0  0
   -2.3943   55.2929   16.4724 H   0  0  0  0  0  0
    0.8362   58.1070   16.3415 H   0  0  0  0  0  0
    2.4394   56.3248   16.7957 H   0  0  0  0  0  0
  1  6  2  0  0  0
  1  2  1  0  0  0
  1 34  1  0  0  0
  2  3  2  0  0  0
  2 35  1  0  0  0
  3  4  1  0  0  0
  3 36  1  0  0  0
  4  5  2  0  0  0
  4  7  1  0  0  0
  5  6  1  0  0  0
  5 37  1  0  0  0
  6 38  1  0  0  0
  7  8  1  0  0  0
  7 39  1  0  0  0
  7 40  1  0  0  0
  8  9  1  0  0  0
  8 10  1  0  0  0
  8 24  1  0  0  0
 10 11  2  0  0  0
 10 12  1  0  0  0
 12 13  1  0  0  0
 12 41  1  0  0  0
 13 17  1  0  0  0
 13 14  2  0  0  0
 14 15  1  0  0  0
 15 16  2  0  0  0
 16 17  1  0  0  0
 16 18  1  0  0  0
 18 23  2  0  0  0
 18 19  1  0  0  0
 19 20  2  0  0  0
 19 42  1  0  0  0
 20 21  1  0  0  0
 20 43  1  0  0  0
 21 22  2  0  0  0
 21 44  1  0  0  0
 22 23  1  0  0  0
 22 45  1  0  0  0
 23 46  1  0  0  0
 24 25  1  0  0  0
 24 47  1  0  0  0
 25 26  2  0  0  0
 25 27  1  0  0  0
 27 32  2  0  0  0
 27 28  1  0  0  0
 28 29  2  0  0  0
 28 48  1  0  0  0
 29 30  1  0  0  0
 29 49  1  0  0  0
 30 31  2  0  0  0
 30 33  1  0  0  0
 31 32  1  0  0  0
 31 50  1  0  0  0
 32 51  1  0  0  0
M  END
> <i_i_glide_confnum>
12

> <i_i_glide_lignum>
4136

> <i_i_glide_posenum>
189

> <i_i_glide_rotatable_bonds>
9

> <i_m_Source_File_Index>
1656

> <b_m_subgroup_collapsed>
0

> <r_i_docking_score>
-5.1309

> <r_i_glide_ecoul>
-4.6907

> <r_i_glide_eff_state_penalty>
0

> <r_i_glide_einternal>
3.40058

> <r_i_glide_emodel>
-59.8155

> <r_i_glide_energy>
-46.4266

> <r_i_glide_erotb>
0.55646

> <r_i_glide_esite>
-0.0820071

> <r_i_glide_evdw>
-41.7359

> <r_i_glide_gscore>
-5.1309

> <r_i_glide_hbond>
-0.308703

> <r_i_glide_ligand_efficiency>
-0.160341

> <r_i_glide_ligand_efficiency_ln>
-1.14895

> <r_i_glide_ligand_efficiency_sa>
-0.509049

> <r_i_glide_lipo>
-2.43226

> <r_i_glide_metal>
0

> <r_i_glide_rewards>
-0.0739874

> <s_i_glide_gridfile>
wee1_glide-grid

> <s_m_Source_File>
wee1_decoys_glide_SP.sdf

> <s_m_Source_Path>
/Users/zhangxujun/Desktop

> <s_m_entry_id>
1931

> <s_m_entry_name>
wee1_decoys_glide_SP.1656

> <s_m_subgroup_title>
wee1_decoys_glide_SP

> <s_m_subgroupid>
wee1_decoys_glide_SP


$$$$
