ZINC50704036_6168
                    3D
 Schrodinger Suite 2024-2.
 40 42  0  0  1  0            999 V2000
    4.4185   54.5062   24.9501 C   0  0  0  0  0  0
    3.8344   53.9061   26.0801 C   0  0  0  0  0  0
    4.6657   53.6942   27.1950 C   0  0  0  0  0  0
    6.0229   54.0148   27.1263 C   0  0  0  0  0  0
    6.5881   54.5469   26.0169 N   0  0  0  0  0  0
    5.7912   54.7789   24.9510 C   0  0  0  0  0  0
    6.4130   55.2922   23.8204 N   0  0  0  0  0  0
    7.0386   53.6967   28.4818 Cl  0  0  0  0  0  0
    2.3627   53.5150   26.1720 C   0  0  0  0  0  0
    1.8214   53.6822   27.2703 O   0  0  0  0  0  0
    1.6755   52.9557   25.1197 N   0  0  0  0  0  0
    2.3042   52.4967   23.8593 C   0  0  0  0  0  0
    1.4557   52.9700   22.6726 C   0  0  0  0  0  0
    0.0514   52.3793   22.7823 C   0  0  0  0  0  0
   -0.6111   52.8404   24.0963 C   0  0  2  0  0  0
   -0.7031   53.9274   24.0817 H   0  0  0  0  0  0
    0.2685   52.4968   25.3478 C   0  0  1  0  0  0
   -0.1708   53.0591   26.1709 H   0  0  0  0  0  0
    0.2029   51.0039   25.7684 C   0  0  0  0  0  0
   -1.2419   50.4853   25.8809 C   0  0  0  0  0  0
   -2.0653   50.7678   24.6129 C   0  0  0  0  0  0
   -2.0405   52.2633   24.2476 C   0  0  0  0  0  0
    3.8272   54.7618   24.0848 H   0  0  0  0  0  0
    4.2727   53.2540   28.1005 H   0  0  0  0  0  0
    5.8928   55.3515   22.9591 H   0  0  0  0  0  0
    7.4221   55.3678   23.8216 H   0  0  0  0  0  0
    3.3294   52.8085   23.7018 H   0  0  0  0  0  0
    2.3042   51.4066   23.8707 H   0  0  0  0  0  0
    1.4315   54.0608   22.6254 H   0  0  0  0  0  0
    1.9161   52.6415   21.7399 H   0  0  0  0  0  0
    0.1046   51.2900   22.7453 H   0  0  0  0  0  0
   -0.5613   52.6497   21.9226 H   0  0  0  0  0  0
    0.7131   50.8601   26.7225 H   0  0  0  0  0  0
    0.7188   50.3811   25.0365 H   0  0  0  0  0  0
   -1.7268   50.9485   26.7420 H   0  0  0  0  0  0
   -1.2334   49.4130   26.0842 H   0  0  0  0  0  0
   -3.0955   50.4415   24.7629 H   0  0  0  0  0  0
   -1.6812   50.1712   23.7843 H   0  0  0  0  0  0
   -2.6114   52.4286   23.3329 H   0  0  0  0  0  0
   -2.5631   52.8208   25.0267 H   0  0  0  0  0  0
  1  6  2  0  0  0
  1  2  1  0  0  0
  1 23  1  0  0  0
  2  3  2  0  0  0
  2  9  1  0  0  0
  3  4  1  0  0  0
  3 24  1  0  0  0
  4  5  2  0  0  0
  4  8  1  0  0  0
  5  6  1  0  0  0
  6  7  1  0  0  0
  7 25  1  0  0  0
  7 26  1  0  0  0
  9 10  2  0  0  0
  9 11  1  0  0  0
 11 17  1  0  0  0
 11 12  1  0  0  0
 12 13  1  0  0  0
 12 27  1  0  0  0
 12 28  1  0  0  0
 13 14  1  0  0  0
 13 29  1  0  0  0
 13 30  1  0  0  0
 14 15  1  0  0  0
 14 31  1  0  0  0
 14 32  1  0  0  0
 15 16  1  0  0  0
 15 22  1  0  0  0
 15 17  1  0  0  0
 17 18  1  0  0  0
 17 19  1  0  0  0
 19 20  1  0  0  0
 19 33  1  0  0  0
 19 34  1  0  0  0
 20 21  1  0  0  0
 20 35  1  0  0  0
 20 36  1  0  0  0
 21 22  1  0  0  0
 21 37  1  0  0  0
 21 38  1  0  0  0
 22 39  1  0  0  0
 22 40  1  0  0  0
M  END
> <i_i_glide_confnum>
7

> <i_i_glide_lignum>
6169

> <i_i_glide_posenum>
110

> <i_i_glide_rotatable_bonds>
2

> <i_m_Source_File_Index>
1357

> <b_m_subgroup_collapsed>
0

> <r_i_docking_score>
-6.27028

> <r_i_glide_ecoul>
-2.22222

> <r_i_glide_eff_state_penalty>
0

> <r_i_glide_einternal>
1.75199

> <r_i_glide_emodel>
-46.3088

> <r_i_glide_energy>
-33.1239

> <r_i_glide_erotb>
0.296475

> <r_i_glide_esite>
0

> <r_i_glide_evdw>
-30.9017

> <r_i_glide_gscore>
-6.27028

> <r_i_glide_hbond>
-0.184498

> <r_i_glide_ligand_efficiency>
-0.313514

> <r_i_glide_ligand_efficiency_ln>
-1.56925

> <r_i_glide_ligand_efficiency_sa>
-0.851008

> <r_i_glide_lipo>
-1.96818

> <r_i_glide_metal>
0

> <r_i_glide_rewards>
-2.53567

> <s_i_glide_gridfile>
wee1_glide-grid

> <s_m_Source_File>
wee1_decoys_glide_SP.sdf

> <s_m_Source_Path>
/Users/zhangxujun/Desktop

> <s_m_entry_id>
1632

> <s_m_entry_name>
wee1_decoys_glide_SP.1357

> <s_m_subgroup_title>
wee1_decoys_glide_SP

> <s_m_subgroupid>
wee1_decoys_glide_SP


$$$$
