ZINC08974444_3798
                    3D
 Schrodinger Suite 2024-2.
 37 40  0  0  1  0            999 V2000
    1.6129   53.3117   29.3556 C   0  0  0  0  0  0
    2.5461   52.7908   30.2440 C   0  0  0  0  0  0
    3.9045   52.8728   29.9456 C   0  0  0  0  0  0
    4.3572   53.4743   28.7638 C   0  0  0  0  0  0
    3.4069   53.9840   27.8583 C   0  0  0  0  0  0
    2.0444   53.9000   28.1703 C   0  0  0  0  0  0
    3.8724   54.5908   26.5404 C   0  0  0  0  0  0
    5.2809   54.0895   26.1263 C   0  0  2  0  0  0
    5.2748   53.0212   25.9110 H   0  0  0  0  0  0
    6.1961   54.3300   27.2522 N   0  0  0  0  0  0
    5.8515   53.5159   28.4200 C   0  0  0  0  0  0
    5.8343   54.8215   24.8623 C   0  0  0  0  0  0
    6.2883   55.9662   24.9283 O   0  0  0  0  0  0
    5.9377   54.0967   23.6830 N   0  0  0  0  0  0
    4.9140   53.7511   22.9995 C   0  0  0  0  0  0
    4.9528   52.9997   21.8453 N   0  0  0  0  0  0
    5.8422   52.7792   21.4288 H   0  0  0  0  0  0
    3.7533   52.5037   21.3385 C   0  0  0  0  0  0
    3.5759   51.6340   20.2660 C   0  0  0  0  0  0
    2.2958   51.1856   19.9363 C   0  0  0  0  0  0
    1.1940   51.6113   20.6819 C   0  0  0  0  0  0
    1.3712   52.4989   21.7458 C   0  0  0  0  0  0
    2.6560   52.9486   22.0529 C   0  0  0  0  0  0
    3.1514   54.0973   23.2693 S   0  0  0  0  0  0
    0.5570   53.2493   29.5785 H   0  0  0  0  0  0
    2.2149   52.3235   31.1603 H   0  0  0  0  0  0
    4.6163   52.4490   30.6369 H   0  0  0  0  0  0
    1.3095   54.2882   27.4806 H   0  0  0  0  0  0
    3.1176   54.3241   25.8142 H   0  0  0  0  0  0
    3.8565   55.6751   26.5979 H   0  0  0  0  0  0
    6.2360   55.3115   27.4974 H   0  0  0  0  0  0
    6.4146   53.9035   29.2726 H   0  0  0  0  0  0
    6.1965   52.4973   28.2423 H   0  0  0  0  0  0
    4.4138   51.2971   19.6817 H   0  0  0  0  0  0
    2.1655   50.5088   19.1033 H   0  0  0  0  0  0
    0.2044   51.2620   20.4271 H   0  0  0  0  0  0
    0.5147   52.8416   22.3072 H   0  0  0  0  0  0
  1  6  2  0  0  0
  1  2  1  0  0  0
  1 25  1  0  0  0
  2  3  2  0  0  0
  2 26  1  0  0  0
  3  4  1  0  0  0
  3 27  1  0  0  0
  4 11  1  0  0  0
  4  5  2  0  0  0
  5  6  1  0  0  0
  5  7  1  0  0  0
  6 28  1  0  0  0
  7  8  1  0  0  0
  7 29  1  0  0  0
  7 30  1  0  0  0
  8  9  1  0  0  0
  8 10  1  0  0  0
  8 12  1  0  0  0
 10 11  1  0  0  0
 10 31  1  0  0  0
 11 32  1  0  0  0
 11 33  1  0  0  0
 12 13  2  0  0  0
 12 14  1  0  0  0
 14 15  2  0  0  0
 15 24  1  0  0  0
 15 16  1  0  0  0
 16 17  1  0  0  0
 16 18  1  0  0  0
 18 23  2  0  0  0
 18 19  1  0  0  0
 19 20  2  0  0  0
 19 34  1  0  0  0
 20 21  1  0  0  0
 20 35  1  0  0  0
 21 22  2  0  0  0
 21 36  1  0  0  0
 22 23  1  0  0  0
 22 37  1  0  0  0
 23 24  1  0  0  0
M  END
> <i_i_glide_confnum>
7

> <i_i_glide_lignum>
3799

> <i_i_glide_posenum>
209

> <i_i_glide_rotatable_bonds>
2

> <i_m_Source_File_Index>
2584

> <b_m_subgroup_collapsed>
0

> <r_i_docking_score>
-6.16193

> <r_i_glide_ecoul>
-1.71157

> <r_i_glide_eff_state_penalty>
0

> <r_i_glide_einternal>
0.108213

> <r_i_glide_emodel>
-56.1272

> <r_i_glide_energy>
-39.8133

> <r_i_glide_erotb>
0.193433

> <r_i_glide_esite>
0

> <r_i_glide_evdw>
-38.1018

> <r_i_glide_gscore>
-6.16193

> <r_i_glide_hbond>
0

> <r_i_glide_ligand_efficiency>
-0.280088

> <r_i_glide_ligand_efficiency_ln>
-1.5062

> <r_i_glide_ligand_efficiency_sa>
-0.784817

> <r_i_glide_lipo>
-2.37607

> <r_i_glide_metal>
0

> <r_i_glide_rewards>
-1.81747

> <s_i_glide_gridfile>
wee1_glide-grid

> <s_m_Source_File>
wee1_decoys_glide_SP.sdf

> <s_m_Source_Path>
/Users/zhangxujun/Desktop

> <s_m_entry_id>
2859

> <s_m_entry_name>
wee1_decoys_glide_SP.2584

> <s_m_subgroup_title>
wee1_decoys_glide_SP

> <s_m_subgroupid>
wee1_decoys_glide_SP


$$$$
