ZINC39966335_3739
                    3D
 Schrodinger Suite 2024-2.
 54 57  0  0  1  0            999 V2000
   -5.4962   44.6137   23.6793 C   0  0  0  0  0  0
   -5.0890   45.3025   24.9793 C   0  0  0  0  0  0
   -4.4885   46.5882   25.0498 C   0  0  0  0  0  0
   -4.2173   46.9840   26.3685 C   0  0  0  0  0  0
   -4.5610   45.7418   27.5133 S   0  0  0  0  0  0
   -5.1487   44.6939   26.2500 C   0  0  0  0  0  0
   -5.7466   43.4171   26.5843 C   0  0  0  0  0  0
   -6.6385   42.9192   25.9052 O   0  0  0  0  0  0
   -5.2956   42.8094   27.6810 N   0  0  0  0  0  0
   -3.6956   48.1607   26.8813 N   0  0  0  0  0  0
   -4.1962   49.3887   26.6533 C   0  0  0  0  0  0
   -5.1704   49.6191   25.9342 O   0  0  0  0  0  0
   -3.4954   50.5285   27.3997 C   0  0  0  0  0  0
   -3.4148   52.0981   26.4790 S   0  0  0  0  0  0
   -1.7620   51.9344   25.8924 C   0  0  0  0  0  0
   -0.7053   52.2704   26.5912 N   0  0  0  0  0  0
    0.4147   52.0371   25.7994 N   0  0  0  0  0  0
   -0.0117   51.5474   24.6607 C   0  0  0  0  0  0
   -1.3880   51.4532   24.6560 N   0  0  0  0  0  0
   -2.2433   50.9701   23.5802 C   0  0  0  0  0  0
    0.8540   51.1686   23.5500 C   0  0  0  0  0  0
    0.9546   49.8570   23.1223 C   0  0  0  0  0  0
    2.0347   49.6835   21.7997 S   0  0  0  0  0  0
    2.3711   51.3890   21.7776 C   0  0  0  0  0  0
    1.6848   52.0459   22.8129 C   0  0  0  0  0  0
    1.8566   53.5357   23.0640 C   0  0  0  0  0  0
    3.3129   53.9493   23.3656 C   0  0  0  0  0  0
    4.2639   54.0064   22.1495 C   0  0  0  0  0  0
    4.5458   52.6770   21.4142 C   0  0  0  0  0  0
    3.3107   52.0207   20.7716 C   0  0  0  0  0  0
   -4.1883   47.3999   23.8730 C   0  0  0  0  0  0
   -3.9486   48.0377   22.9379 N   0  0  0  0  0  0
   -5.2963   43.5423   23.7034 H   0  0  0  0  0  0
   -6.5637   44.7273   23.4875 H   0  0  0  0  0  0
   -4.9587   44.9811   22.8052 H   0  0  0  0  0  0
   -4.3897   43.0657   28.0816 H   0  0  0  0  0  0
   -5.7299   41.9419   27.9570 H   0  0  0  0  0  0
   -2.9586   48.0950   27.5882 H   0  0  0  0  0  0
   -4.0642   50.7075   28.3111 H   0  0  0  0  0  0
   -2.4961   50.2330   27.7194 H   0  0  0  0  0  0
   -1.9004   49.9900   23.2503 H   0  0  0  0  0  0
   -3.2752   50.8834   23.9194 H   0  0  0  0  0  0
   -2.2066   51.6754   22.7507 H   0  0  0  0  0  0
    0.4575   48.9899   23.5318 H   0  0  0  0  0  0
    1.5036   54.0962   22.1979 H   0  0  0  0  0  0
    1.2244   53.8687   23.8873 H   0  0  0  0  0  0
    3.7301   53.2970   24.1343 H   0  0  0  0  0  0
    3.2920   54.9412   23.8167 H   0  0  0  0  0  0
    5.2174   54.4193   22.4821 H   0  0  0  0  0  0
    3.8724   54.7299   21.4325 H   0  0  0  0  0  0
    5.0402   51.9705   22.0817 H   0  0  0  0  0  0
    5.2692   52.8792   20.6229 H   0  0  0  0  0  0
    3.6301   51.2885   20.0277 H   0  0  0  0  0  0
    2.7793   52.7902   20.2092 H   0  0  0  0  0  0
  1  2  1  0  0  0
  1 33  1  0  0  0
  1 34  1  0  0  0
  1 35  1  0  0  0
  2  6  2  0  0  0
  2  3  1  0  0  0
  3  4  2  0  0  0
  3 31  1  0  0  0
  4  5  1  0  0  0
  4 10  1  0  0  0
  5  6  1  0  0  0
  6  7  1  0  0  0
  7  8  2  0  0  0
  7  9  1  0  0  0
  9 36  1  0  0  0
  9 37  1  0  0  0
 10 11  1  0  0  0
 10 38  1  0  0  0
 11 12  2  0  0  0
 11 13  1  0  0  0
 13 14  1  0  0  0
 13 39  1  0  0  0
 13 40  1  0  0  0
 14 15  1  0  0  0
 15 19  1  0  0  0
 15 16  2  0  0  0
 16 17  1  0  0  0
 17 18  2  0  0  0
 18 19  1  0  0  0
 18 21  1  0  0  0
 19 20  1  0  0  0
 20 41  1  0  0  0
 20 42  1  0  0  0
 20 43  1  0  0  0
 21 25  1  0  0  0
 21 22  2  0  0  0
 22 23  1  0  0  0
 22 44  1  0  0  0
 23 24  1  0  0  0
 24 30  1  0  0  0
 24 25  2  0  0  0
 25 26  1  0  0  0
 26 27  1  0  0  0
 26 45  1  0  0  0
 26 46  1  0  0  0
 27 28  1  0  0  0
 27 47  1  0  0  0
 27 48  1  0  0  0
 28 29  1  0  0  0
 28 49  1  0  0  0
 28 50  1  0  0  0
 29 30  1  0  0  0
 29 51  1  0  0  0
 29 52  1  0  0  0
 30 53  1  0  0  0
 30 54  1  0  0  0
 31 32  3  0  0  0
M  END
> <i_i_glide_confnum>
183

> <i_i_glide_lignum>
3740

> <i_i_glide_posenum>
399

> <i_i_glide_rotatable_bonds>
8

> <i_m_Source_File_Index>
2898

> <b_m_subgroup_collapsed>
0

> <r_i_docking_score>
-4.49626

> <r_i_glide_ecoul>
-9.05184

> <r_i_glide_eff_state_penalty>
0

> <r_i_glide_einternal>
12.3768

> <r_i_glide_emodel>
-52.0381

> <r_i_glide_energy>
-43.1381

> <r_i_glide_erotb>
0.514925

> <r_i_glide_esite>
-0.281515

> <r_i_glide_evdw>
-34.0863

> <r_i_glide_gscore>
-4.49626

> <r_i_glide_hbond>
-0.304

> <r_i_glide_ligand_efficiency>
-0.140508

> <r_i_glide_ligand_efficiency_ln>
-1.00684

> <r_i_glide_ligand_efficiency_sa>
-0.446085

> <r_i_glide_lipo>
-1.22738

> <r_i_glide_metal>
0

> <r_i_glide_rewards>
-0.136199

> <s_i_glide_gridfile>
wee1_glide-grid

> <s_m_Source_File>
wee1_decoys_glide_SP.sdf

> <s_m_Source_Path>
/Users/zhangxujun/Desktop

> <s_m_entry_id>
3173

> <s_m_entry_name>
wee1_decoys_glide_SP.2898

> <s_m_subgroup_title>
wee1_decoys_glide_SP

> <s_m_subgroupid>
wee1_decoys_glide_SP


$$$$
