ZINC54278072_1384
                    3D
 Schrodinger Suite 2024-2.
 53 57  0  0  1  0            999 V2000
   -2.8863   46.0965   26.2491 C   0  0  0  0  0  0
   -2.4621   46.9858   25.3386 C   0  0  0  0  0  0
   -2.9658   47.0462   23.9734 C   0  0  0  0  0  0
   -2.5836   47.9947   23.0965 C   0  0  0  0  0  0
   -3.0564   48.0705   21.9026 O   0  5  0  0  0  0
   -1.6593   49.0070   23.4746 N   0  0  0  0  0  0
   -1.1623   49.0750   24.8333 C   0  0  0  0  0  0
   -1.5441   47.9892   25.6817 N   0  0  0  0  0  0
   -0.4607   50.0522   25.2706 N   0  0  0  0  0  0
   -0.2097   51.1204   24.4933 C   0  0  0  0  0  0
   -0.6810   51.2270   23.2412 N   0  3  0  0  0  0
   -1.1729   50.0433   22.5319 C   0  0  1  0  0  0
   -2.0353   50.4135   21.9744 H   0  0  0  0  0  0
   -0.1680   49.5390   21.5037 C   0  0  0  0  0  0
    1.1635   49.2970   21.8618 C   0  0  0  0  0  0
    2.0741   48.8977   20.8858 C   0  0  0  0  0  0
    1.6278   48.7370   19.5727 C   0  0  0  0  0  0
    0.3369   48.9434   19.2068 N   0  0  0  0  0  0
   -0.5376   49.3391   20.1679 C   0  0  0  0  0  0
    0.5337   52.1338   25.0014 N   0  0  0  0  0  0
    0.7818   52.2956   26.4591 C   0  0  0  0  0  0
    1.7643   53.4353   26.8455 C   0  0  0  0  0  0
    2.8764   53.6183   25.8993 N   0  0  0  0  0  0
    2.4217   53.6995   24.4973 C   0  0  0  0  0  0
    0.9453   53.3302   24.2327 C   0  0  0  0  0  0
    4.1931   53.9256   26.2725 C   0  0  0  0  0  0
    4.6743   53.6225   27.5588 C   0  0  0  0  0  0
    5.9999   53.8624   27.9038 C   0  0  0  0  0  0
    6.8664   54.4173   26.9728 C   0  0  0  0  0  0
    6.4176   54.7449   25.6963 C   0  0  0  0  0  0
    5.0912   54.4968   25.3514 C   0  0  0  0  0  0
   -2.4896   46.0951   27.2574 H   0  0  0  0  0  0
   -3.6405   45.3613   26.0177 H   0  0  0  0  0  0
   -3.7051   46.3256   23.6544 H   0  0  0  0  0  0
    1.4948   49.4261   22.8833 H   0  0  0  0  0  0
    3.1038   48.7247   21.1505 H   0  0  0  0  0  0
    2.3126   48.4430   18.7866 H   0  0  0  0  0  0
   -1.5572   49.4966   19.8454 H   0  0  0  0  0  0
   -0.1785   52.4205   26.9602 H   0  0  0  0  0  0
    1.1805   51.3451   26.8138 H   0  0  0  0  0  0
    1.2327   54.3859   26.8813 H   0  0  0  0  0  0
    2.1022   53.2629   27.8644 H   0  0  0  0  0  0
    3.0378   52.9973   23.9329 H   0  0  0  0  0  0
    2.5681   54.7186   24.1371 H   0  0  0  0  0  0
    0.8289   53.1712   23.1628 H   0  0  0  0  0  0
    0.2797   54.1546   24.4768 H   0  0  0  0  0  0
    4.0536   53.1520   28.3022 H   0  0  0  0  0  0
    6.3657   53.6007   28.8830 H   0  0  0  0  0  0
    7.9005   54.5736   27.2545 H   0  0  0  0  0  0
    7.0969   55.1678   24.9675 H   0  0  0  0  0  0
    4.7808   54.7435   24.3466 H   0  0  0  0  0  0
   -1.2954   48.0974   26.6627 H   0  0  0  0  0  0
   -0.4391   52.0501   22.7143 H   0  0  0  0  0  0
  1  2  2  0  0  0
  1 32  1  0  0  0
  1 33  1  0  0  0
  2  8  1  0  0  0
  2  3  1  0  0  0
  3  4  2  0  0  0
  3 34  1  0  0  0
  4  5  1  0  0  0
  4  6  1  0  0  0
  6 12  1  0  0  0
  6  7  1  0  0  0
  7  8  1  0  0  0
  7  9  2  0  0  0
  8 52  1  0  0  0
  9 10  1  0  0  0
 10 11  2  0  0  0
 10 20  1  0  0  0
 11 12  1  0  0  0
 11 53  1  0  0  0
 12 13  1  0  0  0
 12 14  1  0  0  0
 14 19  2  0  0  0
 14 15  1  0  0  0
 15 16  2  0  0  0
 15 35  1  0  0  0
 16 17  1  0  0  0
 16 36  1  0  0  0
 17 18  2  0  0  0
 17 37  1  0  0  0
 18 19  1  0  0  0
 19 38  1  0  0  0
 20 25  1  0  0  0
 20 21  1  0  0  0
 21 22  1  0  0  0
 21 39  1  0  0  0
 21 40  1  0  0  0
 22 23  1  0  0  0
 22 41  1  0  0  0
 22 42  1  0  0  0
 23 24  1  0  0  0
 23 26  1  0  0  0
 24 25  1  0  0  0
 24 43  1  0  0  0
 24 44  1  0  0  0
 25 45  1  0  0  0
 25 46  1  0  0  0
 26 31  2  0  0  0
 26 27  1  0  0  0
 27 28  2  0  0  0
 27 47  1  0  0  0
 28 29  1  0  0  0
 28 48  1  0  0  0
 29 30  2  0  0  0
 29 49  1  0  0  0
 30 31  1  0  0  0
 30 50  1  0  0  0
 31 51  1  0  0  0
M  CHG  2   5  -1  11   1
M  END
> <i_i_glide_confnum>
61

> <i_i_glide_lignum>
1385

> <i_i_glide_posenum>
283

> <i_i_glide_rotatable_bonds>
3

> <i_m_Source_File_Index>
1005

> <b_m_subgroup_collapsed>
0

> <r_i_docking_score>
-5.34294

> <r_i_glide_ecoul>
-1.98566

> <r_i_glide_eff_state_penalty>
0

> <r_i_glide_einternal>
1.46376

> <r_i_glide_emodel>
-49.4698

> <r_i_glide_energy>
-35.6734

> <r_i_glide_erotb>
0.36509

> <r_i_glide_esite>
-0.105676

> <r_i_glide_evdw>
-33.6877

> <r_i_glide_gscore>
-5.34294

> <r_i_glide_hbond>
-0.16

> <r_i_glide_ligand_efficiency>
-0.178098

> <r_i_glide_ligand_efficiency_ln>
-1.21397

> <r_i_glide_ligand_efficiency_sa>
-0.553392

> <r_i_glide_lipo>
-2.33771

> <r_i_glide_metal>
0

> <r_i_glide_rewards>
-1.1224

> <s_i_glide_gridfile>
wee1_glide-grid

> <s_m_Source_File>
wee1_decoys_glide_SP.sdf

> <s_m_Source_Path>
/Users/zhangxujun/Desktop

> <s_m_entry_id>
1280

> <s_m_entry_name>
wee1_decoys_glide_SP.1005

> <s_m_subgroup_title>
wee1_decoys_glide_SP

> <s_m_subgroupid>
wee1_decoys_glide_SP


$$$$
