ZINC13184333_3297
                    3D
 Schrodinger Suite 2024-2.
 59 61  0  0  1  0            999 V2000
    6.5602   56.0381   24.3389 C   0  0  0  0  0  0
    6.0454   54.6880   24.1873 N   0  0  0  0  0  0
    5.6407   54.0588   25.4636 C   0  0  0  0  0  0
    4.1149   54.0862   25.7180 C   0  0  0  0  0  0
    3.3370   54.5113   24.8622 O   0  0  0  0  0  0
    3.7425   53.5414   26.8975 N   0  0  0  0  0  0
    2.4864   53.0481   27.3403 C   0  0  0  0  0  0
    1.3946   52.9106   26.4622 C   0  0  0  0  0  0
    0.1881   52.3642   26.8896 C   0  0  0  0  0  0
    0.0446   51.9384   28.2031 C   0  0  0  0  0  0
    1.1130   52.0480   29.0853 C   0  0  0  0  0  0
    2.3479   52.5826   28.6787 C   0  0  0  0  0  0
    3.4690   52.6130   29.6827 C   0  0  0  0  0  0
    3.5034   51.7054   30.5479 O   0  0  0  0  0  0
    5.9021   54.0580   22.9781 C   0  0  0  0  0  0
    5.5051   52.8977   22.8816 O   0  0  0  0  0  0
    6.1671   54.7773   21.6724 C   0  0  0  0  0  0
    7.4082   55.3595   21.3728 C   0  0  0  0  0  0
    7.6295   55.9412   20.1283 C   0  0  0  0  0  0
    6.6193   55.9383   19.1671 C   0  0  0  0  0  0
    5.4030   55.3110   19.4344 C   0  0  0  0  0  0
    5.1786   54.7391   20.6811 C   0  0  0  0  0  0
    6.9289   56.7536   17.6018 S   0  0  0  0  0  0
    7.4147   58.0953   17.9466 O   0  0  0  0  0  0
    7.7760   55.8356   16.8322 O   0  0  0  0  0  0
    5.3623   56.9066   16.7664 N   0  0  0  0  0  0
    4.4703   58.0141   17.2015 C   0  0  0  0  0  0
    3.5040   58.5460   16.1298 C   0  0  0  0  0  0
    2.2419   57.6939   15.9222 C   0  0  0  0  0  0
    2.4708   56.3200   15.2778 C   0  0  0  0  0  0
    3.4209   55.3824   16.0439 C   0  0  0  0  0  0
    4.9166   55.7458   15.9444 C   0  0  0  0  0  0
    6.7221   56.4967   23.3786 H   0  0  0  0  0  0
    5.8560   56.6577   24.8916 H   0  0  0  0  0  0
    7.5057   56.0303   24.8796 H   0  0  0  0  0  0
    6.1532   54.5404   26.2964 H   0  0  0  0  0  0
    5.9686   53.0242   25.4565 H   0  0  0  0  0  0
    4.4736   53.3968   27.5839 H   0  0  0  0  0  0
    1.4527   53.2058   25.4278 H   0  0  0  0  0  0
   -0.6355   52.2638   26.2000 H   0  0  0  0  0  0
   -0.8881   51.5060   28.5381 H   0  0  0  0  0  0
    0.9719   51.6960   30.0977 H   0  0  0  0  0  0
    8.2221   55.3482   22.0808 H   0  0  0  0  0  0
    8.5866   56.3961   19.9113 H   0  0  0  0  0  0
    4.6143   55.2775   18.6996 H   0  0  0  0  0  0
    4.2261   54.2615   20.8704 H   0  0  0  0  0  0
    3.9177   57.6906   18.0815 H   0  0  0  0  0  0
    5.1028   58.8444   17.5176 H   0  0  0  0  0  0
    3.1621   59.5309   16.4517 H   0  0  0  0  0  0
    4.0289   58.7113   15.1881 H   0  0  0  0  0  0
    1.7301   57.5673   16.8781 H   0  0  0  0  0  0
    1.5439   58.2543   15.2981 H   0  0  0  0  0  0
    2.8343   56.4519   14.2572 H   0  0  0  0  0  0
    1.5016   55.8268   15.1794 H   0  0  0  0  0  0
    3.3018   54.3864   15.6150 H   0  0  0  0  0  0
    3.1033   55.2851   17.0831 H   0  0  0  0  0  0
    5.1077   56.0018   14.9011 H   0  0  0  0  0  0
    5.5313   54.8781   16.1861 H   0  0  0  0  0  0
    4.3048   53.5415   29.6032 O   0  5  0  0  0  0
  1  2  1  0  0  0
  1 33  1  0  0  0
  1 34  1  0  0  0
  1 35  1  0  0  0
  2  3  1  0  0  0
  2 15  1  0  0  0
  3  4  1  0  0  0
  3 36  1  0  0  0
  3 37  1  0  0  0
  4  5  2  0  0  0
  4  6  1  0  0  0
  6  7  1  0  0  0
  6 38  1  0  0  0
  7 12  2  0  0  0
  7  8  1  0  0  0
  8  9  2  0  0  0
  8 39  1  0  0  0
  9 10  1  0  0  0
  9 40  1  0  0  0
 10 11  2  0  0  0
 10 41  1  0  0  0
 11 12  1  0  0  0
 11 42  1  0  0  0
 12 13  1  0  0  0
 13 14  2  0  0  0
 13 59  1  0  0  0
 15 16  2  0  0  0
 15 17  1  0  0  0
 17 22  2  0  0  0
 17 18  1  0  0  0
 18 19  2  0  0  0
 18 43  1  0  0  0
 19 20  1  0  0  0
 19 44  1  0  0  0
 20 21  2  0  0  0
 20 23  1  0  0  0
 21 22  1  0  0  0
 21 45  1  0  0  0
 22 46  1  0  0  0
 23 24  2  0  0  0
 23 25  2  0  0  0
 23 26  1  0  0  0
 26 32  1  0  0  0
 26 27  1  0  0  0
 27 28  1  0  0  0
 27 47  1  0  0  0
 27 48  1  0  0  0
 28 29  1  0  0  0
 28 49  1  0  0  0
 28 50  1  0  0  0
 29 30  1  0  0  0
 29 51  1  0  0  0
 29 52  1  0  0  0
 30 31  1  0  0  0
 30 53  1  0  0  0
 30 54  1  0  0  0
 31 32  1  0  0  0
 31 55  1  0  0  0
 31 56  1  0  0  0
 32 57  1  0  0  0
 32 58  1  0  0  0
M  CHG  1  59  -1
M  END
> <i_i_glide_confnum>
270

> <i_i_glide_lignum>
3298

> <i_i_glide_posenum>
381

> <i_i_glide_rotatable_bonds>
9

> <i_m_Source_File_Index>
5970

> <b_m_subgroup_collapsed>
0

> <r_i_docking_score>
-3.72206

> <r_i_glide_ecoul>
-6.08787

> <r_i_glide_eff_state_penalty>
0

> <r_i_glide_einternal>
9.16898

> <r_i_glide_emodel>
-45.8608

> <r_i_glide_energy>
-42.4595

> <r_i_glide_erotb>
0.724469

> <r_i_glide_esite>
-0.0271801

> <r_i_glide_evdw>
-36.3716

> <r_i_glide_gscore>
-3.72206

> <r_i_glide_hbond>
-0.16

> <r_i_glide_ligand_efficiency>
-0.11279

> <r_i_glide_ligand_efficiency_ln>
-0.827767

> <r_i_glide_ligand_efficiency_sa>
-0.361777

> <r_i_glide_lipo>
-1.94831

> <r_i_glide_metal>
0

> <r_i_glide_rewards>
0.42072

> <s_i_glide_gridfile>
wee1_glide-grid

> <s_m_Source_File>
wee1_decoys_glide_SP.sdf

> <s_m_Source_Path>
/Users/zhangxujun/Desktop

> <s_m_entry_id>
6245

> <s_m_entry_name>
wee1_decoys_glide_SP.5970

> <s_m_subgroup_title>
wee1_decoys_glide_SP

> <s_m_subgroupid>
wee1_decoys_glide_SP


$$$$
