ZINC20876875_5435
                    3D
 Schrodinger Suite 2024-2.
 58 62  0  0  1  0            999 V2000
    3.9169   51.9814   31.5271 C   0  0  0  0  0  0
    3.6773   51.7111   30.1503 O   0  0  0  0  0  0
    2.6278   52.4244   29.6257 C   0  0  0  0  0  0
    1.4959   51.7160   29.2374 C   0  0  0  0  0  0
    0.3627   52.3731   28.7636 C   0  0  0  0  0  0
    0.3601   53.7671   28.7023 C   0  0  0  0  0  0
    1.5039   54.4914   29.0496 C   0  0  0  0  0  0
    2.6657   53.8188   29.4505 C   0  0  0  0  0  0
    3.8354   54.5390   29.5557 O   0  0  0  0  0  0
    4.9592   54.1239   28.7530 C   0  0  0  0  0  0
    4.8162   54.2632   27.2239 C   0  0  0  0  0  0
    3.6191   54.0246   26.5247 C   0  0  0  0  0  0
    3.5570   54.0963   25.1357 C   0  0  0  0  0  0
    4.7116   54.3604   24.4145 C   0  0  0  0  0  0
    5.9190   54.6015   25.0846 C   0  0  0  0  0  0
    5.9693   54.5531   26.4788 C   0  0  0  0  0  0
    7.1044   54.7824   24.4042 O   0  0  0  0  0  0
    6.9603   55.0457   22.9992 C   0  0  0  0  0  0
    5.8515   54.1663   22.3750 C   0  0  0  0  0  0
    4.6080   54.3953   23.0409 O   0  0  0  0  0  0
    1.5048   56.3913   28.8833 Br  0  0  0  0  0  0
   -0.8426   51.5494   28.3475 C   0  0  0  0  0  0
   -0.4952   50.4968   27.2813 N   0  3  0  0  0  0
   -0.6030   50.9147   25.8078 C   0  0  0  0  0  0
   -2.0267   51.1822   25.3556 C   0  0  0  0  0  0
   -2.4255   52.4948   25.0459 C   0  0  0  0  0  0
   -3.7292   52.7703   24.6132 C   0  0  0  0  0  0
   -4.6060   51.6971   24.5023 C   0  0  0  0  0  0
   -4.2236   50.4184   24.7937 C   0  0  0  0  0  0
   -2.9342   50.1171   25.2207 C   0  0  0  0  0  0
   -5.2627   49.5742   24.5618 O   0  0  0  0  0  0
   -6.3735   50.3959   24.3201 C   0  0  0  0  0  0
   -5.8991   51.6953   24.0850 O   0  0  0  0  0  0
    4.6677   51.2969   31.9078 H   0  0  0  0  0  0
    4.3044   52.9873   31.6788 H   0  0  0  0  0  0
    3.0176   51.8530   32.1325 H   0  0  0  0  0  0
    1.5044   50.6411   29.2888 H   0  0  0  0  0  0
   -0.5112   54.2923   28.3475 H   0  0  0  0  0  0
    5.7913   54.7489   29.0818 H   0  0  0  0  0  0
    5.2679   53.1043   28.9772 H   0  0  0  0  0  0
    2.7090   53.7350   27.0073 H   0  0  0  0  0  0
    2.6281   53.9090   24.6184 H   0  0  0  0  0  0
    6.9153   54.7026   26.9785 H   0  0  0  0  0  0
    7.9042   54.8676   22.4820 H   0  0  0  0  0  0
    6.7064   56.0965   22.8588 H   0  0  0  0  0  0
    6.1250   53.1153   22.4829 H   0  0  0  0  0  0
    5.7401   54.3798   21.3120 H   0  0  0  0  0  0
   -1.6851   52.1212   27.9616 H   0  0  0  0  0  0
   -1.1884   50.9447   29.1899 H   0  0  0  0  0  0
   -1.0620   49.6588   27.4630 H   0  0  0  0  0  0
   -0.1696   50.0749   25.2608 H   0  0  0  0  0  0
    0.0520   51.7833   25.7034 H   0  0  0  0  0  0
   -1.7116   53.2968   25.1373 H   0  0  0  0  0  0
   -4.0337   53.7780   24.3740 H   0  0  0  0  0  0
   -2.6427   49.1005   25.4466 H   0  0  0  0  0  0
   -6.9379   50.0342   23.4601 H   0  0  0  0  0  0
   -7.0148   50.3987   25.2037 H   0  0  0  0  0  0
    0.4518   50.1955   27.4567 H   0  0  0  0  0  0
  1  2  1  0  0  0
  1 34  1  0  0  0
  1 35  1  0  0  0
  1 36  1  0  0  0
  2  3  1  0  0  0
  3  8  2  0  0  0
  3  4  1  0  0  0
  4  5  2  0  0  0
  4 37  1  0  0  0
  5  6  1  0  0  0
  5 22  1  0  0  0
  6  7  2  0  0  0
  6 38  1  0  0  0
  7  8  1  0  0  0
  7 21  1  0  0  0
  8  9  1  0  0  0
  9 10  1  0  0  0
 10 11  1  0  0  0
 10 39  1  0  0  0
 10 40  1  0  0  0
 11 16  2  0  0  0
 11 12  1  0  0  0
 12 13  2  0  0  0
 12 41  1  0  0  0
 13 14  1  0  0  0
 13 42  1  0  0  0
 14 20  1  0  0  0
 14 15  2  0  0  0
 15 16  1  0  0  0
 15 17  1  0  0  0
 16 43  1  0  0  0
 17 18  1  0  0  0
 18 19  1  0  0  0
 18 44  1  0  0  0
 18 45  1  0  0  0
 19 20  1  0  0  0
 19 46  1  0  0  0
 19 47  1  0  0  0
 22 23  1  0  0  0
 22 48  1  0  0  0
 22 49  1  0  0  0
 23 24  1  0  0  0
 23 50  1  0  0  0
 23 58  1  0  0  0
 24 25  1  0  0  0
 24 51  1  0  0  0
 24 52  1  0  0  0
 25 30  2  0  0  0
 25 26  1  0  0  0
 26 27  2  0  0  0
 26 53  1  0  0  0
 27 28  1  0  0  0
 27 54  1  0  0  0
 28 33  1  0  0  0
 28 29  2  0  0  0
 29 30  1  0  0  0
 29 31  1  0  0  0
 30 55  1  0  0  0
 31 32  1  0  0  0
 32 33  1  0  0  0
 32 56  1  0  0  0
 32 57  1  0  0  0
M  CHG  1  23   1
M  END
> <i_i_glide_confnum>
191

> <i_i_glide_lignum>
5436

> <i_i_glide_posenum>
109

> <i_i_glide_rotatable_bonds>
8

> <i_m_Source_File_Index>
5958

> <b_m_subgroup_collapsed>
0

> <r_i_docking_score>
-6.66028

> <r_i_glide_ecoul>
-3.39304

> <r_i_glide_eff_state_penalty>
0

> <r_i_glide_einternal>
10.4392

> <r_i_glide_emodel>
-67.8769

> <r_i_glide_energy>
-49.4156

> <r_i_glide_erotb>
0.463508

> <r_i_glide_esite>
-0.1

> <r_i_glide_evdw>
-46.0225

> <r_i_glide_gscore>
-6.66028

> <r_i_glide_hbond>
-0.559726

> <r_i_glide_ligand_efficiency>
-0.201827

> <r_i_glide_ligand_efficiency_ln>
-1.48121

> <r_i_glide_ligand_efficiency_sa>
-0.647366

> <r_i_glide_lipo>
-3.55899

> <r_i_glide_metal>
0

> <r_i_glide_rewards>
-0.0949891

> <s_i_glide_gridfile>
wee1_glide-grid

> <s_m_Source_File>
wee1_decoys_glide_SP.sdf

> <s_m_Source_Path>
/Users/zhangxujun/Desktop

> <s_m_entry_id>
6233

> <s_m_entry_name>
wee1_decoys_glide_SP.5958

> <s_m_subgroup_title>
wee1_decoys_glide_SP

> <s_m_subgroupid>
wee1_decoys_glide_SP


$$$$
