ZINC43746352_1198
                    3D
 Schrodinger Suite 2024-2.
 77 83  0  0  1  0            999 V2000
    2.2448   54.7790   27.5424 C   0  0  0  0  0  0
    2.8202   53.4064   27.1083 C   0  0  1  0  0  0
    4.3626   53.4212   27.3258 C   0  0  0  0  0  0
    4.7633   53.6683   28.7931 C   0  0  0  0  0  0
    4.0883   52.6459   29.7305 C   0  0  0  0  0  0
    2.5703   52.4684   29.4750 C   0  0  2  0  0  0
    2.2062   52.2699   27.9750 C   0  0  1  0  0  0
    2.7033   51.3506   27.6821 H   0  0  0  0  0  0
    0.7069   51.9806   27.6586 C   0  0  0  0  0  0
    0.1589   52.2410   26.2255 C   0  0  1  0  0  0
   -0.7980   52.7659   26.3020 H   0  0  0  0  0  0
    1.0440   53.0722   25.2771 C   0  0  1  0  0  0
    0.7051   54.0968   25.2438 H   0  0  0  0  0  0
    2.5356   53.0854   25.6093 C   0  0  0  0  0  0
    0.8240   52.5456   23.9767 O   0  0  0  0  0  0
    0.1563   51.3815   24.0120 C   0  0  0  0  0  0
   -0.2381   50.8338   22.9837 O   0  0  0  0  0  0
   -0.0460   50.9341   25.4645 C   0  0  2  0  0  0
    0.7425   50.2176   25.6971 H   0  0  0  0  0  0
   -1.4393   50.3035   25.7376 C   0  0  0  0  0  0
   -1.7790   49.1671   24.7420 N   0  3  1  0  0  0
   -1.0019   47.8706   25.0618 C   0  0  0  0  0  0
   -1.8845   46.7218   24.5833 C   0  0  0  0  0  0
   -3.1657   47.3451   24.0397 C   0  0  0  0  0  0
   -3.2751   48.7741   24.6207 C   0  0  2  0  0  0
   -3.5875   48.6940   25.6655 H   0  0  0  0  0  0
   -4.2615   49.7476   23.8474 C   0  0  0  0  0  0
   -5.6656   49.1222   23.6212 C   0  0  0  0  0  0
   -6.3935   49.4260   22.4570 C   0  0  0  0  0  0
   -7.6589   48.8841   22.2439 C   0  0  0  0  0  0
   -8.2142   48.0376   23.1965 C   0  0  0  0  0  0
   -7.5200   47.7363   24.3639 C   0  0  0  0  0  0
   -6.2561   48.2796   24.5771 C   0  0  0  0  0  0
   -4.4387   51.0950   24.5982 C   0  0  0  0  0  0
   -3.9264   52.3002   24.0840 C   0  0  0  0  0  0
   -4.0951   53.5010   24.7663 C   0  0  0  0  0  0
   -4.7651   53.5111   25.9852 C   0  0  0  0  0  0
   -5.2629   52.3287   26.5238 C   0  0  0  0  0  0
   -5.0962   51.1289   25.8387 C   0  0  0  0  0  0
   -3.6124   49.9343   22.5894 O   0  0  0  0  0  0
    1.5730   53.0626   30.4282 C   0  0  0  0  0  0
    1.8933   51.6973   30.4192 O   0  0  0  0  0  0
    2.2981   54.9470   28.6158 H   0  0  0  0  0  0
    2.8268   55.5811   27.1007 H   0  0  0  0  0  0
    1.1958   54.8957   27.2820 H   0  0  0  0  0  0
    4.8167   52.4969   26.9773 H   0  0  0  0  0  0
    4.8141   54.2008   26.7104 H   0  0  0  0  0  0
    5.8486   53.5984   28.8826 H   0  0  0  0  0  0
    4.5087   54.6832   29.0995 H   0  0  0  0  0  0
    4.2764   52.9058   30.7724 H   0  0  0  0  0  0
    4.5729   51.6805   29.5874 H   0  0  0  0  0  0
    0.1656   52.7575   28.1918 H   0  0  0  0  0  0
    0.3175   51.0800   28.1374 H   0  0  0  0  0  0
    2.9558   52.1327   25.3065 H   0  0  0  0  0  0
    3.0100   53.8584   25.0028 H   0  0  0  0  0  0
   -2.2066   51.0578   25.6368 H   0  0  0  0  0  0
   -1.5363   49.8909   26.7444 H   0  0  0  0  0  0
   -0.8956   47.8158   26.1460 H   0  0  0  0  0  0
   -0.0149   47.9385   24.5972 H   0  0  0  0  0  0
   -2.1091   46.0763   25.4335 H   0  0  0  0  0  0
   -1.3812   46.1125   23.8317 H   0  0  0  0  0  0
   -4.0522   46.7390   24.2330 H   0  0  0  0  0  0
   -3.0871   47.3909   22.9519 H   0  0  0  0  0  0
   -5.9907   50.0994   21.7150 H   0  0  0  0  0  0
   -8.2104   49.1237   21.3458 H   0  0  0  0  0  0
   -9.1984   47.6224   23.0336 H   0  0  0  0  0  0
   -7.9623   47.0883   25.1048 H   0  0  0  0  0  0
   -5.7454   48.0359   25.4957 H   0  0  0  0  0  0
   -3.3907   52.3204   23.1460 H   0  0  0  0  0  0
   -3.7042   54.4180   24.3492 H   0  0  0  0  0  0
   -4.8950   54.4405   26.5189 H   0  0  0  0  0  0
   -5.7813   52.3377   27.4709 H   0  0  0  0  0  0
   -5.4889   50.2267   26.2832 H   0  0  0  0  0  0
   -3.5892   49.0908   22.1331 H   0  0  0  0  0  0
    1.9043   53.6265   31.2819 H   0  0  0  0  0  0
    0.5488   53.3067   30.1594 H   0  0  0  0  0  0
   -1.5025   49.4890   23.8183 H   0  0  0  0  0  0
  1  2  1  0  0  0
  1 43  1  0  0  0
  1 44  1  0  0  0
  1 45  1  0  0  0
  2  7  1  0  0  0
  2 14  1  0  0  0
  2  3  1  0  0  0
  3  4  1  0  0  0
  3 46  1  0  0  0
  3 47  1  0  0  0
  4  5  1  0  0  0
  4 48  1  0  0  0
  4 49  1  0  0  0
  5  6  1  0  0  0
  5 50  1  0  0  0
  5 51  1  0  0  0
  6 42  1  0  0  0
  6  7  1  0  0  0
  6 41  1  0  0  0
  7  8  1  0  0  0
  7  9  1  0  0  0
  9 10  1  0  0  0
  9 52  1  0  0  0
  9 53  1  0  0  0
 10 11  1  0  0  0
 10 18  1  0  0  0
 10 12  1  0  0  0
 12 13  1  0  0  0
 12 14  1  0  0  0
 12 15  1  0  0  0
 14 54  1  0  0  0
 14 55  1  0  0  0
 15 16  1  0  0  0
 16 17  2  0  0  0
 16 18  1  0  0  0
 18 19  1  0  0  0
 18 20  1  0  0  0
 20 21  1  0  0  0
 20 56  1  0  0  0
 20 57  1  0  0  0
 21 25  1  0  0  0
 21 22  1  0  0  0
 21 77  1  0  0  0
 22 23  1  0  0  0
 22 58  1  0  0  0
 22 59  1  0  0  0
 23 24  1  0  0  0
 23 60  1  0  0  0
 23 61  1  0  0  0
 24 25  1  0  0  0
 24 62  1  0  0  0
 24 63  1  0  0  0
 25 26  1  0  0  0
 25 27  1  0  0  0
 27 28  1  0  0  0
 27 34  1  0  0  0
 27 40  1  0  0  0
 28 33  2  0  0  0
 28 29  1  0  0  0
 29 30  2  0  0  0
 29 64  1  0  0  0
 30 31  1  0  0  0
 30 65  1  0  0  0
 31 32  2  0  0  0
 31 66  1  0  0  0
 32 33  1  0  0  0
 32 67  1  0  0  0
 33 68  1  0  0  0
 34 39  2  0  0  0
 34 35  1  0  0  0
 35 36  2  0  0  0
 35 69  1  0  0  0
 36 37  1  0  0  0
 36 70  1  0  0  0
 37 38  2  0  0  0
 37 71  1  0  0  0
 38 39  1  0  0  0
 38 72  1  0  0  0
 39 73  1  0  0  0
 40 74  1  0  0  0
 41 42  1  0  0  0
 41 75  1  0  0  0
 41 76  1  0  0  0
M  CHG  1  21   1
M  END
> <i_i_glide_confnum>
117

> <i_i_glide_lignum>
1199

> <i_i_glide_posenum>
65

> <i_i_glide_rotatable_bonds>
6

> <i_m_Source_File_Index>
5343

> <b_m_subgroup_collapsed>
0

> <r_i_docking_score>
-3.19176

> <r_i_glide_ecoul>
-1.61591

> <r_i_glide_eff_state_penalty>
0

> <r_i_glide_einternal>
13.2611

> <r_i_glide_emodel>
-20.1982

> <r_i_glide_energy>
-22.9419

> <r_i_glide_erotb>
0.404373

> <r_i_glide_esite>
-0.0386457

> <r_i_glide_evdw>
-21.326

> <r_i_glide_gscore>
-3.19176

> <r_i_glide_hbond>
-0.228372

> <r_i_glide_ligand_efficiency>
-0.0862638

> <r_i_glide_ligand_efficiency_ln>
-0.692218

> <r_i_glide_ligand_efficiency_sa>
-0.28745

> <r_i_glide_lipo>
-1.96033

> <r_i_glide_metal>
0

> <r_i_glide_rewards>
-0.0600977

> <s_i_glide_gridfile>
wee1_glide-grid

> <s_m_Source_File>
wee1_decoys_glide_SP.sdf

> <s_m_Source_Path>
/Users/zhangxujun/Desktop

> <s_m_entry_id>
5618

> <s_m_entry_name>
wee1_decoys_glide_SP.5343

> <s_m_subgroup_title>
wee1_decoys_glide_SP

> <s_m_subgroupid>
wee1_decoys_glide_SP


$$$$
