ZINC46840244_3285
                    3D
 Schrodinger Suite 2024-2.
 58 61  0  0  1  0            999 V2000
   -5.5161   45.3182   23.1967 C   0  0  0  0  0  0
   -4.1368   45.3953   22.5812 C   0  0  0  0  0  0
   -3.0769   46.3086   22.6448 C   0  0  0  0  0  0
   -2.0958   45.7936   21.7782 C   0  0  0  0  0  0
   -2.5682   44.5945   21.2819 C   0  0  0  0  0  0
   -3.8050   44.3516   21.7747 O   0  0  0  0  0  0
   -3.0675   47.5836   23.3234 C   0  0  0  0  0  0
   -4.1191   48.1609   23.6031 O   0  0  0  0  0  0
   -1.8362   48.0762   23.5781 N   0  0  0  0  0  0
   -1.5727   49.3654   24.0667 C   0  0  0  0  0  0
   -0.8013   49.4965   25.2283 C   0  0  0  0  0  0
   -0.4850   50.7661   25.7261 C   0  0  0  0  0  0
   -0.9132   51.9062   25.0275 C   0  0  0  0  0  0
   -1.6631   51.7787   23.8610 C   0  0  0  0  0  0
   -1.9903   50.5156   23.3729 C   0  0  0  0  0  0
   -2.6842   50.4251   22.2131 F   0  0  0  0  0  0
    0.3062   50.8384   26.8862 N   0  0  0  0  0  0
    0.3145   51.8271   27.8080 C   0  0  0  0  0  0
   -0.4964   52.7531   27.8205 O   0  0  0  0  0  0
    1.4105   51.7711   28.8970 C   0  0  2  0  0  0
    1.5787   50.7081   29.0584 H   0  0  0  0  0  0
    0.9734   52.4977   30.1980 C   0  0  0  0  0  0
    2.0553   52.3120   31.2818 C   0  0  0  0  0  0
    3.5014   52.6136   30.8053 C   0  0  0  0  0  0
    3.7954   52.0472   29.4070 C   0  0  0  0  0  0
    2.7268   52.3223   28.4091 N   0  0  0  0  0  0
    2.7584   54.0027   27.7850 S   0  0  0  0  0  0
    1.7454   54.0967   26.7344 O   0  0  0  0  0  0
    2.7605   54.9437   28.9122 O   0  0  0  0  0  0
    4.3184   54.2013   26.9286 C   0  0  0  0  0  0
    5.4806   54.4908   27.6453 C   0  0  0  0  0  0
    6.6786   54.6749   26.9630 C   0  0  0  0  0  0
    6.7045   54.5878   25.5713 C   0  0  0  0  0  0
    5.5486   54.3012   24.8538 C   0  0  0  0  0  0
    4.3539   54.0979   25.5341 C   0  0  0  0  0  0
   -5.6751   46.0811   23.9592 H   0  0  0  0  0  0
   -6.2930   45.4531   22.4436 H   0  0  0  0  0  0
   -5.6927   44.3531   23.6723 H   0  0  0  0  0  0
   -1.1500   46.2514   21.5252 H   0  0  0  0  0  0
   -2.1757   43.8676   20.5864 H   0  0  0  0  0  0
   -1.0420   47.4726   23.4387 H   0  0  0  0  0  0
   -0.4697   48.6129   25.7584 H   0  0  0  0  0  0
   -0.6518   52.8963   25.3694 H   0  0  0  0  0  0
   -1.9785   52.6613   23.3248 H   0  0  0  0  0  0
    0.8444   50.0107   27.0927 H   0  0  0  0  0  0
    0.8562   53.5709   30.0401 H   0  0  0  0  0  0
    0.0489   52.0756   30.5991 H   0  0  0  0  0  0
    1.7954   52.8967   32.1592 H   0  0  0  0  0  0
    2.0132   51.2966   31.6548 H   0  0  0  0  0  0
    3.6970   53.6837   30.7986 H   0  0  0  0  0  0
    4.2133   52.2063   31.5246 H   0  0  0  0  0  0
    4.7803   52.2516   28.9877 H   0  0  0  0  0  0
    3.7974   50.9671   29.5415 H   0  0  0  0  0  0
    5.4577   54.5840   28.7221 H   0  0  0  0  0  0
    7.5740   54.8962   27.5240 H   0  0  0  0  0  0
    7.6255   54.7400   25.0296 H   0  0  0  0  0  0
    5.5786   54.2307   23.7761 H   0  0  0  0  0  0
    3.4596   53.8730   24.9705 H   0  0  0  0  0  0
  1  2  1  0  0  0
  1 36  1  0  0  0
  1 37  1  0  0  0
  1 38  1  0  0  0
  2  6  1  0  0  0
  2  3  2  0  0  0
  3  4  1  0  0  0
  3  7  1  0  0  0
  4  5  2  0  0  0
  4 39  1  0  0  0
  5  6  1  0  0  0
  5 40  1  0  0  0
  7  8  2  0  0  0
  7  9  1  0  0  0
  9 10  1  0  0  0
  9 41  1  0  0  0
 10 15  2  0  0  0
 10 11  1  0  0  0
 11 12  2  0  0  0
 11 42  1  0  0  0
 12 13  1  0  0  0
 12 17  1  0  0  0
 13 14  2  0  0  0
 13 43  1  0  0  0
 14 15  1  0  0  0
 14 44  1  0  0  0
 15 16  1  0  0  0
 17 18  1  0  0  0
 17 45  1  0  0  0
 18 19  2  0  0  0
 18 20  1  0  0  0
 20 21  1  0  0  0
 20 26  1  0  0  0
 20 22  1  0  0  0
 22 23  1  0  0  0
 22 46  1  0  0  0
 22 47  1  0  0  0
 23 24  1  0  0  0
 23 48  1  0  0  0
 23 49  1  0  0  0
 24 25  1  0  0  0
 24 50  1  0  0  0
 24 51  1  0  0  0
 25 26  1  0  0  0
 25 52  1  0  0  0
 25 53  1  0  0  0
 26 27  1  0  0  0
 27 28  2  0  0  0
 27 29  2  0  0  0
 27 30  1  0  0  0
 30 35  2  0  0  0
 30 31  1  0  0  0
 31 32  2  0  0  0
 31 54  1  0  0  0
 32 33  1  0  0  0
 32 55  1  0  0  0
 33 34  2  0  0  0
 33 56  1  0  0  0
 34 35  1  0  0  0
 34 57  1  0  0  0
 35 58  1  0  0  0
M  END
> <i_i_glide_confnum>
181

> <i_i_glide_lignum>
3286

> <i_i_glide_posenum>
198

> <i_i_glide_rotatable_bonds>
8

> <i_m_Source_File_Index>
1815

> <b_m_subgroup_collapsed>
0

> <r_i_docking_score>
-2.96738

> <r_i_glide_ecoul>
-0.597082

> <r_i_glide_eff_state_penalty>
0

> <r_i_glide_einternal>
11.2896

> <r_i_glide_emodel>
-40.4607

> <r_i_glide_energy>
-43.2654

> <r_i_glide_erotb>
0.689434

> <r_i_glide_esite>
-0.0689012

> <r_i_glide_evdw>
-42.6683

> <r_i_glide_gscore>
-2.96738

> <r_i_glide_hbond>
0

> <r_i_glide_ligand_efficiency>
-0.0872758

> <r_i_glide_ligand_efficiency_ln>
-0.655577

> <r_i_glide_ligand_efficiency_sa>
-0.28274

> <r_i_glide_lipo>
-1.99844

> <r_i_glide_metal>
0

> <r_i_glide_rewards>
0.633503

> <s_i_glide_gridfile>
wee1_glide-grid

> <s_m_Source_File>
wee1_decoys_glide_SP.sdf

> <s_m_Source_Path>
/Users/zhangxujun/Desktop

> <s_m_entry_id>
2090

> <s_m_entry_name>
wee1_decoys_glide_SP.1815

> <s_m_subgroup_title>
wee1_decoys_glide_SP

> <s_m_subgroupid>
wee1_decoys_glide_SP


$$$$
