ZINC00648179_5218
                    3D
 Schrodinger Suite 2024-2.
 45 48  0  0  1  0            999 V2000
   -2.5965   51.0314   28.0542 C   0  0  0  0  0  0
   -3.9759   50.8994   27.9245 C   0  0  0  0  0  0
   -4.6407   51.5736   26.9032 C   0  0  0  0  0  0
   -3.9350   52.3720   26.0073 C   0  0  0  0  0  0
   -2.5545   52.4968   26.1356 C   0  0  0  0  0  0
   -1.8714   51.8250   27.1597 C   0  0  0  0  0  0
   -0.3564   51.9883   27.3367 C   0  0  2  0  0  0
   -0.0167   51.0477   27.7756 H   0  0  0  0  0  0
   -0.0148   53.1350   28.3361 C   0  0  0  0  0  0
    1.4933   53.4905   28.4484 C   0  0  2  0  0  0
    1.5929   54.4875   28.8811 H   0  0  0  0  0  0
    2.0118   53.5530   27.0795 N   0  0  0  0  0  0
    1.5037   52.8869   25.9869 C   0  0  0  0  0  0
    2.3343   53.2092   24.9408 C   0  0  0  0  0  0
    3.3860   53.9770   25.4851 C   0  0  0  0  0  0
    3.1618   54.1814   26.7719 N   0  0  0  0  0  0
    4.5369   54.4965   24.7686 C   0  0  0  0  0  0
    5.3450   55.2487   25.3186 O   0  0  0  0  0  0
    4.5995   54.0967   23.4761 N   0  0  0  0  0  0
    5.4817   54.4967   22.4569 C   0  0  0  0  0  0
    6.7046   55.1444   22.6838 C   0  0  0  0  0  0
    7.4848   55.5565   21.6070 C   0  0  0  0  0  0
    7.0566   55.3089   20.3059 C   0  0  0  0  0  0
    5.8508   54.6525   20.0705 C   0  0  0  0  0  0
    5.0672   54.2418   21.1462 C   0  0  0  0  0  0
    8.0377   55.8119   18.9800 Cl  0  0  0  0  0  0
    0.3529   52.1342   26.0578 N   0  0  0  0  0  0
    2.2931   52.5353   29.3625 C   0  0  0  0  0  0
    2.3044   51.2964   28.8818 F   0  0  0  0  0  0
    3.5606   52.9247   29.5049 F   0  0  0  0  0  0
    1.7657   52.4790   30.5857 F   0  0  0  0  0  0
   -6.5292   51.4106   26.7355 Br  0  0  0  0  0  0
   -2.0958   50.4973   28.8505 H   0  0  0  0  0  0
   -4.5218   50.2728   28.6146 H   0  0  0  0  0  0
   -4.4564   52.8933   25.2180 H   0  0  0  0  0  0
   -2.0178   53.1249   25.4404 H   0  0  0  0  0  0
   -0.4090   52.8751   29.3204 H   0  0  0  0  0  0
   -0.5511   54.0475   28.0816 H   0  0  0  0  0  0
    2.2050   52.8829   23.9199 H   0  0  0  0  0  0
    3.8534   53.4935   23.1706 H   0  0  0  0  0  0
    7.0744   55.3389   23.6783 H   0  0  0  0  0  0
    8.4265   56.0568   21.7844 H   0  0  0  0  0  0
    5.5238   54.4586   19.0590 H   0  0  0  0  0  0
    4.1274   53.7459   20.9471 H   0  0  0  0  0  0
    0.2408   51.3218   25.4680 H   0  0  0  0  0  0
  1  6  2  0  0  0
  1  2  1  0  0  0
  1 33  1  0  0  0
  2  3  2  0  0  0
  2 34  1  0  0  0
  3  4  1  0  0  0
  3 32  1  0  0  0
  4  5  2  0  0  0
  4 35  1  0  0  0
  5  6  1  0  0  0
  5 36  1  0  0  0
  6  7  1  0  0  0
  7  8  1  0  0  0
  7 27  1  0  0  0
  7  9  1  0  0  0
  9 10  1  0  0  0
  9 37  1  0  0  0
  9 38  1  0  0  0
 10 11  1  0  0  0
 10 12  1  0  0  0
 10 28  1  0  0  0
 12 16  1  0  0  0
 12 13  1  0  0  0
 13 14  2  0  0  0
 13 27  1  0  0  0
 14 15  1  0  0  0
 14 39  1  0  0  0
 15 16  2  0  0  0
 15 17  1  0  0  0
 17 18  2  0  0  0
 17 19  1  0  0  0
 19 20  1  0  0  0
 19 40  1  0  0  0
 20 25  2  0  0  0
 20 21  1  0  0  0
 21 22  2  0  0  0
 21 41  1  0  0  0
 22 23  1  0  0  0
 22 42  1  0  0  0
 23 24  2  0  0  0
 23 26  1  0  0  0
 24 25  1  0  0  0
 24 43  1  0  0  0
 25 44  1  0  0  0
 27 45  1  0  0  0
 28 29  1  0  0  0
 28 30  1  0  0  0
 28 31  1  0  0  0
M  END
> <i_i_glide_confnum>
21

> <i_i_glide_lignum>
5219

> <i_i_glide_posenum>
313

> <i_i_glide_rotatable_bonds>
5

> <i_m_Source_File_Index>
6077

> <b_m_subgroup_collapsed>
0

> <r_i_docking_score>
-4.98091

> <r_i_glide_ecoul>
-2.67409

> <r_i_glide_eff_state_penalty>
0

> <r_i_glide_einternal>
2.17024

> <r_i_glide_emodel>
-53.7001

> <r_i_glide_energy>
-42.1498

> <r_i_glide_erotb>
0.327013

> <r_i_glide_esite>
-0.0261948

> <r_i_glide_evdw>
-39.4757

> <r_i_glide_gscore>
-4.98091

> <r_i_glide_hbond>
0

> <r_i_glide_ligand_efficiency>
-0.16603

> <r_i_glide_ligand_efficiency_ln>
-1.13172

> <r_i_glide_ligand_efficiency_sa>
-0.515894

> <r_i_glide_lipo>
-2.0109

> <r_i_glide_metal>
0

> <r_i_glide_rewards>
-0.895928

> <s_i_glide_gridfile>
wee1_glide-grid

> <s_m_Source_File>
wee1_decoys_glide_SP.sdf

> <s_m_Source_Path>
/Users/zhangxujun/Desktop

> <s_m_entry_id>
6352

> <s_m_entry_name>
wee1_decoys_glide_SP.6077

> <s_m_subgroup_title>
wee1_decoys_glide_SP

> <s_m_subgroupid>
wee1_decoys_glide_SP


$$$$
