ZINC64375482_5019
                    3D
 Schrodinger Suite 2024-2.
 63 67  0  0  1  0            999 V2000
    6.9431   55.6931   24.6678 C   0  0  0  0  0  0
    7.0606   55.1942   25.9937 O   0  0  0  0  0  0
    5.9510   54.6350   26.5937 C   0  0  0  0  0  0
    6.1667   53.9364   27.7765 C   0  0  0  0  0  0
    5.1159   53.2851   28.4121 C   0  0  0  0  0  0
    3.8226   53.3286   27.8790 C   0  0  0  0  0  0
    3.5932   54.0990   26.7333 C   0  0  0  0  0  0
    4.6478   54.7346   26.0868 C   0  0  0  0  0  0
    2.7232   52.5019   28.5060 C   0  0  0  0  0  0
    2.8152   52.0995   29.6677 O   0  0  0  0  0  0
    1.7211   52.1520   27.6798 N   0  0  0  0  0  0
    0.6240   51.2598   28.0119 C   0  0  2  0  0  0
    0.8570   50.6058   28.8506 H   0  0  0  0  0  0
    0.2302   50.4296   26.8808 N   0  0  0  0  0  0
   -0.9250   50.7906   26.2100 C   0  0  0  0  0  0
   -1.8894   51.4369   27.1917 C   0  0  1  0  0  0
   -0.8754   52.0964   28.5158 S   0  0  0  0  0  0
   -2.8443   52.4160   26.4851 C   0  0  0  0  0  0
   -3.5253   51.7151   25.3008 C   0  0  0  0  0  0
   -2.5110   51.1971   24.2585 C   0  0  0  0  0  0
   -1.2309   50.6043   24.8926 C   0  0  0  0  0  0
    0.8630   49.7069   26.5659 H   0  0  0  0  0  0
   -0.3922   49.7665   24.0379 C   0  0  0  0  0  0
    0.3045   48.8532   24.4826 O   0  0  0  0  0  0
   -0.4744   50.0080   22.7145 N   0  0  0  0  0  0
    0.1259   49.1623   21.6801 C   0  0  0  0  0  0
    1.6674   49.1719   21.6394 C   0  0  0  0  0  0
    2.2975   50.4120   21.0403 C   0  0  0  0  0  0
    2.5919   51.6144   21.5675 C   0  0  0  0  0  0
    2.2872   52.1921   22.8813 C   0  0  0  0  0  0
    2.7045   53.4324   23.2009 C   0  0  0  0  0  0
    3.5059   54.1602   22.2276 C   0  0  0  0  0  0
    3.8190   53.6315   21.0156 C   0  0  0  0  0  0
    3.3426   52.3651   20.6565 C   0  0  0  0  0  0
    3.5044   51.6977   19.5447 N   0  3  0  0  0  0
    2.7961   50.4140   19.6119 C   0  0  0  0  0  0
    7.9027   56.0966   24.3576 H   0  0  0  0  0  0
    6.6714   54.9054   23.9644 H   0  0  0  0  0  0
    6.2157   56.4978   24.5996 H   0  0  0  0  0  0
    7.1637   53.8714   28.1865 H   0  0  0  0  0  0
    5.3285   52.6940   29.2872 H   0  0  0  0  0  0
    2.6010   54.2012   26.3240 H   0  0  0  0  0  0
    4.4360   55.2961   25.1928 H   0  0  0  0  0  0
    1.6135   52.6692   26.8228 H   0  0  0  0  0  0
   -2.4564   50.6260   27.6540 H   0  0  0  0  0  0
   -3.6056   52.7693   27.1809 H   0  0  0  0  0  0
   -2.3002   53.2951   26.1388 H   0  0  0  0  0  0
   -4.1153   50.8769   25.6746 H   0  0  0  0  0  0
   -4.2374   52.3903   24.8218 H   0  0  0  0  0  0
   -3.0051   50.4929   23.5874 H   0  0  0  0  0  0
   -2.2128   52.0391   23.6323 H   0  0  0  0  0  0
   -1.0322   50.7905   22.4071 H   0  0  0  0  0  0
   -0.2289   48.1404   21.8267 H   0  0  0  0  0  0
   -0.2670   49.4732   20.7123 H   0  0  0  0  0  0
    2.0857   48.9962   22.6316 H   0  0  0  0  0  0
    2.0113   48.3341   21.0307 H   0  0  0  0  0  0
    1.7061   51.6500   23.6129 H   0  0  0  0  0  0
    2.4550   53.8748   24.1488 H   0  0  0  0  0  0
    3.8405   55.1614   22.4641 H   0  0  0  0  0  0
    4.4063   54.2222   20.3277 H   0  0  0  0  0  0
    3.5031   49.6239   19.3669 H   0  0  0  0  0  0
    2.0031   50.4268   18.8629 H   0  0  0  0  0  0
    4.0570   51.9819   18.7353 H   0  0  0  0  0  0
  1  2  1  0  0  0
  1 37  1  0  0  0
  1 38  1  0  0  0
  1 39  1  0  0  0
  2  3  1  0  0  0
  3  8  2  0  0  0
  3  4  1  0  0  0
  4  5  2  0  0  0
  4 40  1  0  0  0
  5  6  1  0  0  0
  5 41  1  0  0  0
  6  7  2  0  0  0
  6  9  1  0  0  0
  7  8  1  0  0  0
  7 42  1  0  0  0
  8 43  1  0  0  0
  9 10  2  0  0  0
  9 11  1  0  0  0
 11 12  1  0  0  0
 11 44  1  0  0  0
 12 13  1  0  0  0
 12 17  1  0  0  0
 12 14  1  0  0  0
 14 15  1  0  0  0
 14 22  1  0  0  0
 15 21  2  0  0  0
 15 16  1  0  0  0
 16 17  1  0  0  0
 16 18  1  0  0  0
 16 45  1  0  0  0
 18 19  1  0  0  0
 18 46  1  0  0  0
 18 47  1  0  0  0
 19 20  1  0  0  0
 19 48  1  0  0  0
 19 49  1  0  0  0
 20 50  1  0  0  0
 20 51  1  0  0  0
 20 21  1  0  0  0
 21 23  1  0  0  0
 23 24  2  0  0  0
 23 25  1  0  0  0
 25 26  1  0  0  0
 25 52  1  0  0  0
 26 27  1  0  0  0
 26 53  1  0  0  0
 26 54  1  0  0  0
 27 28  1  0  0  0
 27 55  1  0  0  0
 27 56  1  0  0  0
 28 36  1  0  0  0
 28 29  2  0  0  0
 29 34  1  0  0  0
 29 30  1  0  0  0
 30 31  2  0  0  0
 30 57  1  0  0  0
 31 32  1  0  0  0
 31 58  1  0  0  0
 32 33  2  0  0  0
 32 59  1  0  0  0
 33 34  1  0  0  0
 33 60  1  0  0  0
 34 35  2  0  0  0
 35 36  1  0  0  0
 35 63  1  0  0  0
 36 61  1  0  0  0
 36 62  1  0  0  0
M  CHG  1  35   1
M  END
> <i_i_glide_confnum>
133

> <i_i_glide_lignum>
5020

> <i_i_glide_posenum>
374

> <i_i_glide_rotatable_bonds>
9

> <i_m_Source_File_Index>
5840

> <b_m_subgroup_collapsed>
0

> <r_i_docking_score>
-5.4257

> <r_i_glide_ecoul>
-3.62625

> <r_i_glide_eff_state_penalty>
0

> <r_i_glide_einternal>
12.7379

> <r_i_glide_emodel>
-58.1559

> <r_i_glide_energy>
-46.2305

> <r_i_glide_erotb>
0.621689

> <r_i_glide_esite>
-0.185536

> <r_i_glide_evdw>
-42.6042

> <r_i_glide_gscore>
-5.4257

> <r_i_glide_hbond>
-0.499448

> <r_i_glide_ligand_efficiency>
-0.159579

> <r_i_glide_ligand_efficiency_ln>
-1.19869

> <r_i_glide_ligand_efficiency_sa>
-0.516975

> <r_i_glide_lipo>
-2.29007

> <r_i_glide_metal>
0

> <r_i_glide_rewards>
-0.398189

> <s_i_glide_gridfile>
wee1_glide-grid

> <s_m_Source_File>
wee1_decoys_glide_SP.sdf

> <s_m_Source_Path>
/Users/zhangxujun/Desktop

> <s_m_entry_id>
6115

> <s_m_entry_name>
wee1_decoys_glide_SP.5840

> <s_m_subgroup_title>
wee1_decoys_glide_SP

> <s_m_subgroupid>
wee1_decoys_glide_SP


$$$$
