ZINC02349493_4259
                    3D
 Schrodinger Suite 2024-2.
 56 60  0  0  1  0            999 V2000
    5.5024   54.3680   23.2178 C   0  0  0  0  0  0
    5.7637   54.9433   24.4601 C   0  0  0  0  0  0
    4.8137   54.8970   25.4794 C   0  0  0  0  0  0
    3.6032   54.1911   25.2826 C   0  0  0  0  0  0
    3.3584   53.5580   24.0286 C   0  0  0  0  0  0
    4.3026   53.6968   22.9821 C   0  0  0  0  0  0
    2.2809   52.7328   23.8826 N   0  0  0  0  0  0
    1.4866   52.4909   24.9338 C   0  0  0  0  0  0
    0.4559   51.5182   25.1634 C   0  0  0  0  0  0
   -0.0630   51.8323   26.4266 C   0  0  0  0  0  0
    0.6380   52.8965   26.9849 N   0  0  0  0  0  0
    1.6841   53.2153   26.1310 C   0  0  0  0  0  0
    2.7040   54.0631   26.2967 N   0  0  0  0  0  0
    0.2613   53.6241   28.2119 C   0  0  0  0  0  0
    0.9142   53.1029   29.5016 C   0  0  0  0  0  0
    2.4255   53.2168   29.5290 C   0  0  0  0  0  0
    3.1916   52.1105   29.5455 C   0  0  0  0  0  0
    4.7044   52.1214   29.5128 C   0  0  0  0  0  0
    5.2114   53.4031   28.8425 C   0  0  0  0  0  0
    4.5713   54.6431   29.4700 C   0  0  0  0  0  0
    3.0250   54.6297   29.4773 C   0  0  0  0  0  0
   -1.1039   51.2626   27.1151 N   0  0  0  0  0  0
   -0.0074   50.4771   24.2910 C   0  0  0  0  0  0
   -0.2278   50.6895   23.0994 O   0  0  0  0  0  0
   -0.0739   49.2696   24.8777 N   0  0  0  0  0  0
   -0.3223   48.0093   24.1831 C   0  0  0  0  0  0
   -1.6951   47.4551   24.4869 C   0  0  0  0  0  0
   -2.1896   46.9346   25.6816 C   0  0  0  0  0  0
   -3.5144   46.4975   25.6214 C   0  0  0  0  0  0
   -4.0647   46.6656   24.3641 C   0  0  0  0  0  0
   -2.9351   47.3834   23.2649 S   0  0  0  0  0  0
    6.2411   54.4366   22.4326 H   0  0  0  0  0  0
    6.7003   55.4573   24.6198 H   0  0  0  0  0  0
    5.0124   55.3583   26.4350 H   0  0  0  0  0  0
    4.1176   53.2216   22.0286 H   0  0  0  0  0  0
    0.4715   54.6858   28.0818 H   0  0  0  0  0  0
   -0.8201   53.5682   28.3076 H   0  0  0  0  0  0
    0.5320   53.6738   30.3488 H   0  0  0  0  0  0
    0.5877   52.0773   29.6869 H   0  0  0  0  0  0
    2.6879   51.1581   29.5427 H   0  0  0  0  0  0
    5.1002   51.9804   30.5157 H   0  0  0  0  0  0
    5.0840   51.2967   28.9337 H   0  0  0  0  0  0
    6.2999   53.4625   28.8817 H   0  0  0  0  0  0
    4.9625   53.3612   27.7830 H   0  0  0  0  0  0
    4.9456   55.5177   28.9572 H   0  0  0  0  0  0
    4.9281   54.7495   30.4817 H   0  0  0  0  0  0
    2.6682   55.1251   28.5784 H   0  0  0  0  0  0
    2.6145   55.2648   30.2623 H   0  0  0  0  0  0
   -1.5576   50.4202   26.7829 H   0  0  0  0  0  0
   -1.2938   51.4934   28.0788 H   0  0  0  0  0  0
    0.0904   49.2079   25.8727 H   0  0  0  0  0  0
    0.4245   47.3051   24.5498 H   0  0  0  0  0  0
   -0.1362   48.0967   23.1105 H   0  0  0  0  0  0
   -1.6004   46.8927   26.5869 H   0  0  0  0  0  0
   -4.0452   46.0863   26.4685 H   0  0  0  0  0  0
   -5.0675   46.4294   24.0402 H   0  0  0  0  0  0
  1  6  2  0  0  0
  1  2  1  0  0  0
  1 32  1  0  0  0
  2  3  2  0  0  0
  2 33  1  0  0  0
  3  4  1  0  0  0
  3 34  1  0  0  0
  4 13  2  0  0  0
  4  5  1  0  0  0
  5  6  1  0  0  0
  5  7  2  0  0  0
  6 35  1  0  0  0
  7  8  1  0  0  0
  8 12  2  0  0  0
  8  9  1  0  0  0
  9 10  2  0  0  0
  9 23  1  0  0  0
 10 11  1  0  0  0
 10 22  1  0  0  0
 11 12  1  0  0  0
 11 14  1  0  0  0
 12 13  1  0  0  0
 14 15  1  0  0  0
 14 36  1  0  0  0
 14 37  1  0  0  0
 15 16  1  0  0  0
 15 38  1  0  0  0
 15 39  1  0  0  0
 16 21  1  0  0  0
 16 17  2  0  0  0
 17 18  1  0  0  0
 17 40  1  0  0  0
 18 19  1  0  0  0
 18 41  1  0  0  0
 18 42  1  0  0  0
 19 20  1  0  0  0
 19 43  1  0  0  0
 19 44  1  0  0  0
 20 21  1  0  0  0
 20 45  1  0  0  0
 20 46  1  0  0  0
 21 47  1  0  0  0
 21 48  1  0  0  0
 22 49  1  0  0  0
 22 50  1  0  0  0
 23 24  2  0  0  0
 23 25  1  0  0  0
 25 26  1  0  0  0
 25 51  1  0  0  0
 26 27  1  0  0  0
 26 52  1  0  0  0
 26 53  1  0  0  0
 27 31  1  0  0  0
 27 28  2  0  0  0
 28 29  1  0  0  0
 28 54  1  0  0  0
 29 30  2  0  0  0
 29 55  1  0  0  0
 30 31  1  0  0  0
 30 56  1  0  0  0
M  END
> <i_i_glide_confnum>
153

> <i_i_glide_lignum>
4260

> <i_i_glide_posenum>
133

> <i_i_glide_rotatable_bonds>
7

> <i_m_Source_File_Index>
2974

> <b_m_subgroup_collapsed>
0

> <r_i_docking_score>
-5.18719

> <r_i_glide_ecoul>
-2.43054

> <r_i_glide_eff_state_penalty>
0

> <r_i_glide_einternal>
10.4769

> <r_i_glide_emodel>
-45.6139

> <r_i_glide_energy>
-37.993

> <r_i_glide_erotb>
0.640818

> <r_i_glide_esite>
-0.112403

> <r_i_glide_evdw>
-35.5625

> <r_i_glide_gscore>
-5.18719

> <r_i_glide_hbond>
0

> <r_i_glide_ligand_efficiency>
-0.167329

> <r_i_glide_ligand_efficiency_ln>
-1.16987

> <r_i_glide_ligand_efficiency_sa>
-0.525644

> <r_i_glide_lipo>
-2.6998

> <r_i_glide_metal>
0

> <r_i_glide_rewards>
-0.873102

> <s_i_glide_gridfile>
wee1_glide-grid

> <s_m_Source_File>
wee1_decoys_glide_SP.sdf

> <s_m_Source_Path>
/Users/zhangxujun/Desktop

> <s_m_entry_id>
3249

> <s_m_entry_name>
wee1_decoys_glide_SP.2974

> <s_m_subgroup_title>
wee1_decoys_glide_SP

> <s_m_subgroupid>
wee1_decoys_glide_SP


$$$$
