ZINC33219318_732
                    3D
 Schrodinger Suite 2024-2.
 49 51  0  0  1  0            999 V2000
    3.5928   53.3974   28.4514 C   0  0  0  0  0  0
    2.4405   52.9434   27.5663 C   0  0  0  0  0  0
    1.4369   52.1491   28.1281 C   0  0  0  0  0  0
    0.3741   51.7000   27.3507 C   0  0  0  0  0  0
    0.3070   52.0492   26.0058 C   0  0  0  0  0  0
    1.3050   52.8353   25.4120 C   0  0  0  0  0  0
    2.3832   53.2949   26.2036 C   0  0  0  0  0  0
    3.9344   54.4683   25.3834 I   0  0  0  0  0  0
    1.1742   53.2055   23.9526 C   0  0  0  0  0  0
    1.1056   54.4048   23.6802 O   0  0  0  0  0  0
    1.0769   52.2286   23.0005 N   0  0  0  0  0  0
    1.2198   50.7747   23.2691 C   0  0  0  0  0  0
    2.1295   50.1158   22.1958 C   0  0  0  0  0  0
    1.6545   50.4943   20.7712 N   0  3  0  0  0  0
    1.7234   52.0243   20.6357 C   0  0  0  0  0  0
    0.7121   52.6211   21.6203 C   0  0  0  0  0  0
    2.4919   49.8143   19.6524 C   0  0  0  0  0  0
    1.8684   48.4680   19.2624 C   0  0  0  0  0  0
    1.0479   47.9307   20.0076 O   0  0  0  0  0  0
    2.2841   47.9661   18.0813 N   0  0  0  0  0  0
    1.8231   46.8328   17.3822 C   0  0  0  0  0  0
    0.7063   46.0628   17.7550 C   0  0  0  0  0  0
    0.3312   44.9614   16.9908 C   0  0  0  0  0  0
    1.0573   44.6303   15.8521 C   0  0  0  0  0  0
    2.1558   45.3948   15.4658 C   0  0  0  0  0  0
    2.5384   46.4949   16.2292 C   0  0  0  0  0  0
    0.6933   43.5580   15.1135 F   0  0  0  0  0  0
    3.4952   53.0402   29.4774 H   0  0  0  0  0  0
    4.5419   53.0293   28.0570 H   0  0  0  0  0  0
    3.6475   54.4870   28.4744 H   0  0  0  0  0  0
    1.4764   51.8708   29.1718 H   0  0  0  0  0  0
   -0.3978   51.0840   27.7941 H   0  0  0  0  0  0
   -0.5357   51.6967   25.4270 H   0  0  0  0  0  0
    0.2426   50.2879   23.2590 H   0  0  0  0  0  0
    1.6808   50.5936   24.2414 H   0  0  0  0  0  0
    2.0570   49.0289   22.2687 H   0  0  0  0  0  0
    3.1747   50.4025   22.3052 H   0  0  0  0  0  0
    2.7509   52.3687   20.7886 H   0  0  0  0  0  0
    1.4134   52.2738   19.6183 H   0  0  0  0  0  0
    0.7176   53.6968   21.4721 H   0  0  0  0  0  0
   -0.2926   52.2647   21.3888 H   0  0  0  0  0  0
    3.5051   49.7070   20.0163 H   0  0  0  0  0  0
    2.5106   50.4746   18.7815 H   0  0  0  0  0  0
    3.0140   48.4865   17.5839 H   0  0  0  0  0  0
    0.1072   46.2930   18.6209 H   0  0  0  0  0  0
   -0.5264   44.3666   17.2739 H   0  0  0  0  0  0
    2.7042   45.1306   14.5756 H   0  0  0  0  0  0
    3.3959   47.0800   15.9198 H   0  0  0  0  0  0
    0.6963   50.1962   20.6332 H   0  0  0  0  0  0
  1  2  1  0  0  0
  1 28  1  0  0  0
  1 29  1  0  0  0
  1 30  1  0  0  0
  2  7  2  0  0  0
  2  3  1  0  0  0
  3  4  2  0  0  0
  3 31  1  0  0  0
  4  5  1  0  0  0
  4 32  1  0  0  0
  5  6  2  0  0  0
  5 33  1  0  0  0
  6  7  1  0  0  0
  6  9  1  0  0  0
  7  8  1  0  0  0
  9 10  2  0  0  0
  9 11  1  0  0  0
 11 16  1  0  0  0
 11 12  1  0  0  0
 12 13  1  0  0  0
 12 34  1  0  0  0
 12 35  1  0  0  0
 13 14  1  0  0  0
 13 36  1  0  0  0
 13 37  1  0  0  0
 14 15  1  0  0  0
 14 17  1  0  0  0
 14 49  1  0  0  0
 15 16  1  0  0  0
 15 38  1  0  0  0
 15 39  1  0  0  0
 16 40  1  0  0  0
 16 41  1  0  0  0
 17 18  1  0  0  0
 17 42  1  0  0  0
 17 43  1  0  0  0
 18 19  2  0  0  0
 18 20  1  0  0  0
 20 21  1  0  0  0
 20 44  1  0  0  0
 21 26  2  0  0  0
 21 22  1  0  0  0
 22 23  2  0  0  0
 22 45  1  0  0  0
 23 24  1  0  0  0
 23 46  1  0  0  0
 24 25  2  0  0  0
 24 27  1  0  0  0
 25 26  1  0  0  0
 25 47  1  0  0  0
 26 48  1  0  0  0
M  CHG  1  14   1
M  END
> <i_i_glide_confnum>
4

> <i_i_glide_lignum>
733

> <i_i_glide_posenum>
195

> <i_i_glide_rotatable_bonds>
6

> <i_m_Source_File_Index>
2580

> <b_m_subgroup_collapsed>
0

> <r_i_docking_score>
-4.44963

> <r_i_glide_ecoul>
-6.76835

> <r_i_glide_eff_state_penalty>
0

> <r_i_glide_einternal>
4.2226

> <r_i_glide_emodel>
-49.3771

> <r_i_glide_energy>
-37.1152

> <r_i_glide_erotb>
0.436169

> <r_i_glide_esite>
-0.152031

> <r_i_glide_evdw>
-30.3468

> <r_i_glide_gscore>
-4.44963

> <r_i_glide_hbond>
-0.16

> <r_i_glide_ligand_efficiency>
-0.164801

> <r_i_glide_ligand_efficiency_ln>
-1.0358

> <r_i_glide_ligand_efficiency_sa>
-0.494403

> <r_i_glide_lipo>
-1.47868

> <r_i_glide_metal>
0

> <r_i_glide_rewards>
-0.562487

> <s_i_glide_gridfile>
wee1_glide-grid

> <s_m_Source_File>
wee1_decoys_glide_SP.sdf

> <s_m_Source_Path>
/Users/zhangxujun/Desktop

> <s_m_entry_id>
2855

> <s_m_entry_name>
wee1_decoys_glide_SP.2580

> <s_m_subgroup_title>
wee1_decoys_glide_SP

> <s_m_subgroupid>
wee1_decoys_glide_SP


$$$$
