ZINC36053523_5807
                    3D
 Schrodinger Suite 2024-2.
 64 67  0  0  1  0            999 V2000
    2.4232   54.5590   27.8144 C   0  0  0  0  0  0
    1.5365   53.5116   27.1386 C   0  0  0  0  0  0
    0.6501   52.6515   27.7401 C   0  0  0  0  0  0
   -0.0627   51.5509   26.8862 C   0  0  2  0  0  0
    0.0704   50.5872   27.3845 H   0  0  0  0  0  0
    0.6503   51.4195   25.5838 N   0  0  0  0  0  0
    0.4885   50.3826   24.6844 C   0  0  0  0  0  0
    0.8778   50.7297   23.4445 C   0  0  0  0  0  0
    1.5853   52.3425   23.3571 S   0  0  0  0  0  0
    1.3913   52.4968   25.1125 C   0  0  0  0  0  0
    1.7909   53.4990   25.7948 N   0  0  0  0  0  0
   -0.0747   49.0898   25.0286 C   0  0  0  0  0  0
   -0.8927   48.3387   24.2771 C   0  0  0  0  0  0
   -1.3964   48.5471   23.1116 O   0  5  0  0  0  0
   -1.2966   47.1135   24.7363 N   0  0  0  0  0  0
   -2.6674   46.7057   25.0019 C   0  0  0  0  0  0
   -3.0535   46.8892   26.4798 C   0  0  0  0  0  0
   -4.3408   46.1864   26.8941 C   0  0  0  0  0  0
   -5.2774   46.8364   27.7040 C   0  0  0  0  0  0
   -6.4226   46.1400   28.0946 C   0  0  0  0  0  0
   -6.5986   44.8188   27.6809 C   0  0  0  0  0  0
   -5.6156   44.2335   26.8812 C   0  0  0  0  0  0
   -4.4998   44.8979   26.4822 N   0  0  0  0  0  0
   -1.5861   51.7350   26.7117 C   0  0  0  0  0  0
   -2.4719   51.1143   27.5962 C   0  0  0  0  0  0
   -3.8474   51.2667   27.4481 C   0  0  0  0  0  0
   -4.3601   52.0418   26.4058 C   0  0  0  0  0  0
   -3.4799   52.6574   25.5110 C   0  0  0  0  0  0
   -2.1053   52.4982   25.6599 C   0  0  0  0  0  0
   -5.8744   52.1980   26.2468 C   0  0  0  0  0  0
   -6.3508   53.6069   26.6473 C   0  0  0  0  0  0
   -6.3593   51.8164   24.8352 C   0  0  0  0  0  0
    0.3211   52.6479   29.1834 C   0  0  0  0  0  0
   -0.2464   51.6966   29.7176 O   0  0  0  0  0  0
    0.6588   53.7709   29.8634 O   0  0  0  0  0  0
    0.4927   53.8435   31.2739 C   0  0  0  0  0  0
    2.8566   54.1669   28.7337 H   0  0  0  0  0  0
    3.2655   54.8713   27.1915 H   0  0  0  0  0  0
    1.8401   55.4468   28.0573 H   0  0  0  0  0  0
    0.8273   50.1012   22.5674 H   0  0  0  0  0  0
    0.2123   48.6907   25.9910 H   0  0  0  0  0  0
   -0.6782   46.7179   25.4318 H   0  0  0  0  0  0
   -3.3453   47.2562   24.3477 H   0  0  0  0  0  0
   -2.7289   45.6650   24.7123 H   0  0  0  0  0  0
   -2.2604   46.4964   27.1180 H   0  0  0  0  0  0
   -3.1125   47.9557   26.7058 H   0  0  0  0  0  0
   -5.1167   47.8557   28.0254 H   0  0  0  0  0  0
   -7.1634   46.6208   28.7171 H   0  0  0  0  0  0
   -7.4757   44.2610   27.9746 H   0  0  0  0  0  0
   -5.7131   43.2120   26.5480 H   0  0  0  0  0  0
   -2.0979   50.4968   28.4011 H   0  0  0  0  0  0
   -4.5077   50.7710   28.1463 H   0  0  0  0  0  0
   -3.8577   53.2592   24.6979 H   0  0  0  0  0  0
   -1.4467   52.9832   24.9549 H   0  0  0  0  0  0
   -6.3545   51.4918   26.9287 H   0  0  0  0  0  0
   -6.0954   53.8346   27.6815 H   0  0  0  0  0  0
   -7.4334   53.6974   26.5559 H   0  0  0  0  0  0
   -5.9021   54.3749   26.0163 H   0  0  0  0  0  0
   -5.9991   50.8277   24.5496 H   0  0  0  0  0  0
   -7.4485   51.7935   24.7855 H   0  0  0  0  0  0
   -6.0164   52.5250   24.0817 H   0  0  0  0  0  0
    0.6947   54.8546   31.6243 H   0  0  0  0  0  0
   -0.5165   53.5746   31.5803 H   0  0  0  0  0  0
    1.1806   53.1610   31.7743 H   0  0  0  0  0  0
  1  2  1  0  0  0
  1 37  1  0  0  0
  1 38  1  0  0  0
  1 39  1  0  0  0
  2 11  1  0  0  0
  2  3  2  0  0  0
  3  4  1  0  0  0
  3 33  1  0  0  0
  4  5  1  0  0  0
  4  6  1  0  0  0
  4 24  1  0  0  0
  6 10  1  0  0  0
  6  7  1  0  0  0
  7  8  2  0  0  0
  7 12  1  0  0  0
  8  9  1  0  0  0
  8 40  1  0  0  0
  9 10  1  0  0  0
 10 11  2  0  0  0
 12 13  2  0  0  0
 12 41  1  0  0  0
 13 14  1  0  0  0
 13 15  1  0  0  0
 15 16  1  0  0  0
 15 42  1  0  0  0
 16 17  1  0  0  0
 16 43  1  0  0  0
 16 44  1  0  0  0
 17 18  1  0  0  0
 17 45  1  0  0  0
 17 46  1  0  0  0
 18 23  2  0  0  0
 18 19  1  0  0  0
 19 20  2  0  0  0
 19 47  1  0  0  0
 20 21  1  0  0  0
 20 48  1  0  0  0
 21 22  2  0  0  0
 21 49  1  0  0  0
 22 23  1  0  0  0
 22 50  1  0  0  0
 24 29  2  0  0  0
 24 25  1  0  0  0
 25 26  2  0  0  0
 25 51  1  0  0  0
 26 27  1  0  0  0
 26 52  1  0  0  0
 27 28  2  0  0  0
 27 30  1  0  0  0
 28 29  1  0  0  0
 28 53  1  0  0  0
 29 54  1  0  0  0
 30 31  1  0  0  0
 30 32  1  0  0  0
 30 55  1  0  0  0
 31 56  1  0  0  0
 31 57  1  0  0  0
 31 58  1  0  0  0
 32 59  1  0  0  0
 32 60  1  0  0  0
 32 61  1  0  0  0
 33 34  2  0  0  0
 33 35  1  0  0  0
 35 36  1  0  0  0
 36 62  1  0  0  0
 36 63  1  0  0  0
 36 64  1  0  0  0
M  CHG  1  14  -1
M  END
> <i_i_glide_confnum>
124

> <i_i_glide_lignum>
5808

> <i_i_glide_posenum>
296

> <i_i_glide_rotatable_bonds>
9

> <i_m_Source_File_Index>
252

> <b_m_subgroup_collapsed>
0

> <r_i_docking_score>
-3.89555

> <r_i_glide_ecoul>
-3.59063

> <r_i_glide_eff_state_penalty>
0

> <r_i_glide_einternal>
4.21091

> <r_i_glide_emodel>
-54.0701

> <r_i_glide_energy>
-44.1762

> <r_i_glide_erotb>
0.509216

> <r_i_glide_esite>
-0.078613

> <r_i_glide_evdw>
-40.5855

> <r_i_glide_gscore>
-3.89555

> <r_i_glide_hbond>
-0.369109

> <r_i_glide_ligand_efficiency>
-0.111301

> <r_i_glide_ligand_efficiency_ln>
-0.855159

> <r_i_glide_ligand_efficiency_sa>
-0.364074

> <r_i_glide_lipo>
-0.951123

> <r_i_glide_metal>
0

> <r_i_glide_rewards>
-0.438048

> <s_i_glide_gridfile>
wee1_glide-grid

> <s_m_Source_File>
wee1_decoys_glide_SP.sdf

> <s_m_Source_Path>
/Users/zhangxujun/Desktop

> <s_m_entry_id>
527

> <s_m_entry_name>
wee1_decoys_glide_SP.252

> <s_m_subgroup_title>
wee1_decoys_glide_SP

> <s_m_subgroupid>
wee1_decoys_glide_SP


$$$$
