ZINC13402519_1943
                    3D
 Schrodinger Suite 2024-2.
 53 55  0  0  1  0            999 V2000
    9.4971   57.2725   17.9429 C   0  0  0  0  0  0
    9.6102   56.0621   16.9998 C   0  0  1  0  0  0
   10.6079   56.0948   16.5563 H   0  0  0  0  0  0
    9.5044   54.6886   17.7015 C   0  0  0  0  0  0
    9.7041   53.5400   16.6827 C   0  0  0  0  0  0
    8.8529   53.7030   15.3970 C   0  0  0  0  0  0
    8.9255   55.1377   14.8227 C   0  0  0  0  0  0
    8.6310   56.1568   15.8669 N   0  0  0  0  0  0
    6.9037   56.6073   16.1019 S   0  0  0  0  0  0
    6.2307   56.4540   14.8061 O   0  0  0  0  0  0
    6.8612   57.8986   16.7971 O   0  0  0  0  0  0
    6.1548   55.4088   17.2087 C   0  0  0  0  0  0
    5.5655   54.2512   16.6994 C   0  0  0  0  0  0
    5.0388   53.2983   17.5664 C   0  0  0  0  0  0
    5.0998   53.4947   18.9456 C   0  0  0  0  0  0
    5.6651   54.6662   19.4756 C   0  0  0  0  0  0
    6.1648   55.6271   18.5885 C   0  0  0  0  0  0
    5.7918   54.8971   20.9633 C   0  0  0  0  0  0
    6.6358   55.6890   21.3920 O   0  0  0  0  0  0
    4.9171   54.2160   21.7351 N   0  0  0  0  0  0
    4.8161   54.1960   23.1361 C   0  0  0  0  0  0
    3.5717   53.8452   23.6617 C   0  0  0  0  0  0
    3.3852   53.7952   25.0401 C   0  0  0  0  0  0
    4.4423   54.0972   25.9042 C   0  0  0  0  0  0
    5.6841   54.4603   25.3784 C   0  0  0  0  0  0
    5.8789   54.4970   24.0008 C   0  0  0  0  0  0
    4.2981   53.9794   27.3636 C   0  0  0  0  0  0
    3.5465   53.0552   28.0025 C   0  0  0  0  0  0
    3.4089   52.9930   29.5271 C   0  0  0  0  0  0
    3.2037   51.8454   29.9859 O   0  0  0  0  0  0
   10.3087   57.2689   18.6680 H   0  0  0  0  0  0
    9.5491   58.2155   17.3971 H   0  0  0  0  0  0
    8.5820   57.2658   18.5263 H   0  0  0  0  0  0
    8.5385   54.5568   18.1809 H   0  0  0  0  0  0
   10.2708   54.6009   18.4725 H   0  0  0  0  0  0
    9.4887   52.5796   17.1563 H   0  0  0  0  0  0
   10.7582   53.5025   16.4012 H   0  0  0  0  0  0
    7.8200   53.4365   15.6047 H   0  0  0  0  0  0
    9.1874   52.9903   14.6428 H   0  0  0  0  0  0
    8.2875   55.2968   13.9531 H   0  0  0  0  0  0
    9.9486   55.3043   14.4817 H   0  0  0  0  0  0
    5.5307   54.0764   15.6337 H   0  0  0  0  0  0
    4.6031   52.3920   17.1719 H   0  0  0  0  0  0
    4.7172   52.7096   19.5806 H   0  0  0  0  0  0
    6.5837   56.5435   18.9754 H   0  0  0  0  0  0
    4.1974   53.7064   21.2472 H   0  0  0  0  0  0
    2.7432   53.6100   23.0082 H   0  0  0  0  0  0
    2.4191   53.5157   25.4341 H   0  0  0  0  0  0
    6.5107   54.6797   26.0372 H   0  0  0  0  0  0
    6.8603   54.7484   23.6265 H   0  0  0  0  0  0
    4.8343   54.7144   27.9490 H   0  0  0  0  0  0
    3.0132   52.3133   27.4287 H   0  0  0  0  0  0
    3.5051   54.0972   30.1084 O   0  5  0  0  0  0
  1  2  1  0  0  0
  1 31  1  0  0  0
  1 32  1  0  0  0
  1 33  1  0  0  0
  2  3  1  0  0  0
  2  8  1  0  0  0
  2  4  1  0  0  0
  4  5  1  0  0  0
  4 34  1  0  0  0
  4 35  1  0  0  0
  5  6  1  0  0  0
  5 36  1  0  0  0
  5 37  1  0  0  0
  6  7  1  0  0  0
  6 38  1  0  0  0
  6 39  1  0  0  0
  7  8  1  0  0  0
  7 40  1  0  0  0
  7 41  1  0  0  0
  8  9  1  0  0  0
  9 10  2  0  0  0
  9 11  2  0  0  0
  9 12  1  0  0  0
 12 17  2  0  0  0
 12 13  1  0  0  0
 13 14  2  0  0  0
 13 42  1  0  0  0
 14 15  1  0  0  0
 14 43  1  0  0  0
 15 16  2  0  0  0
 15 44  1  0  0  0
 16 17  1  0  0  0
 16 18  1  0  0  0
 17 45  1  0  0  0
 18 19  2  0  0  0
 18 20  1  0  0  0
 20 21  1  0  0  0
 20 46  1  0  0  0
 21 26  2  0  0  0
 21 22  1  0  0  0
 22 23  2  0  0  0
 22 47  1  0  0  0
 23 24  1  0  0  0
 23 48  1  0  0  0
 24 25  2  0  0  0
 24 27  1  0  0  0
 25 26  1  0  0  0
 25 49  1  0  0  0
 26 50  1  0  0  0
 27 28  2  0  0  0
 27 51  1  0  0  0
 28 29  1  0  0  0
 28 52  1  0  0  0
 29 30  2  0  0  0
 29 53  1  0  0  0
M  CHG  1  53  -1
M  END
> <i_i_glide_confnum>
123

> <i_i_glide_lignum>
1944

> <i_i_glide_posenum>
38

> <i_i_glide_rotatable_bonds>
7

> <i_m_Source_File_Index>
2417

> <b_m_subgroup_collapsed>
0

> <r_i_docking_score>
-5.61367

> <r_i_glide_ecoul>
-8.19255

> <r_i_glide_eff_state_penalty>
0

> <r_i_glide_einternal>
4.27005

> <r_i_glide_emodel>
-56.4672

> <r_i_glide_energy>
-41.0541

> <r_i_glide_erotb>
0.760529

> <r_i_glide_esite>
-0.0158947

> <r_i_glide_evdw>
-32.8615

> <r_i_glide_gscore>
-5.61367

> <r_i_glide_hbond>
-0.32

> <r_i_glide_ligand_efficiency>
-0.187122

> <r_i_glide_ligand_efficiency_ln>
-1.27549

> <r_i_glide_ligand_efficiency_sa>
-0.581432

> <r_i_glide_lipo>
-2.17594

> <r_i_glide_metal>
0

> <r_i_glide_rewards>
-0.990404

> <s_i_glide_gridfile>
wee1_glide-grid

> <s_m_Source_File>
wee1_decoys_glide_SP.sdf

> <s_m_Source_Path>
/Users/zhangxujun/Desktop

> <s_m_entry_id>
2692

> <s_m_entry_name>
wee1_decoys_glide_SP.2417

> <s_m_subgroup_title>
wee1_decoys_glide_SP

> <s_m_subgroupid>
wee1_decoys_glide_SP


$$$$
