ZINC06553425_885
                    3D
 Schrodinger Suite 2024-2.
 66 70  0  0  1  0            999 V2000
    1.5714   41.8956   18.3422 C   0  0  0  0  0  0
    0.6348   42.9011   19.0048 C   0  0  0  0  0  0
   -0.0957   42.5178   19.9207 O   0  0  0  0  0  0
    0.7040   44.1589   18.5140 N   0  0  0  0  0  0
    0.0557   45.3424   18.9197 C   0  0  0  0  0  0
    0.4447   46.5108   18.2591 C   0  0  0  0  0  0
   -0.1158   47.7398   18.6045 C   0  0  0  0  0  0
   -1.0723   47.8096   19.6179 C   0  0  0  0  0  0
   -1.4546   46.6512   20.2953 C   0  0  0  0  0  0
   -0.9031   45.4206   19.9441 C   0  0  0  0  0  0
   -1.8649   49.3825   19.9868 S   0  0  0  0  0  0
   -2.0426   50.0528   18.6940 O   0  0  0  0  0  0
   -3.0208   49.0969   20.8470 O   0  0  0  0  0  0
   -0.7081   50.3488   20.9269 N   0  0  0  0  0  0
    0.5548   50.7504   20.2908 C   0  0  0  0  0  0
    1.0095   52.0961   20.8857 C   0  0  0  0  0  0
    1.0712   52.0626   22.3822 N   0  0  0  0  0  0
   -0.1237   51.4511   23.0492 C   0  0  0  0  0  0
   -0.5563   50.1244   22.3753 C   0  0  0  0  0  0
    2.0707   52.8152   23.1044 C   0  0  0  0  0  0
    3.1585   53.2824   22.4670 N   0  3  0  0  0  0
    4.1976   53.9030   23.1108 C   0  0  0  0  0  0
    5.3545   54.2977   22.4045 C   0  0  0  0  0  0
    6.4017   54.8953   23.1033 C   0  0  0  0  0  0
    6.3044   55.1119   24.4766 C   0  0  0  0  0  0
    5.1702   54.7245   25.1908 C   0  0  0  0  0  0
    4.0809   54.0960   24.5197 C   0  0  0  0  0  0
    2.8897   53.6116   25.1470 C   0  0  0  0  0  0
    1.9095   52.9726   24.4454 N   0  0  0  0  0  0
    2.7282   53.7662   26.5369 N   0  0  0  0  0  0
    1.5527   53.3283   27.2871 C   0  0  0  0  0  0
    1.5048   51.8354   27.6417 C   0  0  0  0  0  0
    0.7722   51.7455   28.9902 C   0  0  0  0  0  0
    0.4056   53.1792   29.3951 C   0  0  0  0  0  0
    1.3470   54.0835   28.6022 C   0  0  0  0  0  0
    2.5118   42.3650   18.0482 H   0  0  0  0  0  0
    1.1068   41.4711   17.4518 H   0  0  0  0  0  0
    1.8071   41.0816   19.0306 H   0  0  0  0  0  0
    1.3496   44.2957   17.7502 H   0  0  0  0  0  0
    1.1897   46.4834   17.4756 H   0  0  0  0  0  0
    0.1823   48.6289   18.0667 H   0  0  0  0  0  0
   -2.1975   46.6946   21.0795 H   0  0  0  0  0  0
   -1.2288   44.5484   20.4876 H   0  0  0  0  0  0
    1.3129   49.9944   20.5042 H   0  0  0  0  0  0
    0.4174   50.8254   19.2117 H   0  0  0  0  0  0
    1.9803   52.3512   20.4635 H   0  0  0  0  0  0
    0.3162   52.8935   20.6178 H   0  0  0  0  0  0
   -0.9260   52.1918   23.0068 H   0  0  0  0  0  0
    0.1045   51.2638   24.0996 H   0  0  0  0  0  0
   -1.4973   49.7674   22.7941 H   0  0  0  0  0  0
    0.2209   49.3752   22.5416 H   0  0  0  0  0  0
    5.4180   54.1405   21.3360 H   0  0  0  0  0  0
    7.2908   55.2096   22.5736 H   0  0  0  0  0  0
    7.1208   55.5924   24.9910 H   0  0  0  0  0  0
    5.1327   54.8956   26.2596 H   0  0  0  0  0  0
    3.4553   54.2333   27.0548 H   0  0  0  0  0  0
    0.7037   53.5408   26.6434 H   0  0  0  0  0  0
    0.9870   51.2567   26.8742 H   0  0  0  0  0  0
    2.5085   51.4335   27.7657 H   0  0  0  0  0  0
   -0.1132   51.1077   28.9307 H   0  0  0  0  0  0
    1.4281   51.2982   29.7360 H   0  0  0  0  0  0
   -0.6263   53.3822   29.1113 H   0  0  0  0  0  0
    0.4799   53.3399   30.4718 H   0  0  0  0  0  0
    2.2931   54.2007   29.1323 H   0  0  0  0  0  0
    0.9271   55.0781   28.4470 H   0  0  0  0  0  0
    3.2213   53.1377   21.4717 H   0  0  0  0  0  0
  1  2  1  0  0  0
  1 36  1  0  0  0
  1 37  1  0  0  0
  1 38  1  0  0  0
  2  3  2  0  0  0
  2  4  1  0  0  0
  4  5  1  0  0  0
  4 39  1  0  0  0
  5 10  2  0  0  0
  5  6  1  0  0  0
  6  7  2  0  0  0
  6 40  1  0  0  0
  7  8  1  0  0  0
  7 41  1  0  0  0
  8  9  2  0  0  0
  8 11  1  0  0  0
  9 10  1  0  0  0
  9 42  1  0  0  0
 10 43  1  0  0  0
 11 12  2  0  0  0
 11 13  2  0  0  0
 11 14  1  0  0  0
 14 19  1  0  0  0
 14 15  1  0  0  0
 15 16  1  0  0  0
 15 44  1  0  0  0
 15 45  1  0  0  0
 16 17  1  0  0  0
 16 46  1  0  0  0
 16 47  1  0  0  0
 17 18  1  0  0  0
 17 20  1  0  0  0
 18 19  1  0  0  0
 18 48  1  0  0  0
 18 49  1  0  0  0
 19 50  1  0  0  0
 19 51  1  0  0  0
 20 29  2  0  0  0
 20 21  1  0  0  0
 21 22  2  0  0  0
 21 66  1  0  0  0
 22 27  1  0  0  0
 22 23  1  0  0  0
 23 24  2  0  0  0
 23 52  1  0  0  0
 24 25  1  0  0  0
 24 53  1  0  0  0
 25 26  2  0  0  0
 25 54  1  0  0  0
 26 27  1  0  0  0
 26 55  1  0  0  0
 27 28  2  0  0  0
 28 29  1  0  0  0
 28 30  1  0  0  0
 30 31  1  0  0  0
 30 56  1  0  0  0
 31 35  1  0  0  0
 31 32  1  0  0  0
 31 57  1  0  0  0
 32 33  1  0  0  0
 32 58  1  0  0  0
 32 59  1  0  0  0
 33 34  1  0  0  0
 33 60  1  0  0  0
 33 61  1  0  0  0
 34 35  1  0  0  0
 34 62  1  0  0  0
 34 63  1  0  0  0
 35 64  1  0  0  0
 35 65  1  0  0  0
M  CHG  1  21   1
M  END
> <i_i_glide_confnum>
75

> <i_i_glide_lignum>
886

> <i_i_glide_posenum>
212

> <i_i_glide_rotatable_bonds>
7

> <i_m_Source_File_Index>
4039

> <b_m_subgroup_collapsed>
0

> <r_i_docking_score>
-5.12794

> <r_i_glide_ecoul>
-3.16515

> <r_i_glide_eff_state_penalty>
0

> <r_i_glide_einternal>
2.52932

> <r_i_glide_emodel>
-57.221

> <r_i_glide_energy>
-41.7394

> <r_i_glide_erotb>
0.497969

> <r_i_glide_esite>
-0.0575236

> <r_i_glide_evdw>
-38.5742

> <r_i_glide_gscore>
-5.12794

> <r_i_glide_hbond>
-0.259873

> <r_i_glide_ligand_efficiency>
-0.146513

> <r_i_glide_ligand_efficiency_ln>
-1.1257

> <r_i_glide_ligand_efficiency_sa>
-0.479252

> <r_i_glide_lipo>
-2.66521

> <r_i_glide_metal>
0

> <r_i_glide_rewards>
-0.23982

> <s_i_glide_gridfile>
wee1_glide-grid

> <s_m_Source_File>
wee1_decoys_glide_SP.sdf

> <s_m_Source_Path>
/Users/zhangxujun/Desktop

> <s_m_entry_id>
4314

> <s_m_entry_name>
wee1_decoys_glide_SP.4039

> <s_m_subgroup_title>
wee1_decoys_glide_SP

> <s_m_subgroupid>
wee1_decoys_glide_SP


$$$$
