ZINC63584604_357
                    3D
 Schrodinger Suite 2024-2.
 82 85  0  0  1  0            999 V2000
   -0.0712   47.4928   17.1359 C   0  0  0  0  0  0
    0.3241   47.8028   18.6020 C   0  0  0  0  0  0
   -0.6091   46.9741   19.5208 C   0  0  0  0  0  0
    1.7929   47.3838   18.8234 C   0  0  0  0  0  0
    0.1019   49.2530   18.8327 N   0  0  0  0  0  0
    0.4225   49.7802   20.1650 C   0  0  1  0  0  0
    0.5935   48.9672   20.8718 H   0  0  0  0  0  0
    1.7409   50.5131   19.9303 C   0  0  0  0  0  0
    1.9015   50.7098   18.6062 C   0  0  0  0  0  0
    0.7765   50.2044   17.9723 N   0  0  0  0  0  0
    2.7320   50.8634   20.9326 C   0  0  0  0  0  0
    2.6793   50.4223   22.0783 O   0  0  0  0  0  0
    3.6769   51.7396   20.5437 N   0  0  0  0  0  0
    4.6539   52.3700   21.4256 C   0  0  0  0  0  0
    4.0457   53.5274   22.2476 C   0  0  0  0  0  0
    4.9811   54.0961   23.3028 C   0  0  0  0  0  0
    4.8496   54.2001   24.6401 C   0  0  0  0  0  0
    3.7424   53.8240   25.5317 C   0  0  0  0  0  0
    3.8401   53.9607   26.8789 C   0  0  0  0  0  0
    5.0954   54.4958   27.3889 C   0  0  0  0  0  0
    6.1252   54.8664   26.5843 C   0  0  0  0  0  0
    6.0181   54.7301   25.1965 C   0  0  0  0  0  0
    6.8833   55.0118   24.2551 N   0  3  0  0  0  0
    6.3370   54.6604   22.9369 C   0  0  0  0  0  0
    2.8757   53.6239   27.7851 O   0  0  0  0  0  0
    1.6618   53.0278   27.3295 C   0  0  0  0  0  0
   -0.7189   50.6760   20.7444 C   0  0  0  0  0  0
   -2.1103   49.9819   20.6887 C   0  0  0  0  0  0
   -3.2396   50.8940   21.2023 C   0  0  0  0  0  0
   -2.8738   51.2558   22.5843 N   0  0  0  0  0  0
   -1.6142   52.0010   22.7709 C   0  0  0  0  0  0
   -0.4792   51.1129   22.2127 C   0  0  0  0  0  0
   -3.5784   50.6714   23.6515 C   0  0  0  0  0  0
   -4.6187   50.0226   23.5245 O   0  0  0  0  0  0
   -2.9782   50.9140   24.8576 O   0  0  0  0  0  0
   -3.4303   50.4170   26.1312 C   0  0  0  0  0  0
   -4.8316   50.9727   26.4828 C   0  0  0  0  0  0
   -2.4021   50.9613   27.1391 C   0  0  0  0  0  0
   -3.4173   48.8698   26.1744 C   0  0  0  0  0  0
    0.5868   47.9923   16.4220 H   0  0  0  0  0  0
   -0.0189   46.4243   16.9245 H   0  0  0  0  0  0
   -1.0888   47.8217   16.9149 H   0  0  0  0  0  0
   -0.3978   47.1108   20.5798 H   0  0  0  0  0  0
   -1.6542   47.2463   19.3755 H   0  0  0  0  0  0
   -0.5209   45.9073   19.3186 H   0  0  0  0  0  0
    2.1392   47.5936   19.8365 H   0  0  0  0  0  0
    1.9041   46.3156   18.6477 H   0  0  0  0  0  0
    2.4721   47.9027   18.1455 H   0  0  0  0  0  0
    2.7045   51.1554   18.0363 H   0  0  0  0  0  0
    0.5683   50.0096   17.0026 H   0  0  0  0  0  0
    3.7668   51.9239   19.5526 H   0  0  0  0  0  0
    5.0945   51.6180   22.0817 H   0  0  0  0  0  0
    5.4838   52.7358   20.8205 H   0  0  0  0  0  0
    3.7439   54.3351   21.5804 H   0  0  0  0  0  0
    3.1423   53.1798   22.7466 H   0  0  0  0  0  0
    2.8359   53.4219   25.1102 H   0  0  0  0  0  0
    5.2108   54.6035   28.4584 H   0  0  0  0  0  0
    7.0208   55.2518   27.0492 H   0  0  0  0  0  0
    7.0114   53.9371   22.4823 H   0  0  0  0  0  0
    6.3037   55.5649   22.3279 H   0  0  0  0  0  0
    1.0264   52.8078   28.1890 H   0  0  0  0  0  0
    1.1065   53.6959   26.6715 H   0  0  0  0  0  0
    1.8434   52.0869   26.8076 H   0  0  0  0  0  0
   -0.7916   51.5812   20.1381 H   0  0  0  0  0  0
   -2.0955   49.0411   21.2449 H   0  0  0  0  0  0
   -2.3410   49.6917   19.6629 H   0  0  0  0  0  0
   -4.2294   50.4462   21.1167 H   0  0  0  0  0  0
   -3.2428   51.8026   20.6016 H   0  0  0  0  0  0
   -1.6916   52.9019   22.1663 H   0  0  0  0  0  0
   -1.4311   52.3250   23.7989 H   0  0  0  0  0  0
    0.4521   51.6654   22.2966 H   0  0  0  0  0  0
   -0.3408   50.2414   22.8558 H   0  0  0  0  0  0
   -5.1102   50.7230   27.5080 H   0  0  0  0  0  0
   -5.6072   50.5692   25.8323 H   0  0  0  0  0  0
   -4.8613   52.0589   26.3877 H   0  0  0  0  0  0
   -1.3965   50.6023   26.9142 H   0  0  0  0  0  0
   -2.3666   52.0512   27.1331 H   0  0  0  0  0  0
   -2.6373   50.6401   28.1559 H   0  0  0  0  0  0
   -2.4236   48.4792   25.9502 H   0  0  0  0  0  0
   -3.6940   48.4992   27.1649 H   0  0  0  0  0  0
   -4.1126   48.4262   25.4626 H   0  0  0  0  0  0
    7.8202   55.3845   24.3831 H   0  0  0  0  0  0
  1  2  1  0  0  0
  1 40  1  0  0  0
  1 41  1  0  0  0
  1 42  1  0  0  0
  2  3  1  0  0  0
  2  4  1  0  0  0
  2  5  1  0  0  0
  3 43  1  0  0  0
  3 44  1  0  0  0
  3 45  1  0  0  0
  4 46  1  0  0  0
  4 47  1  0  0  0
  4 48  1  0  0  0
  5 10  1  0  0  0
  5  6  1  0  0  0
  6  7  1  0  0  0
  6  8  1  0  0  0
  6 27  1  0  0  0
  8  9  2  0  0  0
  8 11  1  0  0  0
  9 10  1  0  0  0
  9 49  1  0  0  0
 10 50  1  0  0  0
 11 12  2  0  0  0
 11 13  1  0  0  0
 13 14  1  0  0  0
 13 51  1  0  0  0
 14 15  1  0  0  0
 14 52  1  0  0  0
 14 53  1  0  0  0
 15 16  1  0  0  0
 15 54  1  0  0  0
 15 55  1  0  0  0
 16 24  1  0  0  0
 16 17  2  0  0  0
 17 22  1  0  0  0
 17 18  1  0  0  0
 18 19  2  0  0  0
 18 56  1  0  0  0
 19 20  1  0  0  0
 19 25  1  0  0  0
 20 21  2  0  0  0
 20 57  1  0  0  0
 21 22  1  0  0  0
 21 58  1  0  0  0
 22 23  2  0  0  0
 23 24  1  0  0  0
 23 82  1  0  0  0
 24 59  1  0  0  0
 24 60  1  0  0  0
 25 26  1  0  0  0
 26 61  1  0  0  0
 26 62  1  0  0  0
 26 63  1  0  0  0
 27 32  1  0  0  0
 27 28  1  0  0  0
 27 64  1  0  0  0
 28 29  1  0  0  0
 28 65  1  0  0  0
 28 66  1  0  0  0
 29 30  1  0  0  0
 29 67  1  0  0  0
 29 68  1  0  0  0
 30 31  1  0  0  0
 30 33  1  0  0  0
 31 32  1  0  0  0
 31 69  1  0  0  0
 31 70  1  0  0  0
 32 71  1  0  0  0
 32 72  1  0  0  0
 33 34  2  0  0  0
 33 35  1  0  0  0
 35 36  1  0  0  0
 36 37  1  0  0  0
 36 38  1  0  0  0
 36 39  1  0  0  0
 37 73  1  0  0  0
 37 74  1  0  0  0
 37 75  1  0  0  0
 38 76  1  0  0  0
 38 77  1  0  0  0
 38 78  1  0  0  0
 39 79  1  0  0  0
 39 80  1  0  0  0
 39 81  1  0  0  0
M  CHG  1  23   1
M  END
> <i_i_glide_confnum>
254

> <i_i_glide_lignum>
358

> <i_i_glide_posenum>
256

> <i_i_glide_rotatable_bonds>
11

> <i_m_Source_File_Index>
1906

> <b_m_subgroup_collapsed>
0

> <r_i_docking_score>
-4.23409

> <r_i_glide_ecoul>
-0.550472

> <r_i_glide_eff_state_penalty>
0

> <r_i_glide_einternal>
11.0573

> <r_i_glide_emodel>
-48.239

> <r_i_glide_energy>
-41.0984

> <r_i_glide_erotb>
0.593809

> <r_i_glide_esite>
-0.0733012

> <r_i_glide_evdw>
-40.5479

> <r_i_glide_gscore>
-4.23409

> <r_i_glide_hbond>
0

> <r_i_glide_ligand_efficiency>
-0.111423

> <r_i_glide_ligand_efficiency_ln>
-0.912994

> <r_i_glide_ligand_efficiency_sa>
-0.374602

> <r_i_glide_lipo>
-2.59635

> <r_i_glide_metal>
0

> <r_i_glide_rewards>
-0.0482812

> <s_i_glide_gridfile>
wee1_glide-grid

> <s_m_Source_File>
wee1_decoys_glide_SP.sdf

> <s_m_Source_Path>
/Users/zhangxujun/Desktop

> <s_m_entry_id>
2181

> <s_m_entry_name>
wee1_decoys_glide_SP.1906

> <s_m_subgroup_title>
wee1_decoys_glide_SP

> <s_m_subgroupid>
wee1_decoys_glide_SP


$$$$
