ZINC21706563_2102
                    3D
 Schrodinger Suite 2024-2.
 67 70  0  0  1  0            999 V2000
   -1.1981   51.9506   26.2888 C   0  0  0  0  0  0
   -0.1044   51.1623   27.0358 C   0  0  0  0  0  0
    0.2499   49.8645   26.2916 C   0  0  0  0  0  0
    1.1049   51.9548   27.2617 N   0  0  0  0  0  0
    1.2153   53.0384   28.0513 C   0  0  0  0  0  0
    0.2599   53.5060   28.6726 O   0  0  0  0  0  0
    2.5928   53.7323   28.1643 C   0  0  1  0  0  0
    2.3993   54.7219   27.7475 H   0  0  0  0  0  0
    2.9813   53.9116   29.6475 C   0  0  0  0  0  0
    4.3691   54.5701   29.7517 C   0  0  0  0  0  0
    5.4643   53.9530   28.8543 C   0  0  0  0  0  0
    4.9290   53.9061   27.4800 N   0  0  0  0  0  0
    3.7360   53.0406   27.3712 C   0  0  0  0  0  0
    5.6055   54.4886   26.4407 C   0  0  0  0  0  0
    6.6995   55.0428   26.5978 O   0  0  0  0  0  0
    5.0510   54.4135   25.0300 C   0  0  0  0  0  0
    5.9363   54.2583   23.9541 C   0  0  0  0  0  0
    5.4542   54.0669   22.6618 C   0  0  0  0  0  0
    4.0788   54.0143   22.4261 C   0  0  0  0  0  0
    3.1957   54.2655   23.4741 C   0  0  0  0  0  0
    3.6793   54.4956   24.7533 C   0  0  0  0  0  0
    3.5046   53.7079   21.1867 N   0  0  0  0  0  0
    4.3359   53.1515   19.7340 S   0  0  0  0  0  0
    5.5043   52.3738   20.1501 O   0  0  0  0  0  0
    3.2856   52.5724   18.8891 O   0  0  0  0  0  0
    4.8924   54.6489   18.9310 C   0  0  0  0  0  0
    6.1849   55.1295   19.1241 C   0  0  0  0  0  0
    6.5741   56.3207   18.5189 C   0  0  0  0  0  0
    5.6941   57.0496   17.7104 C   0  0  0  0  0  0
    4.3911   56.5426   17.4841 C   0  0  0  0  0  0
    4.0095   55.3553   18.1150 C   0  0  0  0  0  0
    3.4227   57.2317   16.5189 C   0  0  0  0  0  0
    3.7788   58.7040   16.2670 C   0  0  0  0  0  0
    5.2704   58.8434   15.9369 C   0  0  0  0  0  0
    6.1273   58.3973   17.1347 C   0  0  0  0  0  0
   -2.0593   51.3151   26.0850 H   0  0  0  0  0  0
   -0.8400   52.3197   25.3291 H   0  0  0  0  0  0
   -1.5658   52.7923   26.8759 H   0  0  0  0  0  0
   -0.4999   50.8705   28.0139 H   0  0  0  0  0  0
   -0.6463   49.2725   26.1017 H   0  0  0  0  0  0
    0.7047   50.0616   25.3198 H   0  0  0  0  0  0
    0.9224   49.2325   26.8724 H   0  0  0  0  0  0
    1.9353   51.6123   26.8103 H   0  0  0  0  0  0
    2.2721   54.5547   30.1730 H   0  0  0  0  0  0
    3.0792   52.9388   30.1370 H   0  0  0  0  0  0
    4.2873   55.6348   29.5332 H   0  0  0  0  0  0
    4.7034   54.4945   30.7819 H   0  0  0  0  0  0
    6.4086   54.4964   28.9356 H   0  0  0  0  0  0
    5.6573   52.9220   29.1583 H   0  0  0  0  0  0
    3.9776   52.0969   27.8570 H   0  0  0  0  0  0
    3.4916   52.7490   26.3528 H   0  0  0  0  0  0
    7.0064   54.2397   24.1148 H   0  0  0  0  0  0
    6.1648   53.9352   21.8658 H   0  0  0  0  0  0
    2.1289   54.2710   23.3027 H   0  0  0  0  0  0
    2.9649   54.6961   25.5345 H   0  0  0  0  0  0
    2.5266   53.9304   21.0518 H   0  0  0  0  0  0
    6.8856   54.5903   19.7416 H   0  0  0  0  0  0
    7.5715   56.6935   18.6930 H   0  0  0  0  0  0
    3.0099   54.9727   17.9613 H   0  0  0  0  0  0
    3.4587   56.6950   15.5697 H   0  0  0  0  0  0
    2.3950   57.1499   16.8714 H   0  0  0  0  0  0
    3.5318   59.3003   17.1475 H   0  0  0  0  0  0
    3.1727   59.1051   15.4539 H   0  0  0  0  0  0
    5.5049   59.8770   15.6805 H   0  0  0  0  0  0
    5.5149   58.2472   15.0571 H   0  0  0  0  0  0
    6.0357   59.1464   17.9233 H   0  0  0  0  0  0
    7.1811   58.3782   16.8527 H   0  0  0  0  0  0
  1  2  1  0  0  0
  1 36  1  0  0  0
  1 37  1  0  0  0
  1 38  1  0  0  0
  2  3  1  0  0  0
  2  4  1  0  0  0
  2 39  1  0  0  0
  3 40  1  0  0  0
  3 41  1  0  0  0
  3 42  1  0  0  0
  4  5  1  0  0  0
  4 43  1  0  0  0
  5  6  2  0  0  0
  5  7  1  0  0  0
  7  8  1  0  0  0
  7 13  1  0  0  0
  7  9  1  0  0  0
  9 10  1  0  0  0
  9 44  1  0  0  0
  9 45  1  0  0  0
 10 11  1  0  0  0
 10 46  1  0  0  0
 10 47  1  0  0  0
 11 12  1  0  0  0
 11 48  1  0  0  0
 11 49  1  0  0  0
 12 13  1  0  0  0
 12 14  1  0  0  0
 13 50  1  0  0  0
 13 51  1  0  0  0
 14 15  2  0  0  0
 14 16  1  0  0  0
 16 21  2  0  0  0
 16 17  1  0  0  0
 17 18  2  0  0  0
 17 52  1  0  0  0
 18 19  1  0  0  0
 18 53  1  0  0  0
 19 20  2  0  0  0
 19 22  1  0  0  0
 20 21  1  0  0  0
 20 54  1  0  0  0
 21 55  1  0  0  0
 22 23  1  0  0  0
 22 56  1  0  0  0
 23 24  2  0  0  0
 23 25  2  0  0  0
 23 26  1  0  0  0
 26 31  2  0  0  0
 26 27  1  0  0  0
 27 28  2  0  0  0
 27 57  1  0  0  0
 28 29  1  0  0  0
 28 58  1  0  0  0
 29 35  1  0  0  0
 29 30  2  0  0  0
 30 31  1  0  0  0
 30 32  1  0  0  0
 31 59  1  0  0  0
 32 33  1  0  0  0
 32 60  1  0  0  0
 32 61  1  0  0  0
 33 34  1  0  0  0
 33 62  1  0  0  0
 33 63  1  0  0  0
 34 35  1  0  0  0
 34 64  1  0  0  0
 34 65  1  0  0  0
 35 66  1  0  0  0
 35 67  1  0  0  0
M  END
> <i_i_glide_confnum>
371

> <i_i_glide_lignum>
2103

> <i_i_glide_posenum>
346

> <i_i_glide_rotatable_bonds>
8

> <i_m_Source_File_Index>
2979

> <b_m_subgroup_collapsed>
0

> <r_i_docking_score>
-6.45846

> <r_i_glide_ecoul>
-5.28527

> <r_i_glide_eff_state_penalty>
0

> <r_i_glide_einternal>
7.90919

> <r_i_glide_emodel>
-66.5546

> <r_i_glide_energy>
-50.8568

> <r_i_glide_erotb>
0.607608

> <r_i_glide_esite>
-0.1942

> <r_i_glide_evdw>
-45.5715

> <r_i_glide_gscore>
-6.45846

> <r_i_glide_hbond>
-0.502819

> <r_i_glide_ligand_efficiency>
-0.189955

> <r_i_glide_ligand_efficiency_ln>
-1.42686

> <r_i_glide_ligand_efficiency_sa>
-0.61538

> <r_i_glide_lipo>
-2.14514

> <r_i_glide_metal>
0

> <r_i_glide_rewards>
-1.15255

> <s_i_glide_gridfile>
wee1_glide-grid

> <s_m_Source_File>
wee1_decoys_glide_SP.sdf

> <s_m_Source_Path>
/Users/zhangxujun/Desktop

> <s_m_entry_id>
3254

> <s_m_entry_name>
wee1_decoys_glide_SP.2979

> <s_m_subgroup_title>
wee1_decoys_glide_SP

> <s_m_subgroupid>
wee1_decoys_glide_SP


$$$$
