ZINC39638850_1278
                    3D
 Schrodinger Suite 2024-2.
 63 66  0  0  1  0            999 V2000
    1.7148   49.6220   18.4775 C   0  0  0  0  0  0
    2.0627   48.3622   18.9586 C   0  0  0  0  0  0
    1.0688   47.4399   19.2800 C   0  0  0  0  0  0
   -0.2754   47.7714   19.1134 C   0  0  0  0  0  0
   -0.6332   49.0367   18.6286 C   0  0  0  0  0  0
    0.3722   49.9587   18.3104 C   0  0  0  0  0  0
   -2.0982   49.4180   18.4207 C   0  0  0  0  0  0
   -2.9860   49.3906   19.6897 C   0  0  0  0  0  0
   -2.4053   50.0119   20.8836 N   0  0  0  0  0  0
   -2.0259   51.2977   21.0105 C   0  0  0  0  0  0
   -2.1024   52.0969   20.0803 O   0  0  0  0  0  0
   -1.4348   51.7851   22.3607 C   0  0  1  0  0  0
   -1.7258   52.8327   22.4602 H   0  0  0  0  0  0
   -2.0969   51.0494   23.5416 C   0  0  0  0  0  0
   -1.1360   51.2299   24.6350 N   0  0  0  0  0  0
    0.1630   51.7146   24.1225 C   0  0  0  0  0  0
    0.0885   51.5920   22.5802 C   0  0  0  0  0  0
    0.5920   50.1847   22.1116 C   0  0  0  0  0  0
    2.0891   49.9349   22.3895 C   0  0  0  0  0  0
    2.8945   51.0460   21.6815 N   0  3  0  0  0  0
    2.4666   52.4671   22.1073 C   0  0  0  0  0  0
    0.9620   52.6303   21.8191 C   0  0  0  0  0  0
   -1.5769   51.1611   25.9275 C   0  0  0  0  0  0
   -2.7678   50.9556   26.1772 O   0  0  0  0  0  0
   -0.6376   51.3863   27.0995 C   0  0  0  0  0  0
   -1.1417   51.8888   28.3042 C   0  0  0  0  0  0
   -0.3070   52.1394   29.3928 C   0  0  0  0  0  0
    1.0582   51.8832   29.3047 C   0  0  0  0  0  0
    1.5495   51.2986   28.1377 C   0  0  0  0  0  0
    0.7054   51.0194   27.0672 C   0  0  0  0  0  0
    1.8236   52.0962   30.4366 O   0  0  0  0  0  0
    3.1873   52.5122   30.3328 C   0  0  0  0  0  0
    3.6800   52.4965   31.5669 F   0  0  0  0  0  0
    3.9699   51.6965   29.6363 F   0  0  0  0  0  0
    3.2717   53.7559   29.8594 F   0  0  0  0  0  0
   -1.2237   46.8565   19.4198 F   0  0  0  0  0  0
    2.4940   50.3196   18.2008 H   0  0  0  0  0  0
    3.1053   48.0991   19.0595 H   0  0  0  0  0  0
    1.3389   46.4611   19.6422 H   0  0  0  0  0  0
    0.1173   50.9357   17.9252 H   0  0  0  0  0  0
   -2.1482   50.4179   17.9880 H   0  0  0  0  0  0
   -2.5273   48.7634   17.6613 H   0  0  0  0  0  0
   -3.9534   49.8528   19.4916 H   0  0  0  0  0  0
   -3.1522   48.3544   19.9845 H   0  0  0  0  0  0
   -2.2861   49.4007   21.6764 H   0  0  0  0  0  0
   -3.0863   51.4725   23.7316 H   0  0  0  0  0  0
   -2.1351   49.9753   23.3591 H   0  0  0  0  0  0
    1.0775   51.2906   24.5165 H   0  0  0  0  0  0
    0.2051   52.7765   24.3721 H   0  0  0  0  0  0
    0.0226   49.3999   22.6121 H   0  0  0  0  0  0
    0.4019   50.0366   21.0515 H   0  0  0  0  0  0
    2.3567   49.9534   23.4467 H   0  0  0  0  0  0
    2.4362   48.9896   21.9657 H   0  0  0  0  0  0
    3.8836   50.9188   21.8505 H   0  0  0  0  0  0
    2.7177   52.5775   23.1641 H   0  0  0  0  0  0
    3.0725   53.1611   21.5211 H   0  0  0  0  0  0
    0.7638   52.5947   20.7454 H   0  0  0  0  0  0
    0.7046   53.6476   22.1215 H   0  0  0  0  0  0
   -2.1965   52.0938   28.4029 H   0  0  0  0  0  0
   -0.7224   52.5192   30.3158 H   0  0  0  0  0  0
    2.5695   50.9770   28.0749 H   0  0  0  0  0  0
    1.1042   50.4465   26.2508 H   0  0  0  0  0  0
    2.7653   50.9551   20.6812 H   0  0  0  0  0  0
  1  6  2  0  0  0
  1  2  1  0  0  0
  1 37  1  0  0  0
  2  3  2  0  0  0
  2 38  1  0  0  0
  3  4  1  0  0  0
  3 39  1  0  0  0
  4  5  2  0  0  0
  4 36  1  0  0  0
  5  6  1  0  0  0
  5  7  1  0  0  0
  6 40  1  0  0  0
  7  8  1  0  0  0
  7 41  1  0  0  0
  7 42  1  0  0  0
  8  9  1  0  0  0
  8 43  1  0  0  0
  8 44  1  0  0  0
  9 10  1  0  0  0
  9 45  1  0  0  0
 10 11  2  0  0  0
 10 12  1  0  0  0
 12 13  1  0  0  0
 12 17  1  0  0  0
 12 14  1  0  0  0
 14 15  1  0  0  0
 14 46  1  0  0  0
 14 47  1  0  0  0
 15 16  1  0  0  0
 15 23  1  0  0  0
 16 17  1  0  0  0
 16 48  1  0  0  0
 16 49  1  0  0  0
 17 22  1  0  0  0
 17 18  1  0  0  0
 18 19  1  0  0  0
 18 50  1  0  0  0
 18 51  1  0  0  0
 19 20  1  0  0  0
 19 52  1  0  0  0
 19 53  1  0  0  0
 20 21  1  0  0  0
 20 54  1  0  0  0
 20 63  1  0  0  0
 21 22  1  0  0  0
 21 55  1  0  0  0
 21 56  1  0  0  0
 22 57  1  0  0  0
 22 58  1  0  0  0
 23 24  2  0  0  0
 23 25  1  0  0  0
 25 30  2  0  0  0
 25 26  1  0  0  0
 26 27  2  0  0  0
 26 59  1  0  0  0
 27 28  1  0  0  0
 27 60  1  0  0  0
 28 29  2  0  0  0
 28 31  1  0  0  0
 29 30  1  0  0  0
 29 61  1  0  0  0
 30 62  1  0  0  0
 31 32  1  0  0  0
 32 33  1  0  0  0
 32 34  1  0  0  0
 32 35  1  0  0  0
M  CHG  1  20   1
M  END
> <i_i_glide_confnum>
135

> <i_i_glide_lignum>
1279

> <i_i_glide_posenum>
142

> <i_i_glide_rotatable_bonds>
9

> <i_m_Source_File_Index>
4940

> <b_m_subgroup_collapsed>
0

> <r_i_docking_score>
-2.68325

> <r_i_glide_ecoul>
-3.43209

> <r_i_glide_eff_state_penalty>
0

> <r_i_glide_einternal>
13.6048

> <r_i_glide_emodel>
-32.5522

> <r_i_glide_energy>
-31.574

> <r_i_glide_erotb>
0.583369

> <r_i_glide_esite>
-0.0817416

> <r_i_glide_evdw>
-28.1419

> <r_i_glide_gscore>
-2.68325

> <r_i_glide_hbond>
-0.474461

> <r_i_glide_ligand_efficiency>
-0.0766644

> <r_i_glide_ligand_efficiency_ln>
-0.589034

> <r_i_glide_ligand_efficiency_sa>
-0.250774

> <r_i_glide_lipo>
-0.725567

> <r_i_glide_metal>
0

> <r_i_glide_rewards>
-0.0629439

> <s_i_glide_gridfile>
wee1_glide-grid

> <s_m_Source_File>
wee1_decoys_glide_SP.sdf

> <s_m_Source_Path>
/Users/zhangxujun/Desktop

> <s_m_entry_id>
5215

> <s_m_entry_name>
wee1_decoys_glide_SP.4940

> <s_m_subgroup_title>
wee1_decoys_glide_SP

> <s_m_subgroupid>
wee1_decoys_glide_SP


$$$$
