ZINC63477697_1395
                    3D
 Schrodinger Suite 2024-2.
 46 48  0  0  1  0            999 V2000
    5.9044   54.6643   27.3561 C   0  0  0  0  0  0
    5.7512   54.6569   25.8496 C   0  0  0  0  0  0
    6.6479   55.1580   25.0394 N   0  0  0  0  0  0
    6.1618   54.8967   23.7872 C   0  0  0  0  0  0
    6.7044   55.2552   22.5448 C   0  0  0  0  0  0
    6.0132   54.8967   21.3886 C   0  0  0  0  0  0
    4.8337   54.1571   21.4564 C   0  0  0  0  0  0
    4.2681   53.7773   22.6753 C   0  0  0  0  0  0
    4.9310   54.1901   23.8422 C   0  0  0  0  0  0
    4.6635   54.0967   25.2034 N   0  0  0  0  0  0
    3.5892   53.4942   25.8471 N   0  0  0  0  0  0
    2.2964   53.5674   25.4784 C   0  0  0  0  0  0
    1.8719   54.1514   24.4817 O   0  0  0  0  0  0
    1.4051   52.8589   26.3556 C   0  0  0  0  0  0
    1.4669   52.5462   27.7147 C   0  0  0  0  0  0
    0.2532   51.9374   28.0478 C   0  0  0  0  0  0
   -0.5144   51.9513   26.8955 C   0  0  0  0  0  0
    0.1867   52.4967   25.8703 O   0  0  0  0  0  0
   -2.1717   51.3254   26.5536 S   0  0  0  0  0  0
   -2.6970   52.0786   25.4091 O   0  0  0  0  0  0
   -2.8761   51.2967   27.8394 O   0  0  0  0  0  0
   -1.8322   49.6573   26.0817 N   0  0  0  0  0  0
   -1.0706   49.2235   24.8803 C   0  0  0  0  0  0
    0.4255   49.1499   25.2272 C   0  0  0  0  0  0
   -1.2922   50.1536   23.6696 C   0  0  0  0  0  0
   -1.5631   47.8067   24.5269 C   0  0  0  0  0  0
    6.7860   55.2172   27.6816 H   0  0  0  0  0  0
    5.0475   55.1253   27.8469 H   0  0  0  0  0  0
    6.0018   53.6537   27.7534 H   0  0  0  0  0  0
    7.6267   55.8094   22.4817 H   0  0  0  0  0  0
    6.4080   55.1735   20.4212 H   0  0  0  0  0  0
    4.3346   53.8819   20.5373 H   0  0  0  0  0  0
    3.3412   53.2240   22.6979 H   0  0  0  0  0  0
    3.8158   52.9253   26.6486 H   0  0  0  0  0  0
    2.2896   52.7364   28.3880 H   0  0  0  0  0  0
   -0.0465   51.5465   29.0107 H   0  0  0  0  0  0
   -1.6962   49.0442   26.9114 H   0  0  0  0  0  0
    1.0061   48.7618   24.3903 H   0  0  0  0  0  0
    0.6102   48.4967   26.0817 H   0  0  0  0  0  0
    0.8443   50.1224   25.4661 H   0  0  0  0  0  0
   -2.3525   50.2666   23.4407 H   0  0  0  0  0  0
   -0.8787   51.1480   23.8366 H   0  0  0  0  0  0
   -0.8073   49.7610   22.7752 H   0  0  0  0  0  0
   -2.6290   47.8020   24.2949 H   0  0  0  0  0  0
   -1.0369   47.4022   23.6615 H   0  0  0  0  0  0
   -1.4073   47.1136   25.3560 H   0  0  0  0  0  0
  1  2  1  0  0  0
  1 27  1  0  0  0
  1 28  1  0  0  0
  1 29  1  0  0  0
  2 10  1  0  0  0
  2  3  2  0  0  0
  3  4  1  0  0  0
  4  9  2  0  0  0
  4  5  1  0  0  0
  5  6  2  0  0  0
  5 30  1  0  0  0
  6  7  1  0  0  0
  6 31  1  0  0  0
  7  8  2  0  0  0
  7 32  1  0  0  0
  8  9  1  0  0  0
  8 33  1  0  0  0
  9 10  1  0  0  0
 10 11  1  0  0  0
 11 12  1  0  0  0
 11 34  1  0  0  0
 12 13  2  0  0  0
 12 14  1  0  0  0
 14 18  1  0  0  0
 14 15  2  0  0  0
 15 16  1  0  0  0
 15 35  1  0  0  0
 16 17  2  0  0  0
 16 36  1  0  0  0
 17 18  1  0  0  0
 17 19  1  0  0  0
 19 20  2  0  0  0
 19 21  2  0  0  0
 19 22  1  0  0  0
 22 23  1  0  0  0
 22 37  1  0  0  0
 23 24  1  0  0  0
 23 25  1  0  0  0
 23 26  1  0  0  0
 24 38  1  0  0  0
 24 39  1  0  0  0
 24 40  1  0  0  0
 25 41  1  0  0  0
 25 42  1  0  0  0
 25 43  1  0  0  0
 26 44  1  0  0  0
 26 45  1  0  0  0
 26 46  1  0  0  0
M  END
> <i_i_glide_confnum>
46

> <i_i_glide_lignum>
1396

> <i_i_glide_posenum>
99

> <i_i_glide_rotatable_bonds>
6

> <i_m_Source_File_Index>
3908

> <b_m_subgroup_collapsed>
0

> <r_i_docking_score>
-7.20945

> <r_i_glide_ecoul>
-7.22297

> <r_i_glide_eff_state_penalty>
0

> <r_i_glide_einternal>
4.37554

> <r_i_glide_emodel>
-64.9082

> <r_i_glide_energy>
-45.7887

> <r_i_glide_erotb>
0.683047

> <r_i_glide_esite>
-0.228186

> <r_i_glide_evdw>
-38.5658

> <r_i_glide_gscore>
-7.20945

> <r_i_glide_hbond>
-0.221532

> <r_i_glide_ligand_efficiency>
-0.277286

> <r_i_glide_ligand_efficiency_ln>
-1.69311

> <r_i_glide_ligand_efficiency_sa>
-0.82146

> <r_i_glide_lipo>
-1.91754

> <r_i_glide_metal>
0

> <r_i_glide_rewards>
-2.51351

> <s_i_glide_gridfile>
wee1_glide-grid

> <s_m_Source_File>
wee1_decoys_glide_SP.sdf

> <s_m_Source_Path>
/Users/zhangxujun/Desktop

> <s_m_entry_id>
4183

> <s_m_entry_name>
wee1_decoys_glide_SP.3908

> <s_m_subgroup_title>
wee1_decoys_glide_SP

> <s_m_subgroupid>
wee1_decoys_glide_SP


$$$$
