ZINC22487203_2759
                    3D
 Schrodinger Suite 2024-2.
 53 56  0  0  1  0            999 V2000
    2.5744   52.0964   17.8604 C   0  0  0  0  0  0
    3.2451   52.5788   19.1408 C   0  0  0  0  0  0
    2.8035   52.1899   20.2215 O   0  0  0  0  0  0
    4.2891   53.4178   18.9666 N   0  0  0  0  0  0
    5.1140   54.0447   19.9201 C   0  0  0  0  0  0
    6.1109   54.8937   19.4286 C   0  0  0  0  0  0
    6.9932   55.5339   20.3003 C   0  0  0  0  0  0
    6.8888   55.3342   21.6769 C   0  0  0  0  0  0
    5.8867   54.4948   22.1852 C   0  0  0  0  0  0
    5.0099   53.8571   21.3061 C   0  0  0  0  0  0
    5.6854   54.2023   23.5395 N   0  0  0  0  0  0
    6.2014   54.7802   24.6406 C   0  0  0  0  0  0
    7.0202   55.6967   24.6476 O   0  0  0  0  0  0
    5.6631   54.2320   25.9687 C   0  0  1  0  0  0
    5.7723   53.1577   25.8265 H   0  0  0  0  0  0
    6.4642   54.6314   27.2074 C   0  0  0  0  0  0
    5.8275   53.8904   28.3865 C   0  0  0  0  0  0
    4.2821   54.0173   28.4692 C   0  0  0  0  0  0
    3.5964   53.6945   27.1956 N   0  0  0  0  0  0
    4.1630   54.5584   26.1458 C   0  0  0  0  0  0
    2.2737   53.2511   27.1322 C   0  0  0  0  0  0
    1.6775   52.8968   25.9137 C   0  0  0  0  0  0
    0.3858   52.3777   25.9202 C   0  0  0  0  0  0
   -0.2652   52.2348   27.1481 C   0  0  0  0  0  0
    0.3536   52.5629   28.3153 N   0  0  0  0  0  0
    1.6055   53.0510   28.3060 N   0  0  0  0  0  0
   -1.6663   51.7286   27.2804 C   0  0  0  0  0  0
   -2.3418   51.2966   28.4220 C   0  0  0  0  0  0
   -3.6611   50.8998   28.1823 C   0  0  0  0  0  0
   -4.0284   51.0551   26.8560 C   0  0  0  0  0  0
   -2.7261   51.6706   25.8939 S   0  0  0  0  0  0
    2.8966   52.6688   16.9904 H   0  0  0  0  0  0
    1.4914   52.1869   17.9471 H   0  0  0  0  0  0
    2.8202   51.0475   17.6882 H   0  0  0  0  0  0
    4.5383   53.6019   18.0081 H   0  0  0  0  0  0
    6.2183   55.0543   18.3652 H   0  0  0  0  0  0
    7.7710   56.1704   19.9050 H   0  0  0  0  0  0
    7.6027   55.8212   22.3236 H   0  0  0  0  0  0
    4.2550   53.2096   21.7208 H   0  0  0  0  0  0
    5.0002   53.4826   23.7080 H   0  0  0  0  0  0
    7.5049   54.3100   27.1515 H   0  0  0  0  0  0
    6.3824   55.6970   27.4169 H   0  0  0  0  0  0
    6.1076   52.8364   28.3915 H   0  0  0  0  0  0
    6.2710   54.3086   29.2818 H   0  0  0  0  0  0
    3.9548   53.3077   29.2301 H   0  0  0  0  0  0
    3.9814   55.0083   28.8137 H   0  0  0  0  0  0
    4.0358   55.5946   26.4593 H   0  0  0  0  0  0
    3.6333   54.4841   25.1971 H   0  0  0  0  0  0
    2.2011   52.9832   24.9748 H   0  0  0  0  0  0
   -0.0881   52.0945   24.9924 H   0  0  0  0  0  0
   -1.8816   51.2335   29.3982 H   0  0  0  0  0  0
   -4.3128   50.5081   28.9496 H   0  0  0  0  0  0
   -4.9807   50.8242   26.4023 H   0  0  0  0  0  0
  1  2  1  0  0  0
  1 32  1  0  0  0
  1 33  1  0  0  0
  1 34  1  0  0  0
  2  3  2  0  0  0
  2  4  1  0  0  0
  4  5  1  0  0  0
  4 35  1  0  0  0
  5 10  2  0  0  0
  5  6  1  0  0  0
  6  7  2  0  0  0
  6 36  1  0  0  0
  7  8  1  0  0  0
  7 37  1  0  0  0
  8  9  2  0  0  0
  8 38  1  0  0  0
  9 10  1  0  0  0
  9 11  1  0  0  0
 10 39  1  0  0  0
 11 12  1  0  0  0
 11 40  1  0  0  0
 12 13  2  0  0  0
 12 14  1  0  0  0
 14 15  1  0  0  0
 14 20  1  0  0  0
 14 16  1  0  0  0
 16 17  1  0  0  0
 16 41  1  0  0  0
 16 42  1  0  0  0
 17 18  1  0  0  0
 17 43  1  0  0  0
 17 44  1  0  0  0
 18 19  1  0  0  0
 18 45  1  0  0  0
 18 46  1  0  0  0
 19 20  1  0  0  0
 19 21  1  0  0  0
 20 47  1  0  0  0
 20 48  1  0  0  0
 21 26  2  0  0  0
 21 22  1  0  0  0
 22 23  2  0  0  0
 22 49  1  0  0  0
 23 24  1  0  0  0
 23 50  1  0  0  0
 24 25  2  0  0  0
 24 27  1  0  0  0
 25 26  1  0  0  0
 27 31  1  0  0  0
 27 28  2  0  0  0
 28 29  1  0  0  0
 28 51  1  0  0  0
 29 30  2  0  0  0
 29 52  1  0  0  0
 30 31  1  0  0  0
 30 53  1  0  0  0
M  END
> <i_i_glide_confnum>
41

> <i_i_glide_lignum>
2760

> <i_i_glide_posenum>
201

> <i_i_glide_rotatable_bonds>
7

> <i_m_Source_File_Index>
727

> <b_m_subgroup_collapsed>
0

> <r_i_docking_score>
-6.13124

> <r_i_glide_ecoul>
-2.21874

> <r_i_glide_eff_state_penalty>
0

> <r_i_glide_einternal>
4.39092

> <r_i_glide_emodel>
-69.9737

> <r_i_glide_energy>
-49.6278

> <r_i_glide_erotb>
0.668706

> <r_i_glide_esite>
-0.0864756

> <r_i_glide_evdw>
-47.4091

> <r_i_glide_gscore>
-6.13124

> <r_i_glide_hbond>
-0.180181

> <r_i_glide_ligand_efficiency>
-0.204375

> <r_i_glide_ligand_efficiency_ln>
-1.39309

> <r_i_glide_ligand_efficiency_sa>
-0.63504

> <r_i_glide_lipo>
-2.57194

> <r_i_glide_metal>
0

> <r_i_glide_rewards>
-1.25809

> <s_i_glide_gridfile>
wee1_glide-grid

> <s_m_Source_File>
wee1_decoys_glide_SP.sdf

> <s_m_Source_Path>
/Users/zhangxujun/Desktop

> <s_m_entry_id>
1002

> <s_m_entry_name>
wee1_decoys_glide_SP.727

> <s_m_subgroup_title>
wee1_decoys_glide_SP

> <s_m_subgroupid>
wee1_decoys_glide_SP


$$$$
