ZINC22620725_4064
                    3D
 Schrodinger Suite 2024-2.
 64 66  0  0  1  0            999 V2000
    0.6747   52.4438   18.4148 C   0  0  0  0  0  0
    1.3179   51.4183   19.3731 C   0  0  2  0  0  0
    0.5376   50.8875   19.9219 H   0  0  0  0  0  0
    2.3283   52.1152   20.2805 C   0  0  0  0  0  0
    3.4337   52.6549   19.8320 N   0  0  0  0  0  0
    4.0387   53.2886   20.9019 N   0  0  0  0  0  0
    3.3107   53.0755   21.9691 C   0  0  0  0  0  0
    2.2084   52.3041   21.6490 N   0  0  0  0  0  0
    1.1605   51.9094   22.5093 C   0  0  0  0  0  0
    0.8255   50.5555   22.6174 C   0  0  0  0  0  0
   -0.1966   50.1644   23.4770 C   0  0  0  0  0  0
   -0.8807   51.1239   24.2207 C   0  0  0  0  0  0
   -0.5427   52.4719   24.1241 C   0  0  0  0  0  0
    0.4901   52.8668   23.2811 C   0  0  0  0  0  0
   -2.1537   50.6382   25.2781 Cl  0  0  0  0  0  0
    3.6818   53.6607   23.6004 S   0  0  0  0  0  0
    5.3757   54.3587   23.4988 C   0  0  2  0  0  0
    5.2155   55.2967   23.0103 H   0  0  0  0  0  0
    6.4207   53.6948   22.6079 C   0  0  0  0  0  0
    5.9650   54.7126   24.8688 C   0  0  0  0  0  0
    6.7046   55.6967   24.9664 O   0  0  0  0  0  0
    5.6612   53.8626   25.8696 N   0  0  0  0  0  0
    5.7782   54.0903   27.1827 C   0  0  0  0  0  0
    6.3037   55.0769   27.6817 O   0  0  0  0  0  0
    5.1671   53.1275   27.8860 N   0  0  0  0  0  0
    4.3022   53.3481   29.0403 C   0  0  0  0  0  0
    2.9285   53.9667   28.6760 C   0  0  0  0  0  0
    1.9879   54.1446   29.8822 C   0  0  0  0  0  0
    1.8599   52.8643   30.7356 C   0  0  0  0  0  0
    3.2272   52.2662   31.1216 C   0  0  0  0  0  0
    4.1352   52.0715   29.8993 C   0  0  0  0  0  0
    2.0590   50.3024   18.5793 N   0  3  0  0  0  0
    2.5238   49.1415   19.4862 C   0  0  0  0  0  0
    1.2978   49.7297   17.3601 C   0  0  0  0  0  0
    0.2792   53.2959   18.9679 H   0  0  0  0  0  0
    1.4017   52.8421   17.7057 H   0  0  0  0  0  0
   -0.1538   52.0154   17.8506 H   0  0  0  0  0  0
    1.3606   49.8037   22.0571 H   0  0  0  0  0  0
   -0.4565   49.1200   23.5706 H   0  0  0  0  0  0
   -1.0737   53.2087   24.7093 H   0  0  0  0  0  0
    0.7668   53.9109   23.2469 H   0  0  0  0  0  0
    7.4516   53.9234   22.8900 H   0  0  0  0  0  0
    6.3042   52.6106   22.5950 H   0  0  0  0  0  0
    6.3044   54.0736   21.5917 H   0  0  0  0  0  0
    5.1545   53.0317   25.6049 H   0  0  0  0  0  0
    5.0934   52.2134   27.4635 H   0  0  0  0  0  0
    4.8133   54.0691   29.6817 H   0  0  0  0  0  0
    2.4324   53.3191   27.9515 H   0  0  0  0  0  0
    3.0689   54.9313   28.1851 H   0  0  0  0  0  0
    1.0003   54.4483   29.5314 H   0  0  0  0  0  0
    2.3514   54.9772   30.4816 H   0  0  0  0  0  0
    1.2927   52.1196   30.1734 H   0  0  0  0  0  0
    1.2692   53.0668   31.6310 H   0  0  0  0  0  0
    3.0835   51.3257   31.6538 H   0  0  0  0  0  0
    3.7555   52.8966   31.8315 H   0  0  0  0  0  0
    5.1043   51.6970   30.2268 H   0  0  0  0  0  0
    3.6923   51.2920   29.2813 H   0  0  0  0  0  0
    1.6372   48.6191   19.8499 H   0  0  0  0  0  0
    3.1515   48.4860   18.8781 H   0  0  0  0  0  0
    3.1043   49.5638   20.3067 H   0  0  0  0  0  0
    0.3326   49.3578   17.7056 H   0  0  0  0  0  0
    1.1878   50.5295   16.6273 H   0  0  0  0  0  0
    1.9043   48.9295   16.9300 H   0  0  0  0  0  0
    2.9113   50.7170   18.2080 H   0  0  0  0  0  0
  1  2  1  0  0  0
  1 35  1  0  0  0
  1 36  1  0  0  0
  1 37  1  0  0  0
  2  3  1  0  0  0
  2  4  1  0  0  0
  2 32  1  0  0  0
  4  8  1  0  0  0
  4  5  2  0  0  0
  5  6  1  0  0  0
  6  7  2  0  0  0
  7  8  1  0  0  0
  7 16  1  0  0  0
  8  9  1  0  0  0
  9 14  2  0  0  0
  9 10  1  0  0  0
 10 11  2  0  0  0
 10 38  1  0  0  0
 11 12  1  0  0  0
 11 39  1  0  0  0
 12 13  2  0  0  0
 12 15  1  0  0  0
 13 14  1  0  0  0
 13 40  1  0  0  0
 14 41  1  0  0  0
 16 17  1  0  0  0
 17 18  1  0  0  0
 17 19  1  0  0  0
 17 20  1  0  0  0
 19 42  1  0  0  0
 19 43  1  0  0  0
 19 44  1  0  0  0
 20 21  2  0  0  0
 20 22  1  0  0  0
 22 23  1  0  0  0
 22 45  1  0  0  0
 23 24  2  0  0  0
 23 25  1  0  0  0
 25 26  1  0  0  0
 25 46  1  0  0  0
 26 31  1  0  0  0
 26 27  1  0  0  0
 26 47  1  0  0  0
 27 28  1  0  0  0
 27 48  1  0  0  0
 27 49  1  0  0  0
 28 29  1  0  0  0
 28 50  1  0  0  0
 28 51  1  0  0  0
 29 30  1  0  0  0
 29 52  1  0  0  0
 29 53  1  0  0  0
 30 31  1  0  0  0
 30 54  1  0  0  0
 30 55  1  0  0  0
 31 56  1  0  0  0
 31 57  1  0  0  0
 32 33  1  0  0  0
 32 34  1  0  0  0
 32 64  1  0  0  0
 33 58  1  0  0  0
 33 59  1  0  0  0
 33 60  1  0  0  0
 34 61  1  0  0  0
 34 62  1  0  0  0
 34 63  1  0  0  0
M  CHG  1  32   1
M  END
> <i_i_glide_confnum>
275

> <i_i_glide_lignum>
4065

> <i_i_glide_posenum>
119

> <i_i_glide_rotatable_bonds>
10

> <i_m_Source_File_Index>
1705

> <b_m_subgroup_collapsed>
0

> <r_i_docking_score>
-4.30593

> <r_i_glide_ecoul>
-2.73174

> <r_i_glide_eff_state_penalty>
0

> <r_i_glide_einternal>
10.1544

> <r_i_glide_emodel>
-51.1541

> <r_i_glide_energy>
-43.881

> <r_i_glide_erotb>
0.703897

> <r_i_glide_esite>
-0.120209

> <r_i_glide_evdw>
-41.1492

> <r_i_glide_gscore>
-4.30593

> <r_i_glide_hbond>
-0.137685

> <r_i_glide_ligand_efficiency>
-0.13456

> <r_i_glide_ligand_efficiency_ln>
-0.964216

> <r_i_glide_ligand_efficiency_sa>
-0.427203

> <r_i_glide_lipo>
-1.72749

> <r_i_glide_metal>
0

> <r_i_glide_rewards>
-0.55722

> <s_i_glide_gridfile>
wee1_glide-grid

> <s_m_Source_File>
wee1_decoys_glide_SP.sdf

> <s_m_Source_Path>
/Users/zhangxujun/Desktop

> <s_m_entry_id>
1980

> <s_m_entry_name>
wee1_decoys_glide_SP.1705

> <s_m_subgroup_title>
wee1_decoys_glide_SP

> <s_m_subgroupid>
wee1_decoys_glide_SP


$$$$
