ZINC56736381_1386
                    3D
 Schrodinger Suite 2024-2.
 48 50  0  0  1  0            999 V2000
    4.0646   52.5700   28.4423 C   0  0  0  0  0  0
    4.1993   54.0841   28.1979 C   0  0  0  0  0  0
    2.7907   54.7108   28.3175 C   0  0  0  0  0  0
    5.1147   54.6344   29.3131 C   0  0  0  0  0  0
    4.8022   54.3301   26.8005 C   0  0  0  0  0  0
    6.0533   54.6923   26.5878 N   0  0  0  0  0  0
    6.4038   54.7976   25.2462 N   0  0  0  0  0  0
    5.4171   54.4899   24.4448 C   0  0  0  0  0  0
    3.9377   54.0977   25.2966 S   0  0  0  0  0  0
    5.5857   54.4967   23.0627 N   0  0  0  0  0  0
    4.7178   54.0966   22.0990 C   0  0  0  0  0  0
    3.6210   53.5995   22.3674 O   0  0  0  0  0  0
    5.1047   54.3472   20.8099 N   0  0  0  0  0  0
    4.2909   53.8072   19.6915 C   0  0  0  0  0  0
    4.1395   54.8910   18.5984 C   0  0  0  0  0  0
    5.4784   55.4738   18.1296 C   0  0  0  0  0  0
    6.2262   56.0089   19.3674 C   0  0  1  0  0  0
    5.6668   56.8426   19.7978 H   0  0  0  0  0  0
    6.4312   54.8968   20.4287 C   0  0  0  0  0  0
    7.5852   56.6035   18.9290 C   0  0  0  0  0  0
    8.6245   55.9914   19.1710 O   0  0  0  0  0  0
    7.5275   57.8078   18.3156 N   0  0  0  0  0  0
    8.5879   58.5844   17.8613 C   0  0  0  0  0  0
    8.3542   59.6957   17.2114 N   0  0  0  0  0  0
    9.4652   60.3203   16.8772 C   0  0  0  0  0  0
   10.6572   59.7077   17.2564 C   0  0  0  0  0  0
   10.2856   58.2276   18.0904 S   0  0  0  0  0  0
    3.6160   52.3463   29.4118 H   0  0  0  0  0  0
    5.0463   52.0960   28.4211 H   0  0  0  0  0  0
    3.4423   52.0996   27.6818 H   0  0  0  0  0  0
    2.8044   55.7855   28.1707 H   0  0  0  0  0  0
    2.1000   54.2995   27.5801 H   0  0  0  0  0  0
    2.3514   54.5264   29.2986 H   0  0  0  0  0  0
    5.3166   55.6895   29.2186 H   0  0  0  0  0  0
    4.6989   54.4841   30.3071 H   0  0  0  0  0  0
    6.0909   54.1502   29.2811 H   0  0  0  0  0  0
    6.4851   54.8311   22.7524 H   0  0  0  0  0  0
    4.8059   52.9401   19.2763 H   0  0  0  0  0  0
    3.2839   53.5201   20.0022 H   0  0  0  0  0  0
    3.6070   54.4637   17.7482 H   0  0  0  0  0  0
    3.5022   55.6936   18.9610 H   0  0  0  0  0  0
    6.0211   54.6519   17.6578 H   0  0  0  0  0  0
    5.2448   56.2633   17.4122 H   0  0  0  0  0  0
    6.9802   55.3220   21.2664 H   0  0  0  0  0  0
    7.0124   54.0988   19.9704 H   0  0  0  0  0  0
    6.6145   58.1936   18.1277 H   0  0  0  0  0  0
    9.3843   61.2495   16.3288 H   0  0  0  0  0  0
   11.6766   60.0220   17.0858 H   0  0  0  0  0  0
  1  2  1  0  0  0
  1 28  1  0  0  0
  1 29  1  0  0  0
  1 30  1  0  0  0
  2  3  1  0  0  0
  2  4  1  0  0  0
  2  5  1  0  0  0
  3 31  1  0  0  0
  3 32  1  0  0  0
  3 33  1  0  0  0
  4 34  1  0  0  0
  4 35  1  0  0  0
  4 36  1  0  0  0
  5  9  1  0  0  0
  5  6  2  0  0  0
  6  7  1  0  0  0
  7  8  2  0  0  0
  8  9  1  0  0  0
  8 10  1  0  0  0
 10 11  1  0  0  0
 10 37  1  0  0  0
 11 12  2  0  0  0
 11 13  1  0  0  0
 13 19  1  0  0  0
 13 14  1  0  0  0
 14 15  1  0  0  0
 14 38  1  0  0  0
 14 39  1  0  0  0
 15 16  1  0  0  0
 15 40  1  0  0  0
 15 41  1  0  0  0
 16 17  1  0  0  0
 16 42  1  0  0  0
 16 43  1  0  0  0
 17 18  1  0  0  0
 17 19  1  0  0  0
 17 20  1  0  0  0
 19 44  1  0  0  0
 19 45  1  0  0  0
 20 21  2  0  0  0
 20 22  1  0  0  0
 22 23  1  0  0  0
 22 46  1  0  0  0
 23 27  1  0  0  0
 23 24  2  0  0  0
 24 25  1  0  0  0
 25 26  2  0  0  0
 25 47  1  0  0  0
 26 27  1  0  0  0
 26 48  1  0  0  0
M  END
> <i_i_glide_confnum>
11

> <i_i_glide_lignum>
1387

> <i_i_glide_posenum>
244

> <i_i_glide_rotatable_bonds>
7

> <i_m_Source_File_Index>
3310

> <b_m_subgroup_collapsed>
0

> <r_i_docking_score>
-3.81153

> <r_i_glide_ecoul>
0.95173

> <r_i_glide_eff_state_penalty>
0

> <r_i_glide_einternal>
2.37947

> <r_i_glide_emodel>
-42.7492

> <r_i_glide_energy>
-36.1715

> <r_i_glide_erotb>
0.753478

> <r_i_glide_esite>
-0.028173

> <r_i_glide_evdw>
-37.1232

> <r_i_glide_gscore>
-3.81153

> <r_i_glide_hbond>
0

> <r_i_glide_ligand_efficiency>
-0.146597

> <r_i_glide_ligand_efficiency_ln>
-0.895126

> <r_i_glide_ligand_efficiency_sa>
-0.434294

> <r_i_glide_lipo>
-1.72965

> <r_i_glide_metal>
0

> <r_i_glide_rewards>
-1.09379

> <s_i_glide_gridfile>
wee1_glide-grid

> <s_m_Source_File>
wee1_decoys_glide_SP.sdf

> <s_m_Source_Path>
/Users/zhangxujun/Desktop

> <s_m_entry_id>
3585

> <s_m_entry_name>
wee1_decoys_glide_SP.3310

> <s_m_subgroup_title>
wee1_decoys_glide_SP

> <s_m_subgroupid>
wee1_decoys_glide_SP


$$$$
