ZINC39945664_193
                    3D
 Schrodinger Suite 2024-2.
 54 58  0  0  1  0            999 V2000
    5.4443   54.4399   25.6183 C   0  0  0  0  0  0
    6.4947   54.1789   24.7444 C   0  0  0  0  0  0
    6.2382   53.9873   23.3902 C   0  0  0  0  0  0
    4.9329   54.0966   22.8874 C   0  0  0  0  0  0
    3.8874   54.3566   23.7831 C   0  0  0  0  0  0
    4.1382   54.5127   25.1439 C   0  0  0  0  0  0
    4.5965   53.8665   21.3966 C   0  0  1  0  0  0
    3.5700   54.1991   21.2380 H   0  0  0  0  0  0
    5.4663   54.6842   20.3997 C   0  0  0  0  0  0
    6.5451   55.1713   20.7433 O   0  0  0  0  0  0
    4.9169   54.9710   19.0695 C   0  0  0  0  0  0
    5.1040   56.0566   18.2917 C   0  0  0  0  0  0
    5.9204   57.2701   18.4731 C   0  0  0  0  0  0
    5.9012   58.2596   17.5585 C   0  0  0  0  0  0
    5.0376   58.1008   16.3983 C   0  0  0  0  0  0
    4.2854   56.9838   16.2074 C   0  0  0  0  0  0
    4.3090   55.9416   17.1453 C   0  0  0  0  0  0
    3.6572   54.7991   17.1427 N   0  3  0  0  0  0
    3.9838   54.0160   18.3500 C   0  0  0  0  0  0
    4.6968   52.0931   20.9435 S   0  0  0  0  0  0
    3.0571   51.5711   21.3793 C   0  0  0  0  0  0
    2.3577   52.0963   22.3553 N   0  0  0  0  0  0
    1.1521   51.4222   22.4420 N   0  0  0  0  0  0
    1.1771   50.4769   21.5363 C   0  0  0  0  0  0
    2.3414   50.5398   20.7982 N   0  0  0  0  0  0
    2.7044   49.7194   19.7394 N   0  0  0  0  0  0
    0.0709   49.4477   21.3347 C   0  0  0  0  0  0
   -0.7435   49.1499   22.5965 C   0  0  0  0  0  0
   -0.0957   48.6858   23.7497 C   0  0  0  0  0  0
   -0.8162   48.4428   24.9185 C   0  0  0  0  0  0
   -2.1922   48.6587   24.9463 C   0  0  0  0  0  0
   -2.8477   49.1161   23.8024 C   0  0  0  0  0  0
   -2.1287   49.3635   22.6313 C   0  0  0  0  0  0
   -2.7843   49.8201   21.5383 F   0  0  0  0  0  0
    5.6417   54.5723   26.6724 H   0  0  0  0  0  0
    7.5042   54.1064   25.1138 H   0  0  0  0  0  0
    7.0679   53.7546   22.7427 H   0  0  0  0  0  0
    2.8696   54.4384   23.4306 H   0  0  0  0  0  0
    3.3226   54.7044   25.8255 H   0  0  0  0  0  0
    6.5548   57.4002   19.3368 H   0  0  0  0  0  0
    6.4843   59.1630   17.6845 H   0  0  0  0  0  0
    4.9869   58.9097   15.6813 H   0  0  0  0  0  0
    3.6571   56.9287   15.3292 H   0  0  0  0  0  0
    3.0569   53.7932   18.8786 H   0  0  0  0  0  0
    4.4623   53.0848   18.0337 H   0  0  0  0  0  0
    2.9487   50.2320   18.9010 H   0  0  0  0  0  0
    3.4297   49.0630   19.9976 H   0  0  0  0  0  0
   -0.5766   49.7576   20.5138 H   0  0  0  0  0  0
    0.4965   48.5007   21.0018 H   0  0  0  0  0  0
    0.9745   48.5303   23.7485 H   0  0  0  0  0  0
   -0.3103   48.0976   25.8105 H   0  0  0  0  0  0
   -2.7414   48.4799   25.8607 H   0  0  0  0  0  0
   -3.9133   49.2883   23.8237 H   0  0  0  0  0  0
    3.0182   54.4861   16.4162 H   0  0  0  0  0  0
  1  6  2  0  0  0
  1  2  1  0  0  0
  1 35  1  0  0  0
  2  3  2  0  0  0
  2 36  1  0  0  0
  3  4  1  0  0  0
  3 37  1  0  0  0
  4  5  2  0  0  0
  4  7  1  0  0  0
  5  6  1  0  0  0
  5 38  1  0  0  0
  6 39  1  0  0  0
  7  8  1  0  0  0
  7  9  1  0  0  0
  7 20  1  0  0  0
  9 10  2  0  0  0
  9 11  1  0  0  0
 11 19  1  0  0  0
 11 12  2  0  0  0
 12 17  1  0  0  0
 12 13  1  0  0  0
 13 14  2  0  0  0
 13 40  1  0  0  0
 14 15  1  0  0  0
 14 41  1  0  0  0
 15 16  2  0  0  0
 15 42  1  0  0  0
 16 17  1  0  0  0
 16 43  1  0  0  0
 17 18  2  0  0  0
 18 19  1  0  0  0
 18 54  1  0  0  0
 19 44  1  0  0  0
 19 45  1  0  0  0
 20 21  1  0  0  0
 21 25  1  0  0  0
 21 22  2  0  0  0
 22 23  1  0  0  0
 23 24  2  0  0  0
 24 25  1  0  0  0
 24 27  1  0  0  0
 25 26  1  0  0  0
 26 46  1  0  0  0
 26 47  1  0  0  0
 27 28  1  0  0  0
 27 48  1  0  0  0
 27 49  1  0  0  0
 28 33  2  0  0  0
 28 29  1  0  0  0
 29 30  2  0  0  0
 29 50  1  0  0  0
 30 31  1  0  0  0
 30 51  1  0  0  0
 31 32  2  0  0  0
 31 52  1  0  0  0
 32 33  1  0  0  0
 32 53  1  0  0  0
 33 34  1  0  0  0
M  CHG  1  18   1
M  END
> <i_i_glide_confnum>
175

> <i_i_glide_lignum>
194

> <i_i_glide_posenum>
337

> <i_i_glide_rotatable_bonds>
7

> <i_m_Source_File_Index>
1467

> <b_m_subgroup_collapsed>
0

> <r_i_docking_score>
-5.41997

> <r_i_glide_ecoul>
-7.68715

> <r_i_glide_eff_state_penalty>
0

> <r_i_glide_einternal>
4.50124

> <r_i_glide_emodel>
-63.1567

> <r_i_glide_energy>
-46.5583

> <r_i_glide_erotb>
0.669649

> <r_i_glide_esite>
-0.0661572

> <r_i_glide_evdw>
-38.8711

> <r_i_glide_gscore>
-5.41997

> <r_i_glide_hbond>
-0.32

> <r_i_glide_ligand_efficiency>
-0.164242

> <r_i_glide_ligand_efficiency_ln>
-1.20537

> <r_i_glide_ligand_efficiency_sa>
-0.52681

> <r_i_glide_lipo>
-1.98778

> <r_i_glide_metal>
0

> <r_i_glide_rewards>
-0.619048

> <s_i_glide_gridfile>
wee1_glide-grid

> <s_m_Source_File>
wee1_decoys_glide_SP.sdf

> <s_m_Source_Path>
/Users/zhangxujun/Desktop

> <s_m_entry_id>
1742

> <s_m_entry_name>
wee1_decoys_glide_SP.1467

> <s_m_subgroup_title>
wee1_decoys_glide_SP

> <s_m_subgroupid>
wee1_decoys_glide_SP


$$$$
