ZINC38611404_2774
                    3D
 Schrodinger Suite 2024-2.
 34 35  0  0  1  0            999 V2000
    0.4746   52.4687   29.7257 C   0  0  0  0  0  0
    1.9862   52.3890   29.7033 C   0  0  0  0  0  0
    2.8444   52.2170   28.6942 C   0  0  0  0  0  0
    4.2119   52.2640   29.3128 C   0  0  2  0  0  0
    4.8013   51.3582   29.1878 H   0  0  0  0  0  0
    3.8984   52.4047   30.7103 N   0  0  0  0  0  0
    2.6419   52.4869   30.8810 N   0  0  0  0  0  0
    5.0348   53.4744   28.7915 C   0  0  0  0  0  0
    5.0228   54.5459   29.4084 O   0  0  0  0  0  0
    5.6493   53.3431   27.5885 N   0  0  0  0  0  0
    6.4104   54.3496   27.0807 N   0  0  0  0  0  0
    6.2357   54.7274   25.8696 C   0  0  0  0  0  0
    5.2704   54.2999   24.8225 C   0  0  0  0  0  0
    5.7534   53.9585   23.5381 C   0  0  0  0  0  0
    4.8803   53.6713   22.4754 C   0  0  0  0  0  0
    3.5034   53.7250   22.7007 C   0  0  0  0  0  0
    3.0021   54.0544   23.9501 C   0  0  0  0  0  0
    3.8713   54.3560   25.0060 C   0  0  0  0  0  0
    3.1048   54.8959   26.6660 Br  0  0  0  0  0  0
    1.1071   54.0954   24.1511 Br  0  0  0  0  0  0
    5.4280   53.3629   21.2420 O   0  0  0  0  0  0
    4.5851   52.9806   20.1577 C   0  0  0  0  0  0
    7.1036   53.8937   23.2817 O   0  0  0  0  0  0
    0.0672   52.3350   28.7238 H   0  0  0  0  0  0
    0.0506   51.6973   30.3668 H   0  0  0  0  0  0
    0.1501   53.4397   30.1011 H   0  0  0  0  0  0
    2.6341   52.0907   27.6422 H   0  0  0  0  0  0
    5.5037   52.5430   26.9892 H   0  0  0  0  0  0
    6.8705   55.5306   25.5076 H   0  0  0  0  0  0
    2.7991   53.5194   21.9083 H   0  0  0  0  0  0
    5.2013   52.7390   19.2911 H   0  0  0  0  0  0
    3.9985   52.0924   20.3976 H   0  0  0  0  0  0
    3.9123   53.7896   19.8681 H   0  0  0  0  0  0
    7.6816   54.2907   23.9377 H   0  0  0  0  0  0
  1  2  1  0  0  0
  1 24  1  0  0  0
  1 25  1  0  0  0
  1 26  1  0  0  0
  2  7  1  0  0  0
  2  3  2  0  0  0
  3  4  1  0  0  0
  3 27  1  0  0  0
  4  5  1  0  0  0
  4  6  1  0  0  0
  4  8  1  0  0  0
  6  7  2  0  0  0
  8  9  2  0  0  0
  8 10  1  0  0  0
 10 11  1  0  0  0
 10 28  1  0  0  0
 11 12  2  0  0  0
 12 13  1  0  0  0
 12 29  1  0  0  0
 13 18  2  0  0  0
 13 14  1  0  0  0
 14 15  2  0  0  0
 14 23  1  0  0  0
 15 16  1  0  0  0
 15 21  1  0  0  0
 16 17  2  0  0  0
 16 30  1  0  0  0
 17 18  1  0  0  0
 17 20  1  0  0  0
 18 19  1  0  0  0
 21 22  1  0  0  0
 22 31  1  0  0  0
 22 32  1  0  0  0
 22 33  1  0  0  0
 23 34  1  0  0  0
M  END
> <i_i_glide_confnum>
10

> <i_i_glide_lignum>
2775

> <i_i_glide_posenum>
208

> <i_i_glide_rotatable_bonds>
6

> <i_m_Source_File_Index>
4944

> <b_m_subgroup_collapsed>
0

> <r_i_docking_score>
-5.86841

> <r_i_glide_ecoul>
-5.83434

> <r_i_glide_eff_state_penalty>
0

> <r_i_glide_einternal>
14.1848

> <r_i_glide_emodel>
-51.5995

> <r_i_glide_energy>
-42.7607

> <r_i_glide_erotb>
0.426293

> <r_i_glide_esite>
-0.0453718

> <r_i_glide_evdw>
-36.9263

> <r_i_glide_gscore>
-5.86841

> <r_i_glide_hbond>
0

> <r_i_glide_ligand_efficiency>
-0.266746

> <r_i_glide_ligand_efficiency_ln>
-1.43445

> <r_i_glide_ligand_efficiency_sa>
-0.747433

> <r_i_glide_lipo>
-2.26847

> <r_i_glide_metal>
0

> <r_i_glide_rewards>
-1.25939

> <s_i_glide_gridfile>
wee1_glide-grid

> <s_m_Source_File>
wee1_decoys_glide_SP.sdf

> <s_m_Source_Path>
/Users/zhangxujun/Desktop

> <s_m_entry_id>
5219

> <s_m_entry_name>
wee1_decoys_glide_SP.4944

> <s_m_subgroup_title>
wee1_decoys_glide_SP

> <s_m_subgroupid>
wee1_decoys_glide_SP


$$$$
