ZINC32527458_4279
                    3D
 Schrodinger Suite 2024-2.
 57 59  0  0  1  0            999 V2000
    0.4373   49.0702   25.6244 C   0  0  0  0  0  0
    0.4474   49.8124   24.2795 C   0  0  0  0  0  0
    0.8787   51.3131   24.3292 C   0  0  1  0  0  0
    1.8136   51.3318   24.8816 H   0  0  0  0  0  0
    1.2783   51.8238   22.9132 C   0  0  0  0  0  0
    0.5525   51.5614   21.9530 O   0  0  0  0  0  0
    2.4497   52.4967   22.8304 N   0  0  0  0  0  0
    3.1637   52.8921   21.6915 C   0  0  0  0  0  0
    4.3628   53.6376   21.6666 C   0  0  0  0  0  0
    4.7652   53.9458   20.3250 C   0  0  0  0  0  0
    3.9821   53.2915   19.3636 C   0  0  0  0  0  0
    2.7044   52.3895   20.0928 S   0  0  0  0  0  0
    4.0937   53.3006   17.8541 C   0  0  0  0  0  0
    5.8468   54.9392   19.9138 C   0  0  0  0  0  0
    5.0300   54.0966   22.8859 C   0  0  0  0  0  0
    4.4781   54.0974   23.9818 O   0  0  0  0  0  0
    6.3047   54.4740   22.7831 N   0  0  0  0  0  0
   -0.0549   52.2561   25.0402 N   0  0  0  0  0  0
   -1.3290   52.3474   24.5293 C   0  0  0  0  0  0
   -1.6319   52.8969   23.4727 O   0  0  0  0  0  0
   -2.3330   51.7605   25.3994 C   0  0  0  0  0  0
   -2.1615   51.5561   26.7252 C   0  0  0  0  0  0
   -0.8492   51.9001   27.3352 C   0  0  0  0  0  0
    0.1659   52.3441   26.4572 C   0  0  0  0  0  0
    1.3354   52.9130   27.0051 C   0  0  0  0  0  0
    1.5154   52.9365   28.3915 C   0  0  0  0  0  0
    0.5411   52.4303   29.2491 C   0  0  0  0  0  0
   -0.6384   51.9124   28.7187 C   0  0  0  0  0  0
    0.7443   52.4927   30.7514 C   0  0  0  0  0  0
    2.3918   53.5902   26.1478 C   0  0  0  0  0  0
   -3.2597   50.9654   27.5973 C   0  0  0  0  0  0
    0.0913   48.0500   25.4744 H   0  0  0  0  0  0
    1.4313   49.0090   26.0706 H   0  0  0  0  0  0
   -0.2395   49.5143   26.3495 H   0  0  0  0  0  0
   -0.5361   49.7179   23.8152 H   0  0  0  0  0  0
    1.1306   49.2591   23.6305 H   0  0  0  0  0  0
    2.8815   52.7842   23.6980 H   0  0  0  0  0  0
    5.0709   53.6338   17.5034 H   0  0  0  0  0  0
    3.9444   52.3026   17.4380 H   0  0  0  0  0  0
    3.3453   53.9522   17.4031 H   0  0  0  0  0  0
    5.8760   55.8089   20.5705 H   0  0  0  0  0  0
    6.8419   54.4959   19.9050 H   0  0  0  0  0  0
    5.6672   55.3620   18.9250 H   0  0  0  0  0  0
    6.8117   54.7461   23.6118 H   0  0  0  0  0  0
    6.7574   54.5011   21.8828 H   0  0  0  0  0  0
   -3.2759   51.5095   24.9385 H   0  0  0  0  0  0
    2.4128   53.3710   28.8087 H   0  0  0  0  0  0
   -1.4031   51.5517   29.3912 H   0  0  0  0  0  0
    1.6512   51.9593   31.0356 H   0  0  0  0  0  0
   -0.0944   52.0535   31.2933 H   0  0  0  0  0  0
    0.8563   53.5275   31.0747 H   0  0  0  0  0  0
    3.1842   52.8948   25.8817 H   0  0  0  0  0  0
    1.9609   54.0206   25.2438 H   0  0  0  0  0  0
    2.8516   54.4210   26.6823 H   0  0  0  0  0  0
   -4.1179   50.6495   27.0035 H   0  0  0  0  0  0
   -2.8964   50.0964   28.1415 H   0  0  0  0  0  0
   -3.6152   51.6973   28.3206 H   0  0  0  0  0  0
  1  2  1  0  0  0
  1 32  1  0  0  0
  1 33  1  0  0  0
  1 34  1  0  0  0
  2  3  1  0  0  0
  2 35  1  0  0  0
  2 36  1  0  0  0
  3  4  1  0  0  0
  3  5  1  0  0  0
  3 18  1  0  0  0
  5  6  2  0  0  0
  5  7  1  0  0  0
  7  8  1  0  0  0
  7 37  1  0  0  0
  8 12  1  0  0  0
  8  9  2  0  0  0
  9 10  1  0  0  0
  9 15  1  0  0  0
 10 11  2  0  0  0
 10 14  1  0  0  0
 11 12  1  0  0  0
 11 13  1  0  0  0
 13 38  1  0  0  0
 13 39  1  0  0  0
 13 40  1  0  0  0
 14 41  1  0  0  0
 14 42  1  0  0  0
 14 43  1  0  0  0
 15 16  2  0  0  0
 15 17  1  0  0  0
 17 44  1  0  0  0
 17 45  1  0  0  0
 18 24  1  0  0  0
 18 19  1  0  0  0
 19 20  2  0  0  0
 19 21  1  0  0  0
 21 22  2  0  0  0
 21 46  1  0  0  0
 22 23  1  0  0  0
 22 31  1  0  0  0
 23 28  2  0  0  0
 23 24  1  0  0  0
 24 25  2  0  0  0
 25 26  1  0  0  0
 25 30  1  0  0  0
 26 27  2  0  0  0
 26 47  1  0  0  0
 27 28  1  0  0  0
 27 29  1  0  0  0
 28 48  1  0  0  0
 29 49  1  0  0  0
 29 50  1  0  0  0
 29 51  1  0  0  0
 30 52  1  0  0  0
 30 53  1  0  0  0
 30 54  1  0  0  0
 31 55  1  0  0  0
 31 56  1  0  0  0
 31 57  1  0  0  0
M  END
> <i_i_glide_confnum>
12

> <i_i_glide_lignum>
4280

> <i_i_glide_posenum>
395

> <i_i_glide_rotatable_bonds>
6

> <i_m_Source_File_Index>
1194

> <b_m_subgroup_collapsed>
0

> <r_i_docking_score>
-4.11405

> <r_i_glide_ecoul>
-2.52922

> <r_i_glide_eff_state_penalty>
0

> <r_i_glide_einternal>
5.85053

> <r_i_glide_emodel>
-50.7138

> <r_i_glide_energy>
-43.525

> <r_i_glide_erotb>
0.438199

> <r_i_glide_esite>
0

> <r_i_glide_evdw>
-40.9958

> <r_i_glide_gscore>
-4.11405

> <r_i_glide_hbond>
0

> <r_i_glide_ligand_efficiency>
-0.137135

> <r_i_glide_ligand_efficiency_ln>
-0.934758

> <r_i_glide_ligand_efficiency_sa>
-0.426111

> <r_i_glide_lipo>
-1.10179

> <r_i_glide_metal>
0

> <r_i_glide_rewards>
-1.02128

> <s_i_glide_gridfile>
wee1_glide-grid

> <s_m_Source_File>
wee1_decoys_glide_SP.sdf

> <s_m_Source_Path>
/Users/zhangxujun/Desktop

> <s_m_entry_id>
1469

> <s_m_entry_name>
wee1_decoys_glide_SP.1194

> <s_m_subgroup_title>
wee1_decoys_glide_SP

> <s_m_subgroupid>
wee1_decoys_glide_SP


$$$$
