ZINC03440256_4972
                    3D
 Schrodinger Suite 2024-2.
 63 66  0  0  1  0            999 V2000
    4.7945   54.4108   26.7949 C   0  0  0  0  0  0
    4.5977   54.2888   25.2901 C   0  0  0  0  0  0
    3.3049   54.3683   24.7662 C   0  0  0  0  0  0
    3.0891   54.2789   23.3928 C   0  0  0  0  0  0
    4.1614   54.0626   22.5279 C   0  0  0  0  0  0
    5.4597   53.9849   23.0437 C   0  0  0  0  0  0
    5.6843   54.1017   24.4179 C   0  0  0  0  0  0
    7.1034   53.9732   24.9381 C   0  0  0  0  0  0
    3.9041   53.9710   21.1552 N   0  0  0  0  0  0
    4.4005   53.0412   20.3142 C   0  0  0  0  0  0
    5.1041   52.0968   20.6713 O   0  0  0  0  0  0
    4.0576   53.2229   18.8330 C   0  0  0  0  0  0
    2.2741   53.2292   18.4751 S   0  0  0  0  0  0
    1.7373   51.5368   18.6663 C   0  0  0  0  0  0
    1.0756   51.0140   19.7169 C   0  0  0  0  0  0
    0.3989   49.6190   19.6991 C   0  0  0  0  0  0
   -1.1471   49.8263   19.5275 C   0  0  0  0  0  0
   -1.8998   50.3438   20.7720 C   0  0  0  0  0  0
   -1.6499   49.4449   21.9941 C   0  0  0  0  0  0
   -0.1514   49.2638   22.2870 C   0  0  0  0  0  0
    0.6569   48.8416   21.0374 C   0  0  0  0  0  0
    1.0055   48.7652   18.4997 C   0  0  2  0  0  0
    1.9661   48.3772   18.8473 H   0  0  0  0  0  0
    1.4453   49.6027   17.3015 C   0  0  0  0  0  0
    1.8700   50.8457   17.5037 N   0  0  0  0  0  0
    0.1728   47.5433   18.0777 C   0  0  0  0  0  0
   -0.7498   47.5919   17.1428 N   0  0  0  0  0  0
   -1.3684   46.4424   16.9511 C   0  0  0  0  0  0
   -0.9457   45.4024   17.7677 C   0  0  0  0  0  0
    0.3064   45.9759   18.8211 S   0  0  0  0  0  0
   -2.4385   46.4172   15.8848 C   0  0  0  0  0  0
    0.9158   51.8413   20.8685 C   0  0  0  0  0  0
    0.7597   52.4968   21.8072 N   0  0  0  0  0  0
    5.5867   55.1257   27.0197 H   0  0  0  0  0  0
    3.8943   54.7621   27.3006 H   0  0  0  0  0  0
    5.0838   53.4483   27.2183 H   0  0  0  0  0  0
    2.4577   54.4964   25.4226 H   0  0  0  0  0  0
    2.0837   54.3703   23.0114 H   0  0  0  0  0  0
    6.2958   53.8349   22.3766 H   0  0  0  0  0  0
    7.1068   53.3103   25.8042 H   0  0  0  0  0  0
    7.7693   53.5363   24.1917 H   0  0  0  0  0  0
    7.4925   54.9441   25.2416 H   0  0  0  0  0  0
    3.1566   54.5526   20.7992 H   0  0  0  0  0  0
    4.5707   52.4966   18.2081 H   0  0  0  0  0  0
    4.4530   54.1937   18.5341 H   0  0  0  0  0  0
   -1.3458   50.4777   18.6748 H   0  0  0  0  0  0
   -1.6290   48.8811   19.2833 H   0  0  0  0  0  0
   -1.6219   51.3722   20.9957 H   0  0  0  0  0  0
   -2.9699   50.3757   20.5614 H   0  0  0  0  0  0
   -2.1510   49.8574   22.8710 H   0  0  0  0  0  0
   -2.1028   48.4671   21.8209 H   0  0  0  0  0  0
    0.2568   50.1677   22.7307 H   0  0  0  0  0  0
   -0.0289   48.5082   23.0653 H   0  0  0  0  0  0
    0.3984   47.7974   20.8812 H   0  0  0  0  0  0
    1.7229   48.8445   21.2749 H   0  0  0  0  0  0
    1.9549   49.6667   15.3298 H   0  0  0  0  0  0
    2.2714   51.3193   16.7082 H   0  0  0  0  0  0
   -1.2927   44.3812   17.8006 H   0  0  0  0  0  0
   -2.8993   45.4335   15.7922 H   0  0  0  0  0  0
   -2.0392   46.6730   14.9025 H   0  0  0  0  0  0
   -3.2414   47.1235   16.0993 H   0  0  0  0  0  0
    1.5042   49.1301   16.0573 N   0  3  0  0  0  0
    1.2409   48.1707   15.8866 H   0  0  0  0  0  0
  1  2  1  0  0  0
  1 34  1  0  0  0
  1 35  1  0  0  0
  1 36  1  0  0  0
  2  7  2  0  0  0
  2  3  1  0  0  0
  3  4  2  0  0  0
  3 37  1  0  0  0
  4  5  1  0  0  0
  4 38  1  0  0  0
  5  6  2  0  0  0
  5  9  1  0  0  0
  6  7  1  0  0  0
  6 39  1  0  0  0
  7  8  1  0  0  0
  8 40  1  0  0  0
  8 41  1  0  0  0
  8 42  1  0  0  0
  9 10  1  0  0  0
  9 43  1  0  0  0
 10 11  2  0  0  0
 10 12  1  0  0  0
 12 13  1  0  0  0
 12 44  1  0  0  0
 12 45  1  0  0  0
 13 14  1  0  0  0
 14 25  1  0  0  0
 14 15  2  0  0  0
 15 16  1  0  0  0
 15 32  1  0  0  0
 16 21  1  0  0  0
 16 17  1  0  0  0
 16 22  1  0  0  0
 17 18  1  0  0  0
 17 46  1  0  0  0
 17 47  1  0  0  0
 18 19  1  0  0  0
 18 48  1  0  0  0
 18 49  1  0  0  0
 19 20  1  0  0  0
 19 50  1  0  0  0
 19 51  1  0  0  0
 20 21  1  0  0  0
 20 52  1  0  0  0
 20 53  1  0  0  0
 21 54  1  0  0  0
 21 55  1  0  0  0
 22 23  1  0  0  0
 22 24  1  0  0  0
 22 26  1  0  0  0
 24 25  1  0  0  0
 24 62  2  0  0  0
 25 57  1  0  0  0
 26 30  1  0  0  0
 26 27  2  0  0  0
 27 28  1  0  0  0
 28 29  2  0  0  0
 28 31  1  0  0  0
 29 30  1  0  0  0
 29 58  1  0  0  0
 31 59  1  0  0  0
 31 60  1  0  0  0
 31 61  1  0  0  0
 32 33  3  0  0  0
 56 62  1  0  0  0
 62 63  1  0  0  0
M  CHG  1  62   1
M  END
> <i_i_glide_confnum>
308

> <i_i_glide_lignum>
4973

> <i_i_glide_posenum>
235

> <i_i_glide_rotatable_bonds>
7

> <i_m_Source_File_Index>
5079

> <b_m_subgroup_collapsed>
0

> <r_i_docking_score>
-3.75704

> <r_i_glide_ecoul>
-2.81139

> <r_i_glide_eff_state_penalty>
0

> <r_i_glide_einternal>
8.50243

> <r_i_glide_emodel>
-37.3128

> <r_i_glide_energy>
-33.3106

> <r_i_glide_erotb>
0.526672

> <r_i_glide_esite>
-0.316267

> <r_i_glide_evdw>
-30.4992

> <r_i_glide_gscore>
-3.75704

> <r_i_glide_hbond>
-0.32

> <r_i_glide_ligand_efficiency>
-0.11385

> <r_i_glide_ligand_efficiency_ln>
-0.835547

> <r_i_glide_ligand_efficiency_sa>
-0.365177

> <r_i_glide_lipo>
-1.83314

> <r_i_glide_metal>
0

> <r_i_glide_rewards>
0.132363

> <s_i_glide_gridfile>
wee1_glide-grid

> <s_m_Source_File>
wee1_decoys_glide_SP.sdf

> <s_m_Source_Path>
/Users/zhangxujun/Desktop

> <s_m_entry_id>
5354

> <s_m_entry_name>
wee1_decoys_glide_SP.5079

> <s_m_subgroup_title>
wee1_decoys_glide_SP

> <s_m_subgroupid>
wee1_decoys_glide_SP


$$$$
