ZINC56527888_1490
                    3D
 Schrodinger Suite 2024-2.
 39 41  0  0  1  0            999 V2000
    8.7315   54.5479   16.8922 C   0  0  0  0  0  0
    7.7512   54.2977   17.8540 C   0  0  0  0  0  0
    6.8261   53.2603   17.6315 C   0  0  0  0  0  0
    6.8702   52.4968   16.5088 N   0  0  0  0  0  0
    7.8262   52.7558   15.5815 C   0  0  0  0  0  0
    8.7727   53.7681   15.7370 C   0  0  0  0  0  0
    9.9707   54.0485   14.5274 Cl  0  0  0  0  0  0
    5.8394   52.8987   18.5677 N   0  0  0  0  0  0
    5.2432   53.7107   19.4688 C   0  0  0  0  0  0
    5.3835   54.9363   19.4641 O   0  0  0  0  0  0
    4.3802   53.0443   20.5658 C   0  0  2  0  0  0
    5.0464   52.3152   21.0308 H   0  0  0  0  0  0
    3.1790   52.2820   19.9659 C   0  0  0  0  0  0
    2.3386   51.6887   21.1167 C   0  0  0  0  0  0
    1.9130   52.7421   22.1716 C   0  0  0  0  0  0
    3.1404   53.4055   22.6610 N   0  0  0  0  0  0
    3.9311   54.0971   21.6180 C   0  0  0  0  0  0
    3.2771   53.7013   23.9863 C   0  0  0  0  0  0
    2.3726   53.5084   24.8034 O   0  0  0  0  0  0
    4.5151   54.1252   24.3302 N   0  0  0  0  0  0
    5.0596   54.3081   25.5908 C   0  0  0  0  0  0
    6.3183   54.6502   25.7242 N   0  0  0  0  0  0
    6.7041   54.7530   27.0532 N   0  0  0  0  0  0
    5.7246   54.4965   27.8828 C   0  0  0  0  0  0
    4.2211   54.0967   27.1142 S   0  0  0  0  0  0
    9.4553   55.3341   17.0488 H   0  0  0  0  0  0
    7.7355   54.8881   18.7562 H   0  0  0  0  0  0
    7.8284   52.1278   14.7035 H   0  0  0  0  0  0
    5.5056   51.9304   18.4816 H   0  0  0  0  0  0
    2.5122   52.9574   19.4236 H   0  0  0  0  0  0
    3.5004   51.4498   19.3366 H   0  0  0  0  0  0
    1.4448   51.2175   20.7025 H   0  0  0  0  0  0
    2.8883   50.8830   21.6078 H   0  0  0  0  0  0
    1.2633   53.4916   21.7170 H   0  0  0  0  0  0
    1.3762   52.2255   22.9689 H   0  0  0  0  0  0
    4.8169   54.5989   22.0069 H   0  0  0  0  0  0
    3.2926   54.8467   21.1523 H   0  0  0  0  0  0
    5.1648   54.2616   23.5700 H   0  0  0  0  0  0
    5.8307   54.5385   28.9586 H   0  0  0  0  0  0
  1  6  2  0  0  0
  1  2  1  0  0  0
  1 26  1  0  0  0
  2  3  2  0  0  0
  2 27  1  0  0  0
  3  4  1  0  0  0
  3  8  1  0  0  0
  4  5  2  0  0  0
  5  6  1  0  0  0
  5 28  1  0  0  0
  6  7  1  0  0  0
  8  9  1  0  0  0
  8 29  1  0  0  0
  9 10  2  0  0  0
  9 11  1  0  0  0
 11 12  1  0  0  0
 11 17  1  0  0  0
 11 13  1  0  0  0
 13 14  1  0  0  0
 13 30  1  0  0  0
 13 31  1  0  0  0
 14 15  1  0  0  0
 14 32  1  0  0  0
 14 33  1  0  0  0
 15 16  1  0  0  0
 15 34  1  0  0  0
 15 35  1  0  0  0
 16 17  1  0  0  0
 16 18  1  0  0  0
 17 36  1  0  0  0
 17 37  1  0  0  0
 18 19  2  0  0  0
 18 20  1  0  0  0
 20 21  1  0  0  0
 20 38  1  0  0  0
 21 25  1  0  0  0
 21 22  2  0  0  0
 22 23  1  0  0  0
 23 24  2  0  0  0
 24 25  1  0  0  0
 24 39  1  0  0  0
M  END
> <i_i_glide_confnum>
2

> <i_i_glide_lignum>
1491

> <i_i_glide_posenum>
308

> <i_i_glide_rotatable_bonds>
6

> <i_m_Source_File_Index>
1258

> <b_m_subgroup_collapsed>
0

> <r_i_docking_score>
-4.40078

> <r_i_glide_ecoul>
-5.78657

> <r_i_glide_eff_state_penalty>
0

> <r_i_glide_einternal>
8.33909

> <r_i_glide_emodel>
-47.3479

> <r_i_glide_energy>
-40.0574

> <r_i_glide_erotb>
0.858422

> <r_i_glide_esite>
-0.128353

> <r_i_glide_evdw>
-34.2708

> <r_i_glide_gscore>
-4.40078

> <r_i_glide_hbond>
-0.16

> <r_i_glide_ligand_efficiency>
-0.183366

> <r_i_glide_ligand_efficiency_ln>
-1.05331

> <r_i_glide_ligand_efficiency_sa>
-0.528919

> <r_i_glide_lipo>
-1.04529

> <r_i_glide_metal>
0

> <r_i_glide_rewards>
-1.34403

> <s_i_glide_gridfile>
wee1_glide-grid

> <s_m_Source_File>
wee1_decoys_glide_SP.sdf

> <s_m_Source_Path>
/Users/zhangxujun/Desktop

> <s_m_entry_id>
1533

> <s_m_entry_name>
wee1_decoys_glide_SP.1258

> <s_m_subgroup_title>
wee1_decoys_glide_SP

> <s_m_subgroupid>
wee1_decoys_glide_SP


$$$$
