ZINC34899472_4390
                    3D
 Schrodinger Suite 2024-2.
 77 82  0  0  1  0            999 V2000
   -0.4278   48.7998   23.9441 C   0  0  0  0  0  0
    0.7050   49.6040   23.9641 C   0  0  0  0  0  0
    1.0194   50.3947   22.8625 C   0  0  0  0  0  0
    0.1851   50.3908   21.7325 C   0  0  0  0  0  0
   -0.9635   49.5835   21.7318 C   0  0  0  0  0  0
   -1.2645   48.7834   22.8316 C   0  0  0  0  0  0
    0.4725   51.2769   20.5467 C   0  0  0  0  0  0
   -0.4531   51.7845   19.9083 O   0  0  0  0  0  0
    1.7706   51.4781   20.2470 N   0  0  0  0  0  0
    2.2697   52.3926   19.2051 C   0  0  2  0  0  0
    1.6316   53.2750   19.2795 H   0  0  0  0  0  0
    2.0826   51.8542   17.7664 C   0  0  0  0  0  0
    2.4887   52.8838   16.6964 C   0  0  0  0  0  0
    3.9003   53.4389   16.9309 C   0  0  0  0  0  0
    4.0936   53.9778   18.3619 C   0  0  0  0  0  0
    3.7157   52.9318   19.4485 C   0  0  1  0  0  0
    4.3928   52.0879   19.3065 H   0  0  0  0  0  0
    3.9238   53.3282   20.8515 N   0  0  0  0  0  0
    4.9638   53.9618   21.4225 C   0  0  0  0  0  0
    5.8630   54.4977   20.7797 O   0  0  0  0  0  0
    5.0239   53.9157   22.9647 C   0  0  1  0  0  0
    5.1618   52.8628   23.1647 H   0  0  0  0  0  0
    6.2700   54.6218   23.5642 C   0  0  0  0  0  0
    6.1912   54.5756   25.0997 C   0  0  0  0  0  0
    4.8417   55.1105   25.6061 C   0  0  0  0  0  0
    3.7677   54.2532   25.0662 N   0  0  0  0  0  0
    3.6488   54.2883   23.5909 C   0  0  0  0  0  0
    2.7470   53.7143   25.8045 C   0  0  0  0  0  0
    1.7483   53.2569   25.2376 O   0  0  0  0  0  0
    2.8238   53.5473   27.3671 C   0  0  0  0  0  0
    4.2375   53.0306   27.8184 C   0  0  0  0  0  0
    4.2957   52.8645   29.3336 C   0  0  1  0  0  0
    4.0512   54.2522   29.9448 C   0  0  0  0  0  0
    2.6056   54.7418   29.6151 C   0  0  1  0  0  0
    2.4761   54.8924   28.0786 C   0  0  0  0  0  0
    1.5414   53.7120   30.0814 C   0  0  0  0  0  0
    1.8171   52.3470   29.4060 C   0  0  2  0  0  0
    3.2267   51.8660   29.8108 C   0  0  0  0  0  0
    1.7601   52.4974   27.8628 C   0  0  0  0  0  0
   -0.6601   48.1855   24.8045 H   0  0  0  0  0  0
    1.3435   49.6076   24.8386 H   0  0  0  0  0  0
    1.8984   51.0216   22.9105 H   0  0  0  0  0  0
   -1.6253   49.5743   20.8789 H   0  0  0  0  0  0
   -2.1487   48.1642   22.8261 H   0  0  0  0  0  0
    2.4586   50.8864   20.6895 H   0  0  0  0  0  0
    2.6797   50.9469   17.6394 H   0  0  0  0  0  0
    1.0475   51.5596   17.5981 H   0  0  0  0  0  0
    1.7726   53.7047   16.6986 H   0  0  0  0  0  0
    2.4289   52.4297   15.7044 H   0  0  0  0  0  0
    4.1117   54.2275   16.2060 H   0  0  0  0  0  0
    4.6320   52.6514   16.7407 H   0  0  0  0  0  0
    3.4887   54.8757   18.4951 H   0  0  0  0  0  0
    5.1340   54.2832   18.4561 H   0  0  0  0  0  0
    3.2024   52.9943   21.4722 H   0  0  0  0  0  0
    7.1948   54.1204   23.2687 H   0  0  0  0  0  0
    6.3045   55.6781   23.2898 H   0  0  0  0  0  0
    6.3574   53.5635   25.4704 H   0  0  0  0  0  0
    7.0008   55.1780   25.5132 H   0  0  0  0  0  0
    4.8162   55.3223   26.6673 H   0  0  0  0  0  0
    4.7046   56.0964   25.1884 H   0  0  0  0  0  0
    3.3629   55.2919   23.2914 H   0  0  0  0  0  0
    2.9098   53.5686   23.2307 H   0  0  0  0  0  0
    4.4731   52.0967   27.3399 H   0  0  0  0  0  0
    5.0870   53.6521   27.5690 H   0  0  0  0  0  0
    5.2768   52.4967   29.6146 H   0  0  0  0  0  0
    4.2920   54.1834   31.0012 H   0  0  0  0  0  0
    4.7787   54.9715   29.5602 H   0  0  0  0  0  0
    2.4142   55.7061   30.0849 H   0  0  0  0  0  0
    3.1165   55.6965   27.7460 H   0  0  0  0  0  0
    1.4646   55.2111   27.8217 H   0  0  0  0  0  0
    1.5407   53.6023   31.1667 H   0  0  0  0  0  0
    0.5387   54.0608   29.8277 H   0  0  0  0  0  0
    1.0661   51.6219   29.7267 H   0  0  0  0  0  0
    3.4227   50.8965   29.3603 H   0  0  0  0  0  0
    3.2886   51.7298   30.8931 H   0  0  0  0  0  0
    0.7518   52.8037   27.5800 H   0  0  0  0  0  0
    1.9095   51.5242   27.3911 H   0  0  0  0  0  0
  1  6  2  0  0  0
  1  2  1  0  0  0
  1 40  1  0  0  0
  2  3  2  0  0  0
  2 41  1  0  0  0
  3  4  1  0  0  0
  3 42  1  0  0  0
  4  5  2  0  0  0
  4  7  1  0  0  0
  5  6  1  0  0  0
  5 43  1  0  0  0
  6 44  1  0  0  0
  7  8  2  0  0  0
  7  9  1  0  0  0
  9 10  1  0  0  0
  9 45  1  0  0  0
 10 11  1  0  0  0
 10 16  1  0  0  0
 10 12  1  0  0  0
 12 13  1  0  0  0
 12 46  1  0  0  0
 12 47  1  0  0  0
 13 14  1  0  0  0
 13 48  1  0  0  0
 13 49  1  0  0  0
 14 15  1  0  0  0
 14 50  1  0  0  0
 14 51  1  0  0  0
 15 16  1  0  0  0
 15 52  1  0  0  0
 15 53  1  0  0  0
 16 17  1  0  0  0
 16 18  1  0  0  0
 18 19  1  0  0  0
 18 54  1  0  0  0
 19 20  2  0  0  0
 19 21  1  0  0  0
 21 22  1  0  0  0
 21 27  1  0  0  0
 21 23  1  0  0  0
 23 24  1  0  0  0
 23 55  1  0  0  0
 23 56  1  0  0  0
 24 25  1  0  0  0
 24 57  1  0  0  0
 24 58  1  0  0  0
 25 26  1  0  0  0
 25 59  1  0  0  0
 25 60  1  0  0  0
 26 27  1  0  0  0
 26 28  1  0  0  0
 27 61  1  0  0  0
 27 62  1  0  0  0
 28 29  2  0  0  0
 28 30  1  0  0  0
 30 35  1  0  0  0
 30 39  1  0  0  0
 30 31  1  0  0  0
 31 32  1  0  0  0
 31 63  1  0  0  0
 31 64  1  0  0  0
 32 38  1  0  0  0
 32 33  1  0  0  0
 32 65  1  0  0  0
 33 34  1  0  0  0
 33 66  1  0  0  0
 33 67  1  0  0  0
 34 35  1  0  0  0
 34 36  1  0  0  0
 34 68  1  0  0  0
 35 69  1  0  0  0
 35 70  1  0  0  0
 36 37  1  0  0  0
 36 71  1  0  0  0
 36 72  1  0  0  0
 37 38  1  0  0  0
 37 39  1  0  0  0
 37 73  1  0  0  0
 38 74  1  0  0  0
 38 75  1  0  0  0
 39 76  1  0  0  0
 39 77  1  0  0  0
M  END
> <i_i_glide_confnum>
68

> <i_i_glide_lignum>
4391

> <i_i_glide_posenum>
118

> <i_i_glide_rotatable_bonds>
8

> <i_m_Source_File_Index>
1159

> <b_m_subgroup_collapsed>
0

> <r_i_docking_score>
-5.60109

> <r_i_glide_ecoul>
-2.49543

> <r_i_glide_eff_state_penalty>
0

> <r_i_glide_einternal>
7.46103

> <r_i_glide_emodel>
-57.6078

> <r_i_glide_energy>
-43.9165

> <r_i_glide_erotb>
0.673769

> <r_i_glide_esite>
-0.0184268

> <r_i_glide_evdw>
-41.4211

> <r_i_glide_gscore>
-5.60109

> <r_i_glide_hbond>
0

> <r_i_glide_ligand_efficiency>
-0.155586

> <r_i_glide_ligand_efficiency_ln>
-1.22201

> <r_i_glide_ligand_efficiency_sa>
-0.513733

> <r_i_glide_lipo>
-2.91581

> <r_i_glide_metal>
0

> <r_i_glide_rewards>
-0.895248

> <s_i_glide_gridfile>
wee1_glide-grid

> <s_m_Source_File>
wee1_decoys_glide_SP.sdf

> <s_m_Source_Path>
/Users/zhangxujun/Desktop

> <s_m_entry_id>
1434

> <s_m_entry_name>
wee1_decoys_glide_SP.1159

> <s_m_subgroup_title>
wee1_decoys_glide_SP

> <s_m_subgroupid>
wee1_decoys_glide_SP


$$$$
