ZINC00887379_5762
                    3D
 Schrodinger Suite 2024-2.
 75 80  0  0  1  0            999 V2000
   -4.8884   47.2149   24.4152 C   0  0  0  0  0  0
   -4.3851   47.9308   23.2422 N   0  0  0  0  0  0
   -5.1840   47.8716   22.0176 C   0  0  0  0  0  0
   -3.0762   48.4870   23.2214 C   0  0  0  0  0  0
   -2.1555   48.2369   24.2579 C   0  0  0  0  0  0
   -0.8838   48.8064   24.2398 C   0  0  0  0  0  0
   -0.5053   49.6548   23.1914 C   0  0  0  0  0  0
   -1.4086   49.8907   22.1455 C   0  0  0  0  0  0
   -2.6729   49.3094   22.1574 C   0  0  0  0  0  0
    0.8682   50.3179   23.2214 C   0  0  1  0  0  0
    1.4374   49.8304   24.0199 H   0  0  0  0  0  0
    1.7893   50.0019   21.9961 C   0  0  0  0  0  0
    2.9796   50.3028   22.0768 O   0  0  0  0  0  0
    1.2424   49.4197   20.9128 N   0  0  0  0  0  0
    1.9109   49.1699   19.6369 C   0  0  0  0  0  0
    2.3059   47.7024   19.5067 C   0  0  0  0  0  0
    1.1436   46.9940   18.7821 C   0  0  0  0  0  0
    0.1979   48.1044   18.2877 C   0  0  0  0  0  0
    0.9731   49.4189   18.4567 C   0  0  0  0  0  0
    0.7820   51.7625   23.6617 N   0  0  0  0  0  0
    0.1802   52.0482   24.9052 C   0  0  0  0  0  0
    0.9940   52.0942   26.0423 C   0  0  0  0  0  0
    0.4361   52.1126   27.3140 C   0  0  0  0  0  0
   -0.9432   52.0935   27.4757 C   0  0  0  0  0  0
   -1.8075   52.1513   26.3495 C   0  0  0  0  0  0
   -1.2436   52.1948   25.0377 C   0  0  0  0  0  0
   -2.1331   52.3651   23.9325 C   0  0  0  0  0  0
   -3.5135   52.3966   24.1190 C   0  0  0  0  0  0
   -4.0530   52.2865   25.3904 C   0  0  0  0  0  0
   -3.2186   52.1724   26.4925 C   0  0  0  0  0  0
    1.1005   52.8195   22.8626 C   0  0  0  0  0  0
    0.9970   52.7593   21.6370 O   0  0  0  0  0  0
    1.6435   54.1254   23.4678 C   0  0  0  0  0  0
    3.0625   54.2760   23.1886 N   0  0  0  0  0  0
    3.5025   54.4956   21.9501 N   0  0  0  0  0  0
    4.7942   54.4949   22.1246 C   0  0  0  0  0  0
    5.1863   54.2637   23.3677 N   0  0  0  0  0  0
    4.0214   54.0951   24.0969 N   0  0  0  0  0  0
    5.6792   54.7588   21.0212 C   0  0  0  0  0  0
    5.5206   54.4376   19.6764 C   0  0  0  0  0  0
    6.5704   54.8838   18.8696 C   0  0  0  0  0  0
    7.5290   55.5795   19.5872 C   0  0  0  0  0  0
    7.1181   55.6855   21.2654 S   0  0  0  0  0  0
   -4.5880   47.6967   25.3523 H   0  0  0  0  0  0
   -5.9742   47.1646   24.4107 H   0  0  0  0  0  0
   -4.5094   46.1925   24.4262 H   0  0  0  0  0  0
   -4.5801   47.4645   21.2113 H   0  0  0  0  0  0
   -6.0592   47.2320   22.1309 H   0  0  0  0  0  0
   -5.5156   48.8661   21.7158 H   0  0  0  0  0  0
   -2.4138   47.6121   25.0992 H   0  0  0  0  0  0
   -0.2060   48.6078   25.0630 H   0  0  0  0  0  0
   -1.1423   50.5606   21.3354 H   0  0  0  0  0  0
   -3.3461   49.5378   21.3430 H   0  0  0  0  0  0
    0.2720   49.1464   20.9594 H   0  0  0  0  0  0
    2.7873   49.8228   19.5904 H   0  0  0  0  0  0
    3.1986   47.6896   18.8737 H   0  0  0  0  0  0
    2.5904   47.2966   20.4767 H   0  0  0  0  0  0
    1.5162   46.4089   17.9384 H   0  0  0  0  0  0
    0.6142   46.3049   19.4408 H   0  0  0  0  0  0
   -0.1159   47.9504   17.2550 H   0  0  0  0  0  0
   -0.7058   48.1283   18.9014 H   0  0  0  0  0  0
    0.3348   50.2949   18.5858 H   0  0  0  0  0  0
    1.5751   49.6028   17.5651 H   0  0  0  0  0  0
    2.0694   52.0958   25.9390 H   0  0  0  0  0  0
    1.0797   52.1091   28.1831 H   0  0  0  0  0  0
   -1.3615   52.0678   28.4697 H   0  0  0  0  0  0
   -1.7340   52.4537   22.9343 H   0  0  0  0  0  0
   -4.1921   52.4884   23.2853 H   0  0  0  0  0  0
   -5.1243   52.3046   25.5225 H   0  0  0  0  0  0
   -3.6450   52.1047   27.4829 H   0  0  0  0  0  0
    1.1262   54.9603   23.0019 H   0  0  0  0  0  0
    1.4867   54.2263   24.5391 H   0  0  0  0  0  0
    4.6767   53.8811   19.2949 H   0  0  0  0  0  0
    6.6208   54.7069   17.8048 H   0  0  0  0  0  0
    8.4377   56.0276   19.2145 H   0  0  0  0  0  0
  1  2  1  0  0  0
  1 44  1  0  0  0
  1 45  1  0  0  0
  1 46  1  0  0  0
  2  3  1  0  0  0
  2  4  1  0  0  0
  3 47  1  0  0  0
  3 48  1  0  0  0
  3 49  1  0  0  0
  4  9  2  0  0  0
  4  5  1  0  0  0
  5  6  2  0  0  0
  5 50  1  0  0  0
  6  7  1  0  0  0
  6 51  1  0  0  0
  7  8  2  0  0  0
  7 10  1  0  0  0
  8  9  1  0  0  0
  8 52  1  0  0  0
  9 53  1  0  0  0
 10 11  1  0  0  0
 10 12  1  0  0  0
 10 20  1  0  0  0
 12 13  2  0  0  0
 12 14  1  0  0  0
 14 15  1  0  0  0
 14 54  1  0  0  0
 15 19  1  0  0  0
 15 16  1  0  0  0
 15 55  1  0  0  0
 16 17  1  0  0  0
 16 56  1  0  0  0
 16 57  1  0  0  0
 17 18  1  0  0  0
 17 58  1  0  0  0
 17 59  1  0  0  0
 18 19  1  0  0  0
 18 60  1  0  0  0
 18 61  1  0  0  0
 19 62  1  0  0  0
 19 63  1  0  0  0
 20 21  1  0  0  0
 20 31  1  0  0  0
 21 26  2  0  0  0
 21 22  1  0  0  0
 22 23  2  0  0  0
 22 64  1  0  0  0
 23 24  1  0  0  0
 23 65  1  0  0  0
 24 25  2  0  0  0
 24 66  1  0  0  0
 25 30  1  0  0  0
 25 26  1  0  0  0
 26 27  1  0  0  0
 27 28  2  0  0  0
 27 67  1  0  0  0
 28 29  1  0  0  0
 28 68  1  0  0  0
 29 30  2  0  0  0
 29 69  1  0  0  0
 30 70  1  0  0  0
 31 32  2  0  0  0
 31 33  1  0  0  0
 33 34  1  0  0  0
 33 71  1  0  0  0
 33 72  1  0  0  0
 34 38  1  0  0  0
 34 35  1  0  0  0
 35 36  2  0  0  0
 36 37  1  0  0  0
 36 39  1  0  0  0
 37 38  2  0  0  0
 39 43  1  0  0  0
 39 40  2  0  0  0
 40 41  1  0  0  0
 40 73  1  0  0  0
 41 42  2  0  0  0
 41 74  1  0  0  0
 42 43  1  0  0  0
 42 75  1  0  0  0
M  END
> <i_i_glide_confnum>
290

> <i_i_glide_lignum>
5763

> <i_i_glide_posenum>
190

> <i_i_glide_rotatable_bonds>
11

> <i_m_Source_File_Index>
5032

> <b_m_subgroup_collapsed>
0

> <r_i_docking_score>
-3.38316

> <r_i_glide_ecoul>
-0.343739

> <r_i_glide_eff_state_penalty>
0

> <r_i_glide_einternal>
21.4566

> <r_i_glide_emodel>
-43.3275

> <r_i_glide_energy>
-45.6228

> <r_i_glide_erotb>
0.460456

> <r_i_glide_esite>
-0.000105739

> <r_i_glide_evdw>
-45.279

> <r_i_glide_gscore>
-3.38316

> <r_i_glide_hbond>
0

> <r_i_glide_ligand_efficiency>
-0.0805514

> <r_i_glide_ligand_efficiency_ln>
-0.714098

> <r_i_glide_ligand_efficiency_sa>
-0.279999

> <r_i_glide_lipo>
-1.18888

> <r_i_glide_metal>
0

> <r_i_glide_rewards>
-0.339115

> <s_i_glide_gridfile>
wee1_glide-grid

> <s_m_Source_File>
wee1_decoys_glide_SP.sdf

> <s_m_Source_Path>
/Users/zhangxujun/Desktop

> <s_m_entry_id>
5307

> <s_m_entry_name>
wee1_decoys_glide_SP.5032

> <s_m_subgroup_title>
wee1_decoys_glide_SP

> <s_m_subgroupid>
wee1_decoys_glide_SP


$$$$
