ZINC00465328_4668
                    3D
 Schrodinger Suite 2024-2.
 39 41  0  0  1  0            999 V2000
    3.4114   52.7608   20.5766 C   0  0  0  0  0  0
    3.8436   53.3582   21.9044 C   0  0  0  0  0  0
    2.9021   53.9578   22.7371 C   0  0  0  0  0  0
    3.3033   54.4966   23.9543 C   0  0  0  0  0  0
    4.6414   54.4485   24.3650 C   0  0  0  0  0  0
    5.5795   53.8405   23.5174 C   0  0  0  0  0  0
    5.1781   53.2964   22.3012 C   0  0  0  0  0  0
    5.0356   55.0986   25.7137 C   0  0  1  0  0  0
    4.6976   56.1306   25.6811 H   0  0  0  0  0  0
    4.4680   54.5039   27.0267 C   0  0  2  0  0  0
    4.2951   55.2967   27.7543 H   0  0  0  0  0  0
    5.6519   53.6963   27.5547 C   0  0  0  0  0  0
    5.6150   52.8964   28.4818 O   0  0  0  0  0  0
    6.7036   54.0561   26.8139 N   0  0  0  0  0  0
    6.4656   55.1349   25.9687 N   0  0  0  0  0  0
    3.2815   53.6558   26.8564 N   0  0  0  0  0  0
    2.2663   53.5231   27.7327 C   0  0  0  0  0  0
    2.2586   54.0736   28.8365 O   0  0  0  0  0  0
    1.1048   52.6636   27.2835 C   0  0  0  0  0  0
    0.2357   52.1127   28.2376 C   0  0  0  0  0  0
   -0.8700   51.3648   27.8352 C   0  0  0  0  0  0
   -1.1184   51.1678   26.4798 C   0  0  0  0  0  0
   -0.2599   51.6972   25.5221 C   0  0  0  0  0  0
    0.8464   52.4400   25.9201 C   0  0  0  0  0  0
   -2.2063   50.4692   26.0850 F   0  0  0  0  0  0
    2.4311   52.2931   20.6677 H   0  0  0  0  0  0
    3.3486   53.5365   19.8119 H   0  0  0  0  0  0
    4.0998   51.9845   20.2374 H   0  0  0  0  0  0
    1.8657   54.0205   22.4350 H   0  0  0  0  0  0
    2.5644   54.9804   24.5708 H   0  0  0  0  0  0
    6.6227   53.7651   23.7856 H   0  0  0  0  0  0
    5.9042   52.8104   21.6732 H   0  0  0  0  0  0
    7.6676   53.7752   26.9189 H   0  0  0  0  0  0
    6.9354   54.9211   25.0988 H   0  0  0  0  0  0
    3.2673   53.1041   26.0116 H   0  0  0  0  0  0
    0.4046   52.2650   29.2951 H   0  0  0  0  0  0
   -1.5337   50.9304   28.5700 H   0  0  0  0  0  0
   -0.4580   51.5373   24.4728 H   0  0  0  0  0  0
    1.4805   52.8490   25.1488 H   0  0  0  0  0  0
  1  2  1  0  0  0
  1 26  1  0  0  0
  1 27  1  0  0  0
  1 28  1  0  0  0
  2  7  2  0  0  0
  2  3  1  0  0  0
  3  4  2  0  0  0
  3 29  1  0  0  0
  4  5  1  0  0  0
  4 30  1  0  0  0
  5  6  2  0  0  0
  5  8  1  0  0  0
  6  7  1  0  0  0
  6 31  1  0  0  0
  7 32  1  0  0  0
  8  9  1  0  0  0
  8 15  1  0  0  0
  8 10  1  0  0  0
 10 11  1  0  0  0
 10 12  1  0  0  0
 10 16  1  0  0  0
 12 13  2  0  0  0
 12 14  1  0  0  0
 14 15  1  0  0  0
 14 33  1  0  0  0
 15 34  1  0  0  0
 16 17  1  0  0  0
 16 35  1  0  0  0
 17 18  2  0  0  0
 17 19  1  0  0  0
 19 24  2  0  0  0
 19 20  1  0  0  0
 20 21  2  0  0  0
 20 36  1  0  0  0
 21 22  1  0  0  0
 21 37  1  0  0  0
 22 23  2  0  0  0
 22 25  1  0  0  0
 23 24  1  0  0  0
 23 38  1  0  0  0
 24 39  1  0  0  0
M  END
> <i_i_glide_confnum>
20

> <i_i_glide_lignum>
4669

> <i_i_glide_posenum>
137

> <i_i_glide_rotatable_bonds>
4

> <i_m_Source_File_Index>
387

> <b_m_subgroup_collapsed>
0

> <r_i_docking_score>
-5.25331

> <r_i_glide_ecoul>
-0.822326

> <r_i_glide_eff_state_penalty>
0

> <r_i_glide_einternal>
2.93764

> <r_i_glide_emodel>
-47.6159

> <r_i_glide_energy>
-36.6865

> <r_i_glide_erotb>
0.756722

> <r_i_glide_esite>
-0.0649889

> <r_i_glide_evdw>
-35.8642

> <r_i_glide_gscore>
-5.25331

> <r_i_glide_hbond>
-0.135014

> <r_i_glide_ligand_efficiency>
-0.228405

> <r_i_glide_ligand_efficiency_ln>
-1.2703

> <r_i_glide_ligand_efficiency_sa>
-0.649553

> <r_i_glide_lipo>
-1.8646

> <r_i_glide_metal>
0

> <r_i_glide_rewards>
-2.02887

> <s_i_glide_gridfile>
wee1_glide-grid

> <s_m_Source_File>
wee1_decoys_glide_SP.sdf

> <s_m_Source_Path>
/Users/zhangxujun/Desktop

> <s_m_entry_id>
662

> <s_m_entry_name>
wee1_decoys_glide_SP.387

> <s_m_subgroup_title>
wee1_decoys_glide_SP

> <s_m_subgroupid>
wee1_decoys_glide_SP


$$$$
