ZINC13247793_1989
                    3D
 Schrodinger Suite 2024-2.
 60 63  0  0  1  0            999 V2000
    7.2454   56.2070   19.7525 C   0  0  0  0  0  0
    6.4784   55.3419   20.7442 C   0  0  0  0  0  0
    6.8930   55.3658   22.0821 C   0  0  0  0  0  0
    6.2898   54.5477   23.0405 C   0  0  0  0  0  0
    5.3094   53.6625   22.6068 C   0  0  0  0  0  0
    4.8090   53.6672   21.3098 C   0  0  0  0  0  0
    5.3948   54.5216   20.3511 C   0  0  0  0  0  0
    4.8593   54.5766   18.9221 C   0  0  0  0  0  0
    3.3704   52.5918   21.0709 S   0  0  0  0  0  0
    3.6794   51.2960   21.6818 O   0  0  0  0  0  0
    2.9035   52.6595   19.6848 O   0  0  0  0  0  0
    2.0918   53.3418   22.0510 N   0  0  0  0  0  0
    1.8582   53.1641   23.3927 C   0  0  0  0  0  0
    0.8654   52.3877   23.9947 C   0  0  0  0  0  0
    0.9229   52.4332   25.4076 C   0  0  0  0  0  0
    1.9114   53.3144   25.8641 C   0  0  0  0  0  0
    2.7360   54.0967   24.5599 S   0  0  0  0  0  0
    2.2912   53.5367   27.3211 C   0  0  0  0  0  0
    1.1732   52.9832   28.2304 C   0  0  0  0  0  0
    0.7056   51.5864   27.7841 C   0  0  0  0  0  0
    0.0678   51.6081   26.3767 C   0  0  0  0  0  0
   -0.0259   51.5418   23.2666 C   0  0  0  0  0  0
   -1.1587   51.9096   22.9525 O   0  0  0  0  0  0
    0.4963   50.3331   23.0170 N   0  0  0  0  0  0
   -0.2246   49.2286   22.3953 C   0  0  0  0  0  0
   -1.2690   48.5878   23.3350 C   0  0  2  0  0  0
   -1.9961   49.3393   23.6502 H   0  0  0  0  0  0
   -0.7106   47.7386   24.4784 C   0  0  0  0  0  0
   -1.7570   46.6692   24.7087 C   0  0  0  0  0  0
   -2.6032   46.6869   23.4363 C   0  0  0  0  0  0
   -1.9536   47.6053   22.5622 O   0  0  0  0  0  0
    6.6082   54.6497   24.5016 C   0  0  0  0  0  0
    6.2951   53.6967   25.2430 O   0  0  0  0  0  0
    8.2202   56.4976   20.1444 H   0  0  0  0  0  0
    7.4578   55.6496   18.8402 H   0  0  0  0  0  0
    6.6747   57.0971   19.4878 H   0  0  0  0  0  0
    7.6845   56.0390   22.3790 H   0  0  0  0  0  0
    4.8644   52.9940   23.3148 H   0  0  0  0  0  0
    5.3414   55.3136   18.2840 H   0  0  0  0  0  0
    4.9605   53.6017   18.4436 H   0  0  0  0  0  0
    3.8010   54.8372   18.9331 H   0  0  0  0  0  0
    1.5354   53.9803   21.4947 H   0  0  0  0  0  0
    3.2243   53.0131   27.5355 H   0  0  0  0  0  0
    2.4665   54.5918   27.5335 H   0  0  0  0  0  0
    1.5253   52.9471   29.2621 H   0  0  0  0  0  0
    0.3231   53.6676   28.2273 H   0  0  0  0  0  0
    1.5546   50.9010   27.7908 H   0  0  0  0  0  0
   -0.0096   51.1799   28.5016 H   0  0  0  0  0  0
   -0.9336   52.0364   26.4328 H   0  0  0  0  0  0
   -0.0620   50.5852   26.0237 H   0  0  0  0  0  0
    1.4790   50.1888   23.2061 H   0  0  0  0  0  0
    0.5361   48.4969   22.1310 H   0  0  0  0  0  0
   -0.6858   49.5452   21.4571 H   0  0  0  0  0  0
   -0.4824   48.3345   25.3634 H   0  0  0  0  0  0
    0.2431   47.2973   24.1887 H   0  0  0  0  0  0
   -2.3658   46.9074   25.5825 H   0  0  0  0  0  0
   -1.2968   45.6996   24.8821 H   0  0  0  0  0  0
   -3.6214   47.0281   23.6312 H   0  0  0  0  0  0
   -2.6739   45.7076   22.9624 H   0  0  0  0  0  0
    7.1045   55.7092   24.9312 O   0  5  0  0  0  0
  1  2  1  0  0  0
  1 34  1  0  0  0
  1 35  1  0  0  0
  1 36  1  0  0  0
  2  7  2  0  0  0
  2  3  1  0  0  0
  3  4  2  0  0  0
  3 37  1  0  0  0
  4  5  1  0  0  0
  4 32  1  0  0  0
  5  6  2  0  0  0
  5 38  1  0  0  0
  6  7  1  0  0  0
  6  9  1  0  0  0
  7  8  1  0  0  0
  8 39  1  0  0  0
  8 40  1  0  0  0
  8 41  1  0  0  0
  9 10  2  0  0  0
  9 11  2  0  0  0
  9 12  1  0  0  0
 12 13  1  0  0  0
 12 42  1  0  0  0
 13 17  1  0  0  0
 13 14  2  0  0  0
 14 15  1  0  0  0
 14 22  1  0  0  0
 15 21  1  0  0  0
 15 16  2  0  0  0
 16 17  1  0  0  0
 16 18  1  0  0  0
 18 19  1  0  0  0
 18 43  1  0  0  0
 18 44  1  0  0  0
 19 20  1  0  0  0
 19 45  1  0  0  0
 19 46  1  0  0  0
 20 21  1  0  0  0
 20 47  1  0  0  0
 20 48  1  0  0  0
 21 49  1  0  0  0
 21 50  1  0  0  0
 22 23  2  0  0  0
 22 24  1  0  0  0
 24 25  1  0  0  0
 24 51  1  0  0  0
 25 26  1  0  0  0
 25 52  1  0  0  0
 25 53  1  0  0  0
 26 27  1  0  0  0
 26 31  1  0  0  0
 26 28  1  0  0  0
 28 29  1  0  0  0
 28 54  1  0  0  0
 28 55  1  0  0  0
 29 30  1  0  0  0
 29 56  1  0  0  0
 29 57  1  0  0  0
 30 31  1  0  0  0
 30 58  1  0  0  0
 30 59  1  0  0  0
 32 33  2  0  0  0
 32 60  1  0  0  0
M  CHG  1  60  -1
M  END
> <i_i_glide_confnum>
309

> <i_i_glide_lignum>
1990

> <i_i_glide_posenum>
325

> <i_i_glide_rotatable_bonds>
8

> <i_m_Source_File_Index>
2489

> <b_m_subgroup_collapsed>
0

> <r_i_docking_score>
-5.02129

> <r_i_glide_ecoul>
-4.05657

> <r_i_glide_eff_state_penalty>
0

> <r_i_glide_einternal>
14.0002

> <r_i_glide_emodel>
-54.4781

> <r_i_glide_energy>
-44.6416

> <r_i_glide_erotb>
0.505445

> <r_i_glide_esite>
-0.0314665

> <r_i_glide_evdw>
-40.5851

> <r_i_glide_gscore>
-5.02129

> <r_i_glide_hbond>
-0.48

> <r_i_glide_ligand_efficiency>
-0.15216

> <r_i_glide_ligand_efficiency_ln>
-1.11671

> <r_i_glide_ligand_efficiency_sa>
-0.488059

> <r_i_glide_lipo>
-2.3197

> <r_i_glide_metal>
0

> <r_i_glide_rewards>
-0.0578276

> <s_i_glide_gridfile>
wee1_glide-grid

> <s_m_Source_File>
wee1_decoys_glide_SP.sdf

> <s_m_Source_Path>
/Users/zhangxujun/Desktop

> <s_m_entry_id>
2764

> <s_m_entry_name>
wee1_decoys_glide_SP.2489

> <s_m_subgroup_title>
wee1_decoys_glide_SP

> <s_m_subgroupid>
wee1_decoys_glide_SP


$$$$
