ZINC38737721_1091
                    3D
 Schrodinger Suite 2024-2.
 79 83  0  0  1  0            999 V2000
   -3.4477   50.4967   29.8849 C   0  0  0  0  0  0
   -4.1410   51.2908   28.9355 O   0  0  0  0  0  0
   -3.6000   51.4382   27.6739 C   0  0  0  0  0  0
   -2.2301   51.2918   27.4032 C   0  0  0  0  0  0
   -1.7167   51.4881   26.1175 C   0  0  0  0  0  0
   -2.5965   51.8345   25.0873 C   0  0  0  0  0  0
   -3.9593   51.9867   25.3389 C   0  0  0  0  0  0
   -4.4669   51.8030   26.6325 C   0  0  0  0  0  0
   -5.8099   52.0301   26.8535 O   0  0  0  0  0  0
   -6.5746   50.9141   27.3039 C   0  0  0  0  0  0
   -4.7859   52.3490   24.3069 O   0  0  0  0  0  0
   -5.5637   51.2848   23.7722 C   0  0  0  0  0  0
   -0.2070   51.3560   25.8532 C   0  0  2  0  0  0
    0.2341   51.1265   26.8238 H   0  0  0  0  0  0
    0.4133   52.6726   25.3540 C   0  0  0  0  0  0
    1.4724   52.3248   24.4157 N   0  0  0  0  0  0
    0.9771   51.1480   23.7094 C   0  0  0  0  0  0
    0.3043   50.3196   24.8177 C   0  0  2  0  0  0
    1.1040   49.7595   25.3046 H   0  0  0  0  0  0
   -0.6379   49.2048   24.3315 C   0  0  0  0  0  0
   -0.9386   49.0951   23.1426 O   0  0  0  0  0  0
   -1.1370   48.3968   25.2818 N   0  0  0  0  0  0
   -2.0915   47.3163   25.0507 C   0  0  2  0  0  0
   -1.7828   46.6854   24.2132 H   0  0  0  0  0  0
   -3.5178   47.8588   24.8231 C   0  0  0  0  0  0
   -4.4058   47.2782   25.9221 C   0  0  0  0  0  0
   -3.4223   46.8968   27.0385 N   0  3  2  0  0  0
   -2.1692   46.4173   26.2968 C   0  0  0  0  0  0
   -3.9693   45.9170   28.0918 C   0  0  0  0  0  0
   -5.1319   46.4967   28.8822 C   0  0  0  0  0  0
   -6.4473   46.2482   28.4815 C   0  0  0  0  0  0
   -7.5085   46.7586   29.2261 C   0  0  0  0  0  0
   -7.2486   47.5128   30.3704 C   0  0  0  0  0  0
   -5.9403   47.7562   30.7787 C   0  0  0  0  0  0
   -4.8793   47.2420   30.0372 C   0  0  0  0  0  0
    1.9083   53.4312   23.5549 C   0  0  0  0  0  0
    3.3735   53.7821   23.7829 C   0  0  0  0  0  0
    3.8183   54.1697   25.0525 C   0  0  0  0  0  0
    5.1526   54.5163   25.2497 C   0  0  0  0  0  0
    6.0400   54.4872   24.1763 C   0  0  0  0  0  0
    5.6041   54.1071   22.9080 C   0  0  0  0  0  0
    4.2688   53.7607   22.7085 C   0  0  0  0  0  0
   -4.0475   50.3957   30.7895 H   0  0  0  0  0  0
   -3.3025   49.5029   29.4697 H   0  0  0  0  0  0
   -2.4779   50.8971   30.1773 H   0  0  0  0  0  0
   -1.5480   51.0220   28.1945 H   0  0  0  0  0  0
   -2.2214   51.9890   24.0863 H   0  0  0  0  0  0
   -7.6215   51.0700   27.0422 H   0  0  0  0  0  0
   -6.2567   49.9749   26.8489 H   0  0  0  0  0  0
   -6.5238   50.8070   28.3881 H   0  0  0  0  0  0
   -6.4440   51.6965   23.2811 H   0  0  0  0  0  0
   -4.9882   50.7232   23.0337 H   0  0  0  0  0  0
   -5.9255   50.5845   24.5266 H   0  0  0  0  0  0
    0.7348   53.3154   26.1715 H   0  0  0  0  0  0
   -0.3225   53.2962   24.8387 H   0  0  0  0  0  0
    0.3013   51.4426   22.9043 H   0  0  0  0  0  0
    1.8411   50.6543   23.2619 H   0  0  0  0  0  0
   -0.8664   48.5413   26.2488 H   0  0  0  0  0  0
   -3.5551   48.9491   24.8829 H   0  0  0  0  0  0
   -3.8963   47.5764   23.8392 H   0  0  0  0  0  0
   -5.1451   47.9639   26.3369 H   0  0  0  0  0  0
   -4.9066   46.3566   25.6193 H   0  0  0  0  0  0
   -2.3410   45.3666   26.0735 H   0  0  0  0  0  0
   -1.3396   46.4958   27.0018 H   0  0  0  0  0  0
   -4.2381   45.0013   27.5605 H   0  0  0  0  0  0
   -3.1146   45.6978   28.7362 H   0  0  0  0  0  0
   -6.6541   45.6658   27.5952 H   0  0  0  0  0  0
   -8.5273   46.5733   28.9186 H   0  0  0  0  0  0
   -8.0714   47.9106   30.9466 H   0  0  0  0  0  0
   -5.7491   48.3383   31.6684 H   0  0  0  0  0  0
   -3.8624   47.4232   30.3606 H   0  0  0  0  0  0
    1.3152   54.3342   23.7105 H   0  0  0  0  0  0
    1.7648   53.1731   22.5029 H   0  0  0  0  0  0
    3.1295   54.1943   25.8853 H   0  0  0  0  0  0
    5.4955   54.8059   26.2325 H   0  0  0  0  0  0
    7.0770   54.7537   24.3249 H   0  0  0  0  0  0
    6.2969   54.0942   22.0808 H   0  0  0  0  0  0
    3.9335   53.4747   21.7215 H   0  0  0  0  0  0
   -3.1274   47.7258   27.5538 H   0  0  0  0  0  0
  1  2  1  0  0  0
  1 43  1  0  0  0
  1 44  1  0  0  0
  1 45  1  0  0  0
  2  3  1  0  0  0
  3  8  2  0  0  0
  3  4  1  0  0  0
  4  5  2  0  0  0
  4 46  1  0  0  0
  5  6  1  0  0  0
  5 13  1  0  0  0
  6  7  2  0  0  0
  6 47  1  0  0  0
  7  8  1  0  0  0
  7 11  1  0  0  0
  8  9  1  0  0  0
  9 10  1  0  0  0
 10 48  1  0  0  0
 10 49  1  0  0  0
 10 50  1  0  0  0
 11 12  1  0  0  0
 12 51  1  0  0  0
 12 52  1  0  0  0
 12 53  1  0  0  0
 13 14  1  0  0  0
 13 18  1  0  0  0
 13 15  1  0  0  0
 15 16  1  0  0  0
 15 54  1  0  0  0
 15 55  1  0  0  0
 16 17  1  0  0  0
 16 36  1  0  0  0
 17 18  1  0  0  0
 17 56  1  0  0  0
 17 57  1  0  0  0
 18 19  1  0  0  0
 18 20  1  0  0  0
 20 21  2  0  0  0
 20 22  1  0  0  0
 22 23  1  0  0  0
 22 58  1  0  0  0
 23 24  1  0  0  0
 23 28  1  0  0  0
 23 25  1  0  0  0
 25 26  1  0  0  0
 25 59  1  0  0  0
 25 60  1  0  0  0
 26 27  1  0  0  0
 26 61  1  0  0  0
 26 62  1  0  0  0
 27 28  1  0  0  0
 27 29  1  0  0  0
 27 79  1  0  0  0
 28 63  1  0  0  0
 28 64  1  0  0  0
 29 30  1  0  0  0
 29 65  1  0  0  0
 29 66  1  0  0  0
 30 35  2  0  0  0
 30 31  1  0  0  0
 31 32  2  0  0  0
 31 67  1  0  0  0
 32 33  1  0  0  0
 32 68  1  0  0  0
 33 34  2  0  0  0
 33 69  1  0  0  0
 34 35  1  0  0  0
 34 70  1  0  0  0
 35 71  1  0  0  0
 36 37  1  0  0  0
 36 72  1  0  0  0
 36 73  1  0  0  0
 37 42  2  0  0  0
 37 38  1  0  0  0
 38 39  2  0  0  0
 38 74  1  0  0  0
 39 40  1  0  0  0
 39 75  1  0  0  0
 40 41  2  0  0  0
 40 76  1  0  0  0
 41 42  1  0  0  0
 41 77  1  0  0  0
 42 78  1  0  0  0
M  CHG  1  27   1
M  END
> <i_i_glide_confnum>
151

> <i_i_glide_lignum>
1092

> <i_i_glide_posenum>
385

> <i_i_glide_rotatable_bonds>
11

> <i_m_Source_File_Index>
5615

> <b_m_subgroup_collapsed>
0

> <r_i_docking_score>
-4.90519

> <r_i_glide_ecoul>
-7.6838

> <r_i_glide_eff_state_penalty>
0

> <r_i_glide_einternal>
15.2206

> <r_i_glide_emodel>
-54.1929

> <r_i_glide_energy>
-45.3862

> <r_i_glide_erotb>
0.585623

> <r_i_glide_esite>
-0.21606

> <r_i_glide_evdw>
-37.7024

> <r_i_glide_gscore>
-4.90519

> <r_i_glide_hbond>
-0.223049

> <r_i_glide_ligand_efficiency>
-0.125774

> <r_i_glide_ligand_efficiency_ln>
-1.05181

> <r_i_glide_ligand_efficiency_sa>
-0.426527

> <r_i_glide_lipo>
-1.96402

> <r_i_glide_metal>
0

> <r_i_glide_rewards>
-0.0499998

> <s_i_glide_gridfile>
wee1_glide-grid

> <s_m_Source_File>
wee1_decoys_glide_SP.sdf

> <s_m_Source_Path>
/Users/zhangxujun/Desktop

> <s_m_entry_id>
5890

> <s_m_entry_name>
wee1_decoys_glide_SP.5615

> <s_m_subgroup_title>
wee1_decoys_glide_SP

> <s_m_subgroupid>
wee1_decoys_glide_SP


$$$$
