ZINC43525590_4907
                    3D
 Schrodinger Suite 2024-2.
 67 70  0  0  1  0            999 V2000
    1.8847   46.3031   12.8591 C   0  0  0  0  0  0
    2.7642   47.5624   13.0000 C   0  0  0  0  0  0
    3.1741   48.0855   11.6144 C   0  0  0  0  0  0
    2.0891   48.6823   13.8284 C   0  0  0  0  0  0
    1.8770   48.3581   15.2467 N   0  0  0  0  0  0
    0.7139   47.8804   15.7919 C   0  0  0  0  0  0
   -0.7150   47.5806   14.9880 S   0  0  0  0  0  0
    0.7130   47.6172   17.1264 N   0  0  0  0  0  0
    1.6926   48.1512   18.0765 C   0  0  0  0  0  0
    1.3692   49.5968   18.5317 C   0  0  1  0  0  0
    1.5183   50.2660   17.6806 H   0  0  0  0  0  0
   -0.0556   49.7967   19.1422 C   0  0  0  0  0  0
    0.0176   50.2765   20.6124 C   0  0  1  0  0  0
   -0.9896   50.3251   21.0236 H   0  0  0  0  0  0
    0.8621   49.2349   21.3906 C   0  0  0  0  0  0
    2.3336   49.2250   20.8856 C   0  0  0  0  0  0
    2.4303   50.0621   19.5742 N   0  3  2  0  0  0
    2.1289   51.5485   19.9362 C   0  0  0  0  0  0
    0.7444   51.6553   20.6770 C   0  0  2  0  0  0
    0.1520   52.3769   20.1121 H   0  0  0  0  0  0
    0.8345   52.2061   22.1041 C   0  0  0  0  0  0
    1.9070   52.5089   22.9329 C   0  0  0  0  0  0
    1.3855   52.9134   24.1696 C   0  0  0  0  0  0
    0.0726   52.8975   24.1336 N   0  0  0  0  0  0
   -0.2568   52.4961   22.9007 N   0  0  0  0  0  0
   -1.6748   52.3698   22.5929 C   0  0  0  0  0  0
    2.1348   53.3020   25.4035 C   0  0  0  0  0  0
    1.5406   53.2144   26.6682 C   0  0  0  0  0  0
    2.2553   53.5731   27.8065 C   0  0  0  0  0  0
    3.5761   54.0054   27.7076 C   0  0  0  0  0  0
    4.1730   54.0972   26.4411 C   0  0  0  0  0  0
    3.4522   53.7570   25.3001 C   0  0  0  0  0  0
    4.2084   54.3165   28.8936 O   0  0  0  0  0  0
    5.6038   54.5920   28.8789 C   0  0  0  0  0  0
    0.8998   46.5562   12.4683 H   0  0  0  0  0  0
    1.7466   45.8079   13.8195 H   0  0  0  0  0  0
    2.3045   45.5654   12.1757 H   0  0  0  0  0  0
    3.6818   47.2867   13.5198 H   0  0  0  0  0  0
    2.3056   48.3902   11.0304 H   0  0  0  0  0  0
    3.8361   48.9481   11.6954 H   0  0  0  0  0  0
    3.7043   47.3236   11.0419 H   0  0  0  0  0  0
    2.7276   49.5674   13.8149 H   0  0  0  0  0  0
    1.1643   49.0114   13.3520 H   0  0  0  0  0  0
    2.6736   48.4987   15.8602 H   0  0  0  0  0  0
   -0.1218   47.1969   17.5099 H   0  0  0  0  0  0
    1.6772   47.4708   18.9242 H   0  0  0  0  0  0
    2.7044   48.0859   17.6810 H   0  0  0  0  0  0
   -0.6207   50.5053   18.5355 H   0  0  0  0  0  0
   -0.6294   48.8704   19.0944 H   0  0  0  0  0  0
    0.4167   48.2458   21.2807 H   0  0  0  0  0  0
    0.8467   49.4488   22.4609 H   0  0  0  0  0  0
    2.7044   48.2211   20.6825 H   0  0  0  0  0  0
    3.0143   49.6953   21.5983 H   0  0  0  0  0  0
    2.9806   51.9122   20.5094 H   0  0  0  0  0  0
    2.1301   52.0868   18.9863 H   0  0  0  0  0  0
    2.9545   52.4202   22.6909 H   0  0  0  0  0  0
   -2.0196   51.3801   22.9000 H   0  0  0  0  0  0
   -2.2491   53.1309   23.1287 H   0  0  0  0  0  0
   -1.8408   52.4989   21.5224 H   0  0  0  0  0  0
    0.5246   52.8633   26.7763 H   0  0  0  0  0  0
    1.7869   53.4989   28.7763 H   0  0  0  0  0  0
    5.1925   54.4268   26.3199 H   0  0  0  0  0  0
    3.9311   53.8407   24.3359 H   0  0  0  0  0  0
    5.9044   54.8977   29.8775 H   0  0  0  0  0  0
    6.1818   53.7075   28.6054 H   0  0  0  0  0  0
    5.8699   55.4080   28.2071 H   0  0  0  0  0  0
    3.3534   49.9982   19.1511 H   0  0  0  0  0  0
  1  2  1  0  0  0
  1 35  1  0  0  0
  1 36  1  0  0  0
  1 37  1  0  0  0
  2  3  1  0  0  0
  2  4  1  0  0  0
  2 38  1  0  0  0
  3 39  1  0  0  0
  3 40  1  0  0  0
  3 41  1  0  0  0
  4  5  1  0  0  0
  4 42  1  0  0  0
  4 43  1  0  0  0
  5  6  1  0  0  0
  5 44  1  0  0  0
  6  7  2  0  0  0
  6  8  1  0  0  0
  8  9  1  0  0  0
  8 45  1  0  0  0
  9 10  1  0  0  0
  9 46  1  0  0  0
  9 47  1  0  0  0
 10 11  1  0  0  0
 10 17  1  0  0  0
 10 12  1  0  0  0
 12 13  1  0  0  0
 12 48  1  0  0  0
 12 49  1  0  0  0
 13 14  1  0  0  0
 13 19  1  0  0  0
 13 15  1  0  0  0
 15 16  1  0  0  0
 15 50  1  0  0  0
 15 51  1  0  0  0
 16 17  1  0  0  0
 16 52  1  0  0  0
 16 53  1  0  0  0
 17 18  1  0  0  0
 17 67  1  0  0  0
 18 19  1  0  0  0
 18 54  1  0  0  0
 18 55  1  0  0  0
 19 20  1  0  0  0
 19 21  1  0  0  0
 21 25  1  0  0  0
 21 22  2  0  0  0
 22 23  1  0  0  0
 22 56  1  0  0  0
 23 24  2  0  0  0
 23 27  1  0  0  0
 24 25  1  0  0  0
 25 26  1  0  0  0
 26 57  1  0  0  0
 26 58  1  0  0  0
 26 59  1  0  0  0
 27 32  2  0  0  0
 27 28  1  0  0  0
 28 29  2  0  0  0
 28 60  1  0  0  0
 29 30  1  0  0  0
 29 61  1  0  0  0
 30 31  2  0  0  0
 30 33  1  0  0  0
 31 32  1  0  0  0
 31 62  1  0  0  0
 32 63  1  0  0  0
 33 34  1  0  0  0
 34 64  1  0  0  0
 34 65  1  0  0  0
 34 66  1  0  0  0
M  CHG  1  17   1
M  END
> <i_i_glide_confnum>
132

> <i_i_glide_lignum>
4908

> <i_i_glide_posenum>
396

> <i_i_glide_rotatable_bonds>
9

> <i_m_Source_File_Index>
5607

> <b_m_subgroup_collapsed>
0

> <r_i_docking_score>
-3.7312

> <r_i_glide_ecoul>
-3.54186

> <r_i_glide_eff_state_penalty>
0

> <r_i_glide_einternal>
8.11419

> <r_i_glide_emodel>
-37.7205

> <r_i_glide_energy>
-32.6974

> <r_i_glide_erotb>
0.714001

> <r_i_glide_esite>
-0.215984

> <r_i_glide_evdw>
-29.1555

> <r_i_glide_gscore>
-3.7312

> <r_i_glide_hbond>
-0.242301

> <r_i_glide_ligand_efficiency>
-0.120361

> <r_i_glide_ligand_efficiency_ln>
-0.841501

> <r_i_glide_ligand_efficiency_sa>
-0.378101

> <r_i_glide_lipo>
-1.57283

> <r_i_glide_metal>
0

> <r_i_glide_rewards>
-0.425032

> <s_i_glide_gridfile>
wee1_glide-grid

> <s_m_Source_File>
wee1_decoys_glide_SP.sdf

> <s_m_Source_Path>
/Users/zhangxujun/Desktop

> <s_m_entry_id>
5882

> <s_m_entry_name>
wee1_decoys_glide_SP.5607

> <s_m_subgroup_title>
wee1_decoys_glide_SP

> <s_m_subgroupid>
wee1_decoys_glide_SP


$$$$
