ZINC34906388_4496
                    3D
 Schrodinger Suite 2024-2.
 72 77  0  0  1  0            999 V2000
    0.5163   51.6911   28.4599 C   0  0  0  0  0  0
   -0.4269   52.3956   29.2026 C   0  0  0  0  0  0
   -0.0955   53.6378   29.7395 C   0  0  0  0  0  0
    1.1791   54.1682   29.5529 C   0  0  0  0  0  0
    2.1459   53.4517   28.8398 C   0  0  0  0  0  0
    1.7951   52.2122   28.2795 C   0  0  0  0  0  0
    3.3921   54.0306   28.7316 O   0  0  0  0  0  0
    4.5331   53.2387   28.4250 C   0  0  0  0  0  0
    5.2127   53.8024   27.2086 C   0  0  0  0  0  0
    4.6910   53.7946   26.0053 N   0  0  0  0  0  0
    5.5031   54.3008   25.0830 C   0  0  0  0  0  0
    6.7044   54.7916   25.5787 C   0  0  0  0  0  0
    6.7881   54.4970   27.2803 S   0  0  0  0  0  0
    5.1573   54.3409   23.6772 C   0  0  0  0  0  0
    5.9037   54.8959   22.8621 O   0  0  0  0  0  0
    3.9980   53.7464   23.3445 N   0  0  0  0  0  0
    3.3892   53.6970   22.0183 C   0  0  2  0  0  0
    3.2782   54.7454   21.7241 H   0  0  0  0  0  0
    1.9698   53.0775   22.0819 C   0  0  0  0  0  0
    1.9890   51.5533   22.3122 C   0  0  0  0  0  0
    2.8900   50.8377   21.2862 C   0  0  0  0  0  0
    4.2939   51.4768   21.1831 C   0  0  0  0  0  0
    4.2558   52.9936   20.9219 C   0  0  1  0  0  0
    5.2829   53.3553   20.9933 H   0  0  0  0  0  0
    3.7678   53.2968   19.5761 N   0  0  0  0  0  0
    4.4227   54.0200   18.6582 C   0  0  0  0  0  0
    5.6397   54.2068   18.6650 O   0  0  0  0  0  0
    3.5712   54.5951   17.7949 N   0  0  0  0  0  0
    3.8509   55.6797   16.8455 C   0  0  0  0  0  0
    2.5000   56.1669   16.2277 C   0  0  0  0  0  0
    2.7216   57.3080   15.2032 C   0  0  1  0  0  0
    3.3969   58.5027   15.9144 C   0  0  0  0  0  0
    4.7614   58.0624   16.4963 C   0  0  1  0  0  0
    4.5324   56.9226   17.5167 C   0  0  0  0  0  0
    5.6750   57.5478   15.3554 C   0  0  0  0  0  0
    4.9985   56.3499   14.6426 C   0  0  2  0  0  0
    3.6353   56.8006   14.0575 C   0  0  0  0  0  0
    4.7630   55.2068   15.6663 C   0  0  0  0  0  0
    1.4721   55.3802   30.0840 F   0  0  0  0  0  0
    0.2465   50.7337   28.0296 H   0  0  0  0  0  0
   -1.4157   51.9797   29.3536 H   0  0  0  0  0  0
   -0.8232   54.2038   30.2969 H   0  0  0  0  0  0
    2.4875   51.6433   27.6819 H   0  0  0  0  0  0
    5.1959   53.3110   29.2814 H   0  0  0  0  0  0
    4.3727   52.1665   28.3352 H   0  0  0  0  0  0
    7.5047   55.2493   25.0147 H   0  0  0  0  0  0
    3.5045   53.2489   24.0689 H   0  0  0  0  0  0
    1.3886   53.5641   22.8645 H   0  0  0  0  0  0
    1.4359   53.2950   21.1581 H   0  0  0  0  0  0
    0.9738   51.1600   22.2488 H   0  0  0  0  0  0
    2.3229   51.3379   23.3260 H   0  0  0  0  0  0
    2.4137   50.8646   20.3057 H   0  0  0  0  0  0
    2.9819   49.7816   21.5467 H   0  0  0  0  0  0
    4.8563   50.9834   20.3902 H   0  0  0  0  0  0
    4.8739   51.2975   22.0816 H   0  0  0  0  0  0
    2.8358   52.9786   19.3566 H   0  0  0  0  0  0
    2.6068   54.3037   17.8361 H   0  0  0  0  0  0
    1.9868   55.3341   15.7429 H   0  0  0  0  0  0
    1.8276   56.5091   17.0154 H   0  0  0  0  0  0
    1.7608   57.6227   14.7911 H   0  0  0  0  0  0
    2.7541   58.8873   16.7085 H   0  0  0  0  0  0
    3.5379   59.3324   15.2184 H   0  0  0  0  0  0
    5.2341   58.9118   16.9902 H   0  0  0  0  0  0
    3.9258   57.2910   18.3421 H   0  0  0  0  0  0
    5.4910   56.6472   17.9577 H   0  0  0  0  0  0
    5.8737   58.3485   14.6421 H   0  0  0  0  0  0
    6.6461   57.2507   15.7548 H   0  0  0  0  0  0
    5.6404   55.9895   13.8386 H   0  0  0  0  0  0
    3.1580   55.9749   13.5256 H   0  0  0  0  0  0
    3.7875   57.5901   13.3187 H   0  0  0  0  0  0
    5.7233   54.8549   16.0477 H   0  0  0  0  0  0
    4.3133   54.3474   15.1648 H   0  0  0  0  0  0
  1  6  2  0  0  0
  1  2  1  0  0  0
  1 40  1  0  0  0
  2  3  2  0  0  0
  2 41  1  0  0  0
  3  4  1  0  0  0
  3 42  1  0  0  0
  4  5  2  0  0  0
  4 39  1  0  0  0
  5  6  1  0  0  0
  5  7  1  0  0  0
  6 43  1  0  0  0
  7  8  1  0  0  0
  8  9  1  0  0  0
  8 44  1  0  0  0
  8 45  1  0  0  0
  9 13  1  0  0  0
  9 10  2  0  0  0
 10 11  1  0  0  0
 11 12  2  0  0  0
 11 14  1  0  0  0
 12 13  1  0  0  0
 12 46  1  0  0  0
 14 15  2  0  0  0
 14 16  1  0  0  0
 16 17  1  0  0  0
 16 47  1  0  0  0
 17 18  1  0  0  0
 17 23  1  0  0  0
 17 19  1  0  0  0
 19 20  1  0  0  0
 19 48  1  0  0  0
 19 49  1  0  0  0
 20 21  1  0  0  0
 20 50  1  0  0  0
 20 51  1  0  0  0
 21 22  1  0  0  0
 21 52  1  0  0  0
 21 53  1  0  0  0
 22 23  1  0  0  0
 22 54  1  0  0  0
 22 55  1  0  0  0
 23 24  1  0  0  0
 23 25  1  0  0  0
 25 26  1  0  0  0
 25 56  1  0  0  0
 26 27  2  0  0  0
 26 28  1  0  0  0
 28 29  1  0  0  0
 28 57  1  0  0  0
 29 34  1  0  0  0
 29 38  1  0  0  0
 29 30  1  0  0  0
 30 31  1  0  0  0
 30 58  1  0  0  0
 30 59  1  0  0  0
 31 37  1  0  0  0
 31 32  1  0  0  0
 31 60  1  0  0  0
 32 33  1  0  0  0
 32 61  1  0  0  0
 32 62  1  0  0  0
 33 34  1  0  0  0
 33 35  1  0  0  0
 33 63  1  0  0  0
 34 64  1  0  0  0
 34 65  1  0  0  0
 35 36  1  0  0  0
 35 66  1  0  0  0
 35 67  1  0  0  0
 36 37  1  0  0  0
 36 38  1  0  0  0
 36 68  1  0  0  0
 37 69  1  0  0  0
 37 70  1  0  0  0
 38 71  1  0  0  0
 38 72  1  0  0  0
M  END
> <i_i_glide_confnum>
20

> <i_i_glide_lignum>
4497

> <i_i_glide_posenum>
148

> <i_i_glide_rotatable_bonds>
10

> <i_m_Source_File_Index>
979

> <b_m_subgroup_collapsed>
0

> <r_i_docking_score>
-5.35311

> <r_i_glide_ecoul>
-1.65457

> <r_i_glide_eff_state_penalty>
0

> <r_i_glide_einternal>
7.58726

> <r_i_glide_emodel>
-65.6375

> <r_i_glide_energy>
-51.8992

> <r_i_glide_erotb>
0.668091

> <r_i_glide_esite>
-0.0410266

> <r_i_glide_evdw>
-50.2446

> <r_i_glide_gscore>
-5.35311

> <r_i_glide_hbond>
0

> <r_i_glide_ligand_efficiency>
-0.144679

> <r_i_glide_ligand_efficiency_ln>
-1.16096

> <r_i_glide_ligand_efficiency_sa>
-0.482101

> <r_i_glide_lipo>
-2.49426

> <r_i_glide_metal>
0

> <r_i_glide_rewards>
-0.725497

> <s_i_glide_gridfile>
wee1_glide-grid

> <s_m_Source_File>
wee1_decoys_glide_SP.sdf

> <s_m_Source_Path>
/Users/zhangxujun/Desktop

> <s_m_entry_id>
1254

> <s_m_entry_name>
wee1_decoys_glide_SP.979

> <s_m_subgroup_title>
wee1_decoys_glide_SP

> <s_m_subgroupid>
wee1_decoys_glide_SP


$$$$
