ZINC33436976_576
                    3D
 Schrodinger Suite 2024-2.
 76 79  0  0  1  0            999 V2000
    0.2677   52.3148   30.7454 C   0  0  0  0  0  0
   -0.4654   52.0505   29.4309 C   0  0  0  0  0  0
   -0.1183   52.4921   28.1969 C   0  0  0  0  0  0
   -1.0057   52.1854   26.9580 C   0  0  2  0  0  0
   -1.3531   53.1485   26.5834 H   0  0  0  0  0  0
   -2.2615   51.4842   27.3629 N   0  0  0  0  0  0
   -3.2489   51.3582   26.2669 C   0  0  0  0  0  0
   -4.2808   50.2570   26.5683 C   0  0  0  0  0  0
   -5.1059   50.5120   27.8311 C   0  0  0  0  0  0
   -4.0304   50.4965   29.2777 S   0  0  0  0  0  0
   -2.5354   51.1184   28.6313 C   0  0  0  0  0  0
   -1.6034   51.2967   29.5693 N   0  3  0  0  0  0
   -0.2999   51.4897   25.7842 C   0  0  0  0  0  0
    0.1699   50.1819   25.9295 C   0  0  0  0  0  0
    0.7037   49.5096   24.8328 C   0  0  0  0  0  0
    0.7507   50.1284   23.5816 C   0  0  0  0  0  0
    0.3182   51.4538   23.4453 C   0  0  0  0  0  0
   -0.2058   52.1302   24.5441 C   0  0  0  0  0  0
    1.2526   49.3795   22.5010 N   0  0  0  0  0  0
    0.7643   49.3636   21.2404 C   0  0  0  0  0  0
   -0.2184   50.0130   20.8780 O   0  0  0  0  0  0
    1.4673   48.4106   20.2530 C   0  0  0  0  0  0
    1.2352   48.6449   18.7315 C   0  0  1  0  0  0
    0.1599   48.6018   18.5511 H   0  0  0  0  0  0
    1.7291   50.0451   18.2978 C   0  0  0  0  0  0
    1.9052   47.4895   17.9163 C   0  0  0  0  0  0
    1.2806   47.0553   16.5516 C   0  0  0  0  0  0
    2.2456   46.0534   15.8717 C   0  0  0  0  0  0
    1.0688   48.2400   15.5847 C   0  0  0  0  0  0
   -0.0783   46.3530   16.7809 C   0  0  0  0  0  0
    1.0259   53.3822   28.0374 C   0  0  0  0  0  0
    1.1886   54.3724   28.7546 O   0  0  0  0  0  0
    1.8917   53.0078   27.0761 N   0  0  0  0  0  0
    3.1245   53.6031   26.7761 C   0  0  0  0  0  0
    3.4721   53.7182   25.4290 C   0  0  0  0  0  0
    4.7115   54.2512   25.0779 C   0  0  0  0  0  0
    5.6095   54.6306   26.0750 C   0  0  0  0  0  0
    5.2770   54.4976   27.4218 C   0  0  0  0  0  0
    4.0285   53.9919   27.7753 C   0  0  0  0  0  0
    1.3370   52.1348   30.6356 H   0  0  0  0  0  0
    0.1263   53.3504   31.0509 H   0  0  0  0  0  0
   -0.0952   51.6969   31.5668 H   0  0  0  0  0  0
   -3.7341   52.3279   26.1482 H   0  0  0  0  0  0
   -2.7458   51.1260   25.3288 H   0  0  0  0  0  0
   -4.9565   50.1628   25.7153 H   0  0  0  0  0  0
   -3.7728   49.2905   26.6489 H   0  0  0  0  0  0
   -5.6019   51.4835   27.7918 H   0  0  0  0  0  0
   -5.8704   49.7469   27.9731 H   0  0  0  0  0  0
    0.0893   49.6743   26.8821 H   0  0  0  0  0  0
    1.0476   48.4945   24.9608 H   0  0  0  0  0  0
    0.3708   51.9537   22.4898 H   0  0  0  0  0  0
   -0.5638   53.1421   24.4157 H   0  0  0  0  0  0
    1.9730   48.7108   22.7365 H   0  0  0  0  0  0
    1.1395   47.3995   20.4817 H   0  0  0  0  0  0
    2.5400   48.4321   20.4548 H   0  0  0  0  0  0
    2.7671   50.1985   18.5830 H   0  0  0  0  0  0
    1.6737   50.2118   17.2233 H   0  0  0  0  0  0
    1.1442   50.8396   18.7633 H   0  0  0  0  0  0
    1.9038   46.5913   18.5354 H   0  0  0  0  0  0
    2.9695   47.6968   17.7974 H   0  0  0  0  0  0
    1.8619   45.7125   14.9091 H   0  0  0  0  0  0
    2.4113   45.1647   16.4807 H   0  0  0  0  0  0
    3.2224   46.5062   15.6889 H   0  0  0  0  0  0
    0.3161   48.9362   15.9556 H   0  0  0  0  0  0
    1.9951   48.7938   15.4268 H   0  0  0  0  0  0
    0.7249   47.9051   14.6041 H   0  0  0  0  0  0
   -0.8182   47.0278   17.2077 H   0  0  0  0  0  0
   -0.4940   45.9723   15.8471 H   0  0  0  0  0  0
    0.0161   45.5045   17.4588 H   0  0  0  0  0  0
    1.5757   52.2895   26.4389 H   0  0  0  0  0  0
    2.7893   53.4008   24.6533 H   0  0  0  0  0  0
    4.9844   54.3515   24.0367 H   0  0  0  0  0  0
    6.5749   55.0260   25.7991 H   0  0  0  0  0  0
    5.9807   54.7936   28.1884 H   0  0  0  0  0  0
    3.7783   53.8825   28.8210 H   0  0  0  0  0  0
   -1.7853   50.8402   30.4569 H   0  0  0  0  0  0
  1  2  1  0  0  0
  1 40  1  0  0  0
  1 41  1  0  0  0
  1 42  1  0  0  0
  2 12  1  0  0  0
  2  3  2  0  0  0
  3  4  1  0  0  0
  3 31  1  0  0  0
  4  5  1  0  0  0
  4  6  1  0  0  0
  4 13  1  0  0  0
  6 11  1  0  0  0
  6  7  1  0  0  0
  7  8  1  0  0  0
  7 43  1  0  0  0
  7 44  1  0  0  0
  8  9  1  0  0  0
  8 45  1  0  0  0
  8 46  1  0  0  0
  9 10  1  0  0  0
  9 47  1  0  0  0
  9 48  1  0  0  0
 10 11  1  0  0  0
 11 12  2  0  0  0
 12 76  1  0  0  0
 13 18  2  0  0  0
 13 14  1  0  0  0
 14 15  2  0  0  0
 14 49  1  0  0  0
 15 16  1  0  0  0
 15 50  1  0  0  0
 16 17  2  0  0  0
 16 19  1  0  0  0
 17 18  1  0  0  0
 17 51  1  0  0  0
 18 52  1  0  0  0
 19 20  1  0  0  0
 19 53  1  0  0  0
 20 21  2  0  0  0
 20 22  1  0  0  0
 22 23  1  0  0  0
 22 54  1  0  0  0
 22 55  1  0  0  0
 23 24  1  0  0  0
 23 25  1  0  0  0
 23 26  1  0  0  0
 25 56  1  0  0  0
 25 57  1  0  0  0
 25 58  1  0  0  0
 26 27  1  0  0  0
 26 59  1  0  0  0
 26 60  1  0  0  0
 27 28  1  0  0  0
 27 29  1  0  0  0
 27 30  1  0  0  0
 28 61  1  0  0  0
 28 62  1  0  0  0
 28 63  1  0  0  0
 29 64  1  0  0  0
 29 65  1  0  0  0
 29 66  1  0  0  0
 30 67  1  0  0  0
 30 68  1  0  0  0
 30 69  1  0  0  0
 31 32  2  0  0  0
 31 33  1  0  0  0
 33 34  1  0  0  0
 33 70  1  0  0  0
 34 39  2  0  0  0
 34 35  1  0  0  0
 35 36  2  0  0  0
 35 71  1  0  0  0
 36 37  1  0  0  0
 36 72  1  0  0  0
 37 38  2  0  0  0
 37 73  1  0  0  0
 38 39  1  0  0  0
 38 74  1  0  0  0
 39 75  1  0  0  0
M  CHG  1  12   1
M  END
> <i_i_glide_confnum>
200

> <i_i_glide_lignum>
577

> <i_i_glide_posenum>
283

> <i_i_glide_rotatable_bonds>
10

> <i_m_Source_File_Index>
5347

> <b_m_subgroup_collapsed>
0

> <r_i_docking_score>
-4.0285

> <r_i_glide_ecoul>
-3.70282

> <r_i_glide_eff_state_penalty>
0

> <r_i_glide_einternal>
10.6312

> <r_i_glide_emodel>
-52.908

> <r_i_glide_energy>
-46.2984

> <r_i_glide_erotb>
0.684605

> <r_i_glide_esite>
-0.26654

> <r_i_glide_evdw>
-42.5956

> <r_i_glide_gscore>
-4.0285

> <r_i_glide_hbond>
-0.126092

> <r_i_glide_ligand_efficiency>
-0.108878

> <r_i_glide_ligand_efficiency_ln>
-0.873688

> <r_i_glide_ligand_efficiency_sa>
-0.362807

> <r_i_glide_lipo>
-1.64695

> <r_i_glide_metal>
0

> <r_i_glide_rewards>
0.0116784

> <s_i_glide_gridfile>
wee1_glide-grid

> <s_m_Source_File>
wee1_decoys_glide_SP.sdf

> <s_m_Source_Path>
/Users/zhangxujun/Desktop

> <s_m_entry_id>
5622

> <s_m_entry_name>
wee1_decoys_glide_SP.5347

> <s_m_subgroup_title>
wee1_decoys_glide_SP

> <s_m_subgroupid>
wee1_decoys_glide_SP


$$$$
