ZINC14035296_3522
                    3D
 Schrodinger Suite 2024-2.
 47 48  0  0  1  0            999 V2000
    1.8967   55.4663   29.3536 C   0  0  0  0  0  0
    1.3754   54.0970   29.8364 C   0  0  0  0  0  0
    0.3196   54.2761   30.9449 C   0  0  0  0  0  0
    0.7863   53.2477   28.6903 C   0  0  0  0  0  0
    1.6691   53.1723   27.5669 O   0  0  0  0  0  0
    1.1268   52.8468   26.3335 C   0  0  0  0  0  0
   -0.0605   52.0975   26.2380 C   0  0  0  0  0  0
   -0.6472   51.8234   25.0064 C   0  0  0  0  0  0
   -0.0592   52.2945   23.8426 C   0  0  0  0  0  0
    1.1332   53.0073   23.9095 C   0  0  0  0  0  0
    1.7704   53.2676   25.1431 C   0  0  0  0  0  0
    3.1051   54.0025   25.1685 C   0  0  0  0  0  0
    3.5134   54.5717   26.1824 O   0  0  0  0  0  0
    3.7602   53.9850   23.9844 N   0  0  0  0  0  0
    5.0195   54.3507   23.5735 C   0  0  0  0  0  0
    6.2914   54.8954   24.5138 S   0  0  0  0  0  0
    5.2534   54.2411   22.2302 N   0  0  0  0  0  0
    4.2652   53.8204   21.3179 N   0  0  0  0  0  0
    4.2893   52.5359   20.9028 C   0  0  0  0  0  0
    5.1041   51.6978   21.2840 O   0  0  0  0  0  0
    3.1996   52.1456   19.9462 C   0  0  0  0  0  0
    3.0958   52.8156   18.7175 C   0  0  0  0  0  0
    2.0985   52.4730   17.8050 C   0  0  0  0  0  0
    1.1937   51.4585   18.1110 C   0  0  0  0  0  0
    1.2837   50.7891   19.3299 C   0  0  0  0  0  0
    2.2790   51.1204   20.2521 C   0  0  0  0  0  0
    2.3178   50.0200   22.0453 I   0  0  0  0  0  0
    1.1055   56.0512   28.8817 H   0  0  0  0  0  0
    2.7005   55.3499   28.6260 H   0  0  0  0  0  0
    2.2982   56.0566   30.1797 H   0  0  0  0  0  0
    2.2204   53.5465   30.2524 H   0  0  0  0  0  0
   -0.4959   54.8955   30.5839 H   0  0  0  0  0  0
   -0.0972   53.3212   31.2730 H   0  0  0  0  0  0
    0.7098   54.7832   31.8273 H   0  0  0  0  0  0
    0.5827   52.2380   29.0493 H   0  0  0  0  0  0
   -0.1677   53.6913   28.3917 H   0  0  0  0  0  0
   -0.5518   51.7160   27.1191 H   0  0  0  0  0  0
   -1.5604   51.2479   24.9616 H   0  0  0  0  0  0
   -0.5156   52.0917   22.8854 H   0  0  0  0  0  0
    1.5450   53.3439   22.9662 H   0  0  0  0  0  0
    3.2407   53.5004   23.2684 H   0  0  0  0  0  0
    5.9479   54.8293   21.7925 H   0  0  0  0  0  0
    3.8762   54.5722   20.7648 H   0  0  0  0  0  0
    3.7956   53.5953   18.4481 H   0  0  0  0  0  0
    2.0372   52.9836   16.8556 H   0  0  0  0  0  0
    0.4278   51.1860   17.3998 H   0  0  0  0  0  0
    0.5830   49.9984   19.5553 H   0  0  0  0  0  0
  1  2  1  0  0  0
  1 28  1  0  0  0
  1 29  1  0  0  0
  1 30  1  0  0  0
  2  3  1  0  0  0
  2  4  1  0  0  0
  2 31  1  0  0  0
  3 32  1  0  0  0
  3 33  1  0  0  0
  3 34  1  0  0  0
  4  5  1  0  0  0
  4 35  1  0  0  0
  4 36  1  0  0  0
  5  6  1  0  0  0
  6 11  2  0  0  0
  6  7  1  0  0  0
  7  8  2  0  0  0
  7 37  1  0  0  0
  8  9  1  0  0  0
  8 38  1  0  0  0
  9 10  2  0  0  0
  9 39  1  0  0  0
 10 11  1  0  0  0
 10 40  1  0  0  0
 11 12  1  0  0  0
 12 13  2  0  0  0
 12 14  1  0  0  0
 14 15  1  0  0  0
 14 41  1  0  0  0
 15 16  2  0  0  0
 15 17  1  0  0  0
 17 18  1  0  0  0
 17 42  1  0  0  0
 18 19  1  0  0  0
 18 43  1  0  0  0
 19 20  2  0  0  0
 19 21  1  0  0  0
 21 26  2  0  0  0
 21 22  1  0  0  0
 22 23  2  0  0  0
 22 44  1  0  0  0
 23 24  1  0  0  0
 23 45  1  0  0  0
 24 25  2  0  0  0
 24 46  1  0  0  0
 25 26  1  0  0  0
 25 47  1  0  0  0
 26 27  1  0  0  0
M  END
> <i_i_glide_confnum>
12

> <i_i_glide_lignum>
3523

> <i_i_glide_posenum>
395

> <i_i_glide_rotatable_bonds>
10

> <i_m_Source_File_Index>
2659

> <b_m_subgroup_collapsed>
0

> <r_i_docking_score>
-4.94897

> <r_i_glide_ecoul>
-3.30803

> <r_i_glide_eff_state_penalty>
0

> <r_i_glide_einternal>
2.31831

> <r_i_glide_emodel>
-62.2902

> <r_i_glide_energy>
-48.1298

> <r_i_glide_erotb>
0.659726

> <r_i_glide_esite>
0

> <r_i_glide_evdw>
-44.8217

> <r_i_glide_gscore>
-4.94897

> <r_i_glide_hbond>
-0.000364876

> <r_i_glide_ligand_efficiency>
-0.183295

> <r_i_glide_ligand_efficiency_ln>
-1.15204

> <r_i_glide_ligand_efficiency_sa>
-0.549885

> <r_i_glide_lipo>
-1.75993

> <r_i_glide_metal>
0

> <r_i_glide_rewards>
-1.11111

> <s_i_glide_gridfile>
wee1_glide-grid

> <s_m_Source_File>
wee1_decoys_glide_SP.sdf

> <s_m_Source_Path>
/Users/zhangxujun/Desktop

> <s_m_entry_id>
2934

> <s_m_entry_name>
wee1_decoys_glide_SP.2659

> <s_m_subgroup_title>
wee1_decoys_glide_SP

> <s_m_subgroupid>
wee1_decoys_glide_SP


$$$$
