ZINC21000889_430
                    3D
 Schrodinger Suite 2024-2.
 52 55  0  0  1  0            999 V2000
    0.6599   54.0970   30.4658 C   0  0  0  0  0  0
   -0.0198   52.8843   30.4103 C   0  0  0  0  0  0
   -0.0954   52.1839   29.2109 C   0  0  0  0  0  0
    0.5132   52.6885   28.0542 C   0  0  0  0  0  0
    1.2052   53.9059   28.1280 C   0  0  0  0  0  0
    1.2758   54.6107   29.3286 C   0  0  0  0  0  0
    0.4182   51.8993   26.7770 C   0  0  0  0  0  0
   -0.1736   50.6559   26.5511 C   0  0  0  0  0  0
   -0.0390   50.1426   25.2464 C   0  0  0  0  0  0
    0.7024   51.0260   24.4430 C   0  0  0  0  0  0
    1.1059   52.4967   25.2943 S   0  0  0  0  0  0
    1.0944   50.7690   23.1329 N   0  0  0  0  0  0
    1.8060   51.5216   22.2690 C   0  0  0  0  0  0
    2.1562   52.6835   22.4804 O   0  0  0  0  0  0
    2.1395   50.8706   20.9048 C   0  0  0  0  0  0
    1.9116   49.3221   20.8514 C   0  0  0  0  0  0
    2.2223   48.7719   19.4485 C   0  0  0  0  0  0
    1.5050   49.5584   18.4302 N   0  0  0  0  0  0
    1.8441   50.9958   18.3671 C   0  0  0  0  0  0
    1.5323   51.6803   19.7190 C   0  0  0  0  0  0
    0.1278   48.8725   17.5606 S   0  0  0  0  0  0
   -0.8086   48.2968   18.5328 O   0  0  0  0  0  0
   -0.3079   49.8035   16.5131 O   0  0  0  0  0  0
    0.9452   47.4880   16.7368 C   0  0  0  0  0  0
    1.9043   47.6030   15.7413 C   0  0  0  0  0  0
    2.4472   46.3707   15.3723 C   0  0  0  0  0  0
    1.9000   45.3099   16.0810 C   0  0  0  0  0  0
    0.7037   45.8394   17.2214 S   0  0  0  0  0  0
    2.3036   43.6459   15.9605 Cl  0  0  0  0  0  0
   -0.5715   48.8594   24.8022 C   0  0  0  0  0  0
   -0.4059   48.4346   23.6596 O   0  0  0  0  0  0
   -1.3019   48.1731   25.6817 N   0  0  0  0  0  0
    0.7040   54.6430   31.3967 H   0  0  0  0  0  0
   -0.4970   52.4795   31.2882 H   0  0  0  0  0  0
   -0.6322   51.2478   29.2011 H   0  0  0  0  0  0
    1.6906   54.3246   27.2591 H   0  0  0  0  0  0
    1.8038   55.5522   29.3718 H   0  0  0  0  0  0
   -0.6842   50.1151   27.3334 H   0  0  0  0  0  0
    0.8043   49.8574   22.8052 H   0  0  0  0  0  0
    3.2173   51.0305   20.8327 H   0  0  0  0  0  0
    2.5638   48.7958   21.5510 H   0  0  0  0  0  0
    0.8645   49.0689   21.0284 H   0  0  0  0  0  0
    3.2867   48.8044   19.2118 H   0  0  0  0  0  0
    1.9094   47.7304   19.3810 H   0  0  0  0  0  0
    2.8983   51.0830   18.0971 H   0  0  0  0  0  0
    1.2738   51.4662   17.5668 H   0  0  0  0  0  0
    0.4429   51.7032   19.7922 H   0  0  0  0  0  0
    1.9363   52.6933   19.6705 H   0  0  0  0  0  0
    2.2313   48.5489   15.3300 H   0  0  0  0  0  0
    3.2261   46.2627   14.6335 H   0  0  0  0  0  0
   -1.7142   47.3028   25.3929 H   0  0  0  0  0  0
   -1.2981   48.3955   26.6802 H   0  0  0  0  0  0
  1  6  2  0  0  0
  1  2  1  0  0  0
  1 33  1  0  0  0
  2  3  2  0  0  0
  2 34  1  0  0  0
  3  4  1  0  0  0
  3 35  1  0  0  0
  4  5  2  0  0  0
  4  7  1  0  0  0
  5  6  1  0  0  0
  5 36  1  0  0  0
  6 37  1  0  0  0
  7 11  1  0  0  0
  7  8  2  0  0  0
  8  9  1  0  0  0
  8 38  1  0  0  0
  9 10  2  0  0  0
  9 30  1  0  0  0
 10 11  1  0  0  0
 10 12  1  0  0  0
 12 13  1  0  0  0
 12 39  1  0  0  0
 13 14  2  0  0  0
 13 15  1  0  0  0
 15 20  1  0  0  0
 15 16  1  0  0  0
 15 40  1  0  0  0
 16 17  1  0  0  0
 16 41  1  0  0  0
 16 42  1  0  0  0
 17 18  1  0  0  0
 17 43  1  0  0  0
 17 44  1  0  0  0
 18 19  1  0  0  0
 18 21  1  0  0  0
 19 20  1  0  0  0
 19 45  1  0  0  0
 19 46  1  0  0  0
 20 47  1  0  0  0
 20 48  1  0  0  0
 21 22  2  0  0  0
 21 23  2  0  0  0
 21 24  1  0  0  0
 24 28  1  0  0  0
 24 25  2  0  0  0
 25 26  1  0  0  0
 25 49  1  0  0  0
 26 27  2  0  0  0
 26 50  1  0  0  0
 27 28  1  0  0  0
 27 29  1  0  0  0
 30 31  2  0  0  0
 30 32  1  0  0  0
 32 51  1  0  0  0
 32 52  1  0  0  0
M  END
> <i_i_glide_confnum>
180

> <i_i_glide_lignum>
431

> <i_i_glide_posenum>
266

> <i_i_glide_rotatable_bonds>
7

> <i_m_Source_File_Index>
5248

> <b_m_subgroup_collapsed>
0

> <r_i_docking_score>
-3.56077

> <r_i_glide_ecoul>
-7.58572

> <r_i_glide_eff_state_penalty>
0

> <r_i_glide_einternal>
6.73638

> <r_i_glide_emodel>
-54.2978

> <r_i_glide_energy>
-48.1172

> <r_i_glide_erotb>
0.472429

> <r_i_glide_esite>
-0.234435

> <r_i_glide_evdw>
-40.5315

> <r_i_glide_gscore>
-3.56077

> <r_i_glide_hbond>
-0.16

> <r_i_glide_ligand_efficiency>
-0.111274

> <r_i_glide_ligand_efficiency_ln>
-0.797354

> <r_i_glide_ligand_efficiency_sa>
-0.353273

> <r_i_glide_lipo>
-1.14914

> <r_i_glide_metal>
0

> <r_i_glide_rewards>
0.674809

> <s_i_glide_gridfile>
wee1_glide-grid

> <s_m_Source_File>
wee1_decoys_glide_SP.sdf

> <s_m_Source_Path>
/Users/zhangxujun/Desktop

> <s_m_entry_id>
5523

> <s_m_entry_name>
wee1_decoys_glide_SP.5248

> <s_m_subgroup_title>
wee1_decoys_glide_SP

> <s_m_subgroupid>
wee1_decoys_glide_SP


$$$$
