ZINC40438788_3831
                    3D
 Schrodinger Suite 2024-2.
 31 33  0  0  1  0            999 V2000
    0.7014   51.6206   27.4190 C   0  0  0  0  0  0
    1.4692   51.8639   28.5541 C   0  0  0  0  0  0
    2.4573   52.8454   28.5287 C   0  0  0  0  0  0
    2.6780   53.5958   27.3763 C   0  0  0  0  0  0
    1.9030   53.3640   26.2430 C   0  0  0  0  0  0
    0.9135   52.3776   26.2635 C   0  0  0  0  0  0
   -0.1003   52.0762   24.8144 S   0  0  0  0  0  0
   -0.2021   53.3301   24.0623 O   0  0  0  0  0  0
   -1.3071   51.3764   25.2661 O   0  0  0  0  0  0
    0.7910   50.9043   23.8186 N   0  0  0  0  0  0
    1.6589   51.2152   22.7595 C   0  0  0  0  0  0
    1.8505   50.2348   21.7846 C   0  0  0  0  0  0
    2.6990   50.4173   20.6913 C   0  0  0  0  0  0
    3.3855   51.6313   20.6179 C   0  0  0  0  0  0
    3.2189   52.6562   21.5947 C   0  0  0  0  0  0
    2.3331   52.4377   22.6620 C   0  0  0  0  0  0
    4.0797   53.7371   21.2101 C   0  0  0  0  0  0
    4.7189   53.3586   20.0456 C   0  0  0  0  0  0
    4.3046   52.0967   19.6996 N   0  0  0  0  0  0
    4.7010   51.5618   18.9161 H   0  0  0  0  0  0
    3.5087   53.1667   30.0824 Br  0  0  0  0  0  0
   -0.0631   50.8549   27.4480 H   0  0  0  0  0  0
    1.2915   51.2970   29.4531 H   0  0  0  0  0  0
    3.4425   54.3590   27.3641 H   0  0  0  0  0  0
    2.0651   53.9677   25.3644 H   0  0  0  0  0  0
    0.5657   49.9337   23.9711 H   0  0  0  0  0  0
    1.3238   49.2955   21.8690 H   0  0  0  0  0  0
    2.8249   49.6491   19.9414 H   0  0  0  0  0  0
    2.1989   53.2099   23.3963 H   0  0  0  0  0  0
    4.2130   54.6800   21.7180 H   0  0  0  0  0  0
    5.4520   53.8699   19.4368 H   0  0  0  0  0  0
  1  6  2  0  0  0
  1  2  1  0  0  0
  1 22  1  0  0  0
  2  3  2  0  0  0
  2 23  1  0  0  0
  3  4  1  0  0  0
  3 21  1  0  0  0
  4  5  2  0  0  0
  4 24  1  0  0  0
  5  6  1  0  0  0
  5 25  1  0  0  0
  6  7  1  0  0  0
  7  8  2  0  0  0
  7  9  2  0  0  0
  7 10  1  0  0  0
 10 11  1  0  0  0
 10 26  1  0  0  0
 11 16  2  0  0  0
 11 12  1  0  0  0
 12 13  2  0  0  0
 12 27  1  0  0  0
 13 14  1  0  0  0
 13 28  1  0  0  0
 14 19  1  0  0  0
 14 15  2  0  0  0
 15 16  1  0  0  0
 15 17  1  0  0  0
 16 29  1  0  0  0
 17 18  2  0  0  0
 17 30  1  0  0  0
 18 19  1  0  0  0
 18 31  1  0  0  0
 19 20  1  0  0  0
M  END
> <i_i_glide_confnum>
4

> <i_i_glide_lignum>
3832

> <i_i_glide_posenum>
141

> <i_i_glide_rotatable_bonds>
3

> <i_m_Source_File_Index>
3717

> <b_m_subgroup_collapsed>
0

> <r_i_docking_score>
-4.41958

> <r_i_glide_ecoul>
-5.66981

> <r_i_glide_eff_state_penalty>
0

> <r_i_glide_einternal>
0.444414

> <r_i_glide_emodel>
-43.0261

> <r_i_glide_energy>
-33.0337

> <r_i_glide_erotb>
0.46379

> <r_i_glide_esite>
-0.104783

> <r_i_glide_evdw>
-27.3639

> <r_i_glide_gscore>
-4.41958

> <r_i_glide_hbond>
-0.16

> <r_i_glide_ligand_efficiency>
-0.220979

> <r_i_glide_ligand_efficiency_ln>
-1.10608

> <r_i_glide_ligand_efficiency_sa>
-0.59983

> <r_i_glide_lipo>
-1.3213

> <r_i_glide_metal>
0

> <r_i_glide_rewards>
-1.07862

> <s_i_glide_gridfile>
wee1_glide-grid

> <s_m_Source_File>
wee1_decoys_glide_SP.sdf

> <s_m_Source_Path>
/Users/zhangxujun/Desktop

> <s_m_entry_id>
3992

> <s_m_entry_name>
wee1_decoys_glide_SP.3717

> <s_m_subgroup_title>
wee1_decoys_glide_SP

> <s_m_subgroupid>
wee1_decoys_glide_SP


$$$$
