ZINC39494869_2885
                    3D
 Schrodinger Suite 2024-2.
 60 63  0  0  1  0            999 V2000
   -4.6450   53.2541   26.0007 C   0  0  0  0  0  0
   -4.0301   52.0985   26.4749 C   0  0  0  0  0  0
   -2.9950   51.5181   25.7475 C   0  0  0  0  0  0
   -2.5620   52.0997   24.5496 C   0  0  0  0  0  0
   -3.1917   53.2593   24.0816 C   0  0  0  0  0  0
   -4.2322   53.8352   24.8050 C   0  0  0  0  0  0
   -1.4584   51.4219   23.7188 C   0  0  2  0  0  0
   -1.3884   50.3805   24.0492 H   0  0  0  0  0  0
   -0.0320   52.0583   23.9115 C   0  0  2  0  0  0
   -0.1417   53.1220   23.7023 H   0  0  0  0  0  0
    0.9721   51.4783   22.8870 C   0  0  0  0  0  0
    1.3326   52.2759   21.7901 C   0  0  0  0  0  0
    2.1845   51.7911   20.8010 C   0  0  0  0  0  0
    2.6751   50.4918   20.8824 C   0  0  0  0  0  0
    2.3069   49.6761   21.9506 C   0  0  0  0  0  0
    1.4593   50.1554   22.9486 C   0  0  0  0  0  0
    1.1043   49.2969   23.9568 O   0  0  0  0  0  0
    0.5468   51.9867   25.3605 C   0  0  0  0  0  0
    0.0269   51.2049   26.1589 O   0  0  0  0  0  0
    1.6872   52.8971   25.7752 C   0  0  0  0  0  0
    2.3754   53.6833   24.8310 C   0  0  0  0  0  0
    3.4792   54.4565   25.1925 C   0  0  0  0  0  0
    3.9000   54.4963   26.5173 C   0  0  0  0  0  0
    3.2184   53.7546   27.4775 C   0  0  0  0  0  0
    2.1314   52.9551   27.1196 C   0  0  0  0  0  0
    1.5412   52.2321   28.1269 O   0  0  0  0  0  0
   -1.8086   51.3632   22.2910 N   0  0  0  0  0  0
   -2.7943   50.5388   21.7648 C   0  0  0  0  0  0
   -3.4640   49.6756   22.3312 O   0  0  0  0  0  0
   -2.9629   50.7812   19.9052 S   0  0  0  0  0  0
   -2.3866   52.0966   19.5901 O   0  0  0  0  0  0
   -2.4671   49.5645   19.2517 O   0  0  0  0  0  0
   -4.6260   50.8967   19.7038 O   0  0  0  0  0  0
   -5.4306   49.8231   19.9873 C   0  0  0  0  0  0
   -5.4202   48.6907   19.1706 C   0  0  0  0  0  0
   -6.2636   47.6202   19.4576 C   0  0  0  0  0  0
   -7.1189   47.6923   20.5548 C   0  0  0  0  0  0
   -7.1461   48.8280   21.3633 C   0  0  0  0  0  0
   -6.3038   49.8983   21.0733 C   0  0  0  0  0  0
   -5.4541   53.6981   26.5626 H   0  0  0  0  0  0
   -4.3603   51.6452   27.3985 H   0  0  0  0  0  0
   -2.5364   50.6110   26.1184 H   0  0  0  0  0  0
   -2.8826   53.7077   23.1509 H   0  0  0  0  0  0
   -4.7181   54.7252   24.4336 H   0  0  0  0  0  0
    0.9528   53.2827   21.6915 H   0  0  0  0  0  0
    2.4588   52.4192   19.9657 H   0  0  0  0  0  0
    3.3314   50.1151   20.1100 H   0  0  0  0  0  0
    2.6867   48.6659   21.9945 H   0  0  0  0  0  0
    1.7395   48.5763   24.0813 H   0  0  0  0  0  0
    2.0931   53.7065   23.7928 H   0  0  0  0  0  0
    4.0046   55.0278   24.4405 H   0  0  0  0  0  0
    4.7509   55.0984   26.8018 H   0  0  0  0  0  0
    3.5493   53.7841   28.5054 H   0  0  0  0  0  0
    0.8245   51.6836   27.7858 H   0  0  0  0  0  0
   -1.2747   51.9296   21.6476 H   0  0  0  0  0  0
   -4.7597   48.6448   18.3169 H   0  0  0  0  0  0
   -6.2551   46.7389   18.8322 H   0  0  0  0  0  0
   -7.7718   46.8611   20.7786 H   0  0  0  0  0  0
   -7.8166   48.8783   22.2086 H   0  0  0  0  0  0
   -6.3216   50.7850   21.6908 H   0  0  0  0  0  0
  1  6  2  0  0  0
  1  2  1  0  0  0
  1 40  1  0  0  0
  2  3  2  0  0  0
  2 41  1  0  0  0
  3  4  1  0  0  0
  3 42  1  0  0  0
  4  5  2  0  0  0
  4  7  1  0  0  0
  5  6  1  0  0  0
  5 43  1  0  0  0
  6 44  1  0  0  0
  7  8  1  0  0  0
  7  9  1  0  0  0
  7 27  1  0  0  0
  9 10  1  0  0  0
  9 11  1  0  0  0
  9 18  1  0  0  0
 11 16  2  0  0  0
 11 12  1  0  0  0
 12 13  2  0  0  0
 12 45  1  0  0  0
 13 14  1  0  0  0
 13 46  1  0  0  0
 14 15  2  0  0  0
 14 47  1  0  0  0
 15 16  1  0  0  0
 15 48  1  0  0  0
 16 17  1  0  0  0
 17 49  1  0  0  0
 18 19  2  0  0  0
 18 20  1  0  0  0
 20 25  2  0  0  0
 20 21  1  0  0  0
 21 22  2  0  0  0
 21 50  1  0  0  0
 22 23  1  0  0  0
 22 51  1  0  0  0
 23 24  2  0  0  0
 23 52  1  0  0  0
 24 25  1  0  0  0
 24 53  1  0  0  0
 25 26  1  0  0  0
 26 54  1  0  0  0
 27 28  1  0  0  0
 27 55  1  0  0  0
 28 29  2  0  0  0
 28 30  1  0  0  0
 30 31  2  0  0  0
 30 32  2  0  0  0
 30 33  1  0  0  0
 33 34  1  0  0  0
 34 39  2  0  0  0
 34 35  1  0  0  0
 35 36  2  0  0  0
 35 56  1  0  0  0
 36 37  1  0  0  0
 36 57  1  0  0  0
 37 38  2  0  0  0
 37 58  1  0  0  0
 38 39  1  0  0  0
 38 59  1  0  0  0
 39 60  1  0  0  0
M  END
> <i_i_glide_confnum>
294

> <i_i_glide_lignum>
2886

> <i_i_glide_posenum>
343

> <i_i_glide_rotatable_bonds>
12

> <i_m_Source_File_Index>
3281

> <b_m_subgroup_collapsed>
0

> <r_i_docking_score>
-4.6143

> <r_i_glide_ecoul>
-6.8964

> <r_i_glide_eff_state_penalty>
0

> <r_i_glide_einternal>
3.74246

> <r_i_glide_emodel>
-57.0308

> <r_i_glide_energy>
-42.9902

> <r_i_glide_erotb>
0.689895

> <r_i_glide_esite>
-0.0607974

> <r_i_glide_evdw>
-36.0938

> <r_i_glide_gscore>
-4.6143

> <r_i_glide_hbond>
0

> <r_i_glide_ligand_efficiency>
-0.124711

> <r_i_glide_ligand_efficiency_ln>
-1.00073

> <r_i_glide_ligand_efficiency_sa>
-0.415564

> <r_i_glide_lipo>
-2.30016

> <r_i_glide_metal>
0

> <r_i_glide_rewards>
-0.104084

> <s_i_glide_gridfile>
wee1_glide-grid

> <s_m_Source_File>
wee1_decoys_glide_SP.sdf

> <s_m_Source_Path>
/Users/zhangxujun/Desktop

> <s_m_entry_id>
3556

> <s_m_entry_name>
wee1_decoys_glide_SP.3281

> <s_m_subgroup_title>
wee1_decoys_glide_SP

> <s_m_subgroupid>
wee1_decoys_glide_SP


$$$$
