ZINC40659310_3393
                    3D
 Schrodinger Suite 2024-2.
 56 59  0  0  1  0            999 V2000
    5.8510   55.5375   16.6532 C   0  0  0  0  0  0
    4.6389   54.6257   16.6463 C   0  0  0  0  0  0
    3.4373   55.0598   17.2095 C   0  0  0  0  0  0
    2.3326   54.2123   17.2269 C   0  0  0  0  0  0
    2.4330   52.9283   16.6870 C   0  0  0  0  0  0
    3.6304   52.4954   16.1154 C   0  0  0  0  0  0
    4.7352   53.3431   16.1003 C   0  0  0  0  0  0
    1.0323   51.8134   16.7553 S   0  0  0  0  0  0
    0.0294   52.4129   17.6464 O   0  0  0  0  0  0
    0.6969   51.4806   15.3659 O   0  0  0  0  0  0
    1.6292   50.3358   17.5201 N   0  0  0  0  0  0
    2.3043   50.4771   18.7382 N   0  0  0  0  0  0
    1.5920   50.5888   19.9387 C   0  0  0  0  0  0
    2.0285   51.4606   20.9509 C   0  0  0  0  0  0
    1.2171   51.5612   22.1055 C   0  0  0  0  0  0
    0.1375   50.7435   22.2711 N   0  0  0  0  0  0
   -0.1825   49.9166   21.2508 C   0  0  0  0  0  0
    0.4790   49.8180   20.0763 N   0  0  0  0  0  0
    1.4278   52.4808   23.1334 N   0  0  0  0  0  0
    0.8242   52.3994   24.4737 C   0  0  0  0  0  0
    1.5966   53.1269   25.6078 C   0  0  0  0  0  0
    2.9761   53.5295   25.2837 N   0  0  0  0  0  0
    3.0178   54.2262   23.9870 C   0  0  0  0  0  0
    1.9779   53.8223   22.9276 C   0  0  0  0  0  0
    3.9906   53.6969   26.2332 C   0  0  0  0  0  0
    3.8038   53.3584   27.5847 C   0  0  0  0  0  0
    4.8681   53.3784   28.4820 C   0  0  0  0  0  0
    6.1350   53.7386   28.0387 C   0  0  0  0  0  0
    6.3390   54.1200   26.7217 C   0  0  0  0  0  0
    5.2772   54.0970   25.8281 C   0  0  0  0  0  0
    7.1836   53.6967   28.8815 F   0  0  0  0  0  0
    3.3235   52.1549   20.8267 N   0  3  0  0  0  0
    3.4958   52.8947   19.8651 O   0  0  0  0  0  0
    4.1748   51.9359   21.6814 O   0  5  0  0  0  0
    6.7718   54.9591   16.7414 H   0  0  0  0  0  0
    5.8273   56.2178   17.5059 H   0  0  0  0  0  0
    5.8923   56.1248   15.7354 H   0  0  0  0  0  0
    3.3587   56.0465   17.6417 H   0  0  0  0  0  0
    1.4119   54.5497   17.6800 H   0  0  0  0  0  0
    3.7139   51.4976   15.7052 H   0  0  0  0  0  0
    5.6656   52.9947   15.6743 H   0  0  0  0  0  0
    2.1023   49.6865   16.8800 H   0  0  0  0  0  0
    3.1377   51.0452   18.6058 H   0  0  0  0  0  0
   -1.0539   49.2922   21.3795 H   0  0  0  0  0  0
   -0.2270   52.6921   24.4836 H   0  0  0  0  0  0
    0.8840   51.3379   24.7185 H   0  0  0  0  0  0
    1.1210   54.0960   25.7349 H   0  0  0  0  0  0
    1.4569   52.6086   26.5540 H   0  0  0  0  0  0
    3.9535   53.9147   23.5260 H   0  0  0  0  0  0
    3.0105   55.3002   24.1121 H   0  0  0  0  0  0
    2.3113   54.0558   21.9193 H   0  0  0  0  0  0
    1.1060   54.4688   23.0472 H   0  0  0  0  0  0
    2.8475   53.0403   27.9632 H   0  0  0  0  0  0
    4.7148   53.0839   29.5096 H   0  0  0  0  0  0
    7.3257   54.3978   26.3862 H   0  0  0  0  0  0
    5.4945   54.3593   24.8065 H   0  0  0  0  0  0
  1  2  1  0  0  0
  1 35  1  0  0  0
  1 36  1  0  0  0
  1 37  1  0  0  0
  2  7  2  0  0  0
  2  3  1  0  0  0
  3  4  2  0  0  0
  3 38  1  0  0  0
  4  5  1  0  0  0
  4 39  1  0  0  0
  5  6  2  0  0  0
  5  8  1  0  0  0
  6  7  1  0  0  0
  6 40  1  0  0  0
  7 41  1  0  0  0
  8  9  2  0  0  0
  8 10  2  0  0  0
  8 11  1  0  0  0
 11 12  1  0  0  0
 11 42  1  0  0  0
 12 13  1  0  0  0
 12 43  1  0  0  0
 13 18  2  0  0  0
 13 14  1  0  0  0
 14 15  2  0  0  0
 14 32  1  0  0  0
 15 16  1  0  0  0
 15 19  1  0  0  0
 16 17  2  0  0  0
 17 18  1  0  0  0
 17 44  1  0  0  0
 19 24  1  0  0  0
 19 20  1  0  0  0
 20 21  1  0  0  0
 20 45  1  0  0  0
 20 46  1  0  0  0
 21 22  1  0  0  0
 21 47  1  0  0  0
 21 48  1  0  0  0
 22 23  1  0  0  0
 22 25  1  0  0  0
 23 24  1  0  0  0
 23 49  1  0  0  0
 23 50  1  0  0  0
 24 51  1  0  0  0
 24 52  1  0  0  0
 25 30  2  0  0  0
 25 26  1  0  0  0
 26 27  2  0  0  0
 26 53  1  0  0  0
 27 28  1  0  0  0
 27 54  1  0  0  0
 28 29  2  0  0  0
 28 31  1  0  0  0
 29 30  1  0  0  0
 29 55  1  0  0  0
 30 56  1  0  0  0
 32 33  2  0  0  0
 32 34  1  0  0  0
M  CHG  2  32   1  34  -1
M  END
> <i_i_glide_confnum>
864

> <i_i_glide_lignum>
3394

> <i_i_glide_posenum>
163

> <i_i_glide_rotatable_bonds>
7

> <i_m_Source_File_Index>
1506

> <b_m_subgroup_collapsed>
0

> <r_i_docking_score>
-4.06021

> <r_i_glide_ecoul>
-2.83693

> <r_i_glide_eff_state_penalty>
0

> <r_i_glide_einternal>
8.64482

> <r_i_glide_emodel>
-41.5645

> <r_i_glide_energy>
-37.6196

> <r_i_glide_erotb>
0.513241

> <r_i_glide_esite>
-0.25087

> <r_i_glide_evdw>
-34.7827

> <r_i_glide_gscore>
-4.06021

> <r_i_glide_hbond>
-0.0804153

> <r_i_glide_ligand_efficiency>
-0.119418

> <r_i_glide_ligand_efficiency_ln>
-0.897014

> <r_i_glide_ligand_efficiency_sa>
-0.386867

> <r_i_glide_lipo>
-2.30573

> <r_i_glide_metal>
0

> <r_i_glide_rewards>
0.228245

> <s_i_glide_gridfile>
wee1_glide-grid

> <s_m_Source_File>
wee1_decoys_glide_SP.sdf

> <s_m_Source_Path>
/Users/zhangxujun/Desktop

> <s_m_entry_id>
1781

> <s_m_entry_name>
wee1_decoys_glide_SP.1506

> <s_m_subgroup_title>
wee1_decoys_glide_SP

> <s_m_subgroupid>
wee1_decoys_glide_SP


$$$$
