ZINC01027679_2626
                    3D
 Schrodinger Suite 2024-2.
 47 49  0  0  1  0            999 V2000
    9.5064   56.4006   18.4292 C   0  0  0  0  0  0
    8.2058   56.0120   19.1024 C   0  0  0  0  0  0
    7.0143   55.9744   18.3755 C   0  0  0  0  0  0
    5.8183   55.6244   19.0040 C   0  0  0  0  0  0
    5.8212   55.2969   20.3613 C   0  0  0  0  0  0
    7.0125   55.3356   21.1039 C   0  0  0  0  0  0
    8.1981   55.6967   20.4621 C   0  0  0  0  0  0
    7.1044   55.0690   22.4814 N   0  0  0  0  0  0
    6.1929   54.4967   23.2862 C   0  0  0  0  0  0
    5.1523   53.9616   22.9034 O   0  0  0  0  0  0
    6.5592   54.6199   24.5754 N   0  0  0  0  0  0
    5.7669   54.3448   25.7028 C   0  0  0  0  0  0
    6.4285   53.9764   26.8727 C   0  0  0  0  0  0
    5.6980   53.6193   28.0006 C   0  0  0  0  0  0
    4.3019   53.6533   27.9816 C   0  0  0  0  0  0
    3.6397   54.0909   26.8281 C   0  0  0  0  0  0
    4.3675   54.4357   25.6954 C   0  0  0  0  0  0
    3.4395   53.1366   29.4833 S   0  0  0  0  0  0
    3.8186   51.7334   29.6878 O   0  0  0  0  0  0
    3.9044   54.0966   30.4816 O   0  0  0  0  0  0
    1.9347   53.3694   29.1432 N   0  5  0  0  0  0
    1.1662   52.5258   28.4455 C   0  0  0  0  0  0
   -0.1384   52.8044   28.0689 C   0  0  0  0  0  0
   -0.5963   51.7216   27.3612 C   0  0  0  0  0  0
    0.4102   50.8257   27.2802 O   0  0  0  0  0  0
    1.5044   51.3408   27.9748 N   0  0  0  0  0  0
   -1.8969   51.3616   26.6927 C   0  0  0  0  0  0
    4.5224   55.5895   18.2142 C   0  0  0  0  0  0
   10.2117   55.5699   18.4800 H   0  0  0  0  0  0
    9.9595   57.2454   18.9497 H   0  0  0  0  0  0
    9.3675   56.6777   17.3835 H   0  0  0  0  0  0
    7.0143   56.2223   17.3237 H   0  0  0  0  0  0
    4.8801   55.0401   20.8213 H   0  0  0  0  0  0
    9.1226   55.7364   21.0189 H   0  0  0  0  0  0
    7.9986   55.2967   22.8984 H   0  0  0  0  0  0
    7.5316   54.8161   24.7514 H   0  0  0  0  0  0
    7.5046   53.9168   26.9073 H   0  0  0  0  0  0
    6.2234   53.2964   28.8846 H   0  0  0  0  0  0
    2.5638   54.1572   26.7836 H   0  0  0  0  0  0
    3.8285   54.7597   24.8177 H   0  0  0  0  0  0
   -0.6697   53.7114   28.2978 H   0  0  0  0  0  0
   -2.6361   52.1562   26.7873 H   0  0  0  0  0  0
   -1.7604   51.1659   25.6295 H   0  0  0  0  0  0
   -2.3285   50.4637   27.1356 H   0  0  0  0  0  0
    3.7866   54.9328   18.6823 H   0  0  0  0  0  0
    4.0998   56.5919   18.1264 H   0  0  0  0  0  0
    4.6972   55.2006   17.2100 H   0  0  0  0  0  0
  1  2  1  0  0  0
  1 29  1  0  0  0
  1 30  1  0  0  0
  1 31  1  0  0  0
  2  7  2  0  0  0
  2  3  1  0  0  0
  3  4  2  0  0  0
  3 32  1  0  0  0
  4  5  1  0  0  0
  4 28  1  0  0  0
  5  6  2  0  0  0
  5 33  1  0  0  0
  6  7  1  0  0  0
  6  8  1  0  0  0
  7 34  1  0  0  0
  8  9  1  0  0  0
  8 35  1  0  0  0
  9 10  2  0  0  0
  9 11  1  0  0  0
 11 12  1  0  0  0
 11 36  1  0  0  0
 12 17  2  0  0  0
 12 13  1  0  0  0
 13 14  2  0  0  0
 13 37  1  0  0  0
 14 15  1  0  0  0
 14 38  1  0  0  0
 15 16  2  0  0  0
 15 18  1  0  0  0
 16 17  1  0  0  0
 16 39  1  0  0  0
 17 40  1  0  0  0
 18 19  2  0  0  0
 18 20  2  0  0  0
 18 21  1  0  0  0
 21 22  1  0  0  0
 22 26  2  0  0  0
 22 23  1  0  0  0
 23 24  2  0  0  0
 23 41  1  0  0  0
 24 25  1  0  0  0
 24 27  1  0  0  0
 25 26  1  0  0  0
 27 42  1  0  0  0
 27 43  1  0  0  0
 27 44  1  0  0  0
 28 45  1  0  0  0
 28 46  1  0  0  0
 28 47  1  0  0  0
M  CHG  1  21  -1
M  END
> <i_i_glide_confnum>
6

> <i_i_glide_lignum>
2627

> <i_i_glide_posenum>
46

> <i_i_glide_rotatable_bonds>
7

> <i_m_Source_File_Index>
3

> <b_m_subgroup_collapsed>
0

> <r_i_docking_score>
-4.96949

> <r_i_glide_ecoul>
-11.0051

> <r_i_glide_eff_state_penalty>
0

> <r_i_glide_einternal>
9.47077

> <r_i_glide_emodel>
-60.092

> <r_i_glide_energy>
-54.7638

> <r_i_glide_erotb>
0.859647

> <r_i_glide_esite>
-0.0813806

> <r_i_glide_evdw>
-43.7587

> <r_i_glide_gscore>
-4.96949

> <r_i_glide_hbond>
-0.355419

> <r_i_glide_ligand_efficiency>
-0.177482

> <r_i_glide_ligand_efficiency_ln>
-1.1471

> <r_i_glide_ligand_efficiency_sa>
-0.538939

> <r_i_glide_lipo>
-2.65444

> <r_i_glide_metal>
0

> <r_i_glide_rewards>
1.1008

> <s_i_glide_gridfile>
wee1_glide-grid

> <s_m_Source_File>
wee1_decoys_glide_SP.sdf

> <s_m_Source_Path>
/Users/zhangxujun/Desktop

> <s_m_entry_id>
278

> <s_m_entry_name>
wee1_decoys_glide_SP.3

> <s_m_subgroup_title>
wee1_decoys_glide_SP

> <s_m_subgroupid>
wee1_decoys_glide_SP


$$$$
