ZINC02520403_4463
                    3D
 Schrodinger Suite 2024-2.
 62 66  0  0  1  0            999 V2000
    6.7816   55.2052   22.9281 C   0  0  0  0  0  0
    6.3761   55.0501   21.4789 C   0  0  0  0  0  0
    7.1023   55.6918   20.4735 C   0  0  0  0  0  0
    6.7451   55.5161   19.1386 C   0  0  0  0  0  0
    5.6688   54.6937   18.8056 C   0  0  0  0  0  0
    4.9327   54.0439   19.8017 C   0  0  0  0  0  0
    5.2860   54.2406   21.1468 C   0  0  0  0  0  0
    3.8844   53.2194   19.3545 N   0  0  0  0  0  0
    2.9888   52.4829   20.0502 C   0  0  0  0  0  0
    2.9459   52.4072   21.2827 O   0  0  0  0  0  0
    1.9446   51.7686   19.1989 C   0  0  0  0  0  0
    2.3040   51.2979   17.9234 C   0  0  0  0  0  0
    1.3871   50.6545   17.0993 C   0  0  0  0  0  0
    0.0809   50.4646   17.5305 C   0  0  0  0  0  0
   -0.3051   50.9089   18.7911 C   0  0  0  0  0  0
    0.6095   51.5614   19.6376 C   0  0  0  0  0  0
    0.2591   51.9882   20.9341 N   0  0  0  0  0  0
   -0.9462   52.0967   21.5458 C   0  0  0  0  0  0
   -2.0281   51.9343   20.9752 O   0  0  0  0  0  0
   -0.9079   52.4967   22.9914 C   0  0  0  0  0  0
   -1.9541   52.8110   23.5729 O   0  0  0  0  0  0
    0.3141   52.5120   23.5863 N   0  0  0  0  0  0
    0.4764   52.8965   24.8659 N   0  0  0  0  0  0
    1.6650   52.7911   25.3044 C   0  0  0  0  0  0
    2.0524   53.0489   26.7193 C   0  0  0  0  0  0
    1.1739   52.6952   27.8205 C   0  0  0  0  0  0
   -0.0714   51.9953   27.6792 C   0  0  0  0  0  0
   -0.8743   51.6976   28.7730 C   0  0  0  0  0  0
   -0.4949   52.0874   30.0459 C   0  0  0  0  0  0
    0.7181   52.7280   30.2515 C   0  0  0  0  0  0
    1.5724   53.0132   29.1559 C   0  0  0  0  0  0
    2.8342   53.5774   29.3767 C   0  0  0  0  0  0
    3.7406   53.8535   28.3479 C   0  0  0  0  0  0
    3.3553   53.6206   26.9921 C   0  0  0  0  0  0
    4.3216   53.9590   25.9856 C   0  0  0  0  0  0
    5.5995   54.3966   26.3233 C   0  0  0  0  0  0
    5.9567   54.5738   27.6479 C   0  0  0  0  0  0
    5.0337   54.3425   28.6547 C   0  0  0  0  0  0
    7.3396   54.3294   23.2612 H   0  0  0  0  0  0
    5.8911   55.2969   23.5466 H   0  0  0  0  0  0
    7.3873   56.0965   23.0912 H   0  0  0  0  0  0
    7.9595   56.3012   20.7192 H   0  0  0  0  0  0
    7.3116   56.0042   18.3587 H   0  0  0  0  0  0
    5.4192   54.5595   17.7626 H   0  0  0  0  0  0
    4.7526   53.7570   21.9485 H   0  0  0  0  0  0
    3.7881   53.1732   18.3525 H   0  0  0  0  0  0
    3.3180   51.3901   17.5564 H   0  0  0  0  0  0
    1.7047   50.2869   16.1336 H   0  0  0  0  0  0
   -0.6288   49.9570   16.8944 H   0  0  0  0  0  0
   -1.3207   50.7100   19.0921 H   0  0  0  0  0  0
    1.0856   52.2585   21.4506 H   0  0  0  0  0  0
    1.1566   52.2195   23.1142 H   0  0  0  0  0  0
    2.4841   52.4659   24.6663 H   0  0  0  0  0  0
   -0.4160   51.6437   26.7214 H   0  0  0  0  0  0
   -1.7939   51.1461   28.6335 H   0  0  0  0  0  0
   -1.1281   51.8329   30.8817 H   0  0  0  0  0  0
    1.0231   52.9796   31.2571 H   0  0  0  0  0  0
    3.1444   53.7656   30.3928 H   0  0  0  0  0  0
    4.0975   53.8333   24.9378 H   0  0  0  0  0  0
    6.3342   54.5860   25.5584 H   0  0  0  0  0  0
    6.9554   54.8966   27.8999 H   0  0  0  0  0  0
    5.3164   54.5129   29.6818 H   0  0  0  0  0  0
  1  2  1  0  0  0
  1 39  1  0  0  0
  1 40  1  0  0  0
  1 41  1  0  0  0
  2  7  2  0  0  0
  2  3  1  0  0  0
  3  4  2  0  0  0
  3 42  1  0  0  0
  4  5  1  0  0  0
  4 43  1  0  0  0
  5  6  2  0  0  0
  5 44  1  0  0  0
  6  7  1  0  0  0
  6  8  1  0  0  0
  7 45  1  0  0  0
  8  9  1  0  0  0
  8 46  1  0  0  0
  9 10  2  0  0  0
  9 11  1  0  0  0
 11 16  2  0  0  0
 11 12  1  0  0  0
 12 13  2  0  0  0
 12 47  1  0  0  0
 13 14  1  0  0  0
 13 48  1  0  0  0
 14 15  2  0  0  0
 14 49  1  0  0  0
 15 16  1  0  0  0
 15 50  1  0  0  0
 16 17  1  0  0  0
 17 18  1  0  0  0
 17 51  1  0  0  0
 18 19  2  0  0  0
 18 20  1  0  0  0
 20 21  2  0  0  0
 20 22  1  0  0  0
 22 23  1  0  0  0
 22 52  1  0  0  0
 23 24  2  0  0  0
 24 25  1  0  0  0
 24 53  1  0  0  0
 25 34  2  0  0  0
 25 26  1  0  0  0
 26 31  2  0  0  0
 26 27  1  0  0  0
 27 28  2  0  0  0
 27 54  1  0  0  0
 28 29  1  0  0  0
 28 55  1  0  0  0
 29 30  2  0  0  0
 29 56  1  0  0  0
 30 31  1  0  0  0
 30 57  1  0  0  0
 31 32  1  0  0  0
 32 33  2  0  0  0
 32 58  1  0  0  0
 33 38  1  0  0  0
 33 34  1  0  0  0
 34 35  1  0  0  0
 35 36  2  0  0  0
 35 59  1  0  0  0
 36 37  1  0  0  0
 36 60  1  0  0  0
 37 38  2  0  0  0
 37 61  1  0  0  0
 38 62  1  0  0  0
M  END
> <i_i_glide_confnum>
192

> <i_i_glide_lignum>
4464

> <i_i_glide_posenum>
15

> <i_i_glide_rotatable_bonds>
9

> <i_m_Source_File_Index>
2093

> <b_m_subgroup_collapsed>
0

> <r_i_docking_score>
-5.79849

> <r_i_glide_ecoul>
-5.08346

> <r_i_glide_eff_state_penalty>
0

> <r_i_glide_einternal>
6.2936

> <r_i_glide_emodel>
-72.1331

> <r_i_glide_energy>
-54.9457

> <r_i_glide_erotb>
0.652024

> <r_i_glide_esite>
-0.070882

> <r_i_glide_evdw>
-49.8622

> <r_i_glide_gscore>
-5.79849

> <r_i_glide_hbond>
-0.0911959

> <r_i_glide_ligand_efficiency>
-0.152592

> <r_i_glide_ligand_efficiency_ln>
-1.25032

> <r_i_glide_ligand_efficiency_sa>
-0.51301

> <r_i_glide_lipo>
-2.68852

> <r_i_glide_metal>
0

> <r_i_glide_rewards>
-0.344289

> <s_i_glide_gridfile>
wee1_glide-grid

> <s_m_Source_File>
wee1_decoys_glide_SP.sdf

> <s_m_Source_Path>
/Users/zhangxujun/Desktop

> <s_m_entry_id>
2368

> <s_m_entry_name>
wee1_decoys_glide_SP.2093

> <s_m_subgroup_title>
wee1_decoys_glide_SP

> <s_m_subgroupid>
wee1_decoys_glide_SP


$$$$
