ZINC27520941_1128
                    3D
 Schrodinger Suite 2024-2.
 59 63  0  0  1  0            999 V2000
   -0.3773   51.9721   25.9361 C   0  0  0  0  0  0
    0.2540   52.7150   24.7547 C   0  0  0  0  0  0
    1.5789   53.0987   25.0986 O   0  0  0  0  0  0
    2.2830   53.9275   24.3004 C   0  0  0  0  0  0
    1.8396   54.4571   23.2808 O   0  0  0  0  0  0
    3.6733   54.0946   24.7620 C   0  0  0  0  0  0
    4.0974   54.0975   26.1241 C   0  0  0  0  0  0
    5.4613   54.3938   26.2707 C   0  0  0  0  0  0
    6.2592   54.5923   24.7589 S   0  0  0  0  0  0
    4.7891   54.2809   23.9084 C   0  0  0  0  0  0
    4.8933   54.3106   22.5189 N   0  3  0  0  0  0
    4.3627   53.4994   21.6006 C   0  0  0  0  0  0
    4.5110   53.6956   20.2057 C   0  0  0  0  0  0
    3.8934   52.7756   19.4043 C   0  0  0  0  0  0
    3.1026   51.6462   19.9152 C   0  0  0  0  0  0
    2.4716   50.6876   19.1195 C   0  0  0  0  0  0
    1.7638   49.6479   19.7289 C   0  0  0  0  0  0
    1.6836   49.5695   21.1229 C   0  0  0  0  0  0
    2.3193   50.5257   21.9182 C   0  0  0  0  0  0
    3.0293   51.5563   21.3013 C   0  0  0  0  0  0
    3.6820   52.4962   22.0816 O   0  0  0  0  0  0
    5.2794   54.8036   19.6373 C   0  0  0  0  0  0
    6.2734   55.2590   20.2146 O   0  0  0  0  0  0
    4.7917   55.3283   18.4894 N   0  0  0  0  0  0
    5.3475   56.3834   17.7446 C   0  0  0  0  0  0
    6.7317   56.5239   17.5617 C   0  0  0  0  0  0
    7.2271   57.5708   16.7891 C   0  0  0  0  0  0
    6.3476   58.4747   16.2010 C   0  0  0  0  0  0
    4.9725   58.3446   16.3815 C   0  0  0  0  0  0
    4.4703   57.2917   17.1437 C   0  0  0  0  0  0
    6.8368   59.4769   15.4392 F   0  0  0  0  0  0
    6.1879   54.6302   27.5826 C   0  0  0  0  0  0
    5.3208   54.1508   28.7635 C   0  0  0  0  0  0
    3.8396   54.5336   28.6171 C   0  0  0  0  0  0
    3.1950   53.9281   27.3538 C   0  0  0  0  0  0
   -1.3913   51.6487   25.6934 H   0  0  0  0  0  0
    0.2018   51.0846   26.1985 H   0  0  0  0  0  0
   -0.4348   52.6085   26.8206 H   0  0  0  0  0  0
   -0.3476   53.5869   24.4885 H   0  0  0  0  0  0
    0.2850   52.0671   23.8776 H   0  0  0  0  0  0
    4.0000   52.8386   18.3310 H   0  0  0  0  0  0
    2.5551   50.7264   18.0427 H   0  0  0  0  0  0
    1.2896   48.8966   19.1150 H   0  0  0  0  0  0
    1.1363   48.7643   21.5881 H   0  0  0  0  0  0
    2.2732   50.4586   22.9960 H   0  0  0  0  0  0
    3.8648   55.0417   18.2142 H   0  0  0  0  0  0
    7.4259   55.8219   18.0002 H   0  0  0  0  0  0
    8.2913   57.6821   16.6402 H   0  0  0  0  0  0
    4.3063   59.0699   15.9349 H   0  0  0  0  0  0
    3.4018   57.2015   17.2752 H   0  0  0  0  0  0
    6.3795   55.6969   27.6859 H   0  0  0  0  0  0
    7.1576   54.1306   27.6006 H   0  0  0  0  0  0
    5.7110   54.5912   29.6807 H   0  0  0  0  0  0
    5.4097   53.0684   28.8716 H   0  0  0  0  0  0
    3.7377   55.6187   28.5968 H   0  0  0  0  0  0
    3.2858   54.2048   29.4979 H   0  0  0  0  0  0
    3.0029   52.8653   27.5102 H   0  0  0  0  0  0
    2.2189   54.3912   27.2059 H   0  0  0  0  0  0
    5.4945   55.0461   22.1565 H   0  0  0  0  0  0
  1  2  1  0  0  0
  1 36  1  0  0  0
  1 37  1  0  0  0
  1 38  1  0  0  0
  2  3  1  0  0  0
  2 39  1  0  0  0
  2 40  1  0  0  0
  3  4  1  0  0  0
  4  5  2  0  0  0
  4  6  1  0  0  0
  6 10  2  0  0  0
  6  7  1  0  0  0
  7 35  1  0  0  0
  7  8  2  0  0  0
  8  9  1  0  0  0
  8 32  1  0  0  0
  9 10  1  0  0  0
 10 11  1  0  0  0
 11 12  2  0  0  0
 11 59  1  0  0  0
 12 21  1  0  0  0
 12 13  1  0  0  0
 13 14  2  0  0  0
 13 22  1  0  0  0
 14 15  1  0  0  0
 14 41  1  0  0  0
 15 20  2  0  0  0
 15 16  1  0  0  0
 16 17  2  0  0  0
 16 42  1  0  0  0
 17 18  1  0  0  0
 17 43  1  0  0  0
 18 19  2  0  0  0
 18 44  1  0  0  0
 19 20  1  0  0  0
 19 45  1  0  0  0
 20 21  1  0  0  0
 22 23  2  0  0  0
 22 24  1  0  0  0
 24 25  1  0  0  0
 24 46  1  0  0  0
 25 30  2  0  0  0
 25 26  1  0  0  0
 26 27  2  0  0  0
 26 47  1  0  0  0
 27 28  1  0  0  0
 27 48  1  0  0  0
 28 29  2  0  0  0
 28 31  1  0  0  0
 29 30  1  0  0  0
 29 49  1  0  0  0
 30 50  1  0  0  0
 32 33  1  0  0  0
 32 51  1  0  0  0
 32 52  1  0  0  0
 33 34  1  0  0  0
 33 53  1  0  0  0
 33 54  1  0  0  0
 34 35  1  0  0  0
 34 55  1  0  0  0
 34 56  1  0  0  0
 35 57  1  0  0  0
 35 58  1  0  0  0
M  CHG  1  11   1
M  END
> <i_i_glide_confnum>
183

> <i_i_glide_lignum>
1129

> <i_i_glide_posenum>
9

> <i_i_glide_rotatable_bonds>
7

> <i_m_Source_File_Index>
2846

> <b_m_subgroup_collapsed>
0

> <r_i_docking_score>
-5.69697

> <r_i_glide_ecoul>
-3.61846

> <r_i_glide_eff_state_penalty>
0

> <r_i_glide_einternal>
7.48675

> <r_i_glide_emodel>
-66.2976

> <r_i_glide_energy>
-50.7079

> <r_i_glide_erotb>
0.505534

> <r_i_glide_esite>
-0.0702157

> <r_i_glide_evdw>
-47.0895

> <r_i_glide_gscore>
-5.69697

> <r_i_glide_hbond>
0

> <r_i_glide_ligand_efficiency>
-0.16277

> <r_i_glide_ligand_efficiency_ln>
-1.25061

> <r_i_glide_ligand_efficiency_sa>
-0.532433

> <r_i_glide_lipo>
-2.77324

> <r_i_glide_metal>
0

> <r_i_glide_rewards>
-0.461803

> <s_i_glide_gridfile>
wee1_glide-grid

> <s_m_Source_File>
wee1_decoys_glide_SP.sdf

> <s_m_Source_Path>
/Users/zhangxujun/Desktop

> <s_m_entry_id>
3121

> <s_m_entry_name>
wee1_decoys_glide_SP.2846

> <s_m_subgroup_title>
wee1_decoys_glide_SP

> <s_m_subgroupid>
wee1_decoys_glide_SP


$$$$
