ZINC45795450_3745
                    3D
 Schrodinger Suite 2024-2.
 48 50  0  0  1  0            999 V2000
    2.9432   53.6977   24.0164 C   0  0  0  0  0  0
    4.2751   54.0961   23.4132 C   0  0  0  0  0  0
    5.4392   54.5419   24.0583 C   0  0  0  0  0  0
    6.6485   54.8964   22.8557 S   0  0  0  0  0  0
    5.5040   54.4559   21.6255 C   0  0  0  0  0  0
    4.3461   54.0553   22.0940 N   0  0  0  0  0  0
    5.8544   54.4979   20.1698 C   0  0  0  0  0  0
    6.9084   55.2918   19.7025 C   0  0  0  0  0  0
    7.2591   55.2758   18.3558 C   0  0  0  0  0  0
    6.5502   54.4765   17.4541 C   0  0  0  0  0  0
    5.4876   53.6950   17.9150 C   0  0  0  0  0  0
    5.1396   53.7070   19.2618 C   0  0  0  0  0  0
    6.9534   54.4381   15.9796 C   0  0  0  0  0  0
    6.6617   53.2608   15.4237 F   0  0  0  0  0  0
    6.2908   55.3911   15.3258 F   0  0  0  0  0  0
    8.2603   54.6503   15.8293 F   0  0  0  0  0  0
    5.7482   54.7831   25.4613 C   0  0  0  0  0  0
    6.7044   55.4657   25.8359 O   0  0  0  0  0  0
    4.8633   54.1522   26.2785 O   0  0  0  0  0  0
    4.9763   54.1694   27.7106 C   0  0  2  0  0  0
    4.9499   55.2023   28.0610 H   0  0  0  0  0  0
    6.3075   53.5304   28.1870 C   0  0  0  0  0  0
    3.7282   53.4972   28.3545 C   0  0  0  0  0  0
    3.8186   53.0279   29.4931 O   0  0  0  0  0  0
    2.5802   53.4646   27.6332 N   0  0  0  0  0  0
    1.4030   52.8467   28.0487 C   0  0  0  0  0  0
    0.6403   52.9746   29.2340 C   0  0  0  0  0  0
   -0.4352   52.0565   29.2302 C   0  0  0  0  0  0
   -0.5230   51.2976   28.0735 C   0  0  0  0  0  0
    0.7054   51.7063   26.9366 S   0  0  0  0  0  0
    0.8456   53.9638   30.2731 C   0  0  0  0  0  0
    1.4837   54.9984   30.0819 O   0  0  0  0  0  0
    0.3032   53.6967   31.4659 N   0  0  0  0  0  0
    3.0609   52.8866   24.7355 H   0  0  0  0  0  0
    2.4839   54.5325   24.5488 H   0  0  0  0  0  0
    2.2142   53.3575   23.2786 H   0  0  0  0  0  0
    7.4776   55.9112   20.3794 H   0  0  0  0  0  0
    8.0856   55.8867   18.0169 H   0  0  0  0  0  0
    4.9361   53.0578   17.2375 H   0  0  0  0  0  0
    4.3262   53.0773   19.5940 H   0  0  0  0  0  0
    6.3955   53.5504   29.2685 H   0  0  0  0  0  0
    6.3901   52.4963   27.8578 H   0  0  0  0  0  0
    7.1840   54.0595   27.8233 H   0  0  0  0  0  0
    2.6582   53.6976   26.6549 H   0  0  0  0  0  0
   -1.1496   51.9479   30.0348 H   0  0  0  0  0  0
   -1.2441   50.5230   27.8418 H   0  0  0  0  0  0
   -0.2007   52.8387   31.6462 H   0  0  0  0  0  0
    0.4274   54.3580   32.2166 H   0  0  0  0  0  0
  1  2  1  0  0  0
  1 34  1  0  0  0
  1 35  1  0  0  0
  1 36  1  0  0  0
  2  6  1  0  0  0
  2  3  2  0  0  0
  3  4  1  0  0  0
  3 17  1  0  0  0
  4  5  1  0  0  0
  5  6  2  0  0  0
  5  7  1  0  0  0
  7 12  2  0  0  0
  7  8  1  0  0  0
  8  9  2  0  0  0
  8 37  1  0  0  0
  9 10  1  0  0  0
  9 38  1  0  0  0
 10 11  2  0  0  0
 10 13  1  0  0  0
 11 12  1  0  0  0
 11 39  1  0  0  0
 12 40  1  0  0  0
 13 14  1  0  0  0
 13 15  1  0  0  0
 13 16  1  0  0  0
 17 18  2  0  0  0
 17 19  1  0  0  0
 19 20  1  0  0  0
 20 21  1  0  0  0
 20 22  1  0  0  0
 20 23  1  0  0  0
 22 41  1  0  0  0
 22 42  1  0  0  0
 22 43  1  0  0  0
 23 24  2  0  0  0
 23 25  1  0  0  0
 25 26  1  0  0  0
 25 44  1  0  0  0
 26 30  1  0  0  0
 26 27  2  0  0  0
 27 28  1  0  0  0
 27 31  1  0  0  0
 28 29  2  0  0  0
 28 45  1  0  0  0
 29 30  1  0  0  0
 29 46  1  0  0  0
 31 32  2  0  0  0
 31 33  1  0  0  0
 33 47  1  0  0  0
 33 48  1  0  0  0
M  END
> <i_i_glide_confnum>
109

> <i_i_glide_lignum>
3746

> <i_i_glide_posenum>
296

> <i_i_glide_rotatable_bonds>
9

> <i_m_Source_File_Index>
3685

> <b_m_subgroup_collapsed>
0

> <r_i_docking_score>
-7.51604

> <r_i_glide_ecoul>
-7.77689

> <r_i_glide_eff_state_penalty>
0

> <r_i_glide_einternal>
12.4693

> <r_i_glide_emodel>
-81.1316

> <r_i_glide_energy>
-59.3739

> <r_i_glide_erotb>
0.607925

> <r_i_glide_esite>
-0.030469

> <r_i_glide_evdw>
-51.597

> <r_i_glide_gscore>
-7.51604

> <r_i_glide_hbond>
-0.391868

> <r_i_glide_ligand_efficiency>
-0.234876

> <r_i_glide_ligand_efficiency_ln>
-1.68305

> <r_i_glide_ligand_efficiency_sa>
-0.745685

> <r_i_glide_lipo>
-2.33316

> <r_i_glide_metal>
0

> <r_i_glide_rewards>
-1.62208

> <s_i_glide_gridfile>
wee1_glide-grid

> <s_m_Source_File>
wee1_decoys_glide_SP.sdf

> <s_m_Source_Path>
/Users/zhangxujun/Desktop

> <s_m_entry_id>
3960

> <s_m_entry_name>
wee1_decoys_glide_SP.3685

> <s_m_subgroup_title>
wee1_decoys_glide_SP

> <s_m_subgroupid>
wee1_decoys_glide_SP


$$$$
