ZINC21076856_3010
                    3D
 Schrodinger Suite 2024-2.
 49 51  0  0  1  0            999 V2000
   -9.1058   50.4044   23.8704 C   0  0  0  0  0  0
   -7.7661   51.1308   23.6631 C   0  0  0  0  0  0
   -6.8729   51.2175   24.9200 C   0  0  2  0  0  0
   -6.7352   50.1967   25.2804 H   0  0  0  0  0  0
   -7.5312   52.0376   26.0489 C   0  0  0  0  0  0
   -5.2146   51.8423   24.4817 S   0  0  0  0  0  0
   -4.2728   51.4337   25.9146 C   0  0  0  0  0  0
   -4.6405   50.6272   26.8831 N   0  0  0  0  0  0
   -3.6965   50.5154   27.8950 N   0  0  0  0  0  0
   -2.6358   51.2501   27.6762 C   0  0  0  0  0  0
   -2.6926   52.1156   26.1557 S   0  0  0  0  0  0
   -1.6039   51.2983   28.6034 N   0  0  0  0  0  0
   -0.5395   52.1306   28.6017 C   0  0  0  0  0  0
   -0.2449   52.8967   27.6825 O   0  0  0  0  0  0
    0.3299   52.0950   29.8618 C   0  0  0  0  0  0
    1.1219   53.6990   30.2486 S   0  0  0  0  0  0
    2.7762   53.4480   29.6710 C   0  0  0  0  0  0
    3.5220   54.4788   29.2834 N   0  0  0  0  0  0
    4.6236   53.9028   28.8812 C   0  0  0  0  0  0
    4.5404   52.5612   29.0820 N   0  0  0  0  0  0
    3.3518   52.2601   29.5998 N   0  0  0  0  0  0
    5.7101   54.4967   28.2650 N   0  0  0  0  0  0
    5.9264   54.6545   26.8657 N   0  0  0  0  0  0
    5.1182   54.1411   26.0189 C   0  0  0  0  0  0
    5.2345   54.2754   24.5595 C   0  0  0  0  0  0
    6.4735   54.5805   23.9733 C   0  0  0  0  0  0
    6.6066   54.7005   22.5921 C   0  0  0  0  0  0
    5.5045   54.4967   21.7658 C   0  0  0  0  0  0
    4.2668   54.1902   22.3238 C   0  0  0  0  0  0
    4.1195   54.0966   23.7096 C   0  0  0  0  0  0
    2.5277   53.7617   24.3151 Cl  0  0  0  0  0  0
    5.6713   54.6395   20.0548 Cl  0  0  0  0  0  0
   -9.6420   50.3080   22.9261 H   0  0  0  0  0  0
   -9.7585   50.9443   24.5568 H   0  0  0  0  0  0
   -8.9550   49.3996   24.2671 H   0  0  0  0  0  0
   -7.2187   50.6166   22.8712 H   0  0  0  0  0  0
   -7.9549   52.1352   23.2810 H   0  0  0  0  0  0
   -8.4748   51.5960   26.3671 H   0  0  0  0  0  0
   -6.9018   52.0944   26.9362 H   0  0  0  0  0  0
   -7.7355   53.0593   25.7268 H   0  0  0  0  0  0
   -1.7010   50.6507   29.3761 H   0  0  0  0  0  0
   -0.2904   51.8331   30.7215 H   0  0  0  0  0  0
    1.0557   51.2968   29.7398 H   0  0  0  0  0  0
    6.4080   54.9824   28.8227 H   0  0  0  0  0  0
    4.2664   53.5479   26.3405 H   0  0  0  0  0  0
    7.3537   54.7280   24.5835 H   0  0  0  0  0  0
    7.5711   54.9399   22.1671 H   0  0  0  0  0  0
    3.4106   54.0505   21.6783 H   0  0  0  0  0  0
    5.2364   51.8773   28.8242 H   0  0  0  0  0  0
  1  2  1  0  0  0
  1 33  1  0  0  0
  1 34  1  0  0  0
  1 35  1  0  0  0
  2  3  1  0  0  0
  2 36  1  0  0  0
  2 37  1  0  0  0
  3  4  1  0  0  0
  3  5  1  0  0  0
  3  6  1  0  0  0
  5 38  1  0  0  0
  5 39  1  0  0  0
  5 40  1  0  0  0
  6  7  1  0  0  0
  7 11  1  0  0  0
  7  8  2  0  0  0
  8  9  1  0  0  0
  9 10  2  0  0  0
 10 11  1  0  0  0
 10 12  1  0  0  0
 12 13  1  0  0  0
 12 41  1  0  0  0
 13 14  2  0  0  0
 13 15  1  0  0  0
 15 16  1  0  0  0
 15 42  1  0  0  0
 15 43  1  0  0  0
 16 17  1  0  0  0
 17 21  2  0  0  0
 17 18  1  0  0  0
 18 19  2  0  0  0
 19 20  1  0  0  0
 19 22  1  0  0  0
 20 21  1  0  0  0
 20 49  1  0  0  0
 22 23  1  0  0  0
 22 44  1  0  0  0
 23 24  2  0  0  0
 24 25  1  0  0  0
 24 45  1  0  0  0
 25 30  2  0  0  0
 25 26  1  0  0  0
 26 27  2  0  0  0
 26 46  1  0  0  0
 27 28  1  0  0  0
 27 47  1  0  0  0
 28 29  2  0  0  0
 28 32  1  0  0  0
 29 30  1  0  0  0
 29 48  1  0  0  0
 30 31  1  0  0  0
M  END
> <i_i_glide_confnum>
96

> <i_i_glide_lignum>
3011

> <i_i_glide_posenum>
250

> <i_i_glide_rotatable_bonds>
11

> <i_m_Source_File_Index>
2634

> <b_m_subgroup_collapsed>
0

> <r_i_docking_score>
-5.90803

> <r_i_glide_ecoul>
-6.42283

> <r_i_glide_eff_state_penalty>
0

> <r_i_glide_einternal>
5.23027

> <r_i_glide_emodel>
-71.3189

> <r_i_glide_energy>
-53.5908

> <r_i_glide_erotb>
0.690065

> <r_i_glide_esite>
-0.237774

> <r_i_glide_evdw>
-47.1679

> <r_i_glide_gscore>
-5.90803

> <r_i_glide_hbond>
-0.32

> <r_i_glide_ligand_efficiency>
-0.190582

> <r_i_glide_ligand_efficiency_ln>
-1.33244

> <r_i_glide_ligand_efficiency_sa>
-0.59869

> <r_i_glide_lipo>
-1.86355

> <r_i_glide_metal>
0

> <r_i_glide_rewards>
-0.854958

> <s_i_glide_gridfile>
wee1_glide-grid

> <s_m_Source_File>
wee1_decoys_glide_SP.sdf

> <s_m_Source_Path>
/Users/zhangxujun/Desktop

> <s_m_entry_id>
2909

> <s_m_entry_name>
wee1_decoys_glide_SP.2634

> <s_m_subgroup_title>
wee1_decoys_glide_SP

> <s_m_subgroupid>
wee1_decoys_glide_SP


$$$$
