ZINC40288104_100
                    3D
 Schrodinger Suite 2024-2.
 50 52  0  0  1  0            999 V2000
   -2.2073   48.8682   25.6805 C   0  0  0  0  0  0
   -0.6991   48.7944   25.3591 C   0  0  0  0  0  0
   -0.4114   47.6910   24.3300 C   0  0  0  0  0  0
   -0.0495   50.1479   24.9592 C   0  0  1  0  0  0
    0.9528   49.9349   24.5822 H   0  0  0  0  0  0
   -0.7865   50.8825   23.8308 C   0  0  0  0  0  0
   -0.6141   50.5849   22.6477 O   0  0  0  0  0  0
   -1.6696   51.8207   24.2644 O   0  0  0  0  0  0
   -2.4513   52.5605   23.3374 C   0  0  0  0  0  0
    0.1752   50.9926   26.1518 N   0  0  0  0  0  0
    0.9294   52.1087   26.2101 C   0  0  0  0  0  0
    1.3564   52.6355   25.1786 O   0  0  0  0  0  0
    1.1745   52.6213   27.4507 N   0  0  0  0  0  0
    1.0219   51.8435   28.7133 C   0  0  0  0  0  0
    0.1183   52.6369   29.6992 C   0  0  0  0  0  0
    0.6517   54.0514   29.8310 C   0  0  0  0  0  0
    1.4297   54.6120   28.8369 C   0  0  0  0  0  0
    1.6972   55.8835   29.2588 N   0  0  0  0  0  0
    2.2383   56.5854   28.7770 H   0  0  0  0  0  0
    1.1055   55.9832   30.4859 C   0  0  0  0  0  0
    0.4798   54.8826   30.8466 N   0  0  0  0  0  0
    1.8593   53.9395   27.5419 C   0  0  1  0  0  0
    1.5055   54.4978   26.6814 H   0  0  0  0  0  0
    3.3838   53.9114   27.4120 C   0  0  0  0  0  0
    4.1946   53.6260   28.5190 C   0  0  0  0  0  0
    5.5769   53.7446   28.4238 C   0  0  0  0  0  0
    6.1609   54.1466   27.2295 C   0  0  0  0  0  0
    5.3698   54.4043   26.1103 C   0  0  0  0  0  0
    3.9828   54.2851   26.2026 C   0  0  0  0  0  0
    6.1730   54.9363   24.4669 Br  0  0  0  0  0  0
    7.4956   54.3075   27.1755 F   0  0  0  0  0  0
   -2.8024   49.1192   24.8022 H   0  0  0  0  0  0
   -2.5687   47.9136   26.0640 H   0  0  0  0  0  0
   -2.4059   49.6183   26.4471 H   0  0  0  0  0  0
   -0.2100   48.4844   26.2846 H   0  0  0  0  0  0
   -0.9023   47.8902   23.3763 H   0  0  0  0  0  0
    0.6626   47.6201   24.1447 H   0  0  0  0  0  0
   -0.7558   46.7221   24.6925 H   0  0  0  0  0  0
   -2.8539   53.4552   23.8137 H   0  0  0  0  0  0
   -1.8593   52.8875   22.4826 H   0  0  0  0  0  0
   -3.2820   51.9573   22.9707 H   0  0  0  0  0  0
   -0.1723   50.6007   27.0150 H   0  0  0  0  0  0
    0.6095   50.8485   28.5586 H   0  0  0  0  0  0
    2.0107   51.7047   29.1517 H   0  0  0  0  0  0
   -0.9035   52.6427   29.3294 H   0  0  0  0  0  0
    0.0806   52.1360   30.6684 H   0  0  0  0  0  0
    1.1861   56.8967   31.0581 H   0  0  0  0  0  0
    3.7547   53.3418   29.4638 H   0  0  0  0  0  0
    6.2031   53.5521   29.2785 H   0  0  0  0  0  0
    3.3699   54.5058   25.3397 H   0  0  0  0  0  0
  1  2  1  0  0  0
  1 32  1  0  0  0
  1 33  1  0  0  0
  1 34  1  0  0  0
  2  3  1  0  0  0
  2  4  1  0  0  0
  2 35  1  0  0  0
  3 36  1  0  0  0
  3 37  1  0  0  0
  3 38  1  0  0  0
  4  5  1  0  0  0
  4  6  1  0  0  0
  4 10  1  0  0  0
  6  7  2  0  0  0
  6  8  1  0  0  0
  8  9  1  0  0  0
  9 39  1  0  0  0
  9 40  1  0  0  0
  9 41  1  0  0  0
 10 11  1  0  0  0
 10 42  1  0  0  0
 11 12  2  0  0  0
 11 13  1  0  0  0
 13 22  1  0  0  0
 13 14  1  0  0  0
 14 15  1  0  0  0
 14 43  1  0  0  0
 14 44  1  0  0  0
 15 16  1  0  0  0
 15 45  1  0  0  0
 15 46  1  0  0  0
 16 21  1  0  0  0
 16 17  2  0  0  0
 17 18  1  0  0  0
 17 22  1  0  0  0
 18 19  1  0  0  0
 18 20  1  0  0  0
 20 21  2  0  0  0
 20 47  1  0  0  0
 22 23  1  0  0  0
 22 24  1  0  0  0
 24 29  2  0  0  0
 24 25  1  0  0  0
 25 26  2  0  0  0
 25 48  1  0  0  0
 26 27  1  0  0  0
 26 49  1  0  0  0
 27 28  2  0  0  0
 27 31  1  0  0  0
 28 29  1  0  0  0
 28 30  1  0  0  0
 29 50  1  0  0  0
M  END
> <i_i_glide_confnum>
52

> <i_i_glide_lignum>
101

> <i_i_glide_posenum>
390

> <i_i_glide_rotatable_bonds>
7

> <i_m_Source_File_Index>
4582

> <b_m_subgroup_collapsed>
0

> <r_i_docking_score>
-5.85455

> <r_i_glide_ecoul>
-1.44838

> <r_i_glide_eff_state_penalty>
0

> <r_i_glide_einternal>
5.53733

> <r_i_glide_emodel>
-57.5683

> <r_i_glide_energy>
-45.3057

> <r_i_glide_erotb>
0.488405

> <r_i_glide_esite>
-0.0733303

> <r_i_glide_evdw>
-43.8573

> <r_i_glide_gscore>
-5.85455

> <r_i_glide_hbond>
0

> <r_i_glide_ligand_efficiency>
-0.209091

> <r_i_glide_ligand_efficiency_ln>
-1.3514

> <r_i_glide_ligand_efficiency_sa>
-0.634924

> <r_i_glide_lipo>
-2.91607

> <r_i_glide_metal>
0

> <r_i_glide_rewards>
-0.943435

> <s_i_glide_gridfile>
wee1_glide-grid

> <s_m_Source_File>
wee1_decoys_glide_SP.sdf

> <s_m_Source_Path>
/Users/zhangxujun/Desktop

> <s_m_entry_id>
4857

> <s_m_entry_name>
wee1_decoys_glide_SP.4582

> <s_m_subgroup_title>
wee1_decoys_glide_SP

> <s_m_subgroupid>
wee1_decoys_glide_SP


$$$$
