ZINC30975788_879
                    3D
 Schrodinger Suite 2024-2.
 73 77  0  0  1  0            999 V2000
   -4.2121   51.0436   23.8441 C   0  0  0  0  0  0
   -3.2041   51.2444   24.9606 C   0  0  0  0  0  0
   -2.0104   51.9217   24.7135 C   0  0  0  0  0  0
   -1.0855   52.0944   25.7379 C   0  0  0  0  0  0
   -1.3464   51.6003   27.0242 C   0  0  0  0  0  0
   -2.5409   50.9066   27.2554 C   0  0  0  0  0  0
   -3.4661   50.7288   26.2300 C   0  0  0  0  0  0
   -0.3577   51.8166   28.1345 C   0  0  0  0  0  0
    0.9076   52.1035   27.8937 N   0  0  0  0  0  0
    1.3922   52.2796   29.0945 C   0  0  0  0  0  0
    0.4806   52.0967   30.0766 O   0  0  0  0  0  0
   -0.6967   51.7610   29.4089 N   0  0  0  0  0  0
    2.8057   52.6648   29.4984 C   0  0  0  0  0  0
    3.6072   53.1089   28.2494 N   0  3  1  0  0  0
    3.1578   54.5121   27.7712 C   0  0  0  0  0  0
    3.8247   54.7502   26.4131 C   0  0  0  0  0  0
    5.3680   54.6672   26.5507 C   0  0  1  0  0  0
    5.8226   53.3158   27.1373 C   0  0  0  0  0  0
    5.1342   53.0816   28.4945 C   0  0  0  0  0  0
    6.0736   54.9104   25.1969 C   0  0  0  0  0  0
    7.1042   55.5777   25.1955 O   0  0  0  0  0  0
    5.4718   54.3952   24.0992 N   0  0  0  0  0  0
    5.7351   54.5334   22.7166 C   0  0  0  0  0  0
    6.8546   55.2349   22.2332 C   0  0  0  0  0  0
    7.0608   55.4140   20.8680 C   0  0  0  0  0  0
    6.1474   54.8975   19.9574 C   0  0  0  0  0  0
    5.0273   54.2060   20.4115 C   0  0  0  0  0  0
    4.7908   54.0165   21.7859 C   0  0  0  0  0  0
    3.5221   53.2962   22.2195 C   0  0  0  0  0  0
    2.9856   53.5426   23.3014 O   0  0  0  0  0  0
    3.0552   52.3493   21.3857 N   0  0  0  0  0  0
    1.8971   51.4832   21.6222 C   0  0  1  0  0  0
    2.0771   50.9587   22.5638 H   0  0  0  0  0  0
    0.5691   52.2579   21.7698 C   0  0  0  0  0  0
    1.7948   50.4304   20.5219 C   0  0  0  0  0  0
    1.9005   49.0727   20.8434 C   0  0  0  0  0  0
    1.8083   48.1123   19.8401 C   0  0  0  0  0  0
    1.6158   48.5072   18.5190 C   0  0  0  0  0  0
    1.5033   49.8558   18.1904 C   0  0  0  0  0  0
    1.5910   50.8172   19.1910 C   0  0  0  0  0  0
   -3.7503   51.1560   22.8612 H   0  0  0  0  0  0
   -4.6247   50.0336   23.8840 H   0  0  0  0  0  0
   -5.0392   51.7482   23.9396 H   0  0  0  0  0  0
   -1.7966   52.3147   23.7299 H   0  0  0  0  0  0
   -0.1671   52.6192   25.5254 H   0  0  0  0  0  0
   -2.7550   50.4941   28.2306 H   0  0  0  0  0  0
   -4.3779   50.1837   26.4256 H   0  0  0  0  0  0
    3.3368   51.8087   29.9158 H   0  0  0  0  0  0
    2.8557   53.4954   30.2008 H   0  0  0  0  0  0
    3.4348   55.2502   28.5282 H   0  0  0  0  0  0
    2.0737   54.5042   27.6539 H   0  0  0  0  0  0
    3.5056   55.7309   26.0814 H   0  0  0  0  0  0
    3.4251   53.9676   25.7697 H   0  0  0  0  0  0
    5.7240   55.4803   27.1861 H   0  0  0  0  0  0
    5.4997   52.4969   26.4930 H   0  0  0  0  0  0
    6.9007   53.2908   27.3134 H   0  0  0  0  0  0
    5.3781   53.8391   29.2427 H   0  0  0  0  0  0
    5.3851   52.0936   28.8761 H   0  0  0  0  0  0
    4.6025   53.9046   24.2635 H   0  0  0  0  0  0
    7.5824   55.6686   22.8984 H   0  0  0  0  0  0
    7.9335   55.9480   20.5177 H   0  0  0  0  0  0
    6.2990   55.0344   18.8971 H   0  0  0  0  0  0
    4.3252   53.8486   19.6701 H   0  0  0  0  0  0
    3.6340   52.0831   20.6022 H   0  0  0  0  0  0
   -0.2745   51.5758   21.8753 H   0  0  0  0  0  0
    0.5722   52.8955   22.6536 H   0  0  0  0  0  0
    0.3815   52.8965   20.9052 H   0  0  0  0  0  0
    2.0706   48.7623   21.8641 H   0  0  0  0  0  0
    1.9006   47.0637   20.0805 H   0  0  0  0  0  0
    1.5669   47.7635   17.7382 H   0  0  0  0  0  0
    1.3768   50.1526   17.1596 H   0  0  0  0  0  0
    1.5158   51.8640   18.9334 H   0  0  0  0  0  0
    3.3920   52.4286   27.5305 H   0  0  0  0  0  0
  1  2  1  0  0  0
  1 41  1  0  0  0
  1 42  1  0  0  0
  1 43  1  0  0  0
  2  7  2  0  0  0
  2  3  1  0  0  0
  3  4  2  0  0  0
  3 44  1  0  0  0
  4  5  1  0  0  0
  4 45  1  0  0  0
  5  6  2  0  0  0
  5  8  1  0  0  0
  6  7  1  0  0  0
  6 46  1  0  0  0
  7 47  1  0  0  0
  8 12  2  0  0  0
  8  9  1  0  0  0
  9 10  2  0  0  0
 10 11  1  0  0  0
 10 13  1  0  0  0
 11 12  1  0  0  0
 13 14  1  0  0  0
 13 48  1  0  0  0
 13 49  1  0  0  0
 14 19  1  0  0  0
 14 15  1  0  0  0
 14 73  1  0  0  0
 15 16  1  0  0  0
 15 50  1  0  0  0
 15 51  1  0  0  0
 16 17  1  0  0  0
 16 52  1  0  0  0
 16 53  1  0  0  0
 17 18  1  0  0  0
 17 20  1  0  0  0
 17 54  1  0  0  0
 18 19  1  0  0  0
 18 55  1  0  0  0
 18 56  1  0  0  0
 19 57  1  0  0  0
 19 58  1  0  0  0
 20 21  2  0  0  0
 20 22  1  0  0  0
 22 23  1  0  0  0
 22 59  1  0  0  0
 23 28  2  0  0  0
 23 24  1  0  0  0
 24 25  2  0  0  0
 24 60  1  0  0  0
 25 26  1  0  0  0
 25 61  1  0  0  0
 26 27  2  0  0  0
 26 62  1  0  0  0
 27 28  1  0  0  0
 27 63  1  0  0  0
 28 29  1  0  0  0
 29 30  2  0  0  0
 29 31  1  0  0  0
 31 32  1  0  0  0
 31 64  1  0  0  0
 32 33  1  0  0  0
 32 34  1  0  0  0
 32 35  1  0  0  0
 34 65  1  0  0  0
 34 66  1  0  0  0
 34 67  1  0  0  0
 35 40  2  0  0  0
 35 36  1  0  0  0
 36 37  2  0  0  0
 36 68  1  0  0  0
 37 38  1  0  0  0
 37 69  1  0  0  0
 38 39  2  0  0  0
 38 70  1  0  0  0
 39 40  1  0  0  0
 39 71  1  0  0  0
 40 72  1  0  0  0
M  CHG  1  14   1
M  END
> <i_i_glide_confnum>
46

> <i_i_glide_lignum>
880

> <i_i_glide_posenum>
170

> <i_i_glide_rotatable_bonds>
10

> <i_m_Source_File_Index>
508

> <b_m_subgroup_collapsed>
0

> <r_i_docking_score>
-5.60909

> <r_i_glide_ecoul>
-1.49455

> <r_i_glide_eff_state_penalty>
0

> <r_i_glide_einternal>
9.73629

> <r_i_glide_emodel>
-67.9196

> <r_i_glide_energy>
-53.9127

> <r_i_glide_erotb>
0.672864

> <r_i_glide_esite>
-0.117321

> <r_i_glide_evdw>
-52.4181

> <r_i_glide_gscore>
-5.60909

> <r_i_glide_hbond>
-0.32

> <r_i_glide_ligand_efficiency>
-0.143823

> <r_i_glide_ligand_efficiency_ln>
-1.20275

> <r_i_glide_ligand_efficiency_sa>
-0.487733

> <r_i_glide_lipo>
-2.31829

> <r_i_glide_metal>
0

> <r_i_glide_rewards>
-0.68125

> <s_i_glide_gridfile>
wee1_glide-grid

> <s_m_Source_File>
wee1_decoys_glide_SP.sdf

> <s_m_Source_Path>
/Users/zhangxujun/Desktop

> <s_m_entry_id>
783

> <s_m_entry_name>
wee1_decoys_glide_SP.508

> <s_m_subgroup_title>
wee1_decoys_glide_SP

> <s_m_subgroupid>
wee1_decoys_glide_SP


$$$$
