ZINC13078648_2591
                    3D
 Schrodinger Suite 2024-2.
 53 55  0  0  1  0            999 V2000
   -1.8455   51.5549   28.2887 C   0  0  0  0  0  0
   -0.4956   52.0202   28.8044 C   0  0  0  0  0  0
   -0.1343   52.4062   30.0841 C   0  0  0  0  0  0
    1.1951   52.7991   30.0605 C   0  0  0  0  0  0
    1.6672   52.6501   28.7661 C   0  0  0  0  0  0
    0.6253   52.1419   27.9918 N   0  0  0  0  0  0
    0.6823   51.8031   26.6156 C   0  0  0  0  0  0
    1.1057   52.7424   25.6714 C   0  0  0  0  0  0
    1.1564   52.4028   24.3214 C   0  0  0  0  0  0
    0.8058   51.1135   23.8998 C   0  0  0  0  0  0
    0.3685   50.1777   24.8512 C   0  0  0  0  0  0
    0.3044   50.5215   26.1984 C   0  0  0  0  0  0
    0.8975   50.7579   22.4335 C   0  0  0  0  0  0
    0.7677   51.6273   21.5690 O   0  0  0  0  0  0
    1.1562   49.4637   22.1591 N   0  0  0  0  0  0
    1.1996   48.9730   20.8610 N   0  0  0  0  0  0
   -0.3760   48.5139   20.1952 S   0  0  0  0  0  0
   -0.8280   49.5967   19.3156 O   0  0  0  0  0  0
   -1.2221   48.0746   21.3131 O   0  0  0  0  0  0
   -0.0307   47.0588   19.1759 C   0  0  0  0  0  0
   -0.4230   45.8154   19.6817 C   0  0  0  0  0  0
   -0.0972   44.6196   19.0329 C   0  0  0  0  0  0
    0.5564   44.6960   17.7984 C   0  0  0  0  0  0
    0.9381   45.9269   17.2529 C   0  0  0  0  0  0
    0.6583   47.1235   17.9459 C   0  0  0  0  0  0
    1.1252   48.4681   17.3847 C   0  0  0  0  0  0
    1.6774   45.9189   15.9202 C   0  0  0  0  0  0
   -0.3902   43.2966   19.6778 C   0  0  0  0  0  0
   -0.8961   43.2966   20.8249 O   0  0  0  0  0  0
    3.0534   52.9428   28.2266 C   0  0  0  0  0  0
   -2.6331   51.6931   29.0277 H   0  0  0  0  0  0
   -2.1492   52.0963   27.3926 H   0  0  0  0  0  0
   -1.8530   50.4969   28.0389 H   0  0  0  0  0  0
   -0.7774   52.4002   30.9539 H   0  0  0  0  0  0
    1.7592   53.1551   30.9098 H   0  0  0  0  0  0
    1.3869   53.7392   25.9740 H   0  0  0  0  0  0
    1.4858   53.1446   23.6065 H   0  0  0  0  0  0
    0.0795   49.1755   24.5631 H   0  0  0  0  0  0
   -0.0237   49.7728   26.9063 H   0  0  0  0  0  0
    1.6420   48.8939   22.8370 H   0  0  0  0  0  0
    1.7026   49.6335   20.2600 H   0  0  0  0  0  0
   -0.9271   45.7701   20.6385 H   0  0  0  0  0  0
    0.8064   43.7858   17.2722 H   0  0  0  0  0  0
    1.5681   49.0847   18.1661 H   0  0  0  0  0  0
    1.9042   48.3822   16.6276 H   0  0  0  0  0  0
    0.2850   49.0162   16.9584 H   0  0  0  0  0  0
    1.1971   46.5974   15.2141 H   0  0  0  0  0  0
    2.7080   46.2499   16.0549 H   0  0  0  0  0  0
    1.6912   44.9316   15.4565 H   0  0  0  0  0  0
    3.7581   53.1745   29.0286 H   0  0  0  0  0  0
    3.4701   52.0963   27.6824 H   0  0  0  0  0  0
    3.0580   53.8012   27.5510 H   0  0  0  0  0  0
   -0.0948   42.2451   19.0604 O   0  5  0  0  0  0
  1  2  1  0  0  0
  1 31  1  0  0  0
  1 32  1  0  0  0
  1 33  1  0  0  0
  2  6  1  0  0  0
  2  3  2  0  0  0
  3  4  1  0  0  0
  3 34  1  0  0  0
  4  5  2  0  0  0
  4 35  1  0  0  0
  5  6  1  0  0  0
  5 30  1  0  0  0
  6  7  1  0  0  0
  7 12  2  0  0  0
  7  8  1  0  0  0
  8  9  2  0  0  0
  8 36  1  0  0  0
  9 10  1  0  0  0
  9 37  1  0  0  0
 10 11  2  0  0  0
 10 13  1  0  0  0
 11 12  1  0  0  0
 11 38  1  0  0  0
 12 39  1  0  0  0
 13 14  2  0  0  0
 13 15  1  0  0  0
 15 16  1  0  0  0
 15 40  1  0  0  0
 16 17  1  0  0  0
 16 41  1  0  0  0
 17 18  2  0  0  0
 17 19  2  0  0  0
 17 20  1  0  0  0
 20 25  2  0  0  0
 20 21  1  0  0  0
 21 22  2  0  0  0
 21 42  1  0  0  0
 22 23  1  0  0  0
 22 28  1  0  0  0
 23 24  2  0  0  0
 23 43  1  0  0  0
 24 25  1  0  0  0
 24 27  1  0  0  0
 25 26  1  0  0  0
 26 44  1  0  0  0
 26 45  1  0  0  0
 26 46  1  0  0  0
 27 47  1  0  0  0
 27 48  1  0  0  0
 27 49  1  0  0  0
 28 29  2  0  0  0
 28 53  1  0  0  0
 30 50  1  0  0  0
 30 51  1  0  0  0
 30 52  1  0  0  0
M  CHG  1  53  -1
M  END
> <i_i_glide_confnum>
88

> <i_i_glide_lignum>
2592

> <i_i_glide_posenum>
256

> <i_i_glide_rotatable_bonds>
7

> <i_m_Source_File_Index>
506

> <b_m_subgroup_collapsed>
0

> <r_i_docking_score>
-3.97426

> <r_i_glide_ecoul>
-8.16171

> <r_i_glide_eff_state_penalty>
0

> <r_i_glide_einternal>
5.56563

> <r_i_glide_emodel>
-50.322

> <r_i_glide_energy>
-39.2465

> <r_i_glide_erotb>
0.61743

> <r_i_glide_esite>
-0.07172

> <r_i_glide_evdw>
-31.0848

> <r_i_glide_gscore>
-3.97426

> <r_i_glide_hbond>
-0.405247

> <r_i_glide_ligand_efficiency>
-0.128202

> <r_i_glide_ligand_efficiency_ln>
-0.896317

> <r_i_glide_ligand_efficiency_sa>
-0.402731

> <r_i_glide_lipo>
-0.869345

> <r_i_glide_metal>
0

> <r_i_glide_rewards>
-0.466879

> <s_i_glide_gridfile>
wee1_glide-grid

> <s_m_Source_File>
wee1_decoys_glide_SP.sdf

> <s_m_Source_Path>
/Users/zhangxujun/Desktop

> <s_m_entry_id>
781

> <s_m_entry_name>
wee1_decoys_glide_SP.506

> <s_m_subgroup_title>
wee1_decoys_glide_SP

> <s_m_subgroupid>
wee1_decoys_glide_SP


$$$$
