ZINC38649799_6003
                    3D
 Schrodinger Suite 2024-2.
 63 66  0  0  1  0            999 V2000
   11.2305   55.9574   16.8468 C   0  0  0  0  0  0
   10.4879   54.6102   16.8836 C   0  0  1  0  0  0
   10.9516   54.0081   17.6664 H   0  0  0  0  0  0
    8.9905   54.7988   17.2099 C   0  0  0  0  0  0
    8.1097   54.6643   16.3574 O   0  0  0  0  0  0
    8.8087   55.1186   18.5202 O   0  0  0  0  0  0
    7.6021   55.0057   19.1873 C   0  0  0  0  0  0
    7.4574   55.7722   20.3417 C   0  0  0  0  0  0
    6.3570   55.6034   21.1804 C   0  0  0  0  0  0
    5.3843   54.6242   20.9281 C   0  0  0  0  0  0
    5.5051   53.9089   19.7211 C   0  0  0  0  0  0
    6.5848   54.0966   18.8605 C   0  0  0  0  0  0
    4.6255   52.9202   19.3491 O   0  0  0  0  0  0
    3.7125   52.4833   20.2400 C   0  0  0  0  0  0
    3.4875   53.0271   21.4537 C   0  0  0  0  0  0
    4.2523   54.2750   21.9313 C   0  0  1  0  0  0
    3.5423   55.1003   21.8754 H   0  0  0  0  0  0
    4.6559   54.2352   23.4249 C   0  0  0  0  0  0
    5.9875   54.0966   23.8348 C   0  0  0  0  0  0
    6.3207   54.0967   25.1845 C   0  0  0  0  0  0
    5.3283   54.1531   26.1724 C   0  0  0  0  0  0
    3.9991   54.3261   25.7600 C   0  0  0  0  0  0
    3.6704   54.3830   24.4076 C   0  0  0  0  0  0
    5.6591   53.9658   27.6783 C   0  0  0  0  0  0
    4.6751   52.9731   28.3400 C   0  0  0  0  0  0
    5.5047   55.2964   28.4080 C   0  0  0  0  0  0
    7.1024   53.4600   27.9296 C   0  0  0  0  0  0
    2.4556   52.4811   22.2760 C   0  0  0  0  0  0
    1.6003   52.0426   22.9205 N   0  0  0  0  0  0
    3.1047   51.3921   19.6823 N   0  0  0  0  0  0
   10.7032   53.9890   15.6103 O   0  0  0  0  0  0
   10.4901   52.6310   15.4302 C   0  0  0  0  0  0
   10.0860   51.7491   16.4481 C   0  0  0  0  0  0
    9.9035   50.3915   16.1819 C   0  0  0  0  0  0
   10.1195   49.8961   14.8976 C   0  0  0  0  0  0
   10.5257   50.7578   13.8809 C   0  0  0  0  0  0
   10.7083   52.1159   14.1455 C   0  0  0  0  0  0
   11.1039   52.9349   13.1431 F   0  0  0  0  0  0
   11.1198   56.5071   17.7827 H   0  0  0  0  0  0
   12.2973   55.8024   16.6884 H   0  0  0  0  0  0
   10.8676   56.5925   16.0380 H   0  0  0  0  0  0
    8.2351   56.4700   20.6148 H   0  0  0  0  0  0
    6.3049   56.1923   22.0829 H   0  0  0  0  0  0
    6.6568   53.4635   17.9881 H   0  0  0  0  0  0
    6.7854   53.9670   23.1198 H   0  0  0  0  0  0
    7.3606   53.9745   25.4344 H   0  0  0  0  0  0
    3.2039   54.3992   26.4863 H   0  0  0  0  0  0
    2.6359   54.5164   24.1259 H   0  0  0  0  0  0
    5.0149   52.6421   29.3216 H   0  0  0  0  0  0
    4.5485   52.0968   27.7219 H   0  0  0  0  0  0
    3.6808   53.3999   28.4781 H   0  0  0  0  0  0
    6.2773   55.9988   28.0814 H   0  0  0  0  0  0
    4.5050   55.6922   28.2233 H   0  0  0  0  0  0
    5.6071   55.1839   29.4890 H   0  0  0  0  0  0
    7.8472   54.1703   27.5710 H   0  0  0  0  0  0
    7.3022   53.3312   28.9912 H   0  0  0  0  0  0
    7.2885   52.5012   27.4505 H   0  0  0  0  0  0
    2.3541   50.9100   20.1522 H   0  0  0  0  0  0
    3.6078   50.8948   18.9519 H   0  0  0  0  0  0
    9.9071   52.0946   17.4541 H   0  0  0  0  0  0
    9.5924   49.7254   16.9738 H   0  0  0  0  0  0
    9.9738   48.8470   14.6873 H   0  0  0  0  0  0
   10.7062   50.3728   12.8861 H   0  0  0  0  0  0
  1  2  1  0  0  0
  1 39  1  0  0  0
  1 40  1  0  0  0
  1 41  1  0  0  0
  2  3  1  0  0  0
  2  4  1  0  0  0
  2 31  1  0  0  0
  4  5  2  0  0  0
  4  6  1  0  0  0
  6  7  1  0  0  0
  7 12  2  0  0  0
  7  8  1  0  0  0
  8  9  2  0  0  0
  8 42  1  0  0  0
  9 10  1  0  0  0
  9 43  1  0  0  0
 10 16  1  0  0  0
 10 11  2  0  0  0
 11 12  1  0  0  0
 11 13  1  0  0  0
 12 44  1  0  0  0
 13 14  1  0  0  0
 14 15  2  0  0  0
 14 30  1  0  0  0
 15 16  1  0  0  0
 15 28  1  0  0  0
 16 17  1  0  0  0
 16 18  1  0  0  0
 18 23  2  0  0  0
 18 19  1  0  0  0
 19 20  2  0  0  0
 19 45  1  0  0  0
 20 21  1  0  0  0
 20 46  1  0  0  0
 21 22  2  0  0  0
 21 24  1  0  0  0
 22 23  1  0  0  0
 22 47  1  0  0  0
 23 48  1  0  0  0
 24 25  1  0  0  0
 24 26  1  0  0  0
 24 27  1  0  0  0
 25 49  1  0  0  0
 25 50  1  0  0  0
 25 51  1  0  0  0
 26 52  1  0  0  0
 26 53  1  0  0  0
 26 54  1  0  0  0
 27 55  1  0  0  0
 27 56  1  0  0  0
 27 57  1  0  0  0
 28 29  3  0  0  0
 30 58  1  0  0  0
 30 59  1  0  0  0
 31 32  1  0  0  0
 32 37  2  0  0  0
 32 33  1  0  0  0
 33 34  2  0  0  0
 33 60  1  0  0  0
 34 35  1  0  0  0
 34 61  1  0  0  0
 35 36  2  0  0  0
 35 62  1  0  0  0
 36 37  1  0  0  0
 36 63  1  0  0  0
 37 38  1  0  0  0
M  END
> <i_i_glide_confnum>
40

> <i_i_glide_lignum>
6004

> <i_i_glide_posenum>
165

> <i_i_glide_rotatable_bonds>
8

> <i_m_Source_File_Index>
3505

> <b_m_subgroup_collapsed>
0

> <r_i_docking_score>
-5.82937

> <r_i_glide_ecoul>
-2.46005

> <r_i_glide_eff_state_penalty>
0

> <r_i_glide_einternal>
5.57857

> <r_i_glide_emodel>
-51.2323

> <r_i_glide_energy>
-39.3845

> <r_i_glide_erotb>
0.429269

> <r_i_glide_esite>
-0.0768911

> <r_i_glide_evdw>
-36.9244

> <r_i_glide_gscore>
-5.82937

> <r_i_glide_hbond>
-0.156125

> <r_i_glide_ligand_efficiency>
-0.161927

> <r_i_glide_ligand_efficiency_ln>
-1.27181

> <r_i_glide_ligand_efficiency_sa>
-0.534671

> <r_i_glide_lipo>
-3.56415

> <r_i_glide_metal>
0

> <r_i_glide_rewards>
-0.246237

> <s_i_glide_gridfile>
wee1_glide-grid

> <s_m_Source_File>
wee1_decoys_glide_SP.sdf

> <s_m_Source_Path>
/Users/zhangxujun/Desktop

> <s_m_entry_id>
3780

> <s_m_entry_name>
wee1_decoys_glide_SP.3505

> <s_m_subgroup_title>
wee1_decoys_glide_SP

> <s_m_subgroupid>
wee1_decoys_glide_SP


$$$$
