ZINC33063261_2722
                    3D
 Schrodinger Suite 2024-2.
 62 66  0  0  1  0            999 V2000
   -0.9991   51.2969   29.0379 C   0  0  0  0  0  0
   -0.0516   52.4619   29.2051 C   0  0  0  0  0  0
   -0.0956   53.2349   30.3627 C   0  0  0  0  0  0
    0.7140   54.3578   30.4821 C   0  0  0  0  0  0
    1.6263   54.6785   29.4744 C   0  0  0  0  0  0
    1.7404   53.8525   28.3371 C   0  0  0  0  0  0
    0.8837   52.7526   28.2123 C   0  0  0  0  0  0
    2.7613   54.0489   27.4182 N   0  0  0  0  0  0
    2.5579   53.8893   25.9778 C   0  0  0  0  0  0
    3.6069   54.6469   25.1375 C   0  0  0  0  0  0
    4.9652   54.2279   25.5331 N   0  0  0  0  0  0
    5.2547   54.2331   26.9852 C   0  0  0  0  0  0
    4.1050   53.5948   27.7888 C   0  0  0  0  0  0
    6.0194   54.5443   24.7251 C   0  0  0  0  0  0
    7.1044   54.9007   25.1957 O   0  0  0  0  0  0
    5.8885   54.4819   23.2095 C   0  0  0  0  0  0
    5.0119   53.6026   22.5563 C   0  0  0  0  0  0
    4.9111   53.5929   21.1662 C   0  0  0  0  0  0
    5.7064   54.4475   20.3917 C   0  0  0  0  0  0
    6.6039   55.3015   21.0373 C   0  0  0  0  0  0
    6.7046   55.3028   22.4237 C   0  0  0  0  0  0
    5.6797   54.4303   18.8583 C   0  0  1  0  0  0
    5.4985   55.4788   18.6123 H   0  0  0  0  0  0
    6.9937   54.0969   18.3001 N   0  0  0  0  0  0
    7.1459   53.4426   17.0627 C   0  0  0  0  0  0
    8.3909   52.8798   16.7711 C   0  0  0  0  0  0
    8.5735   52.1320   15.6081 C   0  0  0  0  0  0
    7.5050   51.9278   14.7362 C   0  0  0  0  0  0
    6.2514   52.4635   15.0302 C   0  0  0  0  0  0
    6.0673   53.2204   16.1905 C   0  0  0  0  0  0
    4.4574   53.8905   16.5414 S   0  0  0  0  0  0
    3.4249   53.0150   15.9778 O   0  0  0  0  0  0
    4.4583   55.3190   16.2090 O   0  0  0  0  0  0
    4.5378   53.6961   18.2730 N   0  0  0  0  0  0
    2.4462   55.9524   29.6151 C   0  0  0  0  0  0
   -0.5131   50.4967   28.4808 H   0  0  0  0  0  0
   -1.2961   50.8967   30.0076 H   0  0  0  0  0  0
   -1.8940   51.5980   28.4936 H   0  0  0  0  0  0
   -0.7834   52.9797   31.1579 H   0  0  0  0  0  0
    0.6317   54.9750   31.3658 H   0  0  0  0  0  0
    0.9537   52.1084   27.3479 H   0  0  0  0  0  0
    2.6350   52.8255   25.7461 H   0  0  0  0  0  0
    1.5483   54.1937   25.7026 H   0  0  0  0  0  0
    3.3482   54.4605   24.0992 H   0  0  0  0  0  0
    3.4757   55.6963   25.3919 H   0  0  0  0  0  0
    5.3073   55.2626   27.3430 H   0  0  0  0  0  0
    6.1501   53.6587   27.2312 H   0  0  0  0  0  0
    4.2838   53.7137   28.8580 H   0  0  0  0  0  0
    4.1180   52.5229   27.5800 H   0  0  0  0  0  0
    4.4039   52.9072   23.1141 H   0  0  0  0  0  0
    4.2234   52.9017   20.7014 H   0  0  0  0  0  0
    7.2423   55.9551   20.4609 H   0  0  0  0  0  0
    7.4231   55.9661   22.8864 H   0  0  0  0  0  0
    7.7843   54.2818   18.8977 H   0  0  0  0  0  0
    9.2215   53.0067   17.4507 H   0  0  0  0  0  0
    9.5394   51.7002   15.3900 H   0  0  0  0  0  0
    7.6443   51.3412   13.8401 H   0  0  0  0  0  0
    5.4237   52.2867   14.3581 H   0  0  0  0  0  0
    4.4944   52.7121   18.5548 H   0  0  0  0  0  0
    3.5056   55.7106   29.6812 H   0  0  0  0  0  0
    2.3042   56.5758   28.7320 H   0  0  0  0  0  0
    2.1565   56.5488   30.4811 H   0  0  0  0  0  0
  1  2  1  0  0  0
  1 36  1  0  0  0
  1 37  1  0  0  0
  1 38  1  0  0  0
  2  7  2  0  0  0
  2  3  1  0  0  0
  3  4  2  0  0  0
  3 39  1  0  0  0
  4  5  1  0  0  0
  4 40  1  0  0  0
  5  6  2  0  0  0
  5 35  1  0  0  0
  6  7  1  0  0  0
  6  8  1  0  0  0
  7 41  1  0  0  0
  8 13  1  0  0  0
  8  9  1  0  0  0
  9 10  1  0  0  0
  9 42  1  0  0  0
  9 43  1  0  0  0
 10 11  1  0  0  0
 10 44  1  0  0  0
 10 45  1  0  0  0
 11 12  1  0  0  0
 11 14  1  0  0  0
 12 13  1  0  0  0
 12 46  1  0  0  0
 12 47  1  0  0  0
 13 48  1  0  0  0
 13 49  1  0  0  0
 14 15  2  0  0  0
 14 16  1  0  0  0
 16 21  2  0  0  0
 16 17  1  0  0  0
 17 18  2  0  0  0
 17 50  1  0  0  0
 18 19  1  0  0  0
 18 51  1  0  0  0
 19 20  2  0  0  0
 19 22  1  0  0  0
 20 21  1  0  0  0
 20 52  1  0  0  0
 21 53  1  0  0  0
 22 23  1  0  0  0
 22 34  1  0  0  0
 22 24  1  0  0  0
 24 25  1  0  0  0
 24 54  1  0  0  0
 25 30  2  0  0  0
 25 26  1  0  0  0
 26 27  2  0  0  0
 26 55  1  0  0  0
 27 28  1  0  0  0
 27 56  1  0  0  0
 28 29  2  0  0  0
 28 57  1  0  0  0
 29 30  1  0  0  0
 29 58  1  0  0  0
 30 31  1  0  0  0
 31 32  2  0  0  0
 31 33  2  0  0  0
 31 34  1  0  0  0
 34 59  1  0  0  0
 35 60  1  0  0  0
 35 61  1  0  0  0
 35 62  1  0  0  0
M  END
> <i_i_glide_confnum>
155

> <i_i_glide_lignum>
2723

> <i_i_glide_posenum>
186

> <i_i_glide_rotatable_bonds>
4

> <i_m_Source_File_Index>
280

> <b_m_subgroup_collapsed>
0

> <r_i_docking_score>
-6.81745

> <r_i_glide_ecoul>
-3.67198

> <r_i_glide_eff_state_penalty>
0

> <r_i_glide_einternal>
3.15599

> <r_i_glide_emodel>
-67.2773

> <r_i_glide_energy>
-50.371

> <r_i_glide_erotb>
0.356625

> <r_i_glide_esite>
-0.080548

> <r_i_glide_evdw>
-46.699

> <r_i_glide_gscore>
-6.81745

> <r_i_glide_hbond>
-0.32

> <r_i_glide_ligand_efficiency>
-0.200513

> <r_i_glide_ligand_efficiency_ln>
-1.50617

> <r_i_glide_ligand_efficiency_sa>
-0.649585

> <r_i_glide_lipo>
-3.18581

> <r_i_glide_metal>
0

> <r_i_glide_rewards>
-0.701969

> <s_i_glide_gridfile>
wee1_glide-grid

> <s_m_Source_File>
wee1_decoys_glide_SP.sdf

> <s_m_Source_Path>
/Users/zhangxujun/Desktop

> <s_m_entry_id>
555

> <s_m_entry_name>
wee1_decoys_glide_SP.280

> <s_m_subgroup_title>
wee1_decoys_glide_SP

> <s_m_subgroupid>
wee1_decoys_glide_SP


$$$$
