ZINC01874671_3341
                    3D
 Schrodinger Suite 2024-2.
 47 50  0  0  1  0            999 V2000
    6.4319   54.6413   27.6821 C   0  0  0  0  0  0
    5.3937   54.4041   26.6091 C   0  0  0  0  0  0
    5.7719   54.4967   25.2706 C   0  0  0  0  0  0
    4.8291   54.2844   24.2729 C   0  0  0  0  0  0
    3.5075   53.9866   24.6164 C   0  0  0  0  0  0
    3.1272   53.8905   25.9553 C   0  0  0  0  0  0
    4.0750   54.0980   26.9545 C   0  0  0  0  0  0
    2.3056   53.7070   23.3263 S   0  0  0  0  0  0
    1.1045   54.4640   23.6841 O   0  0  0  0  0  0
    3.0014   53.9673   22.0651 O   0  0  0  0  0  0
    1.9037   51.9876   23.4390 N   0  0  0  0  0  0
    1.1769   51.2769   22.3363 C   0  0  2  0  0  0
    1.7143   51.5296   20.9613 C   0  0  0  0  0  0
    2.9311   51.4330   20.3926 C   0  0  0  0  0  0
    4.0742   51.1131   20.8809 O   0  5  0  0  0  0
    3.1044   51.6967   19.0683 N   0  0  0  0  0  0
    3.9752   51.4131   18.6263 H   0  0  0  0  0  0
    2.1046   52.1375   18.2446 C   0  0  0  0  0  0
    2.3670   52.4201   17.0746 O   0  0  0  0  0  0
    0.8558   52.2676   18.8500 N   0  0  0  0  0  0
    0.6014   51.9783   20.1905 C   0  0  0  0  0  0
   -0.4975   52.0967   20.8368 N   0  0  0  0  0  0
   -0.2531   51.8023   22.1626 C   0  0  0  0  0  0
   -1.0664   51.9217   23.0789 O   0  0  0  0  0  0
   -0.2187   52.7725   18.0651 C   0  0  0  0  0  0
   -0.1806   54.0888   17.5816 C   0  0  0  0  0  0
   -1.2569   54.6016   16.8631 C   0  0  0  0  0  0
   -2.3687   53.7986   16.6185 C   0  0  0  0  0  0
   -2.4122   52.4844   17.0790 C   0  0  0  0  0  0
   -1.3376   51.9689   17.7992 C   0  0  0  0  0  0
    1.1053   49.7462   22.6446 C   0  0  0  0  0  0
    0.7183   49.4974   23.8990 F   0  0  0  0  0  0
    0.2772   49.0676   21.8422 F   0  0  0  0  0  0
    2.3043   49.1916   22.4816 F   0  0  0  0  0  0
    6.0748   54.3657   28.6752 H   0  0  0  0  0  0
    6.7048   55.6955   27.6816 H   0  0  0  0  0  0
    7.3325   54.0596   27.4808 H   0  0  0  0  0  0
    6.7924   54.7263   24.9996 H   0  0  0  0  0  0
    5.1330   54.3502   23.2379 H   0  0  0  0  0  0
    2.1055   53.6565   26.2185 H   0  0  0  0  0  0
    3.7823   54.0237   27.9916 H   0  0  0  0  0  0
    1.4283   51.7779   24.3202 H   0  0  0  0  0  0
    0.6794   54.7155   17.7732 H   0  0  0  0  0  0
   -1.2265   55.6170   16.4960 H   0  0  0  0  0  0
   -3.2022   54.1968   16.0585 H   0  0  0  0  0  0
   -3.2757   51.8671   16.8789 H   0  0  0  0  0  0
   -1.3788   50.9531   18.1659 H   0  0  0  0  0  0
  1  2  1  0  0  0
  1 35  1  0  0  0
  1 36  1  0  0  0
  1 37  1  0  0  0
  2  7  2  0  0  0
  2  3  1  0  0  0
  3  4  2  0  0  0
  3 38  1  0  0  0
  4  5  1  0  0  0
  4 39  1  0  0  0
  5  6  2  0  0  0
  5  8  1  0  0  0
  6  7  1  0  0  0
  6 40  1  0  0  0
  7 41  1  0  0  0
  8  9  2  0  0  0
  8 10  2  0  0  0
  8 11  1  0  0  0
 11 12  1  0  0  0
 11 42  1  0  0  0
 12 23  1  0  0  0
 12 13  1  0  0  0
 12 31  1  0  0  0
 13 21  1  0  0  0
 13 14  2  0  0  0
 14 15  1  0  0  0
 14 16  1  0  0  0
 16 17  1  0  0  0
 16 18  1  0  0  0
 18 19  2  0  0  0
 18 20  1  0  0  0
 20 21  1  0  0  0
 20 25  1  0  0  0
 21 22  2  0  0  0
 22 23  1  0  0  0
 23 24  2  0  0  0
 25 30  2  0  0  0
 25 26  1  0  0  0
 26 27  2  0  0  0
 26 43  1  0  0  0
 27 28  1  0  0  0
 27 44  1  0  0  0
 28 29  2  0  0  0
 28 45  1  0  0  0
 29 30  1  0  0  0
 29 46  1  0  0  0
 30 47  1  0  0  0
 31 32  1  0  0  0
 31 33  1  0  0  0
 31 34  1  0  0  0
M  CHG  1  15  -1
M  END
> <i_i_glide_confnum>
61

> <i_i_glide_lignum>
3342

> <i_i_glide_posenum>
131

> <i_i_glide_rotatable_bonds>
5

> <i_m_Source_File_Index>
1933

> <b_m_subgroup_collapsed>
0

> <r_i_docking_score>
-2.24973

> <r_i_glide_ecoul>
-5.01149

> <r_i_glide_eff_state_penalty>
0

> <r_i_glide_einternal>
4.9103

> <r_i_glide_emodel>
-36.3983

> <r_i_glide_energy>
-41.5233

> <r_i_glide_erotb>
0.352803

> <r_i_glide_esite>
-0.172938

> <r_i_glide_evdw>
-36.5118

> <r_i_glide_gscore>
-2.24973

> <r_i_glide_hbond>
-0.161698

> <r_i_glide_ligand_efficiency>
-0.0681736

> <r_i_glide_ligand_efficiency_ln>
-0.500328

> <r_i_glide_ligand_efficiency_sa>
-0.218669

> <r_i_glide_lipo>
-1.83925

> <r_i_glide_metal>
0

> <r_i_glide_rewards>
2.14867

> <s_i_glide_gridfile>
wee1_glide-grid

> <s_m_Source_File>
wee1_decoys_glide_SP.sdf

> <s_m_Source_Path>
/Users/zhangxujun/Desktop

> <s_m_entry_id>
2208

> <s_m_entry_name>
wee1_decoys_glide_SP.1933

> <s_m_subgroup_title>
wee1_decoys_glide_SP

> <s_m_subgroupid>
wee1_decoys_glide_SP


$$$$
