ZINC39680063_3328
                    3D
 Schrodinger Suite 2024-2.
 59 63  0  0  1  0            999 V2000
    0.9912   53.4029   27.8707 C   0  0  0  0  0  0
    2.3167   53.6970   27.2002 C   0  0  0  0  0  0
    3.5783   54.1167   27.6623 C   0  0  0  0  0  0
    4.3807   54.2017   26.4880 C   0  0  0  0  0  0
    5.7820   54.5461   26.1642 C   0  0  0  0  0  0
    6.7044   54.9031   26.8888 O   0  0  0  0  0  0
    6.0224   54.4076   24.8210 N   0  0  0  0  0  0
    6.9718   54.6104   24.5488 H   0  0  0  0  0  0
    5.1544   53.9609   23.8434 C   0  0  0  0  0  0
    3.9152   53.7028   24.1136 N   0  0  0  0  0  0
    3.5600   53.8362   25.4243 C   0  0  0  0  0  0
    2.3148   53.5419   25.8491 O   0  0  0  0  0  0
    5.7322   53.6756   22.4675 C   0  0  0  0  0  0
    5.1731   54.8966   21.2650 S   0  0  0  0  0  0
    5.2316   54.0165   19.6708 C   0  0  1  0  0  0
    5.8403   53.1250   19.8274 H   0  0  0  0  0  0
    3.8976   53.5868   19.2804 N   0  0  0  0  0  0
    3.7984   53.0561   17.9370 C   0  0  2  0  0  0
    4.3048   52.0967   17.8372 H   0  0  0  0  0  0
    4.2816   54.0766   16.9050 C   0  0  1  0  0  0
    4.5676   53.5396   15.9992 H   0  0  0  0  0  0
    3.0971   54.9806   16.5562 C   0  0  0  0  0  0
    1.9037   54.4312   16.8826 C   0  0  0  0  0  0
    2.0518   52.7987   17.5732 S   0  0  0  0  0  0
    0.5490   55.1020   16.6700 C   0  0  0  0  0  0
    0.6998   56.6134   16.3529 C   0  0  1  0  0  0
    0.9377   57.1309   17.2817 H   0  0  0  0  0  0
    1.8640   56.8432   15.3696 C   0  0  0  0  0  0
    3.2099   56.3915   15.9703 C   0  0  0  0  0  0
   -0.6210   57.2042   15.8304 C   0  0  0  0  0  0
    5.5633   54.8558   17.2958 C   0  0  0  0  0  0
    6.1940   55.4787   16.4361 O   0  0  0  0  0  0
    5.9352   54.8120   18.6165 N   0  0  0  0  0  0
    7.1548   55.5655   18.9823 C   0  0  0  0  0  0
    6.8897   57.0481   19.2021 C   0  0  0  0  0  0
    7.4410   58.0374   18.4803 C   0  0  0  0  0  0
    3.9430   54.3858   29.0674 C   0  0  0  0  0  0
    5.0602   54.8960   29.2834 O   0  0  0  0  0  0
    3.1121   54.0973   29.9626 O   0  5  0  0  0  0
    0.3473   52.7791   27.2511 H   0  0  0  0  0  0
    1.1193   52.8765   28.8162 H   0  0  0  0  0  0
    0.4461   54.3214   28.0850 H   0  0  0  0  0  0
    6.8182   53.6965   22.4822 H   0  0  0  0  0  0
    5.4280   52.6803   22.1456 H   0  0  0  0  0  0
    3.5759   52.8697   19.9135 H   0  0  0  0  0  0
    0.0066   54.5949   15.8723 H   0  0  0  0  0  0
   -0.0605   54.9843   17.5659 H   0  0  0  0  0  0
    1.6601   56.3357   14.4257 H   0  0  0  0  0  0
    1.9254   57.9011   15.1087 H   0  0  0  0  0  0
    3.5230   57.0946   16.7436 H   0  0  0  0  0  0
    3.9959   56.4516   15.2156 H   0  0  0  0  0  0
   -1.4261   57.0636   16.5519 H   0  0  0  0  0  0
   -0.5291   58.2762   15.6541 H   0  0  0  0  0  0
   -0.9261   56.7376   14.8948 H   0  0  0  0  0  0
    7.5736   55.1417   19.8937 H   0  0  0  0  0  0
    7.9278   55.4366   18.2208 H   0  0  0  0  0  0
    6.1948   57.2978   19.9910 H   0  0  0  0  0  0
    8.1331   57.8258   17.6782 H   0  0  0  0  0  0
    7.2026   59.0739   18.6749 H   0  0  0  0  0  0
  1  2  1  0  0  0
  1 40  1  0  0  0
  1 41  1  0  0  0
  1 42  1  0  0  0
  2 12  1  0  0  0
  2  3  2  0  0  0
  3  4  1  0  0  0
  3 37  1  0  0  0
  4 11  2  0  0  0
  4  5  1  0  0  0
  5  6  2  0  0  0
  5  7  1  0  0  0
  7  8  1  0  0  0
  7  9  1  0  0  0
  9 10  2  0  0  0
  9 13  1  0  0  0
 10 11  1  0  0  0
 11 12  1  0  0  0
 13 14  1  0  0  0
 13 43  1  0  0  0
 13 44  1  0  0  0
 14 15  1  0  0  0
 15 16  1  0  0  0
 15 33  1  0  0  0
 15 17  1  0  0  0
 17 18  1  0  0  0
 17 45  1  0  0  0
 18 19  1  0  0  0
 18 24  1  0  0  0
 18 20  1  0  0  0
 20 21  1  0  0  0
 20 22  1  0  0  0
 20 31  1  0  0  0
 22 29  1  0  0  0
 22 23  2  0  0  0
 23 24  1  0  0  0
 23 25  1  0  0  0
 25 26  1  0  0  0
 25 46  1  0  0  0
 25 47  1  0  0  0
 26 27  1  0  0  0
 26 28  1  0  0  0
 26 30  1  0  0  0
 28 29  1  0  0  0
 28 48  1  0  0  0
 28 49  1  0  0  0
 29 50  1  0  0  0
 29 51  1  0  0  0
 30 52  1  0  0  0
 30 53  1  0  0  0
 30 54  1  0  0  0
 31 32  2  0  0  0
 31 33  1  0  0  0
 33 34  1  0  0  0
 34 35  1  0  0  0
 34 55  1  0  0  0
 34 56  1  0  0  0
 35 36  2  0  0  0
 35 57  1  0  0  0
 36 58  1  0  0  0
 36 59  1  0  0  0
 37 38  2  0  0  0
 37 39  1  0  0  0
M  CHG  1  39  -1
M  END
> <i_i_glide_confnum>
53

> <i_i_glide_lignum>
3329

> <i_i_glide_posenum>
75

> <i_i_glide_rotatable_bonds>
6

> <i_m_Source_File_Index>
5186

> <b_m_subgroup_collapsed>
0

> <r_i_docking_score>
-4.99417

> <r_i_glide_ecoul>
-3.27517

> <r_i_glide_eff_state_penalty>
0

> <r_i_glide_einternal>
3.94677

> <r_i_glide_emodel>
-57.4782

> <r_i_glide_energy>
-42.7464

> <r_i_glide_erotb>
0.405948

> <r_i_glide_esite>
-0.010353

> <r_i_glide_evdw>
-39.4712

> <r_i_glide_gscore>
-4.99417

> <r_i_glide_hbond>
-0.318046

> <r_i_glide_ligand_efficiency>
-0.146887

> <r_i_glide_ligand_efficiency_ln>
-1.10335

> <r_i_glide_ligand_efficiency_sa>
-0.475858

> <r_i_glide_lipo>
-1.81232

> <r_i_glide_metal>
0

> <r_i_glide_rewards>
-0.794564

> <s_i_glide_gridfile>
wee1_glide-grid

> <s_m_Source_File>
wee1_decoys_glide_SP.sdf

> <s_m_Source_Path>
/Users/zhangxujun/Desktop

> <s_m_entry_id>
5461

> <s_m_entry_name>
wee1_decoys_glide_SP.5186

> <s_m_subgroup_title>
wee1_decoys_glide_SP

> <s_m_subgroupid>
wee1_decoys_glide_SP


$$$$
