ZINC36560067_5755
                    3D
 Schrodinger Suite 2024-2.
 80 82  0  0  1  0            999 V2000
   -0.4215   52.8932   28.0815 C   0  0  0  0  0  0
    0.1770   51.4915   28.2437 C   0  0  0  0  0  0
    0.7904   50.9281   26.9508 C   0  0  0  0  0  0
   -0.2418   50.3952   25.9333 C   0  0  0  0  0  0
    0.3439   50.0425   24.6390 N   0  0  0  0  0  0
    0.5002   50.9139   23.6226 C   0  0  0  0  0  0
    0.1624   52.0954   23.7026 O   0  0  0  0  0  0
    1.1498   50.3568   22.3170 C   0  0  1  0  0  0
    2.0228   49.8398   22.7198 H   0  0  0  0  0  0
    0.3692   49.3028   21.5434 C   0  0  0  0  0  0
    1.0099   48.6622   20.4803 C   0  0  0  0  0  0
    0.3547   47.7045   19.7161 C   0  0  0  0  0  0
   -0.9618   47.3292   20.0185 C   0  0  0  0  0  0
   -1.6212   47.9470   21.0936 C   0  0  0  0  0  0
   -0.9504   48.9347   21.8373 C   0  0  0  0  0  0
   -2.9170   47.5393   21.3627 O   0  0  0  0  0  0
   -3.6364   48.1290   22.4418 C   0  0  0  0  0  0
   -1.6615   46.3691   19.3067 O   0  0  0  0  0  0
   -1.0424   45.7323   18.1939 C   0  0  0  0  0  0
    1.6200   51.4308   21.3852 N   0  0  0  0  0  0
    0.5921   52.2309   20.6885 C   0  0  0  0  0  0
    0.5164   51.9567   19.1694 C   0  0  0  0  0  0
   -0.4498   52.8955   18.4369 C   0  0  0  0  0  0
    2.9562   51.6584   21.2388 C   0  0  0  0  0  0
    3.8154   50.8988   21.6816 O   0  0  0  0  0  0
    3.4776   52.9837   20.6145 C   0  0  2  0  0  0
    2.7043   53.6431   20.2374 H   0  0  0  0  0  0
    4.4780   52.7496   19.4698 C   0  0  0  0  0  0
    5.2666   54.0465   19.4055 C   0  0  0  0  0  0
    5.3841   54.4542   20.8694 C   0  0  0  0  0  0
    4.2584   53.8103   21.5545 N   0  0  0  0  0  0
    3.9373   54.0295   22.9005 C   0  0  0  0  0  0
    2.8435   53.8165   23.4257 O   0  0  0  0  0  0
    5.0011   54.5113   23.5636 O   0  0  0  0  0  0
    4.8181   55.2950   24.7318 C   0  0  0  0  0  0
    5.1088   54.5214   25.9715 C   0  0  0  0  0  0
    4.0446   54.1036   26.7688 C   0  0  0  0  0  0
    4.3118   53.4910   27.9800 C   0  0  0  0  0  0
    5.6373   53.3142   28.3531 C   0  0  0  0  0  0
    6.6999   53.6973   27.5491 C   0  0  0  0  0  0
    6.4338   54.3056   26.3369 C   0  0  0  0  0  0
   -0.8201   53.2381   29.0352 H   0  0  0  0  0  0
   -1.2319   52.9019   27.3525 H   0  0  0  0  0  0
    0.3297   53.6131   27.7560 H   0  0  0  0  0  0
    0.9465   51.5275   29.0159 H   0  0  0  0  0  0
   -0.5894   50.8163   28.6214 H   0  0  0  0  0  0
    1.4143   51.6936   26.4874 H   0  0  0  0  0  0
    1.4659   50.1170   27.2302 H   0  0  0  0  0  0
   -0.7500   49.5264   26.3561 H   0  0  0  0  0  0
   -1.0420   51.1261   25.7936 H   0  0  0  0  0  0
    0.6569   49.0881   24.5251 H   0  0  0  0  0  0
    2.0289   48.9169   20.2293 H   0  0  0  0  0  0
    0.8983   47.2559   18.8977 H   0  0  0  0  0  0
   -1.4608   49.4250   22.6487 H   0  0  0  0  0  0
   -4.6316   47.6834   22.5062 H   0  0  0  0  0  0
   -3.1361   47.9534   23.3932 H   0  0  0  0  0  0
   -3.7619   49.2042   22.2972 H   0  0  0  0  0  0
   -1.7400   45.0235   17.7447 H   0  0  0  0  0  0
   -0.7630   46.4485   17.4246 H   0  0  0  0  0  0
   -0.1609   45.1729   18.5013 H   0  0  0  0  0  0
   -0.3894   52.0253   21.1135 H   0  0  0  0  0  0
    0.7438   53.2937   20.8824 H   0  0  0  0  0  0
    1.5023   52.0496   18.7098 H   0  0  0  0  0  0
    0.1925   50.9284   19.0072 H   0  0  0  0  0  0
   -0.5315   52.6254   17.3827 H   0  0  0  0  0  0
   -1.4467   52.8511   18.8724 H   0  0  0  0  0  0
   -0.0951   53.9257   18.4789 H   0  0  0  0  0  0
    5.1587   51.9320   19.7013 H   0  0  0  0  0  0
    3.9965   52.5122   18.5187 H   0  0  0  0  0  0
    6.2279   53.9438   18.8993 H   0  0  0  0  0  0
    4.6803   54.7961   18.8707 H   0  0  0  0  0  0
    6.3083   54.0976   21.3135 H   0  0  0  0  0  0
    5.3659   55.5397   20.9786 H   0  0  0  0  0  0
    5.5071   56.1404   24.7018 H   0  0  0  0  0  0
    3.8061   55.6876   24.8368 H   0  0  0  0  0  0
    3.0214   54.2668   26.4569 H   0  0  0  0  0  0
    3.5090   53.1585   28.6218 H   0  0  0  0  0  0
    5.8644   52.8647   29.2822 H   0  0  0  0  0  0
    7.7106   53.5258   27.8739 H   0  0  0  0  0  0
    7.2429   54.6220   25.6957 H   0  0  0  0  0  0
  1  2  1  0  0  0
  1 42  1  0  0  0
  1 43  1  0  0  0
  1 44  1  0  0  0
  2  3  1  0  0  0
  2 45  1  0  0  0
  2 46  1  0  0  0
  3  4  1  0  0  0
  3 47  1  0  0  0
  3 48  1  0  0  0
  4  5  1  0  0  0
  4 49  1  0  0  0
  4 50  1  0  0  0
  5  6  1  0  0  0
  5 51  1  0  0  0
  6  7  2  0  0  0
  6  8  1  0  0  0
  8  9  1  0  0  0
  8 10  1  0  0  0
  8 20  1  0  0  0
 10 15  2  0  0  0
 10 11  1  0  0  0
 11 12  2  0  0  0
 11 52  1  0  0  0
 12 13  1  0  0  0
 12 53  1  0  0  0
 13 14  2  0  0  0
 13 18  1  0  0  0
 14 15  1  0  0  0
 14 16  1  0  0  0
 15 54  1  0  0  0
 16 17  1  0  0  0
 17 55  1  0  0  0
 17 56  1  0  0  0
 17 57  1  0  0  0
 18 19  1  0  0  0
 19 58  1  0  0  0
 19 59  1  0  0  0
 19 60  1  0  0  0
 20 21  1  0  0  0
 20 24  1  0  0  0
 21 22  1  0  0  0
 21 61  1  0  0  0
 21 62  1  0  0  0
 22 23  1  0  0  0
 22 63  1  0  0  0
 22 64  1  0  0  0
 23 65  1  0  0  0
 23 66  1  0  0  0
 23 67  1  0  0  0
 24 25  2  0  0  0
 24 26  1  0  0  0
 26 27  1  0  0  0
 26 31  1  0  0  0
 26 28  1  0  0  0
 28 29  1  0  0  0
 28 68  1  0  0  0
 28 69  1  0  0  0
 29 30  1  0  0  0
 29 70  1  0  0  0
 29 71  1  0  0  0
 30 31  1  0  0  0
 30 72  1  0  0  0
 30 73  1  0  0  0
 31 32  1  0  0  0
 32 33  2  0  0  0
 32 34  1  0  0  0
 34 35  1  0  0  0
 35 36  1  0  0  0
 35 74  1  0  0  0
 35 75  1  0  0  0
 36 41  2  0  0  0
 36 37  1  0  0  0
 37 38  2  0  0  0
 37 76  1  0  0  0
 38 39  1  0  0  0
 38 77  1  0  0  0
 39 40  2  0  0  0
 39 78  1  0  0  0
 40 41  1  0  0  0
 40 79  1  0  0  0
 41 80  1  0  0  0
M  END
> <i_i_glide_confnum>
392

> <i_i_glide_lignum>
5756

> <i_i_glide_posenum>
242

> <i_i_glide_rotatable_bonds>
17

> <i_m_Source_File_Index>
4006

> <b_m_subgroup_collapsed>
0

> <r_i_docking_score>
-4.08016

> <r_i_glide_ecoul>
-2.71516

> <r_i_glide_eff_state_penalty>
0

> <r_i_glide_einternal>
14.5161

> <r_i_glide_emodel>
-43.1946

> <r_i_glide_energy>
-40.343

> <r_i_glide_erotb>
0.851674

> <r_i_glide_esite>
-0.00554007

> <r_i_glide_evdw>
-37.6278

> <r_i_glide_gscore>
-4.08016

> <r_i_glide_hbond>
0

> <r_i_glide_ligand_efficiency>
-0.104619

> <r_i_glide_ligand_efficiency_ln>
-0.874901

> <r_i_glide_ligand_efficiency_sa>
-0.354787

> <r_i_glide_lipo>
-2.1719

> <r_i_glide_metal>
0

> <r_i_glide_rewards>
-0.465725

> <s_i_glide_gridfile>
wee1_glide-grid

> <s_m_Source_File>
wee1_decoys_glide_SP.sdf

> <s_m_Source_Path>
/Users/zhangxujun/Desktop

> <s_m_entry_id>
4281

> <s_m_entry_name>
wee1_decoys_glide_SP.4006

> <s_m_subgroup_title>
wee1_decoys_glide_SP

> <s_m_subgroupid>
wee1_decoys_glide_SP


$$$$
