ZINC38547534_5101
                    3D
 Schrodinger Suite 2024-2.
 62 65  0  0  1  0            999 V2000
   -3.5690   49.4660   26.6723 C   0  0  0  0  0  0
   -2.5781   48.8240   25.7096 C   0  0  0  0  0  0
   -2.9156   47.6809   24.9689 C   0  0  0  0  0  0
   -1.6951   47.3126   23.8108 S   0  0  0  0  0  0
   -0.7850   48.7180   24.2641 C   0  0  0  0  0  0
   -1.2652   49.3198   25.4342 C   0  0  0  0  0  0
   -0.4966   50.4432   26.1912 C   0  0  1  0  0  0
    0.4553   50.0144   26.5109 H   0  0  0  0  0  0
   -0.1696   51.6208   25.3008 C   0  0  0  0  0  0
    1.1381   52.1291   25.2738 C   0  0  0  0  0  0
    1.4689   53.2167   24.4683 C   0  0  0  0  0  0
    0.4728   53.7613   23.6818 C   0  0  0  0  0  0
   -0.8418   53.2971   23.7560 C   0  0  0  0  0  0
   -1.1877   52.2294   24.5644 C   0  0  0  0  0  0
   -2.4873   51.7811   24.7100 O   0  0  0  0  0  0
   -3.5213   52.2919   23.8795 C   0  0  0  0  0  0
    2.7173   53.7957   24.4005 O   0  0  0  0  0  0
    3.4855   53.8707   25.5953 C   0  0  0  0  0  0
   -1.0734   50.8967   27.4728 N   0  0  0  0  0  0
   -0.4919   51.8173   28.3854 C   0  0  0  0  0  0
   -0.7723   51.6988   29.7448 C   0  0  0  0  0  0
   -0.2117   52.6148   30.6385 C   0  0  0  0  0  0
    0.6088   53.6457   30.1731 C   0  0  0  0  0  0
    0.8684   53.7325   28.8055 C   0  0  0  0  0  0
    0.3131   52.8220   27.9801 N   0  3  0  0  0  0
    0.2934   49.1456   23.4971 N   0  0  0  0  0  0
    0.2355   49.2988   22.1499 C   0  0  0  0  0  0
   -0.7246   48.9449   21.4581 O   0  0  0  0  0  0
    1.4287   49.9397   21.4787 C   0  0  0  0  0  0
    1.6195   49.7755   20.0983 C   0  0  0  0  0  0
    2.6464   50.4457   19.4422 C   0  0  0  0  0  0
    3.4893   51.2891   20.1579 C   0  0  0  0  0  0
    3.3299   51.4490   21.5278 C   0  0  0  0  0  0
    2.3121   50.7660   22.1881 C   0  0  0  0  0  0
   -4.1557   46.8138   25.0323 C   0  0  0  0  0  0
   -3.5449   50.5528   26.6155 H   0  0  0  0  0  0
   -4.6061   49.2081   26.4556 H   0  0  0  0  0  0
   -3.3675   49.2083   27.7093 H   0  0  0  0  0  0
    1.8999   51.7000   25.8984 H   0  0  0  0  0  0
    0.7124   54.6222   23.0776 H   0  0  0  0  0  0
   -1.6331   53.8442   23.2816 H   0  0  0  0  0  0
   -4.4446   51.7499   24.0837 H   0  0  0  0  0  0
   -3.7095   53.3486   24.0703 H   0  0  0  0  0  0
   -3.2851   52.1487   22.8258 H   0  0  0  0  0  0
    4.3803   54.4623   25.4055 H   0  0  0  0  0  0
    2.9308   54.3646   26.3934 H   0  0  0  0  0  0
    3.8121   52.8963   25.9501 H   0  0  0  0  0  0
   -1.7168   50.2183   27.8691 H   0  0  0  0  0  0
   -1.4112   50.9061   30.1175 H   0  0  0  0  0  0
   -0.4615   52.5414   31.6821 H   0  0  0  0  0  0
    1.0197   54.3680   30.8640 H   0  0  0  0  0  0
    1.4804   54.4970   28.3454 H   0  0  0  0  0  0
    1.0289   49.6347   23.9816 H   0  0  0  0  0  0
    0.9648   49.1421   19.5166 H   0  0  0  0  0  0
    2.7960   50.3133   18.3793 H   0  0  0  0  0  0
    4.2875   51.8039   19.6435 H   0  0  0  0  0  0
    3.9933   52.1031   22.0744 H   0  0  0  0  0  0
    2.2150   50.9099   23.2501 H   0  0  0  0  0  0
   -4.7690   47.0177   25.9092 H   0  0  0  0  0  0
   -4.7894   46.9590   24.1573 H   0  0  0  0  0  0
   -3.9038   45.7563   25.0750 H   0  0  0  0  0  0
    0.4878   52.8887   26.9863 H   0  0  0  0  0  0
  1  2  1  0  0  0
  1 36  1  0  0  0
  1 37  1  0  0  0
  1 38  1  0  0  0
  2  6  1  0  0  0
  2  3  2  0  0  0
  3  4  1  0  0  0
  3 35  1  0  0  0
  4  5  1  0  0  0
  5  6  2  0  0  0
  5 26  1  0  0  0
  6  7  1  0  0  0
  7  8  1  0  0  0
  7  9  1  0  0  0
  7 19  1  0  0  0
  9 14  2  0  0  0
  9 10  1  0  0  0
 10 11  2  0  0  0
 10 39  1  0  0  0
 11 12  1  0  0  0
 11 17  1  0  0  0
 12 13  2  0  0  0
 12 40  1  0  0  0
 13 14  1  0  0  0
 13 41  1  0  0  0
 14 15  1  0  0  0
 15 16  1  0  0  0
 16 42  1  0  0  0
 16 43  1  0  0  0
 16 44  1  0  0  0
 17 18  1  0  0  0
 18 45  1  0  0  0
 18 46  1  0  0  0
 18 47  1  0  0  0
 19 20  1  0  0  0
 19 48  1  0  0  0
 20 25  2  0  0  0
 20 21  1  0  0  0
 21 22  2  0  0  0
 21 49  1  0  0  0
 22 23  1  0  0  0
 22 50  1  0  0  0
 23 24  2  0  0  0
 23 51  1  0  0  0
 24 25  1  0  0  0
 24 52  1  0  0  0
 25 62  1  0  0  0
 26 27  1  0  0  0
 26 53  1  0  0  0
 27 28  2  0  0  0
 27 29  1  0  0  0
 29 34  2  0  0  0
 29 30  1  0  0  0
 30 31  2  0  0  0
 30 54  1  0  0  0
 31 32  1  0  0  0
 31 55  1  0  0  0
 32 33  2  0  0  0
 32 56  1  0  0  0
 33 34  1  0  0  0
 33 57  1  0  0  0
 34 58  1  0  0  0
 35 59  1  0  0  0
 35 60  1  0  0  0
 35 61  1  0  0  0
M  CHG  1  25   1
M  END
> <i_i_glide_confnum>
195

> <i_i_glide_lignum>
5102

> <i_i_glide_posenum>
101

> <i_i_glide_rotatable_bonds>
9

> <i_m_Source_File_Index>
443

> <b_m_subgroup_collapsed>
0

> <r_i_docking_score>
-2.70555

> <r_i_glide_ecoul>
-2.20379

> <r_i_glide_eff_state_penalty>
0

> <r_i_glide_einternal>
32.9628

> <r_i_glide_emodel>
-18.6255

> <r_i_glide_energy>
-30.5832

> <r_i_glide_erotb>
0.628895

> <r_i_glide_esite>
-0.100787

> <r_i_glide_evdw>
-28.3794

> <r_i_glide_gscore>
-2.70555

> <r_i_glide_hbond>
-0.126677

> <r_i_glide_ligand_efficiency>
-0.079575

> <r_i_glide_ligand_efficiency_ln>
-0.597732

> <r_i_glide_ligand_efficiency_sa>
-0.257792

> <r_i_glide_lipo>
-1.45276

> <r_i_glide_metal>
0

> <r_i_glide_rewards>
0.0953227

> <s_i_glide_gridfile>
wee1_glide-grid

> <s_m_Source_File>
wee1_decoys_glide_SP.sdf

> <s_m_Source_Path>
/Users/zhangxujun/Desktop

> <s_m_entry_id>
718

> <s_m_entry_name>
wee1_decoys_glide_SP.443

> <s_m_subgroup_title>
wee1_decoys_glide_SP

> <s_m_subgroupid>
wee1_decoys_glide_SP


$$$$
