ZINC00959844_5834
                    3D
 Schrodinger Suite 2024-2.
 44 47  0  0  1  0            999 V2000
    4.1705   58.4818   16.6363 C   0  0  0  0  0  0
    5.7011   58.4630   16.4594 C   0  0  0  0  0  0
    6.7522   58.4967   17.9571 S   0  0  0  0  0  0
    6.3044   57.0232   18.8785 C   0  0  0  0  0  0
    5.5157   56.1044   18.2203 N   0  0  0  0  0  0
    5.0311   55.0348   18.9271 C   0  0  0  0  0  0
    5.4147   54.7936   20.2081 C   0  0  0  0  0  0
    6.4685   55.6752   20.7740 C   0  0  0  0  0  0
    6.7060   56.8812   20.0843 N   0  0  0  0  0  0
    7.1086   55.2990   21.7455 O   0  0  0  0  0  0
    4.8085   53.5798   20.9916 C   0  0  2  0  0  0
    5.5771   52.8195   21.1245 H   0  0  0  0  0  0
    3.7676   52.8053   20.1014 C   0  0  0  0  0  0
    3.1179   51.5849   20.6494 C   0  0  0  0  0  0
    2.0681   50.8691   19.7821 C   0  0  0  0  0  0
    1.4187   51.8067   18.7539 C   0  0  0  0  0  0
    2.5048   52.4755   17.8990 C   0  0  0  0  0  0
    3.5265   53.1608   18.8057 C   0  0  0  0  0  0
    4.1156   54.2730   18.2662 N   0  0  0  0  0  0
    3.5069   51.0501   21.6817 O   0  0  0  0  0  0
    4.3965   53.8685   22.4582 C   0  0  0  0  0  0
    5.3633   53.8530   23.4731 C   0  0  0  0  0  0
    5.0178   54.0969   24.7970 C   0  0  0  0  0  0
    3.6845   54.2870   25.1350 C   0  0  0  0  0  0
    2.7021   54.2938   24.1452 C   0  0  0  0  0  0
    3.0593   54.0963   22.8111 C   0  0  0  0  0  0
    3.2214   54.4871   26.9717 Br  0  0  0  0  0  0
    3.6759   58.6267   15.6753 H   0  0  0  0  0  0
    3.8571   59.2981   17.2817 H   0  0  0  0  0  0
    3.7699   57.5659   17.0645 H   0  0  0  0  0  0
    6.0042   57.6231   15.8336 H   0  0  0  0  0  0
    5.9741   59.3566   15.8945 H   0  0  0  0  0  0
    2.6137   50.0976   19.2355 H   0  0  0  0  0  0
    1.3424   50.3656   20.4204 H   0  0  0  0  0  0
    0.7305   51.2500   18.1166 H   0  0  0  0  0  0
    0.8213   52.5634   19.2679 H   0  0  0  0  0  0
    1.9680   53.2269   17.3172 H   0  0  0  0  0  0
    2.9835   51.8038   17.1833 H   0  0  0  0  0  0
    3.9082   54.4951   17.3057 H   0  0  0  0  0  0
    6.3941   53.6219   23.2521 H   0  0  0  0  0  0
    5.7752   54.0712   25.5663 H   0  0  0  0  0  0
    1.6663   54.4449   24.4109 H   0  0  0  0  0  0
    2.2906   54.1050   22.0528 H   0  0  0  0  0  0
    5.2454   56.2692   17.2654 H   0  0  0  0  0  0
  1  2  1  0  0  0
  1 28  1  0  0  0
  1 29  1  0  0  0
  1 30  1  0  0  0
  2  3  1  0  0  0
  2 31  1  0  0  0
  2 32  1  0  0  0
  3  4  1  0  0  0
  4  9  2  0  0  0
  4  5  1  0  0  0
  5  6  1  0  0  0
  5 44  1  0  0  0
  6  7  2  0  0  0
  6 19  1  0  0  0
  7  8  1  0  0  0
  7 11  1  0  0  0
  8  9  1  0  0  0
  8 10  2  0  0  0
 11 12  1  0  0  0
 11 21  1  0  0  0
 11 13  1  0  0  0
 13 14  1  0  0  0
 13 18  2  0  0  0
 14 20  2  0  0  0
 14 15  1  0  0  0
 15 16  1  0  0  0
 15 33  1  0  0  0
 15 34  1  0  0  0
 16 17  1  0  0  0
 16 35  1  0  0  0
 16 36  1  0  0  0
 17 37  1  0  0  0
 17 38  1  0  0  0
 17 18  1  0  0  0
 18 19  1  0  0  0
 19 39  1  0  0  0
 21 26  2  0  0  0
 21 22  1  0  0  0
 22 23  2  0  0  0
 22 40  1  0  0  0
 23 24  1  0  0  0
 23 41  1  0  0  0
 24 25  2  0  0  0
 24 27  1  0  0  0
 25 26  1  0  0  0
 25 42  1  0  0  0
 26 43  1  0  0  0
M  END
> <i_i_glide_confnum>
6

> <i_i_glide_lignum>
5835

> <i_i_glide_posenum>
287

> <i_i_glide_rotatable_bonds>
3

> <i_m_Source_File_Index>
3181

> <b_m_subgroup_collapsed>
0

> <r_i_docking_score>
-5.43062

> <r_i_glide_ecoul>
-6.54668

> <r_i_glide_eff_state_penalty>
0

> <r_i_glide_einternal>
1.67364

> <r_i_glide_emodel>
-57.1873

> <r_i_glide_energy>
-42.9897

> <r_i_glide_erotb>
0.212907

> <r_i_glide_esite>
-0.0279084

> <r_i_glide_evdw>
-36.443

> <r_i_glide_gscore>
-5.43062

> <r_i_glide_hbond>
-0.274465

> <r_i_glide_ligand_efficiency>
-0.20887

> <r_i_glide_ligand_efficiency_ln>
-1.27536

> <r_i_glide_ligand_efficiency_sa>
-0.618777

> <r_i_glide_lipo>
-1.97138

> <r_i_glide_metal>
0

> <r_i_glide_rewards>
-0.565629

> <s_i_glide_gridfile>
wee1_glide-grid

> <s_m_Source_File>
wee1_decoys_glide_SP.sdf

> <s_m_Source_Path>
/Users/zhangxujun/Desktop

> <s_m_entry_id>
3456

> <s_m_entry_name>
wee1_decoys_glide_SP.3181

> <s_m_subgroup_title>
wee1_decoys_glide_SP

> <s_m_subgroupid>
wee1_decoys_glide_SP


$$$$
