ZINC66192404_4562
                    3D
 Schrodinger Suite 2024-2.
 48 50  0  0  1  0            999 V2000
    5.6981   53.9901   28.5289 C   0  0  0  0  0  0
    4.4016   53.6241   28.8801 C   0  0  0  0  0  0
    3.4090   53.4797   27.9005 C   0  0  0  0  0  0
    3.7533   53.7339   26.5600 C   0  0  0  0  0  0
    5.0541   54.0996   26.2051 C   0  0  0  0  0  0
    6.0318   54.2090   27.2021 C   0  0  0  0  0  0
    5.3195   54.2975   24.8410 N   0  0  0  0  0  0
    6.3270   55.0046   24.2858 C   0  0  0  0  0  0
    7.1044   55.6966   24.9433 O   0  0  0  0  0  0
    6.5082   54.9706   22.7550 C   0  0  0  0  0  0
    5.5234   54.1869   22.0382 N   0  0  0  0  0  0
    5.2671   54.2733   20.6589 C   0  0  0  0  0  0
    5.6833   55.3724   19.8941 C   0  0  0  0  0  0
    5.4005   55.4361   18.5300 C   0  0  0  0  0  0
    4.7102   54.3981   17.9103 C   0  0  0  0  0  0
    4.3044   53.2955   18.6582 C   0  0  0  0  0  0
    4.5785   53.2249   20.0255 C   0  0  0  0  0  0
    4.0737   51.8145   20.8996 Cl  0  0  0  0  0  0
    4.3671   54.4725   16.2197 Cl  0  0  0  0  0  0
    2.0096   53.0682   28.3050 C   0  0  0  0  0  0
    1.6367   53.2132   29.4702 O   0  0  0  0  0  0
    1.2500   52.5473   27.3173 N   0  0  0  0  0  0
   -0.0857   52.1168   27.3611 C   0  0  0  0  0  0
   -0.7401   51.6969   28.5287 C   0  0  0  0  0  0
   -2.0734   51.2967   28.4724 C   0  0  0  0  0  0
   -2.7613   51.2968   27.2602 C   0  0  0  0  0  0
   -2.1191   51.7010   26.0843 C   0  0  0  0  0  0
   -0.7760   52.0970   26.1455 C   0  0  0  0  0  0
   -2.8683   51.7092   24.7516 C   0  0  0  0  0  0
   -2.0430   51.4982   23.7231 F   0  0  0  0  0  0
   -3.8201   50.7750   24.7165 F   0  0  0  0  0  0
   -3.4405   52.9012   24.5871 F   0  0  0  0  0  0
    6.4650   54.0955   29.2806 H   0  0  0  0  0  0
    4.1805   53.4437   29.9220 H   0  0  0  0  0  0
    3.0120   53.6527   25.7777 H   0  0  0  0  0  0
    7.0564   54.4548   26.9776 H   0  0  0  0  0  0
    4.6694   53.8690   24.2023 H   0  0  0  0  0  0
    7.5042   54.5559   22.5997 H   0  0  0  0  0  0
    6.5956   56.0057   22.4333 H   0  0  0  0  0  0
    5.2865   53.2857   22.4282 H   0  0  0  0  0  0
    6.2183   56.1959   20.3366 H   0  0  0  0  0  0
    5.7169   56.2914   17.9508 H   0  0  0  0  0  0
    3.7942   52.4744   18.1735 H   0  0  0  0  0  0
    1.6768   52.5007   26.4078 H   0  0  0  0  0  0
   -0.2326   51.6528   29.4806 H   0  0  0  0  0  0
   -2.5594   50.9431   29.3725 H   0  0  0  0  0  0
   -3.7919   50.9694   27.2419 H   0  0  0  0  0  0
   -0.2763   52.4102   25.2398 H   0  0  0  0  0  0
  1  6  2  0  0  0
  1  2  1  0  0  0
  1 33  1  0  0  0
  2  3  2  0  0  0
  2 34  1  0  0  0
  3  4  1  0  0  0
  3 20  1  0  0  0
  4  5  2  0  0  0
  4 35  1  0  0  0
  5  6  1  0  0  0
  5  7  1  0  0  0
  6 36  1  0  0  0
  7  8  1  0  0  0
  7 37  1  0  0  0
  8  9  2  0  0  0
  8 10  1  0  0  0
 10 11  1  0  0  0
 10 38  1  0  0  0
 10 39  1  0  0  0
 11 12  1  0  0  0
 11 40  1  0  0  0
 12 17  2  0  0  0
 12 13  1  0  0  0
 13 14  2  0  0  0
 13 41  1  0  0  0
 14 15  1  0  0  0
 14 42  1  0  0  0
 15 16  2  0  0  0
 15 19  1  0  0  0
 16 17  1  0  0  0
 16 43  1  0  0  0
 17 18  1  0  0  0
 20 21  2  0  0  0
 20 22  1  0  0  0
 22 23  1  0  0  0
 22 44  1  0  0  0
 23 28  2  0  0  0
 23 24  1  0  0  0
 24 25  2  0  0  0
 24 45  1  0  0  0
 25 26  1  0  0  0
 25 46  1  0  0  0
 26 27  2  0  0  0
 26 47  1  0  0  0
 27 28  1  0  0  0
 27 29  1  0  0  0
 28 48  1  0  0  0
 29 30  1  0  0  0
 29 31  1  0  0  0
 29 32  1  0  0  0
M  END
> <i_i_glide_confnum>
98

> <i_i_glide_lignum>
4563

> <i_i_glide_posenum>
253

> <i_i_glide_rotatable_bonds>
9

> <i_m_Source_File_Index>
3888

> <b_m_subgroup_collapsed>
0

> <r_i_docking_score>
-5.3497

> <r_i_glide_ecoul>
-3.05525

> <r_i_glide_eff_state_penalty>
0

> <r_i_glide_einternal>
5.72532

> <r_i_glide_emodel>
-62.1295

> <r_i_glide_energy>
-47.4791

> <r_i_glide_erotb>
0.610703

> <r_i_glide_esite>
-0.00272846

> <r_i_glide_evdw>
-44.4238

> <r_i_glide_gscore>
-5.3497

> <r_i_glide_hbond>
-0.32

> <r_i_glide_ligand_efficiency>
-0.167178

> <r_i_glide_ligand_efficiency_ln>
-1.19794

> <r_i_glide_ligand_efficiency_sa>
-0.530758

> <r_i_glide_lipo>
-1.98282

> <r_i_glide_metal>
0

> <r_i_glide_rewards>
-0.975377

> <s_i_glide_gridfile>
wee1_glide-grid

> <s_m_Source_File>
wee1_decoys_glide_SP.sdf

> <s_m_Source_Path>
/Users/zhangxujun/Desktop

> <s_m_entry_id>
4163

> <s_m_entry_name>
wee1_decoys_glide_SP.3888

> <s_m_subgroup_title>
wee1_decoys_glide_SP

> <s_m_subgroupid>
wee1_decoys_glide_SP


$$$$
