ZINC40356169_2561
                    3D
 Schrodinger Suite 2024-2.
 51 53  0  0  1  0            999 V2000
    6.7812   53.5873   28.1677 C   0  0  0  0  0  0
    5.5041   54.2626   27.6403 C   0  0  2  0  0  0
    5.6512   55.3412   27.7008 H   0  0  0  0  0  0
    4.2688   53.9716   28.5299 C   0  0  0  0  0  0
    4.2955   54.4011   29.6823 O   0  0  0  0  0  0
    3.2275   53.2977   27.9806 N   0  0  0  0  0  0
    1.9961   52.9066   28.5568 C   0  0  0  0  0  0
    1.7990   52.8638   29.9508 C   0  0  0  0  0  0
    0.5719   52.4948   30.4943 C   0  0  0  0  0  0
   -0.4722   52.1252   29.6570 C   0  0  0  0  0  0
   -0.3042   52.1731   28.2764 C   0  0  0  0  0  0
    0.9262   52.5322   27.7073 C   0  0  0  0  0  0
    1.0274   52.5447   26.1694 C   0  0  0  0  0  0
    0.7031   51.2699   25.3833 C   0  0  0  0  0  0
    0.8053   51.3160   23.9893 C   0  0  0  0  0  0
    0.5129   50.1913   23.2216 C   0  0  0  0  0  0
    0.1064   49.0159   23.8481 C   0  0  0  0  0  0
   -0.0010   48.9543   25.2325 C   0  0  0  0  0  0
    0.3045   50.0742   25.9996 C   0  0  0  0  0  0
    5.3460   53.9100   26.2255 N   0  0  0  0  0  0
    5.9023   54.5722   25.1984 C   0  0  0  0  0  0
    6.7026   55.4971   25.3388 O   0  0  0  0  0  0
    5.4289   54.0983   24.0313 N   0  0  0  0  0  0
    5.7290   54.4863   22.7105 C   0  0  0  0  0  0
    6.8193   55.2945   22.3521 C   0  0  0  0  0  0
    7.0501   55.6200   21.0140 C   0  0  0  0  0  0
    6.1864   55.1523   20.0229 C   0  0  0  0  0  0
    5.0979   54.3513   20.3702 C   0  0  0  0  0  0
    4.8723   54.0154   21.7039 C   0  0  0  0  0  0
    3.8131   53.2334   22.0190 F   0  0  0  0  0  0
    6.9718   53.8388   29.2097 H   0  0  0  0  0  0
    6.7262   52.5024   28.0811 H   0  0  0  0  0  0
    7.6517   53.9189   27.6037 H   0  0  0  0  0  0
    3.3146   53.0654   27.0051 H   0  0  0  0  0  0
    2.5887   53.1028   30.6423 H   0  0  0  0  0  0
    0.4375   52.4586   31.5647 H   0  0  0  0  0  0
   -1.4056   51.7889   30.0796 H   0  0  0  0  0  0
   -1.1350   51.8958   27.6437 H   0  0  0  0  0  0
    0.3281   53.2966   25.8134 H   0  0  0  0  0  0
    2.0047   52.8899   25.8386 H   0  0  0  0  0  0
    1.1157   52.2249   23.4947 H   0  0  0  0  0  0
    0.5966   50.2319   22.1454 H   0  0  0  0  0  0
   -0.1238   48.1411   23.2582 H   0  0  0  0  0  0
   -0.3174   48.0451   25.7220 H   0  0  0  0  0  0
    0.2261   49.9836   27.0715 H   0  0  0  0  0  0
    4.9575   52.9966   26.0476 H   0  0  0  0  0  0
    4.7064   53.3996   24.0931 H   0  0  0  0  0  0
    7.5053   55.6711   23.0925 H   0  0  0  0  0  0
    7.9070   56.2200   20.7428 H   0  0  0  0  0  0
    6.3650   55.4006   18.9883 H   0  0  0  0  0  0
    4.4315   53.9850   19.6043 H   0  0  0  0  0  0
  1  2  1  0  0  0
  1 31  1  0  0  0
  1 32  1  0  0  0
  1 33  1  0  0  0
  2  3  1  0  0  0
  2  4  1  0  0  0
  2 20  1  0  0  0
  4  5  2  0  0  0
  4  6  1  0  0  0
  6  7  1  0  0  0
  6 34  1  0  0  0
  7 12  2  0  0  0
  7  8  1  0  0  0
  8  9  2  0  0  0
  8 35  1  0  0  0
  9 10  1  0  0  0
  9 36  1  0  0  0
 10 11  2  0  0  0
 10 37  1  0  0  0
 11 12  1  0  0  0
 11 38  1  0  0  0
 12 13  1  0  0  0
 13 14  1  0  0  0
 13 39  1  0  0  0
 13 40  1  0  0  0
 14 19  2  0  0  0
 14 15  1  0  0  0
 15 16  2  0  0  0
 15 41  1  0  0  0
 16 17  1  0  0  0
 16 42  1  0  0  0
 17 18  2  0  0  0
 17 43  1  0  0  0
 18 19  1  0  0  0
 18 44  1  0  0  0
 19 45  1  0  0  0
 20 21  1  0  0  0
 20 46  1  0  0  0
 21 22  2  0  0  0
 21 23  1  0  0  0
 23 24  1  0  0  0
 23 47  1  0  0  0
 24 29  2  0  0  0
 24 25  1  0  0  0
 25 26  2  0  0  0
 25 48  1  0  0  0
 26 27  1  0  0  0
 26 49  1  0  0  0
 27 28  2  0  0  0
 27 50  1  0  0  0
 28 29  1  0  0  0
 28 51  1  0  0  0
 29 30  1  0  0  0
M  END
> <i_i_glide_confnum>
17

> <i_i_glide_lignum>
2562

> <i_i_glide_posenum>
304

> <i_i_glide_rotatable_bonds>
9

> <i_m_Source_File_Index>
4225

> <b_m_subgroup_collapsed>
0

> <r_i_docking_score>
-6.50922

> <r_i_glide_ecoul>
-6.33097

> <r_i_glide_eff_state_penalty>
0

> <r_i_glide_einternal>
5.92479

> <r_i_glide_emodel>
-74.3935

> <r_i_glide_energy>
-55.2498

> <r_i_glide_erotb>
1.01888

> <r_i_glide_esite>
0

> <r_i_glide_evdw>
-48.9188

> <r_i_glide_gscore>
-6.50922

> <r_i_glide_hbond>
-0.257381

> <r_i_glide_ligand_efficiency>
-0.224456

> <r_i_glide_ligand_efficiency_ln>
-1.49045

> <r_i_glide_ligand_efficiency_sa>
-0.689599

> <r_i_glide_lipo>
-2.14641

> <r_i_glide_metal>
0

> <r_i_glide_rewards>
-1.72872

> <s_i_glide_gridfile>
wee1_glide-grid

> <s_m_Source_File>
wee1_decoys_glide_SP.sdf

> <s_m_Source_Path>
/Users/zhangxujun/Desktop

> <s_m_entry_id>
4500

> <s_m_entry_name>
wee1_decoys_glide_SP.4225

> <s_m_subgroup_title>
wee1_decoys_glide_SP

> <s_m_subgroupid>
wee1_decoys_glide_SP


$$$$
