ZINC39636402_2156
                    3D
 Schrodinger Suite 2024-2.
 69 72  0  0  1  0            999 V2000
   -6.0023   49.2346   29.9943 C   0  0  0  0  0  0
   -5.4492   50.1270   28.8985 C   0  0  0  0  0  0
   -4.0874   50.4162   28.8562 C   0  0  0  0  0  0
   -3.5692   51.2121   27.8380 C   0  0  0  0  0  0
   -4.4055   51.7336   26.8406 C   0  0  0  0  0  0
   -5.7857   51.4434   26.8795 C   0  0  0  0  0  0
   -6.2912   50.6394   27.9088 C   0  0  0  0  0  0
   -6.7549   51.9699   25.8249 C   0  0  0  0  0  0
   -3.8059   52.6058   25.7642 C   0  0  0  0  0  0
   -4.0972   53.8038   25.7392 O   0  0  0  0  0  0
   -2.9558   52.0410   24.8698 N   0  0  0  0  0  0
   -2.2292   52.8518   23.8899 C   0  0  0  0  0  0
   -1.2624   51.8331   23.2398 C   0  0  2  0  0  0
   -1.7391   51.5285   22.3062 H   0  0  0  0  0  0
   -1.1240   50.6610   24.2388 C   0  0  0  0  0  0
   -2.5545   50.6303   24.8274 C   0  0  0  0  0  0
   -0.0527   50.9273   25.3477 C   0  0  0  0  0  0
   -0.0272   49.8237   26.3993 C   0  0  0  0  0  0
    0.2833   48.4967   25.6788 N   0  3  0  0  0  0
   -0.6932   48.1662   24.5298 C   0  0  0  0  0  0
   -0.6838   49.3486   23.5445 C   0  0  0  0  0  0
    0.0783   52.4967   22.8538 C   0  0  0  0  0  0
    0.6568   52.1096   21.8407 O   0  0  0  0  0  0
    0.5946   53.4337   23.6768 N   0  0  0  0  0  0
    1.8549   54.1281   23.4473 C   0  0  0  0  0  0
    3.0777   53.2168   23.6353 C   0  0  0  0  0  0
    4.3466   53.9689   24.0032 C   0  0  0  0  0  0
    5.3145   54.1949   23.0199 C   0  0  0  0  0  0
    6.4934   54.8594   23.3432 C   0  0  0  0  0  0
    6.7044   55.2969   24.6469 C   0  0  0  0  0  0
    5.7606   55.0462   25.6405 C   0  0  0  0  0  0
    4.5667   54.3765   25.3307 C   0  0  0  0  0  0
    3.5879   54.0849   26.2650 O   0  0  0  0  0  0
    3.8735   54.2495   27.6494 C   0  0  0  0  0  0
   -5.2560   48.5044   30.3137 H   0  0  0  0  0  0
   -6.3037   49.8270   30.8586 H   0  0  0  0  0  0
   -6.8625   48.6658   29.6384 H   0  0  0  0  0  0
   -3.4185   50.0127   29.6073 H   0  0  0  0  0  0
   -2.5077   51.4161   27.8335 H   0  0  0  0  0  0
   -7.3460   50.4065   27.9414 H   0  0  0  0  0  0
   -7.7621   51.5716   25.9504 H   0  0  0  0  0  0
   -6.8052   53.0589   25.8697 H   0  0  0  0  0  0
   -6.4120   51.6976   24.8246 H   0  0  0  0  0  0
   -1.7030   53.6064   24.4732 H   0  0  0  0  0  0
   -2.9011   53.2972   23.1537 H   0  0  0  0  0  0
   -3.1939   50.1384   24.0920 H   0  0  0  0  0  0
   -2.6512   50.0586   25.7471 H   0  0  0  0  0  0
    0.9493   51.0482   24.9321 H   0  0  0  0  0  0
   -0.2742   51.8633   25.8617 H   0  0  0  0  0  0
    0.7456   49.9819   27.1514 H   0  0  0  0  0  0
   -0.9886   49.6968   26.8817 H   0  0  0  0  0  0
    1.2262   48.5207   25.3131 H   0  0  0  0  0  0
   -0.3316   47.2435   24.0794 H   0  0  0  0  0  0
   -1.6658   47.9848   24.9912 H   0  0  0  0  0  0
   -1.3770   49.1163   22.7337 H   0  0  0  0  0  0
    0.2915   49.4613   23.0651 H   0  0  0  0  0  0
    0.0925   53.6786   24.5164 H   0  0  0  0  0  0
    1.8833   54.8983   24.2176 H   0  0  0  0  0  0
    1.8989   54.6781   22.5033 H   0  0  0  0  0  0
    3.2241   52.6092   22.7417 H   0  0  0  0  0  0
    2.8797   52.4967   24.4284 H   0  0  0  0  0  0
    5.1524   53.8619   22.0052 H   0  0  0  0  0  0
    7.2411   55.0432   22.5854 H   0  0  0  0  0  0
    7.6110   55.8313   24.8817 H   0  0  0  0  0  0
    5.9679   55.3864   26.6431 H   0  0  0  0  0  0
    3.0324   53.8772   28.2337 H   0  0  0  0  0  0
    4.7577   53.6822   27.9474 H   0  0  0  0  0  0
    4.0164   55.2967   27.9097 H   0  0  0  0  0  0
    0.2818   47.7376   26.3617 H   0  0  0  0  0  0
  1  2  1  0  0  0
  1 35  1  0  0  0
  1 36  1  0  0  0
  1 37  1  0  0  0
  2  7  2  0  0  0
  2  3  1  0  0  0
  3  4  2  0  0  0
  3 38  1  0  0  0
  4  5  1  0  0  0
  4 39  1  0  0  0
  5  6  2  0  0  0
  5  9  1  0  0  0
  6  7  1  0  0  0
  6  8  1  0  0  0
  7 40  1  0  0  0
  8 41  1  0  0  0
  8 42  1  0  0  0
  8 43  1  0  0  0
  9 10  2  0  0  0
  9 11  1  0  0  0
 11 16  1  0  0  0
 11 12  1  0  0  0
 12 13  1  0  0  0
 12 44  1  0  0  0
 12 45  1  0  0  0
 13 14  1  0  0  0
 13 15  1  0  0  0
 13 22  1  0  0  0
 15 21  1  0  0  0
 15 16  1  0  0  0
 15 17  1  0  0  0
 16 46  1  0  0  0
 16 47  1  0  0  0
 17 18  1  0  0  0
 17 48  1  0  0  0
 17 49  1  0  0  0
 18 19  1  0  0  0
 18 50  1  0  0  0
 18 51  1  0  0  0
 19 20  1  0  0  0
 19 52  1  0  0  0
 19 69  1  0  0  0
 20 21  1  0  0  0
 20 53  1  0  0  0
 20 54  1  0  0  0
 21 55  1  0  0  0
 21 56  1  0  0  0
 22 23  2  0  0  0
 22 24  1  0  0  0
 24 25  1  0  0  0
 24 57  1  0  0  0
 25 26  1  0  0  0
 25 58  1  0  0  0
 25 59  1  0  0  0
 26 27  1  0  0  0
 26 60  1  0  0  0
 26 61  1  0  0  0
 27 32  2  0  0  0
 27 28  1  0  0  0
 28 29  2  0  0  0
 28 62  1  0  0  0
 29 30  1  0  0  0
 29 63  1  0  0  0
 30 31  2  0  0  0
 30 64  1  0  0  0
 31 32  1  0  0  0
 31 65  1  0  0  0
 32 33  1  0  0  0
 33 34  1  0  0  0
 34 66  1  0  0  0
 34 67  1  0  0  0
 34 68  1  0  0  0
M  CHG  1  19   1
M  END
> <i_i_glide_confnum>
298

> <i_i_glide_lignum>
2157

> <i_i_glide_posenum>
336

> <i_i_glide_rotatable_bonds>
8

> <i_m_Source_File_Index>
1144

> <b_m_subgroup_collapsed>
0

> <r_i_docking_score>
-4.76155

> <r_i_glide_ecoul>
-5.19788

> <r_i_glide_eff_state_penalty>
0

> <r_i_glide_einternal>
6.74378

> <r_i_glide_emodel>
-51.5882

> <r_i_glide_energy>
-40.3536

> <r_i_glide_erotb>
0.691272

> <r_i_glide_esite>
-0.0680609

> <r_i_glide_evdw>
-35.1558

> <r_i_glide_gscore>
-4.76155

> <r_i_glide_hbond>
0

> <r_i_glide_ligand_efficiency>
-0.14429

> <r_i_glide_ligand_efficiency_ln>
-1.05894

> <r_i_glide_ligand_efficiency_sa>
-0.462814

> <r_i_glide_lipo>
-2.33815

> <r_i_glide_metal>
0

> <r_i_glide_rewards>
-0.509141

> <s_i_glide_gridfile>
wee1_glide-grid

> <s_m_Source_File>
wee1_decoys_glide_SP.sdf

> <s_m_Source_Path>
/Users/zhangxujun/Desktop

> <s_m_entry_id>
1419

> <s_m_entry_name>
wee1_decoys_glide_SP.1144

> <s_m_subgroup_title>
wee1_decoys_glide_SP

> <s_m_subgroupid>
wee1_decoys_glide_SP


$$$$
