ZINC39549111_2559
                    3D
 Schrodinger Suite 2024-2.
 54 57  0  0  1  0            999 V2000
    3.2036   54.2018   26.7911 C   0  0  0  0  0  0
    2.9447   53.9106   25.4552 C   0  0  0  0  0  0
    1.7626   53.2507   25.0809 C   0  0  0  0  0  0
    0.8587   52.8850   26.0815 C   0  0  0  0  0  0
    1.1064   53.1877   27.4137 C   0  0  0  0  0  0
    2.2763   53.8568   27.7769 C   0  0  0  0  0  0
    2.5528   54.2351   29.2318 C   0  0  0  0  0  0
    3.0399   52.8163   30.2494 S   0  0  0  0  0  0
    1.3533   52.3959   30.7483 C   0  0  0  0  0  0
    0.5715   53.6737   31.0632 C   0  0  0  0  0  0
    1.1487   55.0620   30.0481 S   0  0  0  0  0  0
    1.4488   52.9026   23.6413 C   0  0  0  0  0  0
    0.3067   52.5836   23.3027 O   0  0  0  0  0  0
    2.5024   52.9348   22.8059 N   0  0  0  0  0  0
    2.6458   52.4945   21.4761 C   0  0  0  0  0  0
    1.7579   51.5648   20.9005 C   0  0  0  0  0  0
    1.9176   51.1293   19.5790 C   0  0  0  0  0  0
    2.9372   51.6970   18.8155 C   0  0  0  0  0  0
    3.8238   52.6040   19.3754 C   0  0  0  0  0  0
    3.7203   53.0150   20.7139 C   0  0  0  0  0  0
    4.6925   53.8689   21.2571 N   0  0  0  0  0  0
    5.5039   53.3878   22.4022 C   0  0  0  0  0  0
    6.2962   54.4918   23.1246 C   0  0  0  0  0  0
    7.1596   55.2969   22.1582 C   0  0  0  0  0  0
    6.3210   55.8106   20.9906 C   0  0  0  0  0  0
    5.5228   54.6781   20.3348 C   0  0  0  0  0  0
    1.0248   50.0508   19.0088 C   0  0  0  0  0  0
   -0.0839   49.8123   19.4810 O   0  0  0  0  0  0
    1.5042   49.3461   17.9802 N   0  0  0  0  0  0
    4.1188   54.7120   27.0519 H   0  0  0  0  0  0
    3.6755   54.2176   24.7256 H   0  0  0  0  0  0
   -0.0630   52.3710   25.8341 H   0  0  0  0  0  0
    0.3652   52.9249   28.1523 H   0  0  0  0  0  0
    3.3834   54.9444   29.2599 H   0  0  0  0  0  0
    0.8905   51.8373   29.9359 H   0  0  0  0  0  0
    1.3807   51.7358   31.6118 H   0  0  0  0  0  0
    0.7037   53.9561   32.1078 H   0  0  0  0  0  0
   -0.4958   53.5247   30.9104 H   0  0  0  0  0  0
    3.3219   53.4110   23.1513 H   0  0  0  0  0  0
    0.9635   51.1333   21.4918 H   0  0  0  0  0  0
    3.1026   51.4011   17.7875 H   0  0  0  0  0  0
    4.6244   52.9463   18.7390 H   0  0  0  0  0  0
    6.1647   52.5882   22.0818 H   0  0  0  0  0  0
    4.8821   52.9126   23.1534 H   0  0  0  0  0  0
    6.9379   54.0328   23.8790 H   0  0  0  0  0  0
    5.6178   55.1371   23.6829 H   0  0  0  0  0  0
    7.6434   56.1122   22.6851 H   0  0  0  0  0  0
    7.9681   54.6720   21.7799 H   0  0  0  0  0  0
    5.6552   56.6219   21.2783 H   0  0  0  0  0  0
    6.9842   56.2514   20.2436 H   0  0  0  0  0  0
    6.2033   54.0236   19.7906 H   0  0  0  0  0  0
    4.8621   55.1299   19.5914 H   0  0  0  0  0  0
    2.4582   49.4732   17.6493 H   0  0  0  0  0  0
    0.9373   48.6201   17.5745 H   0  0  0  0  0  0
  1  6  2  0  0  0
  1  2  1  0  0  0
  1 30  1  0  0  0
  2  3  2  0  0  0
  2 31  1  0  0  0
  3  4  1  0  0  0
  3 12  1  0  0  0
  4  5  2  0  0  0
  4 32  1  0  0  0
  5  6  1  0  0  0
  5 33  1  0  0  0
  6  7  1  0  0  0
  7 11  1  0  0  0
  7  8  1  0  0  0
  7 34  1  0  0  0
  8  9  1  0  0  0
  9 10  1  0  0  0
  9 35  1  0  0  0
  9 36  1  0  0  0
 10 11  1  0  0  0
 10 37  1  0  0  0
 10 38  1  0  0  0
 12 13  2  0  0  0
 12 14  1  0  0  0
 14 15  1  0  0  0
 14 39  1  0  0  0
 15 20  2  0  0  0
 15 16  1  0  0  0
 16 17  2  0  0  0
 16 40  1  0  0  0
 17 18  1  0  0  0
 17 27  1  0  0  0
 18 19  2  0  0  0
 18 41  1  0  0  0
 19 20  1  0  0  0
 19 42  1  0  0  0
 20 21  1  0  0  0
 21 26  1  0  0  0
 21 22  1  0  0  0
 22 23  1  0  0  0
 22 43  1  0  0  0
 22 44  1  0  0  0
 23 24  1  0  0  0
 23 45  1  0  0  0
 23 46  1  0  0  0
 24 25  1  0  0  0
 24 47  1  0  0  0
 24 48  1  0  0  0
 25 26  1  0  0  0
 25 49  1  0  0  0
 25 50  1  0  0  0
 26 51  1  0  0  0
 26 52  1  0  0  0
 27 28  2  0  0  0
 27 29  1  0  0  0
 29 53  1  0  0  0
 29 54  1  0  0  0
M  END
> <i_i_glide_confnum>
796

> <i_i_glide_lignum>
2560

> <i_i_glide_posenum>
275

> <i_i_glide_rotatable_bonds>
6

> <i_m_Source_File_Index>
3372

> <b_m_subgroup_collapsed>
0

> <r_i_docking_score>
-6.16018

> <r_i_glide_ecoul>
-4.90937

> <r_i_glide_eff_state_penalty>
0

> <r_i_glide_einternal>
4.20103

> <r_i_glide_emodel>
-66.8407

> <r_i_glide_energy>
-46.6728

> <r_i_glide_erotb>
0.543027

> <r_i_glide_esite>
-0.108951

> <r_i_glide_evdw>
-41.7634

> <r_i_glide_gscore>
-6.16018

> <r_i_glide_hbond>
-0.16

> <r_i_glide_ligand_efficiency>
-0.21242

> <r_i_glide_ligand_efficiency_ln>
-1.41052

> <r_i_glide_ligand_efficiency_sa>
-0.652621

> <r_i_glide_lipo>
-2.64442

> <r_i_glide_metal>
0

> <r_i_glide_rewards>
-0.965255

> <s_i_glide_gridfile>
wee1_glide-grid

> <s_m_Source_File>
wee1_decoys_glide_SP.sdf

> <s_m_Source_Path>
/Users/zhangxujun/Desktop

> <s_m_entry_id>
3647

> <s_m_entry_name>
wee1_decoys_glide_SP.3372

> <s_m_subgroup_title>
wee1_decoys_glide_SP

> <s_m_subgroupid>
wee1_decoys_glide_SP


$$$$
