ZINC36630733_443
                    3D
 Schrodinger Suite 2024-2.
 55 57  0  0  1  0            999 V2000
    2.8501   50.4258   19.9532 C   0  0  0  0  0  0
    2.6543   51.7164   19.1283 C   0  0  0  0  0  0
    1.1582   52.0792   19.0513 C   0  0  0  0  0  0
    3.5497   52.9386   19.5442 C   0  0  1  0  0  0
    3.0650   53.8344   19.1540 H   0  0  0  0  0  0
    3.5868   53.1897   21.0911 C   0  0  0  0  0  0
    2.5997   52.8967   21.7713 O   0  0  0  0  0  0
    4.7091   53.7515   21.6009 N   0  0  0  0  0  0
    4.9610   54.0405   22.9339 C   0  0  0  0  0  0
    4.1117   53.9642   23.9285 N   0  0  0  0  0  0
    4.6599   54.1836   25.1128 C   0  0  0  0  0  0
    6.0137   54.5363   25.0405 C   0  0  0  0  0  0
    6.5631   54.4976   23.3890 S   0  0  0  0  0  0
    3.8383   53.9829   26.3546 C   0  0  0  0  0  0
    4.4380   54.0152   27.6196 C   0  0  0  0  0  0
    3.6917   53.7341   28.7618 C   0  0  0  0  0  0
    2.3300   53.4214   28.6467 C   0  0  0  0  0  0
    1.7187   53.4287   27.3966 C   0  0  0  0  0  0
    2.4689   53.6961   26.2592 C   0  0  0  0  0  0
    1.5049   53.1053   29.7353 N   0  0  0  0  0  0
    1.8547   52.4967   30.8816 C   0  0  0  0  0  0
    2.9870   52.0967   31.1566 O   0  0  0  0  0  0
    0.7184   52.2700   31.8666 C   0  0  0  0  0  0
    4.8534   52.8967   18.8502 N   0  0  0  0  0  0
    5.6617   53.9595   18.6423 C   0  0  0  0  0  0
    5.3938   55.0892   19.0561 O   0  0  0  0  0  0
    6.9782   53.7069   17.9504 C   0  0  0  0  0  0
    7.1137   52.6995   16.9863 C   0  0  0  0  0  0
    8.3492   52.4564   16.3921 C   0  0  0  0  0  0
    9.4522   53.2298   16.7464 C   0  0  0  0  0  0
    9.3261   54.2535   17.6817 C   0  0  0  0  0  0
    8.0907   54.4970   18.2760 C   0  0  0  0  0  0
   10.9865   52.9183   16.0203 Cl  0  0  0  0  0  0
    2.4048   50.4910   20.9453 H   0  0  0  0  0  0
    2.3956   49.5718   19.4507 H   0  0  0  0  0  0
    3.9058   50.2029   20.0787 H   0  0  0  0  0  0
    2.9378   51.4480   18.1075 H   0  0  0  0  0  0
    0.7599   52.3752   20.0215 H   0  0  0  0  0  0
    0.9905   52.9068   18.3612 H   0  0  0  0  0  0
    0.5683   51.2339   18.6967 H   0  0  0  0  0  0
    5.4396   53.9745   20.9409 H   0  0  0  0  0  0
    6.6988   54.7585   25.8433 H   0  0  0  0  0  0
    5.4903   54.2300   27.7292 H   0  0  0  0  0  0
    4.1828   53.7548   29.7226 H   0  0  0  0  0  0
    0.6690   53.1949   27.2909 H   0  0  0  0  0  0
    1.9739   53.6624   25.2992 H   0  0  0  0  0  0
    0.5168   53.2333   29.5820 H   0  0  0  0  0  0
    0.3220   53.2175   32.2297 H   0  0  0  0  0  0
   -0.0919   51.7144   31.3917 H   0  0  0  0  0  0
    1.0582   51.6969   32.7291 H   0  0  0  0  0  0
    5.1058   51.9715   18.4843 H   0  0  0  0  0  0
    6.2666   52.0954   16.6960 H   0  0  0  0  0  0
    8.4510   51.6668   15.6624 H   0  0  0  0  0  0
   10.1848   54.8509   17.9536 H   0  0  0  0  0  0
    8.0118   55.2885   19.0082 H   0  0  0  0  0  0
  1  2  1  0  0  0
  1 34  1  0  0  0
  1 35  1  0  0  0
  1 36  1  0  0  0
  2  3  1  0  0  0
  2  4  1  0  0  0
  2 37  1  0  0  0
  3 38  1  0  0  0
  3 39  1  0  0  0
  3 40  1  0  0  0
  4  5  1  0  0  0
  4  6  1  0  0  0
  4 24  1  0  0  0
  6  7  2  0  0  0
  6  8  1  0  0  0
  8  9  1  0  0  0
  8 41  1  0  0  0
  9 13  1  0  0  0
  9 10  2  0  0  0
 10 11  1  0  0  0
 11 12  2  0  0  0
 11 14  1  0  0  0
 12 13  1  0  0  0
 12 42  1  0  0  0
 14 19  2  0  0  0
 14 15  1  0  0  0
 15 16  2  0  0  0
 15 43  1  0  0  0
 16 17  1  0  0  0
 16 44  1  0  0  0
 17 18  2  0  0  0
 17 20  1  0  0  0
 18 19  1  0  0  0
 18 45  1  0  0  0
 19 46  1  0  0  0
 20 21  1  0  0  0
 20 47  1  0  0  0
 21 22  2  0  0  0
 21 23  1  0  0  0
 23 48  1  0  0  0
 23 49  1  0  0  0
 23 50  1  0  0  0
 24 25  1  0  0  0
 24 51  1  0  0  0
 25 26  2  0  0  0
 25 27  1  0  0  0
 27 32  2  0  0  0
 27 28  1  0  0  0
 28 29  2  0  0  0
 28 52  1  0  0  0
 29 30  1  0  0  0
 29 53  1  0  0  0
 30 31  2  0  0  0
 30 33  1  0  0  0
 31 32  1  0  0  0
 31 54  1  0  0  0
 32 55  1  0  0  0
M  END
> <i_i_glide_confnum>
178

> <i_i_glide_lignum>
444

> <i_i_glide_posenum>
365

> <i_i_glide_rotatable_bonds>
10

> <i_m_Source_File_Index>
5984

> <b_m_subgroup_collapsed>
0

> <r_i_docking_score>
-6.37023

> <r_i_glide_ecoul>
-7.11736

> <r_i_glide_eff_state_penalty>
0

> <r_i_glide_einternal>
11.1249

> <r_i_glide_emodel>
-70.6676

> <r_i_glide_energy>
-54.5085

> <r_i_glide_erotb>
0.637754

> <r_i_glide_esite>
-0.167813

> <r_i_glide_evdw>
-47.3911

> <r_i_glide_gscore>
-6.37023

> <r_i_glide_hbond>
-0.456113

> <r_i_glide_ligand_efficiency>
-0.19907

> <r_i_glide_ligand_efficiency_ln>
-1.42647

> <r_i_glide_ligand_efficiency_sa>
-0.632007

> <r_i_glide_lipo>
-2.70685

> <r_i_glide_metal>
0

> <r_i_glide_rewards>
-0.240049

> <s_i_glide_gridfile>
wee1_glide-grid

> <s_m_Source_File>
wee1_decoys_glide_SP.sdf

> <s_m_Source_Path>
/Users/zhangxujun/Desktop

> <s_m_entry_id>
6259

> <s_m_entry_name>
wee1_decoys_glide_SP.5984

> <s_m_subgroup_title>
wee1_decoys_glide_SP

> <s_m_subgroupid>
wee1_decoys_glide_SP


$$$$
