ZINC40961041_186
                    3D
 Schrodinger Suite 2024-2.
 57 61  0  0  1  0            999 V2000
    1.9652   53.2961   25.4354 C   0  0  0  0  0  0
    2.2771   53.6238   26.7538 C   0  0  0  0  0  0
    1.6238   52.9820   27.8121 C   0  0  0  0  0  0
    0.6576   52.0119   27.5346 C   0  0  0  0  0  0
    0.3475   51.6864   26.2173 C   0  0  0  0  0  0
    1.0015   52.3193   25.1507 C   0  0  0  0  0  0
    0.6884   51.9345   23.7285 C   0  0  0  0  0  0
    1.4628   52.2756   22.7105 N   0  0  0  0  0  0
    0.8642   51.7064   21.6940 C   0  0  0  0  0  0
   -0.2716   51.0546   22.0366 O   0  0  0  0  0  0
   -0.3743   51.2157   23.4164 N   0  0  0  0  0  0
    1.2403   51.7048   20.2193 C   0  0  0  0  0  0
    2.5491   52.4971   19.9683 N   0  3  1  0  0  0
    3.7932   51.6747   20.3711 C   0  0  0  0  0  0
    5.0239   52.5914   20.2762 C   0  0  0  0  0  0
    5.1963   53.2960   18.9029 C   0  0  1  0  0  0
    3.8569   53.8614   18.3606 C   0  0  0  0  0  0
    2.6701   52.8920   18.4815 C   0  0  0  0  0  0
    6.3053   54.2529   18.8124 N   0  0  0  0  0  0
    6.3936   55.4103   19.4931 C   0  0  0  0  0  0
    5.6862   55.6876   20.4596 O   0  0  0  0  0  0
    7.3396   56.4320   18.9280 C   0  0  0  0  0  0
    6.8614   57.7219   18.6704 C   0  0  0  0  0  0
    7.6533   58.7155   18.0990 C   0  0  0  0  0  0
    8.9761   58.3780   17.8045 C   0  0  0  0  0  0
    9.5093   57.0824   18.0805 C   0  0  0  0  0  0
    8.6726   56.1052   18.6428 C   0  0  0  0  0  0
   10.8840   57.1117   17.6796 C   0  0  0  0  0  0
   11.1388   58.3629   17.1600 C   0  0  0  0  0  0
    9.9927   59.1152   17.2309 N   0  0  0  0  0  0
    9.9384   60.0636   16.8878 H   0  0  0  0  0  0
    1.9502   53.3178   29.2679 C   0  0  0  0  0  0
    2.3374   52.2141   29.9119 F   0  0  0  0  0  0
    2.9229   54.2247   29.3797 F   0  0  0  0  0  0
    0.8611   53.8033   29.8672 F   0  0  0  0  0  0
    2.4853   53.8029   24.6353 H   0  0  0  0  0  0
    3.0292   54.3759   26.9422 H   0  0  0  0  0  0
    0.1473   51.5003   28.3402 H   0  0  0  0  0  0
   -0.3955   50.9218   26.0374 H   0  0  0  0  0  0
    0.4683   52.2098   19.6370 H   0  0  0  0  0  0
    1.3923   50.7085   19.7999 H   0  0  0  0  0  0
    3.8560   50.8154   19.6989 H   0  0  0  0  0  0
    3.6578   51.3304   21.3978 H   0  0  0  0  0  0
    5.9043   51.9935   20.4922 H   0  0  0  0  0  0
    4.9325   53.3353   21.0679 H   0  0  0  0  0  0
    5.4495   52.4967   18.2022 H   0  0  0  0  0  0
    3.5934   54.7661   18.9122 H   0  0  0  0  0  0
    3.9762   54.1534   17.3163 H   0  0  0  0  0  0
    2.7920   51.9819   17.8870 H   0  0  0  0  0  0
    1.7495   53.4045   18.1965 H   0  0  0  0  0  0
    7.0304   54.0429   18.1428 H   0  0  0  0  0  0
    5.8301   57.9632   18.8870 H   0  0  0  0  0  0
    7.2455   59.6950   17.8851 H   0  0  0  0  0  0
    9.0646   55.1205   18.8570 H   0  0  0  0  0  0
   11.6015   56.3084   17.7601 H   0  0  0  0  0  0
   12.0424   58.7843   16.7392 H   0  0  0  0  0  0
    2.4791   53.3491   20.5158 H   0  0  0  0  0  0
  1  6  2  0  0  0
  1  2  1  0  0  0
  1 36  1  0  0  0
  2  3  2  0  0  0
  2 37  1  0  0  0
  3  4  1  0  0  0
  3 32  1  0  0  0
  4  5  2  0  0  0
  4 38  1  0  0  0
  5  6  1  0  0  0
  5 39  1  0  0  0
  6  7  1  0  0  0
  7 11  2  0  0  0
  7  8  1  0  0  0
  8  9  2  0  0  0
  9 10  1  0  0  0
  9 12  1  0  0  0
 10 11  1  0  0  0
 12 13  1  0  0  0
 12 40  1  0  0  0
 12 41  1  0  0  0
 13 18  1  0  0  0
 13 14  1  0  0  0
 13 57  1  0  0  0
 14 15  1  0  0  0
 14 42  1  0  0  0
 14 43  1  0  0  0
 15 16  1  0  0  0
 15 44  1  0  0  0
 15 45  1  0  0  0
 16 17  1  0  0  0
 16 19  1  0  0  0
 16 46  1  0  0  0
 17 18  1  0  0  0
 17 47  1  0  0  0
 17 48  1  0  0  0
 18 49  1  0  0  0
 18 50  1  0  0  0
 19 20  1  0  0  0
 19 51  1  0  0  0
 20 21  2  0  0  0
 20 22  1  0  0  0
 22 27  2  0  0  0
 22 23  1  0  0  0
 23 24  2  0  0  0
 23 52  1  0  0  0
 24 25  1  0  0  0
 24 53  1  0  0  0
 25 30  1  0  0  0
 25 26  2  0  0  0
 26 27  1  0  0  0
 26 28  1  0  0  0
 27 54  1  0  0  0
 28 29  2  0  0  0
 28 55  1  0  0  0
 29 30  1  0  0  0
 29 56  1  0  0  0
 30 31  1  0  0  0
 32 33  1  0  0  0
 32 34  1  0  0  0
 32 35  1  0  0  0
M  CHG  1  13   1
M  END
> <i_i_glide_confnum>
50

> <i_i_glide_lignum>
187

> <i_i_glide_posenum>
362

> <i_i_glide_rotatable_bonds>
7

> <i_m_Source_File_Index>
2332

> <b_m_subgroup_collapsed>
0

> <r_i_docking_score>
-3.79562

> <r_i_glide_ecoul>
-5.55157

> <r_i_glide_eff_state_penalty>
0

> <r_i_glide_einternal>
10.666

> <r_i_glide_emodel>
-46.7172

> <r_i_glide_energy>
-39.5149

> <r_i_glide_erotb>
0.547719

> <r_i_glide_esite>
-0.0438685

> <r_i_glide_evdw>
-33.9633

> <r_i_glide_gscore>
-3.79562

> <r_i_glide_hbond>
0

> <r_i_glide_ligand_efficiency>
-0.111636

> <r_i_glide_ligand_efficiency_ln>
-0.838558

> <r_i_glide_ligand_efficiency_sa>
-0.361657

> <r_i_glide_lipo>
-0.947359

> <r_i_glide_metal>
0

> <r_i_glide_rewards>
-0.821206

> <s_i_glide_gridfile>
wee1_glide-grid

> <s_m_Source_File>
wee1_decoys_glide_SP.sdf

> <s_m_Source_Path>
/Users/zhangxujun/Desktop

> <s_m_entry_id>
2607

> <s_m_entry_name>
wee1_decoys_glide_SP.2332

> <s_m_subgroup_title>
wee1_decoys_glide_SP

> <s_m_subgroupid>
wee1_decoys_glide_SP


$$$$
