ZINC09332305_2299
                    3D
 Schrodinger Suite 2024-2.
 55 58  0  0  1  0            999 V2000
   -4.1506   46.6160   24.8721 C   0  0  0  0  0  0
   -2.7326   46.0976   25.1469 C   0  0  0  0  0  0
   -1.8516   47.1224   25.6822 N   0  0  0  0  0  0
   -1.2086   48.0420   24.9556 C   0  0  0  0  0  0
   -0.9027   47.8805   23.7712 O   0  0  0  0  0  0
   -1.0726   49.1657   25.6809 N   0  0  0  0  0  0
   -1.0597   50.4199   25.1829 C   0  0  0  0  0  0
   -0.6701   50.7290   24.0523 O   0  0  0  0  0  0
   -1.6010   51.5003   26.1358 C   0  0  2  0  0  0
   -2.4801   51.0506   26.5998 H   0  0  0  0  0  0
   -2.1518   52.7462   25.4097 C   0  0  0  0  0  0
   -0.5154   51.8330   27.5703 S   0  0  0  0  0  0
    0.9868   52.6613   26.9263 C   0  0  0  0  0  0
    1.1118   52.7759   25.6504 N   0  0  0  0  0  0
    2.2641   53.2985   25.1653 C   0  0  0  0  0  0
    3.3250   53.7547   25.9371 C   0  0  0  0  0  0
    4.4254   54.1718   25.1512 C   0  0  0  0  0  0
    4.1540   54.0568   23.7755 C   0  0  0  0  0  0
    2.5499   53.4622   23.4672 S   0  0  0  0  0  0
    5.1282   54.3959   22.6497 C   0  0  0  0  0  0
    6.5350   54.6610   23.2374 C   0  0  0  0  0  0
    6.5106   55.4522   24.5613 C   0  0  0  0  0  0
    5.7608   54.6988   25.6765 C   0  0  0  0  0  0
    3.1845   53.7518   27.3959 C   0  0  0  0  0  0
    4.0096   54.2143   28.1916 O   0  0  0  0  0  0
    1.9708   53.1781   27.7910 N   0  0  0  0  0  0
    1.7313   53.1245   29.1932 C   0  0  0  0  0  0
    0.6607   53.8463   29.7455 C   0  0  0  0  0  0
    0.3075   53.6771   31.0809 C   0  0  0  0  0  0
    1.0024   52.7699   31.8720 C   0  0  0  0  0  0
    2.1096   52.1000   31.3616 C   0  0  0  0  0  0
    2.4827   52.2827   30.0310 C   0  0  0  0  0  0
    3.5558   51.6162   29.5586 F   0  0  0  0  0  0
   -4.7873   45.8219   24.4812 H   0  0  0  0  0  0
   -4.1465   47.4219   24.1375 H   0  0  0  0  0  0
   -4.6178   46.9868   25.7831 H   0  0  0  0  0  0
   -2.7713   45.2969   25.8834 H   0  0  0  0  0  0
   -2.3007   45.6969   24.2289 H   0  0  0  0  0  0
   -1.7934   47.1994   26.6928 H   0  0  0  0  0  0
   -1.2927   49.0666   26.6686 H   0  0  0  0  0  0
   -2.8971   52.4739   24.6616 H   0  0  0  0  0  0
   -2.6374   53.4216   26.1135 H   0  0  0  0  0  0
   -1.3695   53.2963   24.8917 H   0  0  0  0  0  0
    5.1932   53.5723   21.9371 H   0  0  0  0  0  0
    4.7897   55.2629   22.0806 H   0  0  0  0  0  0
    7.0381   53.7083   23.4091 H   0  0  0  0  0  0
    7.1456   55.1888   22.5026 H   0  0  0  0  0  0
    7.5295   55.6596   24.8831 H   0  0  0  0  0  0
    6.0478   56.4289   24.4241 H   0  0  0  0  0  0
    5.6253   55.3602   26.5328 H   0  0  0  0  0  0
    6.3649   53.8613   26.0294 H   0  0  0  0  0  0
    0.0690   54.4991   29.1219 H   0  0  0  0  0  0
   -0.4956   54.2414   31.5138 H   0  0  0  0  0  0
    0.7048   52.6146   32.8983 H   0  0  0  0  0  0
    2.6720   51.4419   32.0082 H   0  0  0  0  0  0
  1  2  1  0  0  0
  1 34  1  0  0  0
  1 35  1  0  0  0
  1 36  1  0  0  0
  2  3  1  0  0  0
  2 37  1  0  0  0
  2 38  1  0  0  0
  3  4  1  0  0  0
  3 39  1  0  0  0
  4  5  2  0  0  0
  4  6  1  0  0  0
  6  7  1  0  0  0
  6 40  1  0  0  0
  7  8  2  0  0  0
  7  9  1  0  0  0
  9 10  1  0  0  0
  9 11  1  0  0  0
  9 12  1  0  0  0
 11 41  1  0  0  0
 11 42  1  0  0  0
 11 43  1  0  0  0
 12 13  1  0  0  0
 13 26  1  0  0  0
 13 14  2  0  0  0
 14 15  1  0  0  0
 15 19  1  0  0  0
 15 16  2  0  0  0
 16 17  1  0  0  0
 16 24  1  0  0  0
 17 23  1  0  0  0
 17 18  2  0  0  0
 18 19  1  0  0  0
 18 20  1  0  0  0
 20 21  1  0  0  0
 20 44  1  0  0  0
 20 45  1  0  0  0
 21 22  1  0  0  0
 21 46  1  0  0  0
 21 47  1  0  0  0
 22 23  1  0  0  0
 22 48  1  0  0  0
 22 49  1  0  0  0
 23 50  1  0  0  0
 23 51  1  0  0  0
 24 25  2  0  0  0
 24 26  1  0  0  0
 26 27  1  0  0  0
 27 32  2  0  0  0
 27 28  1  0  0  0
 28 29  2  0  0  0
 28 52  1  0  0  0
 29 30  1  0  0  0
 29 53  1  0  0  0
 30 31  2  0  0  0
 30 54  1  0  0  0
 31 32  1  0  0  0
 31 55  1  0  0  0
 32 33  1  0  0  0
M  END
> <i_i_glide_confnum>
49

> <i_i_glide_lignum>
2300

> <i_i_glide_posenum>
171

> <i_i_glide_rotatable_bonds>
8

> <i_m_Source_File_Index>
482

> <b_m_subgroup_collapsed>
0

> <r_i_docking_score>
-6.24378

> <r_i_glide_ecoul>
-6.25554

> <r_i_glide_eff_state_penalty>
0

> <r_i_glide_einternal>
5.17694

> <r_i_glide_emodel>
-66.5122

> <r_i_glide_energy>
-50.6306

> <r_i_glide_erotb>
0.628949

> <r_i_glide_esite>
-0.300448

> <r_i_glide_evdw>
-44.375

> <r_i_glide_gscore>
-6.24378

> <r_i_glide_hbond>
-0.304

> <r_i_glide_ligand_efficiency>
-0.195118

> <r_i_glide_ligand_efficiency_ln>
-1.39815

> <r_i_glide_ligand_efficiency_sa>
-0.619461

> <r_i_glide_lipo>
-2.87033

> <r_i_glide_metal>
0

> <r_i_glide_rewards>
-0.240873

> <s_i_glide_gridfile>
wee1_glide-grid

> <s_m_Source_File>
wee1_decoys_glide_SP.sdf

> <s_m_Source_Path>
/Users/zhangxujun/Desktop

> <s_m_entry_id>
757

> <s_m_entry_name>
wee1_decoys_glide_SP.482

> <s_m_subgroup_title>
wee1_decoys_glide_SP

> <s_m_subgroupid>
wee1_decoys_glide_SP


$$$$
