ZINC21327869_2498
                    3D
 Schrodinger Suite 2024-2.
 43 45  0  0  1  0            999 V2000
    2.5887   54.0962   27.0978 C   0  0  0  0  0  0
    3.3060   54.0947   25.9008 C   0  0  0  0  0  0
    4.7035   54.1446   25.9122 C   0  0  0  0  0  0
    5.3832   54.1293   27.1498 C   0  0  0  0  0  0
    4.6539   54.1554   28.3380 C   0  0  0  0  0  0
    3.2619   54.1448   28.3163 C   0  0  0  0  0  0
    2.3769   54.1753   29.7973 Cl  0  0  0  0  0  0
    7.1044   54.0140   27.2812 Cl  0  0  0  0  0  0
    5.3482   54.0967   24.6653 N   0  0  0  0  0  0
    6.3044   54.9389   24.2347 C   0  0  0  0  0  0
    6.7043   55.9056   24.8816 O   0  0  0  0  0  0
    6.9315   54.6219   22.8751 C   0  0  0  0  0  0
    5.9044   55.0678   21.4273 S   0  0  0  0  0  0
    5.0472   53.5583   21.1092 C   0  0  0  0  0  0
    5.1030   52.4956   21.8716 N   0  0  0  0  0  0
    4.3292   51.5043   21.2817 N   0  0  0  0  0  0
    3.7862   52.0326   20.2198 C   0  0  0  0  0  0
    4.2144   53.3292   20.0333 N   0  0  0  0  0  0
    3.9043   54.1973   18.9965 N   0  0  0  0  0  0
    2.9390   51.3681   19.3557 N   0  0  0  0  0  0
    1.5456   51.0978   19.4637 N   0  0  0  0  0  0
    0.7960   51.4625   20.4334 C   0  0  0  0  0  0
   -0.6913   51.1209   20.4890 C   0  0  0  0  0  0
   -1.2798   51.9323   21.6421 C   0  0  0  0  0  0
   -0.1247   52.1091   22.6060 C   0  0  0  0  0  0
    1.1090   52.2493   21.7145 C   0  0  0  0  0  0
    1.5091   54.0664   27.0811 H   0  0  0  0  0  0
    2.7673   54.0622   24.9644 H   0  0  0  0  0  0
    5.1753   54.1697   29.2811 H   0  0  0  0  0  0
    4.9450   53.4795   23.9753 H   0  0  0  0  0  0
    7.8279   55.2274   22.7664 H   0  0  0  0  0  0
    7.2726   53.5878   22.8817 H   0  0  0  0  0  0
    3.2405   54.8944   19.3097 H   0  0  0  0  0  0
    4.7351   54.6361   18.6280 H   0  0  0  0  0  0
    3.3647   50.9103   18.5520 H   0  0  0  0  0  0
   -1.1884   51.3342   19.5418 H   0  0  0  0  0  0
   -0.8043   50.0537   20.6856 H   0  0  0  0  0  0
   -1.6419   52.8962   21.2870 H   0  0  0  0  0  0
   -2.1211   51.4219   22.1140 H   0  0  0  0  0  0
   -0.0290   51.2304   23.2478 H   0  0  0  0  0  0
   -0.2634   52.9726   23.2579 H   0  0  0  0  0  0
    1.9814   51.8613   22.2360 H   0  0  0  0  0  0
    1.2947   53.2962   21.4677 H   0  0  0  0  0  0
  1  6  2  0  0  0
  1  2  1  0  0  0
  1 27  1  0  0  0
  2  3  2  0  0  0
  2 28  1  0  0  0
  3  4  1  0  0  0
  3  9  1  0  0  0
  4  5  2  0  0  0
  4  8  1  0  0  0
  5  6  1  0  0  0
  5 29  1  0  0  0
  6  7  1  0  0  0
  9 10  1  0  0  0
  9 30  1  0  0  0
 10 11  2  0  0  0
 10 12  1  0  0  0
 12 13  1  0  0  0
 12 31  1  0  0  0
 12 32  1  0  0  0
 13 14  1  0  0  0
 14 18  1  0  0  0
 14 15  2  0  0  0
 15 16  1  0  0  0
 16 17  2  0  0  0
 17 18  1  0  0  0
 17 20  1  0  0  0
 18 19  1  0  0  0
 19 33  1  0  0  0
 19 34  1  0  0  0
 20 21  1  0  0  0
 20 35  1  0  0  0
 21 22  2  0  0  0
 22 26  1  0  0  0
 22 23  1  0  0  0
 23 24  1  0  0  0
 23 36  1  0  0  0
 23 37  1  0  0  0
 24 25  1  0  0  0
 24 38  1  0  0  0
 24 39  1  0  0  0
 25 26  1  0  0  0
 25 40  1  0  0  0
 25 41  1  0  0  0
 26 42  1  0  0  0
 26 43  1  0  0  0
M  END
> <i_i_glide_confnum>
45

> <i_i_glide_lignum>
2499

> <i_i_glide_posenum>
262

> <i_i_glide_rotatable_bonds>
7

> <i_m_Source_File_Index>
1780

> <b_m_subgroup_collapsed>
0

> <r_i_docking_score>
-5.9761

> <r_i_glide_ecoul>
-6.42016

> <r_i_glide_eff_state_penalty>
0

> <r_i_glide_einternal>
9.31106

> <r_i_glide_emodel>
-59.3259

> <r_i_glide_energy>
-45.6538

> <r_i_glide_erotb>
0.68986

> <r_i_glide_esite>
-0.168752

> <r_i_glide_evdw>
-39.2337

> <r_i_glide_gscore>
-5.9761

> <r_i_glide_hbond>
-0.465919

> <r_i_glide_ligand_efficiency>
-0.22985

> <r_i_glide_ligand_efficiency_ln>
-1.40347

> <r_i_glide_ligand_efficiency_sa>
-0.680929

> <r_i_glide_lipo>
-1.91539

> <r_i_glide_metal>
0

> <r_i_glide_rewards>
-1.19119

> <s_i_glide_gridfile>
wee1_glide-grid

> <s_m_Source_File>
wee1_decoys_glide_SP.sdf

> <s_m_Source_Path>
/Users/zhangxujun/Desktop

> <s_m_entry_id>
2055

> <s_m_entry_name>
wee1_decoys_glide_SP.1780

> <s_m_subgroup_title>
wee1_decoys_glide_SP

> <s_m_subgroupid>
wee1_decoys_glide_SP


$$$$
