ZINC20695981_2358
                    3D
 Schrodinger Suite 2024-2.
 54 57  0  0  1  0            999 V2000
    2.5485   52.4120   15.0781 C   0  0  0  0  0  0
    2.1546   52.6428   16.5490 C   0  0  0  0  0  0
    3.2730   53.4365   17.2515 C   0  0  0  0  0  0
    0.8363   53.4425   16.5972 C   0  0  0  0  0  0
    2.0199   51.2943   17.1667 N   0  0  0  0  0  0
    1.0991   50.9181   18.6337 S   0  0  0  0  0  0
   -0.2374   51.5184   18.5407 O   0  0  0  0  0  0
    1.2425   49.4784   18.8722 O   0  0  0  0  0  0
    1.9475   51.7134   19.9890 C   0  0  0  0  0  0
    3.3374   51.7001   20.0371 C   0  0  0  0  0  0
    4.0101   52.3039   21.0875 C   0  0  0  0  0  0
    3.2889   52.8958   22.1189 C   0  0  0  0  0  0
    1.8862   52.9234   22.1043 C   0  0  0  0  0  0
    1.2312   52.3283   21.0159 C   0  0  0  0  0  0
    1.1048   53.5808   23.2376 C   0  0  1  0  0  0
    0.7048   54.5265   22.8817 H   0  0  0  0  0  0
    0.0225   52.6645   23.7791 C   0  0  0  0  0  0
    0.3660   52.1587   24.9716 C   0  0  0  0  0  0
    1.6548   52.7688   25.4637 C   0  0  0  0  0  0
    1.9458   53.8955   24.4735 C   0  0  1  0  0  0
    1.4684   54.7773   24.8818 H   0  0  0  0  0  0
    3.4374   54.3088   24.1914 C   0  0  2  0  0  0
    3.4062   55.2964   23.7432 H   0  0  0  0  0  0
    4.0260   53.4726   23.1537 N   0  0  0  0  0  0
    4.3833   54.4676   25.4135 C   0  0  0  0  0  0
    3.8604   54.5389   26.7129 C   0  0  0  0  0  0
    4.6828   54.4967   27.8330 C   0  0  0  0  0  0
    6.0628   54.4724   27.6815 C   0  0  0  0  0  0
    6.6133   54.4996   26.4053 C   0  0  0  0  0  0
    5.7934   54.5066   25.2762 C   0  0  0  0  0  0
    6.4154   54.5576   24.0511 O   0  0  0  0  0  0
    3.9047   54.4491   29.5646 Br  0  0  0  0  0  0
    2.6840   53.3531   14.5442 H   0  0  0  0  0  0
    1.7867   51.8412   14.5455 H   0  0  0  0  0  0
    3.4840   51.8557   14.9983 H   0  0  0  0  0  0
    2.9906   53.7251   18.2635 H   0  0  0  0  0  0
    4.1986   52.8612   17.3116 H   0  0  0  0  0  0
    3.4990   54.3608   16.7179 H   0  0  0  0  0  0
    0.5743   53.7319   17.6151 H   0  0  0  0  0  0
    0.9126   54.3652   16.0212 H   0  0  0  0  0  0
    0.0046   52.8690   16.1859 H   0  0  0  0  0  0
    2.8171   50.6655   16.9932 H   0  0  0  0  0  0
    3.9044   51.2558   19.2426 H   0  0  0  0  0  0
    5.0903   52.2966   21.0986 H   0  0  0  0  0  0
    0.1521   52.3381   20.9742 H   0  0  0  0  0  0
   -0.8619   52.4128   23.2125 H   0  0  0  0  0  0
   -0.1939   51.4396   25.5530 H   0  0  0  0  0  0
    2.4958   52.0967   25.4690 H   0  0  0  0  0  0
    1.4885   53.1120   26.4824 H   0  0  0  0  0  0
    5.0291   53.5889   23.0777 H   0  0  0  0  0  0
    2.8037   54.6203   26.8885 H   0  0  0  0  0  0
    6.7030   54.4517   28.5512 H   0  0  0  0  0  0
    7.6832   54.4957   26.3044 H   0  0  0  0  0  0
    7.3730   54.6274   24.0954 H   0  0  0  0  0  0
  1  2  1  0  0  0
  1 33  1  0  0  0
  1 34  1  0  0  0
  1 35  1  0  0  0
  2  3  1  0  0  0
  2  4  1  0  0  0
  2  5  1  0  0  0
  3 36  1  0  0  0
  3 37  1  0  0  0
  3 38  1  0  0  0
  4 39  1  0  0  0
  4 40  1  0  0  0
  4 41  1  0  0  0
  5  6  1  0  0  0
  5 42  1  0  0  0
  6  7  2  0  0  0
  6  8  2  0  0  0
  6  9  1  0  0  0
  9 14  2  0  0  0
  9 10  1  0  0  0
 10 11  2  0  0  0
 10 43  1  0  0  0
 11 12  1  0  0  0
 11 44  1  0  0  0
 12 24  1  0  0  0
 12 13  2  0  0  0
 13 14  1  0  0  0
 13 15  1  0  0  0
 14 45  1  0  0  0
 15 16  1  0  0  0
 15 20  1  0  0  0
 15 17  1  0  0  0
 17 18  2  0  0  0
 17 46  1  0  0  0
 18 19  1  0  0  0
 18 47  1  0  0  0
 19 20  1  0  0  0
 19 48  1  0  0  0
 19 49  1  0  0  0
 20 21  1  0  0  0
 20 22  1  0  0  0
 22 23  1  0  0  0
 22 24  1  0  0  0
 22 25  1  0  0  0
 24 50  1  0  0  0
 25 30  2  0  0  0
 25 26  1  0  0  0
 26 27  2  0  0  0
 26 51  1  0  0  0
 27 28  1  0  0  0
 27 32  1  0  0  0
 28 29  2  0  0  0
 28 52  1  0  0  0
 29 30  1  0  0  0
 29 53  1  0  0  0
 30 31  1  0  0  0
 31 54  1  0  0  0
M  END
> <i_i_glide_confnum>
22

> <i_i_glide_lignum>
2359

> <i_i_glide_posenum>
262

> <i_i_glide_rotatable_bonds>
5

> <i_m_Source_File_Index>
2582

> <b_m_subgroup_collapsed>
0

> <r_i_docking_score>
-4.9709

> <r_i_glide_ecoul>
-3.61032

> <r_i_glide_eff_state_penalty>
0

> <r_i_glide_einternal>
10.8637

> <r_i_glide_emodel>
-42.771

> <r_i_glide_energy>
-38.1582

> <r_i_glide_erotb>
0.266626

> <r_i_glide_esite>
-0.163307

> <r_i_glide_evdw>
-34.5478

> <r_i_glide_gscore>
-4.9709

> <r_i_glide_hbond>
-0.206604

> <r_i_glide_ligand_efficiency>
-0.17141

> <r_i_glide_ligand_efficiency_ln>
-1.13821

> <r_i_glide_ligand_efficiency_sa>
-0.526627

> <r_i_glide_lipo>
-2.95614

> <r_i_glide_metal>
0

> <r_i_glide_rewards>
0.357464

> <s_i_glide_gridfile>
wee1_glide-grid

> <s_m_Source_File>
wee1_decoys_glide_SP.sdf

> <s_m_Source_Path>
/Users/zhangxujun/Desktop

> <s_m_entry_id>
2857

> <s_m_entry_name>
wee1_decoys_glide_SP.2582

> <s_m_subgroup_title>
wee1_decoys_glide_SP

> <s_m_subgroupid>
wee1_decoys_glide_SP


$$$$
