ZINC09101540_2797
                    3D
 Schrodinger Suite 2024-2.
 52 56  0  0  1  0            999 V2000
    5.3840   54.6588   28.3915 C   0  0  0  0  0  0
    6.2497   54.8774   27.2805 O   0  0  0  0  0  0
    5.7725   54.6360   26.0072 C   0  0  0  0  0  0
    4.4331   54.3531   25.7055 C   0  0  0  0  0  0
    4.0487   54.0960   24.3910 C   0  0  0  0  0  0
    5.0012   54.0973   23.3580 C   0  0  0  0  0  0
    6.3288   54.4125   23.6612 C   0  0  0  0  0  0
    6.7044   54.6805   24.9728 C   0  0  0  0  0  0
    4.6220   53.7807   21.9302 C   0  0  0  0  0  0
    5.3000   54.2248   21.0008 O   0  0  0  0  0  0
    3.5448   52.9806   21.7948 N   0  0  0  0  0  0
    2.9357   52.5409   20.6319 C   0  0  0  0  0  0
    1.8029   51.8933   20.6992 N   0  0  0  0  0  0
    1.2824   51.6418   19.5105 C   0  0  0  0  0  0
    2.0782   52.0354   18.4251 C   0  0  0  0  0  0
    3.5039   52.8414   19.0133 S   0  0  0  0  0  0
    1.7208   51.8749   16.9565 C   0  0  0  0  0  0
    0.5337   50.8910   16.8310 C   0  0  0  0  0  0
   -0.5720   51.1643   17.8708 C   0  0  0  0  0  0
   -0.0722   50.9276   19.3282 C   0  0  2  0  0  0
    0.0784   49.8561   19.4729 H   0  0  0  0  0  0
   -1.1241   51.3433   20.3945 C   0  0  0  0  0  0
   -2.0607   52.0962   20.1034 O   0  0  0  0  0  0
   -0.9177   50.8281   21.6240 N   0  0  0  0  0  0
   -1.6359   51.0815   22.7771 C   0  0  0  0  0  0
   -2.4955   52.0468   22.9741 N   0  0  0  0  0  0
   -2.9824   52.0082   24.2443 C   0  0  0  0  0  0
   -3.9295   52.9039   24.7616 C   0  0  0  0  0  0
   -4.3478   52.7316   26.0818 C   0  0  0  0  0  0
   -3.8293   51.7100   26.8782 C   0  0  0  0  0  0
   -2.8772   50.8140   26.3945 C   0  0  0  0  0  0
   -2.4607   50.9705   25.0654 C   0  0  0  0  0  0
   -1.3022   50.0336   24.1337 S   0  0  0  0  0  0
    5.9049   54.8955   29.3170 H   0  0  0  0  0  0
    5.0700   53.6150   28.4422 H   0  0  0  0  0  0
    4.4994   55.2962   28.3536 H   0  0  0  0  0  0
    3.6772   54.3223   26.4740 H   0  0  0  0  0  0
    3.0067   53.8907   24.1990 H   0  0  0  0  0  0
    7.0862   54.4432   22.8881 H   0  0  0  0  0  0
    7.7375   54.8978   25.1876 H   0  0  0  0  0  0
    3.0922   52.6959   22.6493 H   0  0  0  0  0  0
    1.4358   52.8434   16.5414 H   0  0  0  0  0  0
    2.5744   51.5108   16.3799 H   0  0  0  0  0  0
    0.1216   50.9483   15.8234 H   0  0  0  0  0  0
    0.8998   49.8679   16.9446 H   0  0  0  0  0  0
   -0.9173   52.1927   17.7442 H   0  0  0  0  0  0
   -1.4403   50.5352   17.6665 H   0  0  0  0  0  0
   -0.1935   50.1323   21.7147 H   0  0  0  0  0  0
   -4.3336   53.6968   24.1519 H   0  0  0  0  0  0
   -5.0883   53.3977   26.4970 H   0  0  0  0  0  0
   -4.1735   51.6084   27.8963 H   0  0  0  0  0  0
   -2.4797   50.0260   27.0233 H   0  0  0  0  0  0
  1  2  1  0  0  0
  1 34  1  0  0  0
  1 35  1  0  0  0
  1 36  1  0  0  0
  2  3  1  0  0  0
  3  8  2  0  0  0
  3  4  1  0  0  0
  4  5  2  0  0  0
  4 37  1  0  0  0
  5  6  1  0  0  0
  5 38  1  0  0  0
  6  7  2  0  0  0
  6  9  1  0  0  0
  7  8  1  0  0  0
  7 39  1  0  0  0
  8 40  1  0  0  0
  9 10  2  0  0  0
  9 11  1  0  0  0
 11 12  1  0  0  0
 11 41  1  0  0  0
 12 16  1  0  0  0
 12 13  2  0  0  0
 13 14  1  0  0  0
 14 20  1  0  0  0
 14 15  2  0  0  0
 15 16  1  0  0  0
 15 17  1  0  0  0
 17 18  1  0  0  0
 17 42  1  0  0  0
 17 43  1  0  0  0
 18 19  1  0  0  0
 18 44  1  0  0  0
 18 45  1  0  0  0
 19 20  1  0  0  0
 19 46  1  0  0  0
 19 47  1  0  0  0
 20 21  1  0  0  0
 20 22  1  0  0  0
 22 23  2  0  0  0
 22 24  1  0  0  0
 24 25  1  0  0  0
 24 48  1  0  0  0
 25 33  1  0  0  0
 25 26  2  0  0  0
 26 27  1  0  0  0
 27 32  2  0  0  0
 27 28  1  0  0  0
 28 29  2  0  0  0
 28 49  1  0  0  0
 29 30  1  0  0  0
 29 50  1  0  0  0
 30 31  2  0  0  0
 30 51  1  0  0  0
 31 32  1  0  0  0
 31 52  1  0  0  0
 32 33  1  0  0  0
M  END
> <i_i_glide_confnum>
49

> <i_i_glide_lignum>
2798

> <i_i_glide_posenum>
326

> <i_i_glide_rotatable_bonds>
7

> <i_m_Source_File_Index>
5440

> <b_m_subgroup_collapsed>
0

> <r_i_docking_score>
-5.117

> <r_i_glide_ecoul>
-4.96107

> <r_i_glide_eff_state_penalty>
0

> <r_i_glide_einternal>
4.33194

> <r_i_glide_emodel>
-59.3447

> <r_i_glide_energy>
-46.0907

> <r_i_glide_erotb>
0.560483

> <r_i_glide_esite>
-0.0115062

> <r_i_glide_evdw>
-41.1297

> <r_i_glide_gscore>
-5.117

> <r_i_glide_hbond>
-0.32

> <r_i_glide_ligand_efficiency>
-0.159906

> <r_i_glide_ligand_efficiency_ln>
-1.14584

> <r_i_glide_ligand_efficiency_sa>
-0.507671

> <r_i_glide_lipo>
-2.0125

> <r_i_glide_metal>
0

> <r_i_glide_rewards>
-0.532838

> <s_i_glide_gridfile>
wee1_glide-grid

> <s_m_Source_File>
wee1_decoys_glide_SP.sdf

> <s_m_Source_Path>
/Users/zhangxujun/Desktop

> <s_m_entry_id>
5715

> <s_m_entry_name>
wee1_decoys_glide_SP.5440

> <s_m_subgroup_title>
wee1_decoys_glide_SP

> <s_m_subgroupid>
wee1_decoys_glide_SP


$$$$
