ZINC13059384_2813
                    3D
 Schrodinger Suite 2024-2.
 62 66  0  0  1  0            999 V2000
   -2.4954   50.5543   26.9870 C   0  0  0  0  0  0
   -1.4041   50.8606   25.9771 C   0  0  0  0  0  0
   -0.4266   49.9114   25.6610 C   0  0  0  0  0  0
    0.5632   50.2239   24.7233 C   0  0  0  0  0  0
    0.5625   51.4932   24.1314 C   0  0  0  0  0  0
   -0.4012   52.4157   24.4230 N   0  0  0  0  0  0
   -1.3576   52.0956   25.3286 C   0  0  0  0  0  0
    1.5844   51.7675   23.2002 N   0  0  0  0  0  0
    1.9480   52.9708   22.6969 C   0  0  0  0  0  0
    1.4358   54.0355   23.0437 O   0  0  0  0  0  0
    3.0286   52.9626   21.7183 C   0  0  0  0  0  0
    3.0614   52.0992   20.6620 C   0  0  0  0  0  0
    4.0099   52.2476   19.6817 N   0  0  0  0  0  0
    4.9519   53.2439   19.6306 C   0  0  0  0  0  0
    5.0256   54.1856   20.6117 C   0  0  0  0  0  0
    4.1065   54.0867   21.8835 C   0  0  2  0  0  0
    3.5989   55.0526   21.8987 H   0  0  0  0  0  0
    4.8342   54.0897   23.2525 C   0  0  0  0  0  0
    6.1689   53.7018   23.3330 C   0  0  0  0  0  0
    6.8731   53.8053   24.5149 C   0  0  0  0  0  0
    6.2451   54.1967   25.6919 C   0  0  0  0  0  0
    4.8881   54.5413   25.6447 C   0  0  0  0  0  0
    4.1987   54.4969   24.4344 C   0  0  0  0  0  0
    7.0150   54.1991   26.8368 O   0  0  0  0  0  0
    6.3573   54.2703   28.0964 C   0  0  0  0  0  0
    6.0201   55.2963   20.4876 C   0  0  0  0  0  0
    6.3044   56.0615   21.4050 O   0  0  0  0  0  0
    6.8520   55.3724   19.1963 C   0  0  0  0  0  0
    6.1326   54.7556   17.9829 C   0  0  1  0  0  0
    6.8603   54.7085   17.1713 H   0  0  0  0  0  0
    5.7432   53.2965   18.3213 C   0  0  0  0  0  0
    4.9956   55.6443   17.4848 C   0  0  0  0  0  0
    3.6304   55.4731   17.2857 C   0  0  0  0  0  0
    3.1244   56.6941   16.8357 C   0  0  0  0  0  0
    4.1989   57.5643   16.7804 C   0  0  0  0  0  0
    5.3315   56.9245   17.1668 O   0  0  0  0  0  0
    2.0581   51.0037   20.3026 C   0  0  0  0  0  0
   -3.3475   51.2259   26.8810 H   0  0  0  0  0  0
   -2.1038   50.6296   28.0020 H   0  0  0  0  0  0
   -2.8711   49.5378   26.8570 H   0  0  0  0  0  0
   -0.4324   48.9431   26.1447 H   0  0  0  0  0  0
    1.3220   49.4918   24.4837 H   0  0  0  0  0  0
   -2.0917   52.8606   25.5340 H   0  0  0  0  0  0
    2.1466   50.9772   22.9271 H   0  0  0  0  0  0
    4.1609   51.4709   19.0419 H   0  0  0  0  0  0
    6.7042   53.3433   22.4817 H   0  0  0  0  0  0
    7.9044   53.5184   24.4816 H   0  0  0  0  0  0
    4.3607   54.8657   26.5281 H   0  0  0  0  0  0
    3.1764   54.8341   24.4319 H   0  0  0  0  0  0
    7.0874   54.0966   28.8867 H   0  0  0  0  0  0
    5.9036   55.2495   28.2600 H   0  0  0  0  0  0
    5.5895   53.5006   28.1940 H   0  0  0  0  0  0
    7.7559   54.7941   19.3896 H   0  0  0  0  0  0
    7.1661   56.4020   19.0234 H   0  0  0  0  0  0
    6.5881   52.6077   18.3592 H   0  0  0  0  0  0
    5.1012   52.9699   17.5007 H   0  0  0  0  0  0
    3.0658   54.5694   17.4645 H   0  0  0  0  0  0
    2.0973   56.9233   16.5916 H   0  0  0  0  0  0
    4.3039   58.6066   16.5086 H   0  0  0  0  0  0
    2.4480   50.0279   20.5937 H   0  0  0  0  0  0
    1.0834   51.1423   20.7681 H   0  0  0  0  0  0
    1.8721   50.9791   19.2268 H   0  0  0  0  0  0
  1  2  1  0  0  0
  1 38  1  0  0  0
  1 39  1  0  0  0
  1 40  1  0  0  0
  2  7  2  0  0  0
  2  3  1  0  0  0
  3  4  2  0  0  0
  3 41  1  0  0  0
  4  5  1  0  0  0
  4 42  1  0  0  0
  5  6  2  0  0  0
  5  8  1  0  0  0
  6  7  1  0  0  0
  7 43  1  0  0  0
  8  9  1  0  0  0
  8 44  1  0  0  0
  9 10  2  0  0  0
  9 11  1  0  0  0
 11 16  1  0  0  0
 11 12  2  0  0  0
 12 13  1  0  0  0
 12 37  1  0  0  0
 13 14  1  0  0  0
 13 45  1  0  0  0
 14 31  1  0  0  0
 14 15  2  0  0  0
 15 16  1  0  0  0
 15 26  1  0  0  0
 16 17  1  0  0  0
 16 18  1  0  0  0
 18 23  2  0  0  0
 18 19  1  0  0  0
 19 20  2  0  0  0
 19 46  1  0  0  0
 20 21  1  0  0  0
 20 47  1  0  0  0
 21 22  2  0  0  0
 21 24  1  0  0  0
 22 23  1  0  0  0
 22 48  1  0  0  0
 23 49  1  0  0  0
 24 25  1  0  0  0
 25 50  1  0  0  0
 25 51  1  0  0  0
 25 52  1  0  0  0
 26 27  2  0  0  0
 26 28  1  0  0  0
 28 29  1  0  0  0
 28 53  1  0  0  0
 28 54  1  0  0  0
 29 30  1  0  0  0
 29 31  1  0  0  0
 29 32  1  0  0  0
 31 55  1  0  0  0
 31 56  1  0  0  0
 32 36  1  0  0  0
 32 33  2  0  0  0
 33 34  1  0  0  0
 33 57  1  0  0  0
 34 35  2  0  0  0
 34 58  1  0  0  0
 35 36  1  0  0  0
 35 59  1  0  0  0
 37 60  1  0  0  0
 37 61  1  0  0  0
 37 62  1  0  0  0
M  END
> <i_i_glide_confnum>
102

> <i_i_glide_lignum>
2814

> <i_i_glide_posenum>
76

> <i_i_glide_rotatable_bonds>
6

> <i_m_Source_File_Index>
3542

> <b_m_subgroup_collapsed>
0

> <r_i_docking_score>
-5.97978

> <r_i_glide_ecoul>
-7.67729

> <r_i_glide_eff_state_penalty>
0

> <r_i_glide_einternal>
12.2123

> <r_i_glide_emodel>
-61.2377

> <r_i_glide_energy>
-50.1338

> <r_i_glide_erotb>
0.458093

> <r_i_glide_esite>
-0.069359

> <r_i_glide_evdw>
-42.4565

> <r_i_glide_gscore>
-5.97978

> <r_i_glide_hbond>
-0.208599

> <r_i_glide_ligand_efficiency>
-0.170851

> <r_i_glide_ligand_efficiency_ln>
-1.3127

> <r_i_glide_ligand_efficiency_sa>
-0.558865

> <r_i_glide_lipo>
-2.30271

> <r_i_glide_metal>
0

> <r_i_glide_rewards>
-0.582792

> <s_i_glide_gridfile>
wee1_glide-grid

> <s_m_Source_File>
wee1_decoys_glide_SP.sdf

> <s_m_Source_Path>
/Users/zhangxujun/Desktop

> <s_m_entry_id>
3817

> <s_m_entry_name>
wee1_decoys_glide_SP.3542

> <s_m_subgroup_title>
wee1_decoys_glide_SP

> <s_m_subgroupid>
wee1_decoys_glide_SP


$$$$
