ZINC22011600_616
                    3D
 Schrodinger Suite 2024-2.
 52 56  0  0  1  0            999 V2000
    2.6622   50.0397   20.5073 C   0  0  0  0  0  0
    2.7246   50.7951   21.6781 C   0  0  0  0  0  0
    2.7820   52.1797   21.4743 C   0  0  0  0  0  0
    2.8283   52.4955   19.7604 S   0  0  0  0  0  0
    2.7030   50.8200   19.3725 C   0  0  0  0  0  0
    2.7737   53.3247   22.4836 C   0  0  2  0  0  0
    2.2451   54.1894   22.0782 H   0  0  0  0  0  0
    4.1511   53.7883   22.9805 C   0  0  0  0  0  0
    5.2772   54.0175   22.1727 C   0  0  0  0  0  0
    6.3822   54.4706   22.8817 C   0  0  0  0  0  0
    6.0632   54.6076   24.5741 S   0  0  0  0  0  0
    4.4205   54.0976   24.3224 C   0  0  0  0  0  0
    3.4335   53.9141   25.4587 C   0  0  0  0  0  0
    2.0043   53.9306   24.8880 C   0  0  0  0  0  0
    1.9103   52.9300   23.7161 N   0  3  1  0  0  0
    0.4169   52.6780   23.3475 C   0  0  0  0  0  0
   -0.0267   51.3328   23.9646 C   0  0  0  0  0  0
    0.8318   50.6122   24.4808 O   0  0  0  0  0  0
   -1.3348   50.9720   23.8963 N   0  0  0  0  0  0
   -2.3789   51.9123   23.4724 C   0  0  0  0  0  0
   -3.6982   51.1584   23.6057 C   0  0  0  0  0  0
   -3.3240   49.9629   24.4352 C   0  0  0  0  0  0
   -1.9349   49.8673   24.5330 C   0  0  0  0  0  0
   -1.3523   48.7172   25.0826 C   0  0  0  0  0  0
   -2.1610   47.7217   25.6216 C   0  0  0  0  0  0
   -3.5505   47.8446   25.5792 C   0  0  0  0  0  0
   -4.1366   48.9545   24.9602 C   0  0  0  0  0  0
   -4.5430   46.5662   26.3246 S   0  0  0  0  0  0
   -4.0688   45.2967   25.7628 O   0  0  0  0  0  0
   -5.9501   46.9642   26.2255 O   0  0  0  0  0  0
   -4.0959   46.6045   28.0108 N   0  0  0  0  0  0
    2.6005   48.9605   20.4884 H   0  0  0  0  0  0
    2.7010   50.3351   22.6554 H   0  0  0  0  0  0
    2.7037   50.4971   18.3398 H   0  0  0  0  0  0
    5.2829   53.8601   21.1026 H   0  0  0  0  0  0
    7.3599   54.7234   22.4949 H   0  0  0  0  0  0
    3.5482   54.6891   26.2186 H   0  0  0  0  0  0
    3.6236   52.9593   25.9523 H   0  0  0  0  0  0
    1.7082   54.8961   24.4805 H   0  0  0  0  0  0
    1.2958   53.6058   25.6530 H   0  0  0  0  0  0
    0.3508   52.5995   22.2617 H   0  0  0  0  0  0
   -0.1748   53.5317   23.6830 H   0  0  0  0  0  0
   -2.3909   52.6855   24.2433 H   0  0  0  0  0  0
   -2.2256   52.4360   22.5294 H   0  0  0  0  0  0
   -4.0279   50.8323   22.6184 H   0  0  0  0  0  0
   -4.4888   51.7927   24.0119 H   0  0  0  0  0  0
   -0.2823   48.5794   25.1339 H   0  0  0  0  0  0
   -1.6969   46.8648   26.0869 H   0  0  0  0  0  0
   -5.2123   49.0240   24.8825 H   0  0  0  0  0  0
   -3.0892   46.4721   28.1532 H   0  0  0  0  0  0
   -4.3772   47.4713   28.4750 H   0  0  0  0  0  0
    2.2470   52.0328   24.0483 H   0  0  0  0  0  0
  1  5  2  0  0  0
  1  2  1  0  0  0
  1 32  1  0  0  0
  2  3  2  0  0  0
  2 33  1  0  0  0
  3  4  1  0  0  0
  3  6  1  0  0  0
  4  5  1  0  0  0
  5 34  1  0  0  0
  6  7  1  0  0  0
  6 15  1  0  0  0
  6  8  1  0  0  0
  8 12  2  0  0  0
  8  9  1  0  0  0
  9 10  2  0  0  0
  9 35  1  0  0  0
 10 11  1  0  0  0
 10 36  1  0  0  0
 11 12  1  0  0  0
 12 13  1  0  0  0
 13 14  1  0  0  0
 13 37  1  0  0  0
 13 38  1  0  0  0
 14 15  1  0  0  0
 14 39  1  0  0  0
 14 40  1  0  0  0
 15 16  1  0  0  0
 15 52  1  0  0  0
 16 17  1  0  0  0
 16 41  1  0  0  0
 16 42  1  0  0  0
 17 18  2  0  0  0
 17 19  1  0  0  0
 19 23  1  0  0  0
 19 20  1  0  0  0
 20 21  1  0  0  0
 20 43  1  0  0  0
 20 44  1  0  0  0
 21 22  1  0  0  0
 21 45  1  0  0  0
 21 46  1  0  0  0
 22 27  2  0  0  0
 22 23  1  0  0  0
 23 24  2  0  0  0
 24 25  1  0  0  0
 24 47  1  0  0  0
 25 26  2  0  0  0
 25 48  1  0  0  0
 26 27  1  0  0  0
 26 28  1  0  0  0
 27 49  1  0  0  0
 28 29  2  0  0  0
 28 30  2  0  0  0
 28 31  1  0  0  0
 31 50  1  0  0  0
 31 51  1  0  0  0
M  CHG  1  15   1
M  END
> <i_i_glide_confnum>
18

> <i_i_glide_lignum>
617

> <i_i_glide_posenum>
242

> <i_i_glide_rotatable_bonds>
5

> <i_m_Source_File_Index>
2112

> <b_m_subgroup_collapsed>
0

> <r_i_docking_score>
-4.38775

> <r_i_glide_ecoul>
-6.50106

> <r_i_glide_eff_state_penalty>
0

> <r_i_glide_einternal>
3.93986

> <r_i_glide_emodel>
-50.4408

> <r_i_glide_energy>
-42.1605

> <r_i_glide_erotb>
0.379509

> <r_i_glide_esite>
-0.229759

> <r_i_glide_evdw>
-35.6594

> <r_i_glide_gscore>
-4.38775

> <r_i_glide_hbond>
-0.00460305

> <r_i_glide_ligand_efficiency>
-0.146258

> <r_i_glide_ligand_efficiency_ln>
-0.996944

> <r_i_glide_ligand_efficiency_sa>
-0.454459

> <r_i_glide_lipo>
-2.12431

> <r_i_glide_metal>
0

> <r_i_glide_rewards>
0.349549

> <s_i_glide_gridfile>
wee1_glide-grid

> <s_m_Source_File>
wee1_decoys_glide_SP.sdf

> <s_m_Source_Path>
/Users/zhangxujun/Desktop

> <s_m_entry_id>
2387

> <s_m_entry_name>
wee1_decoys_glide_SP.2112

> <s_m_subgroup_title>
wee1_decoys_glide_SP

> <s_m_subgroupid>
wee1_decoys_glide_SP


$$$$
