ZINC15991388_1495
                    3D
 Schrodinger Suite 2024-2.
 46 49  0  0  1  0            999 V2000
    5.8093   54.6866   27.0814 C   0  0  0  0  0  0
    5.7984   54.6946   25.5722 C   0  0  0  0  0  0
    6.7044   55.2698   24.6861 C   0  0  0  0  0  0
    6.3042   54.9304   23.4110 C   0  0  0  0  0  0
    5.1368   54.2035   23.6009 N   0  0  0  0  0  0
    4.8361   54.0967   24.9116 N   0  0  0  0  0  0
    4.2947   53.5709   22.6443 C   0  0  0  0  0  0
    4.8546   53.0085   21.4972 C   0  0  0  0  0  0
    4.0794   52.2901   20.6008 C   0  0  0  0  0  0
    2.7118   52.1091   20.8373 C   0  0  0  0  0  0
    2.1313   52.7104   21.9629 C   0  0  0  0  0  0
    2.9162   53.4316   22.8642 C   0  0  0  0  0  0
    1.8807   51.2523   19.9118 C   0  0  0  0  0  0
    0.6749   51.4707   19.7575 O   0  0  0  0  0  0
    2.5550   50.2190   19.3608 N   0  0  0  0  0  0
    1.9045   49.3591   18.4816 N   0  0  0  0  0  0
    1.7559   48.0803   18.8948 C   0  0  0  0  0  0
    1.9040   47.7056   20.0641 O   0  0  0  0  0  0
    1.3479   47.0787   17.8385 C   0  0  0  0  0  0
    0.6297   45.9212   18.2162 C   0  0  0  0  0  0
    0.3062   44.9260   17.2841 C   0  0  0  0  0  0
    0.7185   45.1161   15.9715 C   0  0  0  0  0  0
    1.4086   46.2298   15.5878 C   0  0  0  0  0  0
    1.7362   47.2364   16.4899 C   0  0  0  0  0  0
    1.7324   46.1253   14.2713 O   0  0  0  0  0  0
    1.0122   45.0200   13.7947 C   0  0  0  0  0  0
    0.5767   44.2835   14.9070 O   0  0  0  0  0  0
    6.9280   55.2969   22.0804 C   0  0  0  0  0  0
    6.6313   55.2755   27.4894 H   0  0  0  0  0  0
    4.8872   55.0957   27.4954 H   0  0  0  0  0  0
    5.9166   53.6747   27.4737 H   0  0  0  0  0  0
    7.5744   55.8585   24.9212 H   0  0  0  0  0  0
    5.9042   53.0819   21.3018 H   0  0  0  0  0  0
    4.5639   51.8628   19.7326 H   0  0  0  0  0  0
    1.0749   52.5956   22.1615 H   0  0  0  0  0  0
    2.4508   53.8581   23.7412 H   0  0  0  0  0  0
    3.5452   50.2760   19.1520 H   0  0  0  0  0  0
    2.1633   49.5677   17.5265 H   0  0  0  0  0  0
    0.3332   45.7788   19.2462 H   0  0  0  0  0  0
   -0.2309   44.0400   17.5863 H   0  0  0  0  0  0
    2.3046   48.0939   16.1580 H   0  0  0  0  0  0
    0.1442   45.3734   13.2349 H   0  0  0  0  0  0
    1.6336   44.4038   13.1433 H   0  0  0  0  0  0
    7.5722   56.1696   22.1716 H   0  0  0  0  0  0
    7.5676   54.4970   21.7113 H   0  0  0  0  0  0
    6.1873   55.5299   21.3148 H   0  0  0  0  0  0
  1  2  1  0  0  0
  1 29  1  0  0  0
  1 30  1  0  0  0
  1 31  1  0  0  0
  2  6  2  0  0  0
  2  3  1  0  0  0
  3  4  2  0  0  0
  3 32  1  0  0  0
  4  5  1  0  0  0
  4 28  1  0  0  0
  5  6  1  0  0  0
  5  7  1  0  0  0
  7 12  2  0  0  0
  7  8  1  0  0  0
  8  9  2  0  0  0
  8 33  1  0  0  0
  9 10  1  0  0  0
  9 34  1  0  0  0
 10 11  2  0  0  0
 10 13  1  0  0  0
 11 12  1  0  0  0
 11 35  1  0  0  0
 12 36  1  0  0  0
 13 14  2  0  0  0
 13 15  1  0  0  0
 15 16  1  0  0  0
 15 37  1  0  0  0
 16 17  1  0  0  0
 16 38  1  0  0  0
 17 18  2  0  0  0
 17 19  1  0  0  0
 19 24  2  0  0  0
 19 20  1  0  0  0
 20 21  2  0  0  0
 20 39  1  0  0  0
 21 22  1  0  0  0
 21 40  1  0  0  0
 22 27  1  0  0  0
 22 23  2  0  0  0
 23 24  1  0  0  0
 23 25  1  0  0  0
 24 41  1  0  0  0
 25 26  1  0  0  0
 26 27  1  0  0  0
 26 42  1  0  0  0
 26 43  1  0  0  0
 28 44  1  0  0  0
 28 45  1  0  0  0
 28 46  1  0  0  0
M  END
> <i_i_glide_confnum>
100

> <i_i_glide_lignum>
1496

> <i_i_glide_posenum>
296

> <i_i_glide_rotatable_bonds>
6

> <i_m_Source_File_Index>
5122

> <b_m_subgroup_collapsed>
0

> <r_i_docking_score>
-5.1447

> <r_i_glide_ecoul>
-4.19174

> <r_i_glide_eff_state_penalty>
0

> <r_i_glide_einternal>
3.48734

> <r_i_glide_emodel>
-53.1502

> <r_i_glide_energy>
-39.6225

> <r_i_glide_erotb>
0.676756

> <r_i_glide_esite>
-0.25556

> <r_i_glide_evdw>
-35.4308

> <r_i_glide_gscore>
-5.1447

> <r_i_glide_hbond>
-0.179112

> <r_i_glide_ligand_efficiency>
-0.183739

> <r_i_glide_ligand_efficiency_ln>
-1.18755

> <r_i_glide_ligand_efficiency_sa>
-0.55794

> <r_i_glide_lipo>
-1.82924

> <r_i_glide_metal>
0

> <r_i_glide_rewards>
-1.15725

> <s_i_glide_gridfile>
wee1_glide-grid

> <s_m_Source_File>
wee1_decoys_glide_SP.sdf

> <s_m_Source_Path>
/Users/zhangxujun/Desktop

> <s_m_entry_id>
5397

> <s_m_entry_name>
wee1_decoys_glide_SP.5122

> <s_m_subgroup_title>
wee1_decoys_glide_SP

> <s_m_subgroupid>
wee1_decoys_glide_SP


$$$$
