ZINC34975277_4238
                    3D
 Schrodinger Suite 2024-2.
 64 66  0  0  1  0            999 V2000
    1.5335   53.1958   30.0335 C   0  0  0  0  0  0
    2.6877   53.4423   29.0775 C   0  0  0  0  0  0
    2.5184   54.3055   27.9958 C   0  0  0  0  0  0
    3.5660   54.5220   27.1031 C   0  0  0  0  0  0
    4.7957   53.8680   27.2624 C   0  0  0  0  0  0
    4.9543   53.0229   28.3714 C   0  0  0  0  0  0
    3.9116   52.8037   29.2686 C   0  0  0  0  0  0
    5.9903   54.0997   26.3468 C   0  0  0  0  0  0
    7.1037   54.0963   26.8817 O   0  0  0  0  0  0
    5.8600   54.2827   24.9913 N   0  0  0  0  0  0
    4.5624   54.2936   24.2728 C   0  0  0  0  0  0
    4.7576   53.9020   22.7841 C   0  0  0  0  0  0
    5.7671   54.7804   22.1444 N   0  0  0  0  0  0
    6.7637   55.4329   23.0222 C   0  0  0  0  0  0
    7.1044   54.4974   24.2013 C   0  0  2  0  0  0
    7.8369   55.0151   24.8219 H   0  0  0  0  0  0
    7.7836   53.1950   23.7143 C   0  0  0  0  0  0
    5.7614   55.1292   20.8224 C   0  0  0  0  0  0
    6.4536   56.0689   20.4193 O   0  0  0  0  0  0
    4.8695   54.3765   19.7702 C   0  0  1  0  0  0
    3.9054   54.8851   19.8325 H   0  0  0  0  0  0
    5.3678   54.5200   18.2854 C   0  0  0  0  0  0
    5.1323   55.9172   17.6728 C   0  0  0  0  0  0
    6.8092   54.0266   18.0341 C   0  0  0  0  0  0
    4.6293   52.9648   20.0893 N   0  0  0  0  0  0
    3.5043   52.2924   19.8118 C   0  0  0  0  0  0
    2.6451   52.6779   19.0185 O   0  0  0  0  0  0
    3.4188   51.1759   20.5534 N   0  0  0  0  0  0
    2.3282   50.3043   20.5302 C   0  0  0  0  0  0
    2.0264   49.5845   19.3667 C   0  0  0  0  0  0
    0.9305   48.7216   19.3463 C   0  0  0  0  0  0
    0.1312   48.5825   20.4813 C   0  0  0  0  0  0
    0.4329   49.2968   21.6420 C   0  0  0  0  0  0
    1.5336   50.1543   21.6753 C   0  0  0  0  0  0
    1.9045   51.1184   23.2809 Br  0  0  0  0  0  0
    1.7153   52.3417   30.6881 H   0  0  0  0  0  0
    1.3416   54.0804   30.6425 H   0  0  0  0  0  0
    0.6231   52.9818   29.4709 H   0  0  0  0  0  0
    1.5789   54.8193   27.8522 H   0  0  0  0  0  0
    3.4123   55.2418   26.3169 H   0  0  0  0  0  0
    5.8943   52.5124   28.5285 H   0  0  0  0  0  0
    4.0615   52.1368   30.1041 H   0  0  0  0  0  0
    4.1431   55.2966   24.3028 H   0  0  0  0  0  0
    3.8745   53.5602   24.6963 H   0  0  0  0  0  0
    3.7877   54.0197   22.2984 H   0  0  0  0  0  0
    5.0772   52.8634   22.7235 H   0  0  0  0  0  0
    7.6987   55.6316   22.4931 H   0  0  0  0  0  0
    6.3534   56.3489   23.4450 H   0  0  0  0  0  0
    8.7689   53.2967   23.2817 H   0  0  0  0  0  0
    7.9203   52.4967   24.5371 H   0  0  0  0  0  0
    7.1969   52.7099   22.9369 H   0  0  0  0  0  0
    4.7357   53.8643   17.6838 H   0  0  0  0  0  0
    5.7686   56.6848   18.1114 H   0  0  0  0  0  0
    5.3369   55.9064   16.6021 H   0  0  0  0  0  0
    4.0960   56.2316   17.7998 H   0  0  0  0  0  0
    7.5529   54.6182   18.5675 H   0  0  0  0  0  0
    6.9230   52.9870   18.3433 H   0  0  0  0  0  0
    7.0578   54.0724   16.9729 H   0  0  0  0  0  0
    5.4014   52.4774   20.5156 H   0  0  0  0  0  0
    4.0858   51.0386   21.2949 H   0  0  0  0  0  0
    2.6418   49.6963   18.4821 H   0  0  0  0  0  0
    0.7015   48.1684   18.4470 H   0  0  0  0  0  0
   -0.7216   47.9199   20.4613 H   0  0  0  0  0  0
   -0.1876   49.1861   22.5203 H   0  0  0  0  0  0
  1  2  1  0  0  0
  1 36  1  0  0  0
  1 37  1  0  0  0
  1 38  1  0  0  0
  2  7  2  0  0  0
  2  3  1  0  0  0
  3  4  2  0  0  0
  3 39  1  0  0  0
  4  5  1  0  0  0
  4 40  1  0  0  0
  5  6  2  0  0  0
  5  8  1  0  0  0
  6  7  1  0  0  0
  6 41  1  0  0  0
  7 42  1  0  0  0
  8  9  2  0  0  0
  8 10  1  0  0  0
 10 15  1  0  0  0
 10 11  1  0  0  0
 11 12  1  0  0  0
 11 43  1  0  0  0
 11 44  1  0  0  0
 12 13  1  0  0  0
 12 45  1  0  0  0
 12 46  1  0  0  0
 13 14  1  0  0  0
 13 18  1  0  0  0
 14 15  1  0  0  0
 14 47  1  0  0  0
 14 48  1  0  0  0
 15 16  1  0  0  0
 15 17  1  0  0  0
 17 49  1  0  0  0
 17 50  1  0  0  0
 17 51  1  0  0  0
 18 19  2  0  0  0
 18 20  1  0  0  0
 20 21  1  0  0  0
 20 22  1  0  0  0
 20 25  1  0  0  0
 22 23  1  0  0  0
 22 24  1  0  0  0
 22 52  1  0  0  0
 23 53  1  0  0  0
 23 54  1  0  0  0
 23 55  1  0  0  0
 24 56  1  0  0  0
 24 57  1  0  0  0
 24 58  1  0  0  0
 25 26  1  0  0  0
 25 59  1  0  0  0
 26 27  2  0  0  0
 26 28  1  0  0  0
 28 29  1  0  0  0
 28 60  1  0  0  0
 29 34  2  0  0  0
 29 30  1  0  0  0
 30 31  2  0  0  0
 30 61  1  0  0  0
 31 32  1  0  0  0
 31 62  1  0  0  0
 32 33  2  0  0  0
 32 63  1  0  0  0
 33 34  1  0  0  0
 33 64  1  0  0  0
 34 35  1  0  0  0
M  END
> <i_i_glide_confnum>
152

> <i_i_glide_lignum>
4239

> <i_i_glide_posenum>
239

> <i_i_glide_rotatable_bonds>
9

> <i_m_Source_File_Index>
566

> <b_m_subgroup_collapsed>
0

> <r_i_docking_score>
-5.086

> <r_i_glide_ecoul>
0.919412

> <r_i_glide_eff_state_penalty>
0

> <r_i_glide_einternal>
5.79239

> <r_i_glide_emodel>
-50.7526

> <r_i_glide_energy>
-39.9647

> <r_i_glide_erotb>
0.540625

> <r_i_glide_esite>
-0.10266

> <r_i_glide_evdw>
-40.8841

> <r_i_glide_gscore>
-5.086

> <r_i_glide_hbond>
-0.0379764

> <r_i_glide_ligand_efficiency>
-0.154121

> <r_i_glide_ligand_efficiency_ln>
-1.1311

> <r_i_glide_ligand_efficiency_sa>
-0.494349

> <r_i_glide_lipo>
-2.27735

> <r_i_glide_metal>
0

> <r_i_glide_rewards>
-1.30233

> <s_i_glide_gridfile>
wee1_glide-grid

> <s_m_Source_File>
wee1_decoys_glide_SP.sdf

> <s_m_Source_Path>
/Users/zhangxujun/Desktop

> <s_m_entry_id>
841

> <s_m_entry_name>
wee1_decoys_glide_SP.566

> <s_m_subgroup_title>
wee1_decoys_glide_SP

> <s_m_subgroupid>
wee1_decoys_glide_SP


$$$$
