ZINC07779856_3773
                    3D
 Schrodinger Suite 2024-2.
 45 48  0  0  1  0            999 V2000
    5.5047   54.8814   21.3118 C   0  0  0  0  0  0
    5.3590   53.6407   22.2058 C   0  0  1  0  0  0
    6.3595   53.3180   22.4818 H   0  0  0  0  0  0
    4.5536   53.9013   23.4989 C   0  0  0  0  0  0
    5.1016   54.1634   24.7123 C   0  0  0  0  0  0
    6.4985   54.4039   24.9815 C   0  0  0  0  0  0
    6.7874   54.5739   26.2059 N   0  0  0  0  0  0
    5.6054   54.4511   26.9004 C   0  0  0  0  0  0
    4.5280   54.2433   26.0638 C   0  0  0  0  0  0
    3.2447   54.0968   26.6029 C   0  0  0  0  0  0
    3.0715   54.1621   27.9890 C   0  0  0  0  0  0
    4.1726   54.3571   28.8287 C   0  0  0  0  0  0
    5.4512   54.4967   28.2850 C   0  0  0  0  0  0
    3.1474   53.7825   23.4097 N   0  0  0  0  0  0
    2.3837   53.2194   22.3408 N   0  0  0  0  0  0
    2.9909   52.6837   21.3565 C   0  0  0  0  0  0
    4.7044   52.2175   21.2818 S   0  0  0  0  0  0
    2.2898   52.0970   20.3152 N   0  0  0  0  0  0
    0.8358   51.9514   20.2505 C   0  0  0  0  0  0
    0.4227   51.6563   18.7960 C   0  0  0  0  0  0
   -1.1171   51.6100   18.6990 C   0  0  0  0  0  0
   -1.7189   50.5781   19.6838 C   0  0  0  0  0  0
   -1.1888   50.7386   21.1292 C   0  0  0  0  0  0
    0.3526   50.8042   21.1657 C   0  0  0  0  0  0
    5.9926   55.6967   21.8442 H   0  0  0  0  0  0
    6.1076   54.6632   20.4295 H   0  0  0  0  0  0
    4.5359   55.2320   20.9675 H   0  0  0  0  0  0
    7.2701   54.4404   24.2177 H   0  0  0  0  0  0
    2.3810   53.9137   25.9837 H   0  0  0  0  0  0
    2.0844   54.0457   28.4122 H   0  0  0  0  0  0
    4.0396   54.3957   29.8989 H   0  0  0  0  0  0
    6.3033   54.6409   28.9323 H   0  0  0  0  0  0
    2.5398   54.0526   24.1678 H   0  0  0  0  0  0
    2.8032   51.7404   19.5217 H   0  0  0  0  0  0
    0.3841   52.8957   20.5632 H   0  0  0  0  0  0
    0.8109   52.4226   18.1223 H   0  0  0  0  0  0
    0.8350   50.7010   18.4642 H   0  0  0  0  0  0
   -1.5260   52.5992   18.9093 H   0  0  0  0  0  0
   -1.4179   51.3686   17.6785 H   0  0  0  0  0  0
   -2.8071   50.6473   19.6765 H   0  0  0  0  0  0
   -1.4803   49.5735   19.3308 H   0  0  0  0  0  0
   -1.6021   51.6467   21.5716 H   0  0  0  0  0  0
   -1.5416   49.9129   21.7488 H   0  0  0  0  0  0
    0.7669   49.8495   20.8354 H   0  0  0  0  0  0
    0.6860   50.9562   22.1933 H   0  0  0  0  0  0
  1  2  1  0  0  0
  1 25  1  0  0  0
  1 26  1  0  0  0
  1 27  1  0  0  0
  2  3  1  0  0  0
  2 17  1  0  0  0
  2  4  1  0  0  0
  4  5  2  0  0  0
  4 14  1  0  0  0
  5  9  1  0  0  0
  5  6  1  0  0  0
  6  7  2  0  0  0
  6 28  1  0  0  0
  7  8  1  0  0  0
  8 13  2  0  0  0
  8  9  1  0  0  0
  9 10  2  0  0  0
 10 11  1  0  0  0
 10 29  1  0  0  0
 11 12  2  0  0  0
 11 30  1  0  0  0
 12 13  1  0  0  0
 12 31  1  0  0  0
 13 32  1  0  0  0
 14 15  1  0  0  0
 14 33  1  0  0  0
 15 16  2  0  0  0
 16 17  1  0  0  0
 16 18  1  0  0  0
 18 19  1  0  0  0
 18 34  1  0  0  0
 19 24  1  0  0  0
 19 20  1  0  0  0
 19 35  1  0  0  0
 20 21  1  0  0  0
 20 36  1  0  0  0
 20 37  1  0  0  0
 21 22  1  0  0  0
 21 38  1  0  0  0
 21 39  1  0  0  0
 22 23  1  0  0  0
 22 40  1  0  0  0
 22 41  1  0  0  0
 23 24  1  0  0  0
 23 42  1  0  0  0
 23 43  1  0  0  0
 24 44  1  0  0  0
 24 45  1  0  0  0
M  END
> <i_i_glide_confnum>
1

> <i_i_glide_lignum>
3774

> <i_i_glide_posenum>
315

> <i_i_glide_rotatable_bonds>
2

> <i_m_Source_File_Index>
170

> <b_m_subgroup_collapsed>
0

> <r_i_docking_score>
-6.92805

> <r_i_glide_ecoul>
-1.2628

> <r_i_glide_eff_state_penalty>
0

> <r_i_glide_einternal>
0.0331517

> <r_i_glide_emodel>
-53.0967

> <r_i_glide_energy>
-38.0766

> <r_i_glide_erotb>
0.351955

> <r_i_glide_esite>
-0.0169105

> <r_i_glide_evdw>
-36.8138

> <r_i_glide_gscore>
-6.92805

> <r_i_glide_hbond>
-0.190273

> <r_i_glide_ligand_efficiency>
-0.301219

> <r_i_glide_ligand_efficiency_ln>
-1.67526

> <r_i_glide_ligand_efficiency_sa>
-0.856628

> <r_i_glide_lipo>
-2.53794

> <r_i_glide_metal>
0

> <r_i_glide_rewards>
-2.50477

> <s_i_glide_gridfile>
wee1_glide-grid

> <s_m_Source_File>
wee1_decoys_glide_SP.sdf

> <s_m_Source_Path>
/Users/zhangxujun/Desktop

> <s_m_entry_id>
445

> <s_m_entry_name>
wee1_decoys_glide_SP.170

> <s_m_subgroup_title>
wee1_decoys_glide_SP

> <s_m_subgroupid>
wee1_decoys_glide_SP


$$$$
