ZINC39600880_3660
                    3D
 Schrodinger Suite 2024-2.
 64 66  0  0  1  0            999 V2000
    1.7413   54.7943   28.4019 C   0  0  0  0  0  0
    3.2124   54.7516   28.8467 C   0  0  0  0  0  0
    4.0168   53.5654   28.2707 C   0  0  0  0  0  0
    4.2762   53.6107   26.7435 C   0  0  0  0  0  0
    5.1682   54.7676   26.1899 C   0  0  1  0  0  0
    4.5971   55.6932   26.2432 H   0  0  0  0  0  0
    6.4107   54.9535   27.1083 C   0  0  0  0  0  0
    5.5904   54.6948   24.6754 C   0  0  0  0  0  0
    6.7052   55.1286   24.3775 O   0  0  0  0  0  0
    4.7830   54.2239   23.6817 N   0  0  0  0  0  0
    3.3891   53.8315   23.8138 C   0  0  0  0  0  0
    2.8746   53.6231   22.3628 C   0  0  1  0  0  0
    2.3555   54.5494   22.1189 H   0  0  0  0  0  0
    4.1549   53.4293   21.4721 C   0  0  0  0  0  0
    5.2002   54.2418   22.2759 C   0  0  0  0  0  0
    4.7327   51.9919   21.2815 C   0  0  0  0  0  0
    3.8169   51.0460   20.4729 C   0  0  0  0  0  0
    3.5037   51.6980   19.1173 N   0  3  0  0  0  0
    3.1313   53.1992   19.1166 C   0  0  0  0  0  0
    4.1083   53.9666   20.0184 C   0  0  0  0  0  0
    1.7760   52.5167   22.3692 C   0  0  0  0  0  0
    0.9458   52.4966   21.4632 O   0  0  0  0  0  0
    1.7674   51.5802   23.3407 N   0  0  0  0  0  0
    0.8943   50.4016   23.4325 C   0  0  0  0  0  0
   -0.6228   50.6085   23.4384 C   0  0  0  0  0  0
   -1.2076   51.8461   23.7401 C   0  0  0  0  0  0
   -2.5922   52.0016   23.7082 C   0  0  0  0  0  0
   -3.4096   50.9156   23.3929 C   0  0  0  0  0  0
   -2.8394   49.6785   23.1008 C   0  0  0  0  0  0
   -1.4527   49.5241   23.1197 C   0  0  0  0  0  0
   -0.9187   48.3154   22.8251 F   0  0  0  0  0  0
   -3.3684   53.6966   24.0815 Br  0  0  0  0  0  0
    1.2251   55.6414   28.8529 H   0  0  0  0  0  0
    1.2116   53.8906   28.6978 H   0  0  0  0  0  0
    1.6505   54.8964   27.3204 H   0  0  0  0  0  0
    3.6964   55.6929   28.5930 H   0  0  0  0  0  0
    3.2434   54.6940   29.9374 H   0  0  0  0  0  0
    4.9643   53.4690   28.8034 H   0  0  0  0  0  0
    3.4823   52.6405   28.5021 H   0  0  0  0  0  0
    4.7497   52.6681   26.4814 H   0  0  0  0  0  0
    3.2877   53.6145   26.2914 H   0  0  0  0  0  0
    7.1044   55.7005   26.7345 H   0  0  0  0  0  0
    6.1286   55.2983   28.1034 H   0  0  0  0  0  0
    6.9713   54.0236   27.2166 H   0  0  0  0  0  0
    3.4543   52.8969   24.3589 H   0  0  0  0  0  0
    2.7944   54.5927   24.3216 H   0  0  0  0  0  0
    5.1351   55.2914   21.9726 H   0  0  0  0  0  0
    6.2378   53.9638   22.0783 H   0  0  0  0  0  0
    5.6937   52.0425   20.7681 H   0  0  0  0  0  0
    4.9907   51.5365   22.2265 H   0  0  0  0  0  0
    4.3042   50.1199   20.1985 H   0  0  0  0  0  0
    2.8736   50.7636   20.9219 H   0  0  0  0  0  0
    4.3387   51.5223   18.5470 H   0  0  0  0  0  0
    3.1852   53.5243   18.0772 H   0  0  0  0  0  0
    2.0957   53.2897   19.4371 H   0  0  0  0  0  0
    3.8184   55.0112   20.0157 H   0  0  0  0  0  0
    5.1009   53.9611   19.5630 H   0  0  0  0  0  0
    2.4754   51.6391   24.0542 H   0  0  0  0  0  0
    1.1667   49.7156   22.6263 H   0  0  0  0  0  0
    1.1478   49.8708   24.3516 H   0  0  0  0  0  0
   -0.5927   52.6973   23.9956 H   0  0  0  0  0  0
   -4.4839   51.0351   23.3726 H   0  0  0  0  0  0
   -3.4672   48.8351   22.8559 H   0  0  0  0  0  0
    2.7894   51.1639   18.6449 H   0  0  0  0  0  0
  1  2  1  0  0  0
  1 33  1  0  0  0
  1 34  1  0  0  0
  1 35  1  0  0  0
  2  3  1  0  0  0
  2 36  1  0  0  0
  2 37  1  0  0  0
  3  4  1  0  0  0
  3 38  1  0  0  0
  3 39  1  0  0  0
  4  5  1  0  0  0
  4 40  1  0  0  0
  4 41  1  0  0  0
  5  6  1  0  0  0
  5  7  1  0  0  0
  5  8  1  0  0  0
  7 42  1  0  0  0
  7 43  1  0  0  0
  7 44  1  0  0  0
  8  9  2  0  0  0
  8 10  1  0  0  0
 10 15  1  0  0  0
 10 11  1  0  0  0
 11 12  1  0  0  0
 11 45  1  0  0  0
 11 46  1  0  0  0
 12 13  1  0  0  0
 12 14  1  0  0  0
 12 21  1  0  0  0
 14 20  1  0  0  0
 14 15  1  0  0  0
 14 16  1  0  0  0
 15 47  1  0  0  0
 15 48  1  0  0  0
 16 17  1  0  0  0
 16 49  1  0  0  0
 16 50  1  0  0  0
 17 18  1  0  0  0
 17 51  1  0  0  0
 17 52  1  0  0  0
 18 19  1  0  0  0
 18 53  1  0  0  0
 18 64  1  0  0  0
 19 20  1  0  0  0
 19 54  1  0  0  0
 19 55  1  0  0  0
 20 56  1  0  0  0
 20 57  1  0  0  0
 21 22  2  0  0  0
 21 23  1  0  0  0
 23 24  1  0  0  0
 23 58  1  0  0  0
 24 25  1  0  0  0
 24 59  1  0  0  0
 24 60  1  0  0  0
 25 30  2  0  0  0
 25 26  1  0  0  0
 26 27  2  0  0  0
 26 61  1  0  0  0
 27 28  1  0  0  0
 27 32  1  0  0  0
 28 29  2  0  0  0
 28 62  1  0  0  0
 29 30  1  0  0  0
 29 63  1  0  0  0
 30 31  1  0  0  0
M  CHG  1  18   1
M  END
> <i_i_glide_confnum>
327

> <i_i_glide_lignum>
3661

> <i_i_glide_posenum>
59

> <i_i_glide_rotatable_bonds>
9

> <i_m_Source_File_Index>
4693

> <b_m_subgroup_collapsed>
0

> <r_i_docking_score>
-5.32899

> <r_i_glide_ecoul>
-2.74455

> <r_i_glide_eff_state_penalty>
0

> <r_i_glide_einternal>
6.59788

> <r_i_glide_emodel>
-35.9193

> <r_i_glide_energy>
-36.2061

> <r_i_glide_erotb>
0.608037

> <r_i_glide_esite>
-0.100254

> <r_i_glide_evdw>
-33.4616

> <r_i_glide_gscore>
-5.32899

> <r_i_glide_hbond>
-0.168456

> <r_i_glide_ligand_efficiency>
-0.177633

> <r_i_glide_ligand_efficiency_ln>
-1.21081

> <r_i_glide_ligand_efficiency_sa>
-0.551947

> <r_i_glide_lipo>
-2.61133

> <r_i_glide_metal>
0

> <r_i_glide_rewards>
-0.972232

> <s_i_glide_gridfile>
wee1_glide-grid

> <s_m_Source_File>
wee1_decoys_glide_SP.sdf

> <s_m_Source_Path>
/Users/zhangxujun/Desktop

> <s_m_entry_id>
4968

> <s_m_entry_name>
wee1_decoys_glide_SP.4693

> <s_m_subgroup_title>
wee1_decoys_glide_SP

> <s_m_subgroupid>
wee1_decoys_glide_SP


$$$$
