ZINC08754498_918
                    3D
 Schrodinger Suite 2024-2.
 61 63  0  0  1  0            999 V2000
    6.3484   55.0608   23.2926 C   0  0  0  0  0  0
    5.6967   54.7743   24.6335 C   0  0  0  0  0  0
    4.5090   54.0468   24.7038 C   0  0  0  0  0  0
    3.9734   53.6992   25.9440 C   0  0  0  0  0  0
    4.5918   54.1328   27.1168 C   0  0  0  0  0  0
    5.7621   54.8966   27.0406 C   0  0  0  0  0  0
    6.3038   55.2245   25.8017 C   0  0  0  0  0  0
    3.9403   53.6925   28.7371 S   0  0  0  0  0  0
    4.6727   54.5342   29.6827 O   0  0  0  0  0  0
    3.9599   52.2342   28.8820 O   0  0  0  0  0  0
    2.2399   54.2140   28.8423 N   0  0  0  0  0  0
    1.9447   55.6337   28.7222 C   0  0  0  0  0  0
    1.1574   53.3183   28.7663 C   0  0  0  0  0  0
    0.6880   52.8956   27.5210 C   0  0  0  0  0  0
   -0.4372   52.0726   27.4058 C   0  0  0  0  0  0
   -1.1381   51.6967   28.5630 C   0  0  0  0  0  0
   -0.6267   52.0592   29.8111 C   0  0  0  0  0  0
    0.5077   52.8632   29.9252 C   0  0  0  0  0  0
    0.9872   53.2486   31.3135 C   0  0  0  0  0  0
   -2.4700   50.9545   28.5163 C   0  0  0  0  0  0
   -0.9283   51.5237   25.7673 S   0  0  0  0  0  0
    0.0189   52.0934   24.8011 O   0  0  0  0  0  0
   -2.3680   51.7628   25.6205 O   0  0  0  0  0  0
   -0.6789   49.7639   25.7801 N   0  0  0  0  0  0
   -1.0032   48.9777   24.6678 C   0  0  0  0  0  0
   -0.6313   49.3534   23.3753 C   0  0  0  0  0  0
   -0.9831   48.5601   22.2878 C   0  0  0  0  0  0
   -1.6960   47.3755   22.4804 C   0  0  0  0  0  0
   -2.0621   46.9920   23.7805 C   0  0  0  0  0  0
   -1.7054   47.7884   24.8691 C   0  0  0  0  0  0
   -2.0200   46.6582   21.3137 N   0  0  0  0  0  0
   -2.3997   45.3720   21.1732 C   0  0  0  0  0  0
   -2.4951   44.5475   22.0815 O   0  0  0  0  0  0
   -2.7052   44.9299   19.7469 C   0  0  0  0  0  0
    5.6574   54.9053   22.4635 H   0  0  0  0  0  0
    6.7031   56.0910   23.2448 H   0  0  0  0  0  0
    7.2145   54.4139   23.1535 H   0  0  0  0  0  0
    4.0325   53.6919   23.8014 H   0  0  0  0  0  0
    3.1072   53.0619   25.9796 H   0  0  0  0  0  0
    6.2596   55.2401   27.9373 H   0  0  0  0  0  0
    7.1949   55.8241   25.7443 H   0  0  0  0  0  0
    1.0677   55.9069   29.3089 H   0  0  0  0  0  0
    2.7789   56.2414   29.0730 H   0  0  0  0  0  0
    1.7590   55.8798   27.6819 H   0  0  0  0  0  0
    1.1714   53.2501   26.6275 H   0  0  0  0  0  0
   -1.1389   51.7330   30.7076 H   0  0  0  0  0  0
    1.9755   52.8260   31.4960 H   0  0  0  0  0  0
    1.0599   54.3333   31.3861 H   0  0  0  0  0  0
    0.3103   52.9075   32.0997 H   0  0  0  0  0  0
   -2.7036   50.4964   29.4777 H   0  0  0  0  0  0
   -3.2711   51.6491   28.2648 H   0  0  0  0  0  0
   -2.4932   50.1582   27.7739 H   0  0  0  0  0  0
   -0.8931   49.3310   26.6737 H   0  0  0  0  0  0
   -0.0680   50.2562   23.1996 H   0  0  0  0  0  0
   -0.6900   48.8754   21.2969 H   0  0  0  0  0  0
   -2.6327   46.0972   23.9641 H   0  0  0  0  0  0
   -1.9840   47.4896   25.8709 H   0  0  0  0  0  0
   -1.9045   47.1803   20.4588 H   0  0  0  0  0  0
   -3.7844   44.8745   19.5983 H   0  0  0  0  0  0
   -2.2829   43.9423   19.5597 H   0  0  0  0  0  0
   -2.2923   45.6207   19.0103 H   0  0  0  0  0  0
  1  2  1  0  0  0
  1 35  1  0  0  0
  1 36  1  0  0  0
  1 37  1  0  0  0
  2  7  2  0  0  0
  2  3  1  0  0  0
  3  4  2  0  0  0
  3 38  1  0  0  0
  4  5  1  0  0  0
  4 39  1  0  0  0
  5  6  2  0  0  0
  5  8  1  0  0  0
  6  7  1  0  0  0
  6 40  1  0  0  0
  7 41  1  0  0  0
  8  9  2  0  0  0
  8 10  2  0  0  0
  8 11  1  0  0  0
 11 12  1  0  0  0
 11 13  1  0  0  0
 12 42  1  0  0  0
 12 43  1  0  0  0
 12 44  1  0  0  0
 13 18  2  0  0  0
 13 14  1  0  0  0
 14 15  2  0  0  0
 14 45  1  0  0  0
 15 16  1  0  0  0
 15 21  1  0  0  0
 16 17  2  0  0  0
 16 20  1  0  0  0
 17 18  1  0  0  0
 17 46  1  0  0  0
 18 19  1  0  0  0
 19 47  1  0  0  0
 19 48  1  0  0  0
 19 49  1  0  0  0
 20 50  1  0  0  0
 20 51  1  0  0  0
 20 52  1  0  0  0
 21 22  2  0  0  0
 21 23  2  0  0  0
 21 24  1  0  0  0
 24 25  1  0  0  0
 24 53  1  0  0  0
 25 30  2  0  0  0
 25 26  1  0  0  0
 26 27  2  0  0  0
 26 54  1  0  0  0
 27 28  1  0  0  0
 27 55  1  0  0  0
 28 29  2  0  0  0
 28 31  1  0  0  0
 29 30  1  0  0  0
 29 56  1  0  0  0
 30 57  1  0  0  0
 31 32  1  0  0  0
 31 58  1  0  0  0
 32 33  2  0  0  0
 32 34  1  0  0  0
 34 59  1  0  0  0
 34 60  1  0  0  0
 34 61  1  0  0  0
M  END
> <i_i_glide_confnum>
114

> <i_i_glide_lignum>
919

> <i_i_glide_posenum>
23

> <i_i_glide_rotatable_bonds>
8

> <i_m_Source_File_Index>
2437

> <b_m_subgroup_collapsed>
0

> <r_i_docking_score>
-2.25195

> <r_i_glide_ecoul>
-7.38763

> <r_i_glide_eff_state_penalty>
0

> <r_i_glide_einternal>
15.2878

> <r_i_glide_emodel>
-41.1681

> <r_i_glide_energy>
-52.5442

> <r_i_glide_erotb>
0.568285

> <r_i_glide_esite>
-0.131848

> <r_i_glide_evdw>
-45.1566

> <r_i_glide_gscore>
-2.25195

> <r_i_glide_hbond>
-0.309193

> <r_i_glide_ligand_efficiency>
-0.0662339

> <r_i_glide_ligand_efficiency_ln>
-0.497519

> <r_i_glide_ligand_efficiency_sa>
-0.214572

> <r_i_glide_lipo>
-2.6184

> <r_i_glide_metal>
0

> <r_i_glide_rewards>
3.60518

> <s_i_glide_gridfile>
wee1_glide-grid

> <s_m_Source_File>
wee1_decoys_glide_SP.sdf

> <s_m_Source_Path>
/Users/zhangxujun/Desktop

> <s_m_entry_id>
2712

> <s_m_entry_name>
wee1_decoys_glide_SP.2437

> <s_m_subgroup_title>
wee1_decoys_glide_SP

> <s_m_subgroupid>
wee1_decoys_glide_SP


$$$$
