ZINC56813690_4755
                    3D
 Schrodinger Suite 2024-2.
 45 48  0  0  1  0            999 V2000
    5.0267   54.4382   27.9009 C   0  0  0  0  0  0
    4.4938   54.1821   26.6492 C   0  0  0  0  0  0
    5.5496   54.4968   25.7686 C   0  0  0  0  0  0
    6.6315   54.9176   26.3871 N   0  0  0  0  0  0
    6.3003   54.8891   27.6812 N   0  0  0  0  0  0
    6.9380   55.2035   28.4079 H   0  0  0  0  0  0
    3.2189   53.6969   26.4032 N   0  0  0  0  0  0
    2.6011   53.6508   25.2059 C   0  0  0  0  0  0
    3.0284   54.1392   24.1592 O   0  0  0  0  0  0
    1.4421   52.9707   25.2865 N   0  0  0  0  0  0
    0.4600   52.8066   24.1995 C   0  0  1  0  0  0
    0.8173   51.7321   23.1405 C   0  0  2  0  0  0
    1.8443   51.9205   22.8175 H   0  0  0  0  0  0
   -0.0935   51.9287   21.8975 C   0  0  0  0  0  0
   -1.6029   51.8425   22.2313 C   0  0  0  0  0  0
   -1.9927   52.6417   23.5035 C   0  0  0  0  0  0
   -0.9853   52.5138   24.6836 C   0  0  1  0  0  0
   -1.2519   53.2942   25.4011 H   0  0  0  0  0  0
   -1.0464   51.1419   25.4025 C   0  0  0  0  0  0
   -0.5929   50.0310   24.4284 N   0  3  1  0  0  0
    0.7691   50.2944   23.7381 C   0  0  0  0  0  0
   -0.6414   48.6570   25.1127 C   0  0  0  0  0  0
   -1.9863   47.9886   25.2823 C   0  0  0  0  0  0
   -0.9946   47.4447   24.2857 C   0  0  0  0  0  0
    4.6274   54.3593   28.9004 H   0  0  0  0  0  0
    5.5229   54.4098   24.6920 H   0  0  0  0  0  0
    2.7414   53.2978   27.1960 H   0  0  0  0  0  0
    1.1068   52.7435   26.2104 H   0  0  0  0  0  0
    0.4402   53.7819   23.6998 H   0  0  0  0  0  0
    0.1265   52.8953   21.4369 H   0  0  0  0  0  0
    0.1421   51.1768   21.1418 H   0  0  0  0  0  0
   -1.9033   50.8005   22.3384 H   0  0  0  0  0  0
   -2.1816   52.2057   21.3806 H   0  0  0  0  0  0
   -2.9916   52.3437   23.8254 H   0  0  0  0  0  0
   -2.0848   53.6967   23.2417 H   0  0  0  0  0  0
   -0.4071   51.0784   26.2855 H   0  0  0  0  0  0
   -2.0750   50.8919   25.6714 H   0  0  0  0  0  0
    0.8508   49.5419   22.9527 H   0  0  0  0  0  0
    1.5439   50.1221   24.4814 H   0  0  0  0  0  0
    0.0962   48.5874   25.9177 H   0  0  0  0  0  0
   -2.1611   47.4539   26.2184 H   0  0  0  0  0  0
   -2.8815   48.4997   24.9296 H   0  0  0  0  0  0
   -1.1794   47.5712   23.2192 H   0  0  0  0  0  0
   -0.4968   46.5056   24.5160 H   0  0  0  0  0  0
   -1.2776   50.0414   23.6869 H   0  0  0  0  0  0
  1  5  1  0  0  0
  1  2  2  0  0  0
  1 25  1  0  0  0
  2  3  1  0  0  0
  2  7  1  0  0  0
  3  4  2  0  0  0
  3 26  1  0  0  0
  4  5  1  0  0  0
  5  6  1  0  0  0
  7  8  1  0  0  0
  7 27  1  0  0  0
  8  9  2  0  0  0
  8 10  1  0  0  0
 10 11  1  0  0  0
 10 28  1  0  0  0
 11 17  1  0  0  0
 11 12  1  0  0  0
 11 29  1  0  0  0
 12 13  1  0  0  0
 12 21  1  0  0  0
 12 14  1  0  0  0
 14 15  1  0  0  0
 14 30  1  0  0  0
 14 31  1  0  0  0
 15 16  1  0  0  0
 15 32  1  0  0  0
 15 33  1  0  0  0
 16 17  1  0  0  0
 16 34  1  0  0  0
 16 35  1  0  0  0
 17 18  1  0  0  0
 17 19  1  0  0  0
 19 20  1  0  0  0
 19 36  1  0  0  0
 19 37  1  0  0  0
 20 21  1  0  0  0
 20 22  1  0  0  0
 20 45  1  0  0  0
 21 38  1  0  0  0
 21 39  1  0  0  0
 22 24  1  0  0  0
 22 23  1  0  0  0
 22 40  1  0  0  0
 23 24  1  0  0  0
 23 41  1  0  0  0
 23 42  1  0  0  0
 24 43  1  0  0  0
 24 44  1  0  0  0
M  CHG  1  20   1
M  END
> <i_i_glide_confnum>
6

> <i_i_glide_lignum>
4756

> <i_i_glide_posenum>
369

> <i_i_glide_rotatable_bonds>
5

> <i_m_Source_File_Index>
3802

> <b_m_subgroup_collapsed>
0

> <r_i_docking_score>
-5.77707

> <r_i_glide_ecoul>
-3.23821

> <r_i_glide_eff_state_penalty>
0

> <r_i_glide_einternal>
2.73826

> <r_i_glide_emodel>
-47.9586

> <r_i_glide_energy>
-35.3859

> <r_i_glide_erotb>
0.605145

> <r_i_glide_esite>
-0.0138345

> <r_i_glide_evdw>
-32.1477

> <r_i_glide_gscore>
-5.77707

> <r_i_glide_hbond>
-0.504159

> <r_i_glide_ligand_efficiency>
-0.275098

> <r_i_glide_ligand_efficiency_ln>
-1.42837

> <r_i_glide_ligand_efficiency_sa>
-0.758976

> <r_i_glide_lipo>
-1.24093

> <r_i_glide_metal>
0

> <r_i_glide_rewards>
-2.53017

> <s_i_glide_gridfile>
wee1_glide-grid

> <s_m_Source_File>
wee1_decoys_glide_SP.sdf

> <s_m_Source_Path>
/Users/zhangxujun/Desktop

> <s_m_entry_id>
4077

> <s_m_entry_name>
wee1_decoys_glide_SP.3802

> <s_m_subgroup_title>
wee1_decoys_glide_SP

> <s_m_subgroupid>
wee1_decoys_glide_SP


$$$$
