ZINC21882287_2716
                    3D
 Schrodinger Suite 2024-2.
 52 55  0  0  1  0            999 V2000
   -1.5246   47.8734   23.7999 C   0  0  0  0  0  0
   -2.0013   48.2272   25.0635 C   0  0  0  0  0  0
   -1.5030   49.3747   25.6815 C   0  0  0  0  0  0
   -0.5626   50.1088   25.0557 N   0  3  0  0  0  0
   -0.0483   49.7999   23.8429 C   0  0  0  0  0  0
   -0.5492   48.6649   23.1863 C   0  0  0  0  0  0
    0.9513   50.6433   23.2560 N   0  0  0  0  0  0
    2.0553   50.0577   22.4657 C   0  0  0  0  0  0
    2.6996   51.0504   21.4776 C   0  0  0  0  0  0
    3.0538   52.3400   22.0812 N   0  0  0  0  0  0
    1.8914   52.9184   22.7667 C   0  0  0  0  0  0
    1.2697   51.9742   23.8135 C   0  0  0  0  0  0
    4.0515   53.1635   21.5599 C   0  0  0  0  0  0
    4.3053   53.1511   20.1809 C   0  0  0  0  0  0
    5.2438   54.0059   19.6122 C   0  0  0  0  0  0
    5.9606   54.8967   20.4140 C   0  0  0  0  0  0
    5.7495   54.8881   21.7956 C   0  0  0  0  0  0
    4.8043   54.0378   22.3813 C   0  0  0  0  0  0
    4.5835   54.0117   23.7741 N   0  0  0  0  0  0
    5.3050   54.4967   24.8092 C   0  0  0  0  0  0
    6.3553   55.1324   24.7186 O   0  0  0  0  0  0
    4.7446   54.1440   26.1652 C   0  0  0  0  0  0
    5.6162   53.9326   27.2407 C   0  0  0  0  0  0
    5.1199   53.5097   28.4690 C   0  0  0  0  0  0
    3.7522   53.3006   28.6294 C   0  0  0  0  0  0
    2.8686   53.5600   27.5876 C   0  0  0  0  0  0
    3.3619   53.9848   26.3591 C   0  0  0  0  0  0
    3.1490   52.6822   30.1172 Cl  0  0  0  0  0  0
    6.9276   55.8624   19.8247 C   0  0  0  0  0  0
    7.1043   56.9248   20.4633 O   0  0  0  0  0  0
    7.4869   55.5564   18.7494 O   0  5  0  0  0  0
   -1.9042   46.9958   23.3011 H   0  0  0  0  0  0
   -2.7402   47.6226   25.5693 H   0  0  0  0  0  0
   -1.7965   49.7065   26.6697 H   0  0  0  0  0  0
   -0.2042   48.3946   22.1998 H   0  0  0  0  0  0
    2.7992   49.6678   23.1605 H   0  0  0  0  0  0
    1.7028   49.1985   21.8997 H   0  0  0  0  0  0
    1.9827   51.2625   20.6826 H   0  0  0  0  0  0
    3.5772   50.5952   21.0147 H   0  0  0  0  0  0
    2.0990   53.9002   23.1910 H   0  0  0  0  0  0
    1.1514   53.1024   21.9842 H   0  0  0  0  0  0
    1.9135   51.8627   24.6863 H   0  0  0  0  0  0
    0.3464   52.4311   24.1733 H   0  0  0  0  0  0
    3.7549   52.4936   19.5224 H   0  0  0  0  0  0
    5.4004   53.9813   18.5422 H   0  0  0  0  0  0
    6.3165   55.5799   22.4020 H   0  0  0  0  0  0
    3.7929   53.4448   24.0333 H   0  0  0  0  0  0
    6.6853   54.0591   27.1255 H   0  0  0  0  0  0
    5.8022   53.3191   29.2808 H   0  0  0  0  0  0
    1.8064   53.4114   27.7225 H   0  0  0  0  0  0
    2.6583   54.1684   25.5596 H   0  0  0  0  0  0
   -0.1963   50.9192   25.5322 H   0  0  0  0  0  0
  1  6  2  0  0  0
  1  2  1  0  0  0
  1 32  1  0  0  0
  2  3  2  0  0  0
  2 33  1  0  0  0
  3  4  1  0  0  0
  3 34  1  0  0  0
  4  5  2  0  0  0
  4 52  1  0  0  0
  5  6  1  0  0  0
  5  7  1  0  0  0
  6 35  1  0  0  0
  7 12  1  0  0  0
  7  8  1  0  0  0
  8  9  1  0  0  0
  8 36  1  0  0  0
  8 37  1  0  0  0
  9 10  1  0  0  0
  9 38  1  0  0  0
  9 39  1  0  0  0
 10 11  1  0  0  0
 10 13  1  0  0  0
 11 12  1  0  0  0
 11 40  1  0  0  0
 11 41  1  0  0  0
 12 42  1  0  0  0
 12 43  1  0  0  0
 13 18  2  0  0  0
 13 14  1  0  0  0
 14 15  2  0  0  0
 14 44  1  0  0  0
 15 16  1  0  0  0
 15 45  1  0  0  0
 16 17  2  0  0  0
 16 29  1  0  0  0
 17 18  1  0  0  0
 17 46  1  0  0  0
 18 19  1  0  0  0
 19 20  1  0  0  0
 19 47  1  0  0  0
 20 21  2  0  0  0
 20 22  1  0  0  0
 22 27  2  0  0  0
 22 23  1  0  0  0
 23 24  2  0  0  0
 23 48  1  0  0  0
 24 25  1  0  0  0
 24 49  1  0  0  0
 25 26  2  0  0  0
 25 28  1  0  0  0
 26 27  1  0  0  0
 26 50  1  0  0  0
 27 51  1  0  0  0
 29 30  2  0  0  0
 29 31  1  0  0  0
M  CHG  2   4   1  31  -1
M  END
> <i_i_glide_confnum>
182

> <i_i_glide_lignum>
2717

> <i_i_glide_posenum>
297

> <i_i_glide_rotatable_bonds>
6

> <i_m_Source_File_Index>
4421

> <b_m_subgroup_collapsed>
0

> <r_i_docking_score>
-6.76596

> <r_i_glide_ecoul>
-6.58789

> <r_i_glide_eff_state_penalty>
0

> <r_i_glide_einternal>
2.93682

> <r_i_glide_emodel>
-72.4922

> <r_i_glide_energy>
-50.855

> <r_i_glide_erotb>
0.522249

> <r_i_glide_esite>
-0.026841

> <r_i_glide_evdw>
-44.2671

> <r_i_glide_gscore>
-6.76596

> <r_i_glide_hbond>
-0.158921

> <r_i_glide_ligand_efficiency>
-0.218257

> <r_i_glide_ligand_efficiency_ln>
-1.52593

> <r_i_glide_ligand_efficiency_sa>
-0.685627

> <r_i_glide_lipo>
-2.76987

> <r_i_glide_metal>
0

> <r_i_glide_rewards>
-1.13103

> <s_i_glide_gridfile>
wee1_glide-grid

> <s_m_Source_File>
wee1_decoys_glide_SP.sdf

> <s_m_Source_Path>
/Users/zhangxujun/Desktop

> <s_m_entry_id>
4696

> <s_m_entry_name>
wee1_decoys_glide_SP.4421

> <s_m_subgroup_title>
wee1_decoys_glide_SP

> <s_m_subgroupid>
wee1_decoys_glide_SP


$$$$
