ZINC02452980_4025
                    3D
 Schrodinger Suite 2024-2.
 46 49  0  0  1  0            999 V2000
    5.2982   54.5089   28.4109 C   0  0  0  0  0  0
    5.1348   54.4331   26.9046 C   0  0  0  0  0  0
    6.2464   54.2080   26.0956 C   0  0  0  0  0  0
    6.0885   54.0937   24.7175 C   0  0  0  0  0  0
    4.8172   54.2003   24.1345 C   0  0  0  0  0  0
    3.7195   54.4966   24.9496 C   0  0  0  0  0  0
    3.8757   54.5961   26.3295 C   0  0  0  0  0  0
    4.6456   53.9766   22.7376 N   0  0  0  0  0  0
    3.6093   53.3231   22.0655 C   0  0  0  0  0  0
    3.8432   53.2941   20.7790 N   0  0  0  0  0  0
    5.0402   53.9394   20.5515 N   0  0  0  0  0  0
    5.4945   54.3639   21.7021 C   0  0  0  0  0  0
    6.9696   55.3378   21.8557 S   0  0  0  0  0  0
    7.5004   55.4736   20.1142 C   0  0  0  0  0  0
    6.7244   56.5396   19.3351 C   0  0  0  0  0  0
    6.7044   57.6971   19.7560 O   0  0  0  0  0  0
    6.0798   56.1256   18.2248 N   0  0  0  0  0  0
    5.3323   56.9410   17.3558 C   0  0  0  0  0  0
    5.8719   58.1087   16.7829 C   0  0  0  0  0  0
    5.1025   58.8791   15.9124 C   0  0  0  0  0  0
    3.8018   58.4962   15.5970 C   0  0  0  0  0  0
    3.2699   57.3311   16.1412 C   0  0  0  0  0  0
    4.0295   56.5464   17.0084 C   0  0  0  0  0  0
    3.2493   54.9424   17.6817 Br  0  0  0  0  0  0
    3.0592   59.2428   14.7498 F   0  0  0  0  0  0
    7.1459   58.4918   17.0360 F   0  0  0  0  0  0
    2.3580   52.7484   22.5849 C   0  0  0  0  0  0
    1.1331   52.4975   21.9766 C   0  0  0  0  0  0
    0.3031   51.9037   22.9278 C   0  0  0  0  0  0
    1.0616   51.7938   24.0782 C   0  0  0  0  0  0
    2.3044   52.2948   23.8652 O   0  0  0  0  0  0
    6.2831   54.8942   28.6724 H   0  0  0  0  0  0
    4.5672   55.1850   28.8553 H   0  0  0  0  0  0
    5.1816   53.5217   28.8590 H   0  0  0  0  0  0
    7.2235   54.0806   26.5376 H   0  0  0  0  0  0
    6.9582   53.8528   24.1244 H   0  0  0  0  0  0
    2.7351   54.6332   24.5265 H   0  0  0  0  0  0
    3.0140   54.7919   26.9504 H   0  0  0  0  0  0
    7.4699   54.4992   19.6251 H   0  0  0  0  0  0
    8.5478   55.7762   20.1149 H   0  0  0  0  0  0
    6.0097   55.1311   18.0660 H   0  0  0  0  0  0
    5.5066   59.7917   15.4990 H   0  0  0  0  0  0
    2.2646   57.0350   15.8825 H   0  0  0  0  0  0
    0.8811   52.7311   20.9518 H   0  0  0  0  0  0
   -0.7188   51.5829   22.7913 H   0  0  0  0  0  0
    0.8692   51.3965   25.0645 H   0  0  0  0  0  0
  1  2  1  0  0  0
  1 32  1  0  0  0
  1 33  1  0  0  0
  1 34  1  0  0  0
  2  7  2  0  0  0
  2  3  1  0  0  0
  3  4  2  0  0  0
  3 35  1  0  0  0
  4  5  1  0  0  0
  4 36  1  0  0  0
  5  6  2  0  0  0
  5  8  1  0  0  0
  6  7  1  0  0  0
  6 37  1  0  0  0
  7 38  1  0  0  0
  8 12  1  0  0  0
  8  9  1  0  0  0
  9 10  2  0  0  0
  9 27  1  0  0  0
 10 11  1  0  0  0
 11 12  2  0  0  0
 12 13  1  0  0  0
 13 14  1  0  0  0
 14 15  1  0  0  0
 14 39  1  0  0  0
 14 40  1  0  0  0
 15 16  2  0  0  0
 15 17  1  0  0  0
 17 18  1  0  0  0
 17 41  1  0  0  0
 18 23  2  0  0  0
 18 19  1  0  0  0
 19 20  2  0  0  0
 19 26  1  0  0  0
 20 21  1  0  0  0
 20 42  1  0  0  0
 21 22  2  0  0  0
 21 25  1  0  0  0
 22 23  1  0  0  0
 22 43  1  0  0  0
 23 24  1  0  0  0
 27 31  1  0  0  0
 27 28  2  0  0  0
 28 29  1  0  0  0
 28 44  1  0  0  0
 29 30  2  0  0  0
 29 45  1  0  0  0
 30 31  1  0  0  0
 30 46  1  0  0  0
M  END
> <i_i_glide_confnum>
32

> <i_i_glide_lignum>
4026

> <i_i_glide_posenum>
319

> <i_i_glide_rotatable_bonds>
7

> <i_m_Source_File_Index>
5721

> <b_m_subgroup_collapsed>
0

> <r_i_docking_score>
-5.88166

> <r_i_glide_ecoul>
-3.55887

> <r_i_glide_eff_state_penalty>
0

> <r_i_glide_einternal>
3.69698

> <r_i_glide_emodel>
-60.4422

> <r_i_glide_energy>
-44.5712

> <r_i_glide_erotb>
0.480552

> <r_i_glide_esite>
-0.111756

> <r_i_glide_evdw>
-41.0123

> <r_i_glide_gscore>
-5.88166

> <r_i_glide_hbond>
-0.32

> <r_i_glide_ligand_efficiency>
-0.189731

> <r_i_glide_ligand_efficiency_ln>
-1.32649

> <r_i_glide_ligand_efficiency_sa>
-0.596017

> <r_i_glide_lipo>
-2.51442

> <r_i_glide_metal>
0

> <r_i_glide_rewards>
-0.831587

> <s_i_glide_gridfile>
wee1_glide-grid

> <s_m_Source_File>
wee1_decoys_glide_SP.sdf

> <s_m_Source_Path>
/Users/zhangxujun/Desktop

> <s_m_entry_id>
5996

> <s_m_entry_name>
wee1_decoys_glide_SP.5721

> <s_m_subgroup_title>
wee1_decoys_glide_SP

> <s_m_subgroupid>
wee1_decoys_glide_SP


$$$$
