ZINC66888435_1357
                    3D
 Schrodinger Suite 2024-2.
 54 56  0  0  1  0            999 V2000
   -0.7438   52.8965   24.2226 C   0  0  0  0  0  0
    0.4491   52.0373   24.6963 C   0  0  2  0  0  0
    0.0548   51.0239   24.8003 H   0  0  0  0  0  0
    0.9403   52.4351   26.0975 C   0  0  0  0  0  0
    0.3175   51.8696   27.2185 C   0  0  0  0  0  0
    0.7598   52.1780   28.5031 C   0  0  0  0  0  0
    1.8305   53.0517   28.6738 C   0  0  0  0  0  0
    2.4603   53.6185   27.5692 C   0  0  0  0  0  0
    2.0197   53.3083   26.2848 C   0  0  0  0  0  0
    2.2653   53.3509   29.9198 F   0  0  0  0  0  0
    1.4981   51.8492   23.6789 N   0  0  0  0  0  0
    2.0952   52.7762   22.9093 C   0  0  0  0  0  0
    1.8586   53.9831   22.9523 O   0  0  0  0  0  0
    2.9908   52.2165   22.0804 N   0  0  0  0  0  0
    3.7627   52.9195   21.0504 C   0  0  0  0  0  0
    4.8915   53.8743   21.4903 C   0  0  0  0  0  0
    5.2159   54.0321   22.8490 C   0  0  0  0  0  0
    6.3045   54.8119   23.2322 C   0  0  0  0  0  0
    7.0521   55.4362   22.2400 C   0  0  0  0  0  0
    6.7678   55.3130   20.9241 N   0  0  0  0  0  0
    5.7151   54.5343   20.5444 C   0  0  0  0  0  0
    5.5673   54.3858   19.1683 N   0  0  0  0  0  0
    4.3428   54.7597   18.4467 C   0  0  0  0  0  0
    3.9916   53.7620   17.3260 C   0  0  0  0  0  0
    5.1700   53.6907   16.3348 N   0  3  0  0  0  0
    6.4665   53.2930   17.0702 C   0  0  0  0  0  0
    6.7192   54.2494   18.2569 C   0  0  0  0  0  0
    4.8608   52.6768   15.2118 C   0  0  0  0  0  0
   -1.5619   52.8714   24.9434 H   0  0  0  0  0  0
   -0.4629   53.9404   24.0815 H   0  0  0  0  0  0
   -1.1354   52.5355   23.2711 H   0  0  0  0  0  0
   -0.5073   51.1801   27.1009 H   0  0  0  0  0  0
    0.2769   51.7366   29.3633 H   0  0  0  0  0  0
    3.2907   54.2942   27.7095 H   0  0  0  0  0  0
    2.5221   53.7606   25.4448 H   0  0  0  0  0  0
    1.9072   50.9274   23.6732 H   0  0  0  0  0  0
    3.0917   51.2127   22.0947 H   0  0  0  0  0  0
    4.2201   52.1551   20.4194 H   0  0  0  0  0  0
    3.0503   53.4328   20.4108 H   0  0  0  0  0  0
    4.6481   53.5372   23.6217 H   0  0  0  0  0  0
    6.5641   54.9257   24.2744 H   0  0  0  0  0  0
    7.9046   56.0500   22.4934 H   0  0  0  0  0  0
    3.5048   54.9366   19.1163 H   0  0  0  0  0  0
    4.5412   55.7413   18.0122 H   0  0  0  0  0  0
    3.1348   54.1225   16.7542 H   0  0  0  0  0  0
    3.7947   52.7540   17.7015 H   0  0  0  0  0  0
    7.2676   53.3811   16.3343 H   0  0  0  0  0  0
    6.3693   52.2543   17.3895 H   0  0  0  0  0  0
    6.9012   55.2560   17.8764 H   0  0  0  0  0  0
    7.6207   53.9581   18.7983 H   0  0  0  0  0  0
    4.7034   51.6967   15.6689 H   0  0  0  0  0  0
    3.9627   53.0192   14.6953 H   0  0  0  0  0  0
    5.7148   52.6639   14.5327 H   0  0  0  0  0  0
    5.3013   54.6141   15.9430 H   0  0  0  0  0  0
  1  2  1  0  0  0
  1 29  1  0  0  0
  1 30  1  0  0  0
  1 31  1  0  0  0
  2  3  1  0  0  0
  2  4  1  0  0  0
  2 11  1  0  0  0
  4  9  2  0  0  0
  4  5  1  0  0  0
  5  6  2  0  0  0
  5 32  1  0  0  0
  6  7  1  0  0  0
  6 33  1  0  0  0
  7  8  2  0  0  0
  7 10  1  0  0  0
  8  9  1  0  0  0
  8 34  1  0  0  0
  9 35  1  0  0  0
 11 12  1  0  0  0
 11 36  1  0  0  0
 12 13  2  0  0  0
 12 14  1  0  0  0
 14 15  1  0  0  0
 14 37  1  0  0  0
 15 16  1  0  0  0
 15 38  1  0  0  0
 15 39  1  0  0  0
 16 21  2  0  0  0
 16 17  1  0  0  0
 17 18  2  0  0  0
 17 40  1  0  0  0
 18 19  1  0  0  0
 18 41  1  0  0  0
 19 20  2  0  0  0
 19 42  1  0  0  0
 20 21  1  0  0  0
 21 22  1  0  0  0
 22 27  1  0  0  0
 22 23  1  0  0  0
 23 24  1  0  0  0
 23 43  1  0  0  0
 23 44  1  0  0  0
 24 25  1  0  0  0
 24 45  1  0  0  0
 24 46  1  0  0  0
 25 26  1  0  0  0
 25 28  1  0  0  0
 25 54  1  0  0  0
 26 27  1  0  0  0
 26 47  1  0  0  0
 26 48  1  0  0  0
 27 49  1  0  0  0
 27 50  1  0  0  0
 28 51  1  0  0  0
 28 52  1  0  0  0
 28 53  1  0  0  0
M  CHG  1  25   1
M  END
> <i_i_glide_confnum>
99

> <i_i_glide_lignum>
1358

> <i_i_glide_posenum>
353

> <i_i_glide_rotatable_bonds>
7

> <i_m_Source_File_Index>
1611

> <b_m_subgroup_collapsed>
0

> <r_i_docking_score>
-4.54981

> <r_i_glide_ecoul>
-4.30589

> <r_i_glide_eff_state_penalty>
0

> <r_i_glide_einternal>
3.42879

> <r_i_glide_emodel>
-48.844

> <r_i_glide_energy>
-37.787

> <r_i_glide_erotb>
0.835359

> <r_i_glide_esite>
-0.023445

> <r_i_glide_evdw>
-33.4811

> <r_i_glide_gscore>
-4.54981

> <r_i_glide_hbond>
0

> <r_i_glide_ligand_efficiency>
-0.168512

> <r_i_glide_ligand_efficiency_ln>
-1.05912

> <r_i_glide_ligand_efficiency_sa>
-0.505535

> <r_i_glide_lipo>
-1.92578

> <r_i_glide_metal>
0

> <r_i_glide_rewards>
-1.11601

> <s_i_glide_gridfile>
wee1_glide-grid

> <s_m_Source_File>
wee1_decoys_glide_SP.sdf

> <s_m_Source_Path>
/Users/zhangxujun/Desktop

> <s_m_entry_id>
1886

> <s_m_entry_name>
wee1_decoys_glide_SP.1611

> <s_m_subgroup_title>
wee1_decoys_glide_SP

> <s_m_subgroupid>
wee1_decoys_glide_SP


$$$$
