ZINC22893335_81
                    3D
 Schrodinger Suite 2024-2.
 58 61  0  0  1  0            999 V2000
    1.0039   45.2678   15.8344 C   0  0  0  0  0  0
    2.1619   45.9980   16.0893 C   0  0  0  0  0  0
    2.1882   46.8951   17.1539 C   0  0  0  0  0  0
    1.0597   47.0720   17.9698 C   0  0  0  0  0  0
   -0.0925   46.3174   17.7068 C   0  0  0  0  0  0
   -0.1213   45.4192   16.6415 C   0  0  0  0  0  0
    1.0693   48.0429   19.1299 C   0  0  0  0  0  0
    0.3059   47.8648   20.0811 O   0  0  0  0  0  0
    1.9071   49.0974   19.0136 N   0  0  0  0  0  0
    2.1173   50.1584   19.9149 C   0  0  0  0  0  0
    2.7059   51.3040   19.3850 C   0  0  0  0  0  0
    3.0168   52.3841   20.2064 C   0  0  0  0  0  0
    2.7551   52.3387   21.5840 C   0  0  0  0  0  0
    2.1375   51.1890   22.1090 C   0  0  0  0  0  0
    1.8243   50.1080   21.2854 C   0  0  0  0  0  0
    3.2188   53.4838   22.4682 C   0  0  0  0  0  0
    3.7303   54.4915   21.9758 O   0  0  0  0  0  0
    3.1167   53.3025   23.8020 N   0  0  0  0  0  0
    3.9364   53.8818   24.7996 C   0  0  0  0  0  0
    5.1790   54.4963   24.5491 C   0  0  0  0  0  0
    5.9963   54.8985   25.6079 C   0  0  0  0  0  0
    5.5945   54.6853   26.9267 C   0  0  0  0  0  0
    4.3594   54.0891   27.1833 C   0  0  0  0  0  0
    3.5382   53.6970   26.1216 C   0  0  0  0  0  0
    3.8142   53.7951   28.8569 S   0  0  0  0  0  0
    4.3239   54.8960   29.6798 O   0  0  0  0  0  0
    4.1501   52.4039   29.1783 O   0  0  0  0  0  0
    2.0576   53.9446   28.7209 N   0  0  0  0  0  0
    1.4841   55.3001   28.8359 C   0  0  0  0  0  0
    1.1499   55.6140   30.3045 C   0  0  0  0  0  0
    0.3056   54.4828   30.9400 C   0  0  0  0  0  0
    0.8872   53.0667   30.7117 C   0  0  0  0  0  0
    1.1961   52.8491   29.2229 C   0  0  0  0  0  0
    0.9811   44.5718   15.0073 H   0  0  0  0  0  0
    3.0397   45.8713   15.4729 H   0  0  0  0  0  0
    3.1035   47.4284   17.3487 H   0  0  0  0  0  0
   -0.9764   46.4257   18.3201 H   0  0  0  0  0  0
   -1.0133   44.8469   16.4370 H   0  0  0  0  0  0
    2.4374   49.1673   18.1543 H   0  0  0  0  0  0
    2.9641   51.3529   18.3359 H   0  0  0  0  0  0
    3.4976   53.2440   19.7622 H   0  0  0  0  0  0
    1.9200   51.0902   23.1625 H   0  0  0  0  0  0
    1.3944   49.2285   21.7388 H   0  0  0  0  0  0
    2.5256   52.5501   24.1168 H   0  0  0  0  0  0
    5.5523   54.6326   23.5465 H   0  0  0  0  0  0
    6.9505   55.3560   25.4002 H   0  0  0  0  0  0
    6.2323   54.9865   27.7474 H   0  0  0  0  0  0
    2.6012   53.1958   26.3217 H   0  0  0  0  0  0
    0.5669   55.3130   28.2482 H   0  0  0  0  0  0
    2.1628   56.0272   28.3904 H   0  0  0  0  0  0
    0.6222   56.5657   30.3791 H   0  0  0  0  0  0
    2.0696   55.7560   30.8675 H   0  0  0  0  0  0
    0.1644   54.6594   32.0053 H   0  0  0  0  0  0
   -0.6770   54.5198   30.4825 H   0  0  0  0  0  0
    1.7938   52.9244   31.2988 H   0  0  0  0  0  0
    0.1785   52.3140   31.0635 H   0  0  0  0  0  0
    0.2574   52.8863   28.6727 H   0  0  0  0  0  0
    1.6506   51.8841   29.0000 H   0  0  0  0  0  0
  1  6  2  0  0  0
  1  2  1  0  0  0
  1 34  1  0  0  0
  2  3  2  0  0  0
  2 35  1  0  0  0
  3  4  1  0  0  0
  3 36  1  0  0  0
  4  5  2  0  0  0
  4  7  1  0  0  0
  5  6  1  0  0  0
  5 37  1  0  0  0
  6 38  1  0  0  0
  7  8  2  0  0  0
  7  9  1  0  0  0
  9 10  1  0  0  0
  9 39  1  0  0  0
 10 15  2  0  0  0
 10 11  1  0  0  0
 11 12  2  0  0  0
 11 40  1  0  0  0
 12 13  1  0  0  0
 12 41  1  0  0  0
 13 14  2  0  0  0
 13 16  1  0  0  0
 14 15  1  0  0  0
 14 42  1  0  0  0
 15 43  1  0  0  0
 16 17  2  0  0  0
 16 18  1  0  0  0
 18 19  1  0  0  0
 18 44  1  0  0  0
 19 24  2  0  0  0
 19 20  1  0  0  0
 20 21  2  0  0  0
 20 45  1  0  0  0
 21 22  1  0  0  0
 21 46  1  0  0  0
 22 23  2  0  0  0
 22 47  1  0  0  0
 23 24  1  0  0  0
 23 25  1  0  0  0
 24 48  1  0  0  0
 25 26  2  0  0  0
 25 27  2  0  0  0
 25 28  1  0  0  0
 28 33  1  0  0  0
 28 29  1  0  0  0
 29 30  1  0  0  0
 29 49  1  0  0  0
 29 50  1  0  0  0
 30 31  1  0  0  0
 30 51  1  0  0  0
 30 52  1  0  0  0
 31 32  1  0  0  0
 31 53  1  0  0  0
 31 54  1  0  0  0
 32 33  1  0  0  0
 32 55  1  0  0  0
 32 56  1  0  0  0
 33 57  1  0  0  0
 33 58  1  0  0  0
M  END
> <i_i_glide_confnum>
311

> <i_i_glide_lignum>
82

> <i_i_glide_posenum>
311

> <i_i_glide_rotatable_bonds>
8

> <i_m_Source_File_Index>
1026

> <b_m_subgroup_collapsed>
0

> <r_i_docking_score>
-5.34995

> <r_i_glide_ecoul>
-3.84689

> <r_i_glide_eff_state_penalty>
0

> <r_i_glide_einternal>
14.108

> <r_i_glide_emodel>
-59.2424

> <r_i_glide_energy>
-52.6627

> <r_i_glide_erotb>
0.750287

> <r_i_glide_esite>
-0.0940885

> <r_i_glide_evdw>
-48.8158

> <r_i_glide_gscore>
-5.34995

> <r_i_glide_hbond>
-0.0479244

> <r_i_glide_ligand_efficiency>
-0.16212

> <r_i_glide_ligand_efficiency_ln>
-1.1898

> <r_i_glide_ligand_efficiency_sa>
-0.520005

> <r_i_glide_lipo>
-2.79214

> <r_i_glide_metal>
0

> <r_i_glide_rewards>
-0.14826

> <s_i_glide_gridfile>
wee1_glide-grid

> <s_m_Source_File>
wee1_decoys_glide_SP.sdf

> <s_m_Source_Path>
/Users/zhangxujun/Desktop

> <s_m_entry_id>
1301

> <s_m_entry_name>
wee1_decoys_glide_SP.1026

> <s_m_subgroup_title>
wee1_decoys_glide_SP

> <s_m_subgroupid>
wee1_decoys_glide_SP


$$$$
