ZINC36698263_5758
                    3D
 Schrodinger Suite 2024-2.
 73 75  0  0  1  0            999 V2000
   14.0246   54.0866   17.0917 C   0  0  0  0  0  0
   12.8198   55.0336   16.9964 C   0  0  0  0  0  0
   11.4930   54.3551   17.3755 C   0  0  0  0  0  0
   10.2757   55.2542   17.1113 C   0  0  0  0  0  0
    9.0020   54.6857   17.6324 N   0  0  0  0  0  0
    8.6521   53.2868   17.2484 C   0  0  0  0  0  0
    8.5376   53.0655   15.7248 C   0  0  0  0  0  0
    8.2259   51.6038   15.3481 C   0  0  0  0  0  0
    9.3371   50.6052   15.7200 C   0  0  0  0  0  0
    7.6756   55.8553   17.7785 S   0  0  0  0  0  0
    8.2214   57.0897   18.3589 O   0  0  0  0  0  0
    6.9638   55.8979   16.4958 O   0  0  0  0  0  0
    6.5552   55.1745   18.9974 C   0  0  0  0  0  0
    6.7911   55.3963   20.3527 C   0  0  0  0  0  0
    5.9015   54.8991   21.3006 C   0  0  0  0  0  0
    4.7635   54.1729   20.9024 C   0  0  0  0  0  0
    4.5582   53.9374   19.5359 C   0  0  0  0  0  0
    5.4445   54.4372   18.5881 C   0  0  0  0  0  0
    3.7626   53.6325   21.9086 C   0  0  0  0  0  0
    2.9182   52.7998   21.5644 O   0  0  0  0  0  0
    3.9592   54.0730   23.2125 N   0  0  0  0  0  0
    3.1653   53.8489   24.1940 C   0  0  0  0  0  0
    3.4507   54.1240   25.5292 N   0  0  0  0  0  0
    2.5788   53.6042   26.4999 C   0  0  0  0  0  0
    2.7174   53.6080   27.8948 C   0  0  0  0  0  0
    1.7360   53.0242   28.7065 C   0  0  0  0  0  0
    0.6093   52.4229   28.1174 C   0  0  0  0  0  0
    0.4870   52.4070   26.7254 C   0  0  0  0  0  0
    1.4681   52.9989   25.9317 C   0  0  0  0  0  0
    1.5061   53.1111   24.1883 S   0  0  0  0  0  0
   -0.4906   51.7927   28.9614 C   0  0  0  0  0  0
    1.9269   53.0334   30.2181 C   0  0  0  0  0  0
    4.6987   54.7954   25.9211 C   0  0  0  0  0  0
    5.9166   53.8519   25.8663 C   0  0  0  0  0  0
    7.0753   54.4904   26.3766 O   0  0  0  0  0  0
    7.1790   54.4069   27.7870 C   0  0  0  0  0  0
   14.9556   54.6109   16.8615 H   0  0  0  0  0  0
   13.9284   53.2569   16.3896 H   0  0  0  0  0  0
   14.1245   53.6641   18.0898 H   0  0  0  0  0  0
   12.9846   55.8943   17.6459 H   0  0  0  0  0  0
   12.7560   55.4202   15.9788 H   0  0  0  0  0  0
   11.3959   53.4206   16.8176 H   0  0  0  0  0  0
   11.5043   54.0965   18.4351 H   0  0  0  0  0  0
   10.4297   56.2241   17.5852 H   0  0  0  0  0  0
   10.1546   55.4498   16.0451 H   0  0  0  0  0  0
    9.4039   52.6285   17.6848 H   0  0  0  0  0  0
    7.7056   53.0242   17.7211 H   0  0  0  0  0  0
    7.7490   53.7000   15.3221 H   0  0  0  0  0  0
    9.4622   53.3630   15.2279 H   0  0  0  0  0  0
    7.2910   51.2982   15.8185 H   0  0  0  0  0  0
    8.0498   51.5439   14.2737 H   0  0  0  0  0  0
    9.1059   49.6071   15.3457 H   0  0  0  0  0  0
   10.2975   50.9003   15.2946 H   0  0  0  0  0  0
    9.4624   50.5234   16.7999 H   0  0  0  0  0  0
    7.6587   55.9561   20.6713 H   0  0  0  0  0  0
    6.1115   55.0856   22.3447 H   0  0  0  0  0  0
    3.6987   53.3771   19.1936 H   0  0  0  0  0  0
    5.2587   54.2556   17.5378 H   0  0  0  0  0  0
    3.5811   54.0538   28.3664 H   0  0  0  0  0  0
   -0.3721   51.9400   26.2649 H   0  0  0  0  0  0
   -0.8288   52.4832   29.7350 H   0  0  0  0  0  0
   -1.3616   51.5143   28.3673 H   0  0  0  0  0  0
   -0.1183   50.8968   29.4551 H   0  0  0  0  0  0
    2.9516   53.2814   30.4939 H   0  0  0  0  0  0
    1.2466   53.7441   30.6858 H   0  0  0  0  0  0
    1.7157   52.0512   30.6376 H   0  0  0  0  0  0
    4.8660   55.6282   25.2399 H   0  0  0  0  0  0
    4.5977   55.2294   26.9113 H   0  0  0  0  0  0
    5.7208   52.9090   26.3856 H   0  0  0  0  0  0
    6.1324   53.6026   24.8274 H   0  0  0  0  0  0
    8.1040   54.8963   28.0814 H   0  0  0  0  0  0
    6.3450   54.8951   28.2925 H   0  0  0  0  0  0
    7.2358   53.3719   28.1244 H   0  0  0  0  0  0
  1  2  1  0  0  0
  1 37  1  0  0  0
  1 38  1  0  0  0
  1 39  1  0  0  0
  2  3  1  0  0  0
  2 40  1  0  0  0
  2 41  1  0  0  0
  3  4  1  0  0  0
  3 42  1  0  0  0
  3 43  1  0  0  0
  4  5  1  0  0  0
  4 44  1  0  0  0
  4 45  1  0  0  0
  5  6  1  0  0  0
  5 10  1  0  0  0
  6  7  1  0  0  0
  6 46  1  0  0  0
  6 47  1  0  0  0
  7  8  1  0  0  0
  7 48  1  0  0  0
  7 49  1  0  0  0
  8  9  1  0  0  0
  8 50  1  0  0  0
  8 51  1  0  0  0
  9 52  1  0  0  0
  9 53  1  0  0  0
  9 54  1  0  0  0
 10 11  2  0  0  0
 10 12  2  0  0  0
 10 13  1  0  0  0
 13 18  2  0  0  0
 13 14  1  0  0  0
 14 15  2  0  0  0
 14 55  1  0  0  0
 15 16  1  0  0  0
 15 56  1  0  0  0
 16 17  2  0  0  0
 16 19  1  0  0  0
 17 18  1  0  0  0
 17 57  1  0  0  0
 18 58  1  0  0  0
 19 20  2  0  0  0
 19 21  1  0  0  0
 21 22  2  0  0  0
 22 30  1  0  0  0
 22 23  1  0  0  0
 23 24  1  0  0  0
 23 33  1  0  0  0
 24 29  2  0  0  0
 24 25  1  0  0  0
 25 26  2  0  0  0
 25 59  1  0  0  0
 26 27  1  0  0  0
 26 32  1  0  0  0
 27 28  2  0  0  0
 27 31  1  0  0  0
 28 29  1  0  0  0
 28 60  1  0  0  0
 29 30  1  0  0  0
 31 61  1  0  0  0
 31 62  1  0  0  0
 31 63  1  0  0  0
 32 64  1  0  0  0
 32 65  1  0  0  0
 32 66  1  0  0  0
 33 34  1  0  0  0
 33 67  1  0  0  0
 33 68  1  0  0  0
 34 35  1  0  0  0
 34 69  1  0  0  0
 34 70  1  0  0  0
 35 36  1  0  0  0
 36 71  1  0  0  0
 36 72  1  0  0  0
 36 73  1  0  0  0
M  END
> <i_i_glide_confnum>
97

> <i_i_glide_lignum>
5759

> <i_i_glide_posenum>
226

> <i_i_glide_rotatable_bonds>
13

> <i_m_Source_File_Index>
3359

> <b_m_subgroup_collapsed>
0

> <r_i_docking_score>
-4.45315

> <r_i_glide_ecoul>
-1.63093

> <r_i_glide_eff_state_penalty>
0

> <r_i_glide_einternal>
10.913

> <r_i_glide_emodel>
-53.5729

> <r_i_glide_energy>
-49.4792

> <r_i_glide_erotb>
0.729356

> <r_i_glide_esite>
0

> <r_i_glide_evdw>
-47.8483

> <r_i_glide_gscore>
-4.45315

> <r_i_glide_hbond>
-0.29919

> <r_i_glide_ligand_efficiency>
-0.123699

> <r_i_glide_ligand_efficiency_ln>
-0.971558

> <r_i_glide_ligand_efficiency_sa>
-0.408444

> <r_i_glide_lipo>
-2.87076

> <r_i_glide_metal>
0

> <r_i_glide_rewards>
0.624499

> <s_i_glide_gridfile>
wee1_glide-grid

> <s_m_Source_File>
wee1_decoys_glide_SP.sdf

> <s_m_Source_Path>
/Users/zhangxujun/Desktop

> <s_m_entry_id>
3634

> <s_m_entry_name>
wee1_decoys_glide_SP.3359

> <s_m_subgroup_title>
wee1_decoys_glide_SP

> <s_m_subgroupid>
wee1_decoys_glide_SP


$$$$
