ZINC14646994_4272
                    3D
 Schrodinger Suite 2024-2.
 47 49  0  0  1  0            999 V2000
    0.3044   53.6961   32.1241 C   0  0  0  0  0  0
    0.9774   52.7935   31.0811 C   0  0  0  0  0  0
    1.1332   53.4485   29.7015 C   0  0  0  0  0  0
    1.7931   52.5154   28.8525 O   0  0  0  0  0  0
    2.6655   53.0612   27.9430 C   0  0  0  0  0  0
    2.1868   53.6178   26.7600 C   0  0  0  0  0  0
    3.0771   54.0969   25.8013 C   0  0  0  0  0  0
    4.4641   54.0659   26.0250 C   0  0  0  0  0  0
    4.9347   53.5512   27.2421 C   0  0  0  0  0  0
    4.0410   53.0142   28.1750 C   0  0  0  0  0  0
    4.7008   52.0971   29.7061 Br  0  0  0  0  0  0
    5.4297   54.4969   24.9467 C   0  0  0  0  0  0
    6.4854   55.0666   25.2326 O   0  0  0  0  0  0
    5.0320   54.1331   23.7064 N   0  0  0  0  0  0
    5.5921   54.3867   22.4557 C   0  0  0  0  0  0
    5.1038   53.8905   21.2271 C   0  0  0  0  0  0
    5.7968   54.4702   20.1214 C   0  0  0  0  0  0
    6.8579   55.2967   20.5286 C   0  0  0  0  0  0
    7.0054   55.3726   22.2433 S   0  0  0  0  0  0
    7.7720   56.0911   19.6067 C   0  0  0  0  0  0
    7.6493   55.5385   18.1750 C   0  0  0  0  0  0
    6.1770   55.3582   17.7711 C   0  0  0  0  0  0
    5.4683   54.2881   18.6309 C   0  0  0  0  0  0
    3.9602   52.9840   21.1437 C   0  0  0  0  0  0
    3.1175   52.9049   22.0371 O   0  0  0  0  0  0
    3.9022   52.1810   20.0819 N   0  0  0  0  0  0
    0.4952   53.3193   33.1304 H   0  0  0  0  0  0
   -0.7756   53.7004   32.0142 H   0  0  0  0  0  0
    0.6738   54.7211   32.0798 H   0  0  0  0  0  0
    1.9618   52.4969   31.4462 H   0  0  0  0  0  0
    0.4013   51.8722   30.9909 H   0  0  0  0  0  0
    0.1589   53.6946   29.2799 H   0  0  0  0  0  0
    1.6913   54.3825   29.8036 H   0  0  0  0  0  0
    1.1239   53.6384   26.5691 H   0  0  0  0  0  0
    2.6712   54.4893   24.8785 H   0  0  0  0  0  0
    5.9975   53.4827   27.4326 H   0  0  0  0  0  0
    4.1920   53.5729   23.6570 H   0  0  0  0  0  0
    7.4724   57.1390   19.6084 H   0  0  0  0  0  0
    8.8102   56.0543   19.9393 H   0  0  0  0  0  0
    8.1507   56.2100   17.4778 H   0  0  0  0  0  0
    8.1704   54.5817   18.0985 H   0  0  0  0  0  0
    5.6529   56.3125   17.8617 H   0  0  0  0  0  0
    6.1106   55.0821   16.7166 H   0  0  0  0  0  0
    5.7930   53.2993   18.3039 H   0  0  0  0  0  0
    4.3936   54.3368   18.4500 H   0  0  0  0  0  0
    4.6296   52.1619   19.3785 H   0  0  0  0  0  0
    3.1400   51.5251   20.0052 H   0  0  0  0  0  0
  1  2  1  0  0  0
  1 27  1  0  0  0
  1 28  1  0  0  0
  1 29  1  0  0  0
  2  3  1  0  0  0
  2 30  1  0  0  0
  2 31  1  0  0  0
  3  4  1  0  0  0
  3 32  1  0  0  0
  3 33  1  0  0  0
  4  5  1  0  0  0
  5 10  2  0  0  0
  5  6  1  0  0  0
  6  7  2  0  0  0
  6 34  1  0  0  0
  7  8  1  0  0  0
  7 35  1  0  0  0
  8  9  2  0  0  0
  8 12  1  0  0  0
  9 10  1  0  0  0
  9 36  1  0  0  0
 10 11  1  0  0  0
 12 13  2  0  0  0
 12 14  1  0  0  0
 14 15  1  0  0  0
 14 37  1  0  0  0
 15 19  1  0  0  0
 15 16  2  0  0  0
 16 17  1  0  0  0
 16 24  1  0  0  0
 17 23  1  0  0  0
 17 18  2  0  0  0
 18 19  1  0  0  0
 18 20  1  0  0  0
 20 21  1  0  0  0
 20 38  1  0  0  0
 20 39  1  0  0  0
 21 22  1  0  0  0
 21 40  1  0  0  0
 21 41  1  0  0  0
 22 23  1  0  0  0
 22 42  1  0  0  0
 22 43  1  0  0  0
 23 44  1  0  0  0
 23 45  1  0  0  0
 24 25  2  0  0  0
 24 26  1  0  0  0
 26 46  1  0  0  0
 26 47  1  0  0  0
M  END
> <i_i_glide_confnum>
59

> <i_i_glide_lignum>
4273

> <i_i_glide_posenum>
353

> <i_i_glide_rotatable_bonds>
7

> <i_m_Source_File_Index>
3049

> <b_m_subgroup_collapsed>
0

> <r_i_docking_score>
-5.32288

> <r_i_glide_ecoul>
-3.12903

> <r_i_glide_eff_state_penalty>
0

> <r_i_glide_einternal>
8.77454

> <r_i_glide_emodel>
-57.493

> <r_i_glide_energy>
-45.7314

> <r_i_glide_erotb>
0.521251

> <r_i_glide_esite>
-0.0531057

> <r_i_glide_evdw>
-42.6024

> <r_i_glide_gscore>
-5.32288

> <r_i_glide_hbond>
-0.0285243

> <r_i_glide_ligand_efficiency>
-0.204726

> <r_i_glide_ligand_efficiency_ln>
-1.25006

> <r_i_glide_ligand_efficiency_sa>
-0.606501

> <r_i_glide_lipo>
-2.2537

> <r_i_glide_metal>
0

> <r_i_glide_rewards>
-0.909328

> <s_i_glide_gridfile>
wee1_glide-grid

> <s_m_Source_File>
wee1_decoys_glide_SP.sdf

> <s_m_Source_Path>
/Users/zhangxujun/Desktop

> <s_m_entry_id>
3324

> <s_m_entry_name>
wee1_decoys_glide_SP.3049

> <s_m_subgroup_title>
wee1_decoys_glide_SP

> <s_m_subgroupid>
wee1_decoys_glide_SP


$$$$
