ZINC38845452_1093
                    3D
 Schrodinger Suite 2024-2.
 68 70  0  0  1  0            999 V2000
    2.3034   51.1734   18.2724 C   0  0  0  0  0  0
    2.6810   52.6607   18.1486 C   0  0  0  0  0  0
    4.1120   52.8083   17.5642 N   0  3  0  0  0  0
    4.1339   52.4968   16.0420 C   0  0  0  0  0  0
    5.5658   52.4236   15.4812 C   0  0  0  0  0  0
    4.7868   54.1662   17.8925 C   0  0  0  0  0  0
    4.8054   54.4892   19.4110 C   0  0  0  0  0  0
    5.9597   55.2881   19.9002 N   0  0  0  0  0  0
    6.5334   56.2365   19.0347 C   0  0  0  0  0  0
    7.8241   56.4142   18.8895 N   0  0  0  0  0  0
    8.0961   57.3848   17.9776 C   0  0  0  0  0  0
    9.3812   57.7952   17.5969 C   0  0  0  0  0  0
    9.4982   58.7903   16.6232 C   0  0  0  0  0  0
    8.3684   59.3714   16.0371 C   0  0  0  0  0  0
    7.0816   58.9792   16.4097 C   0  0  0  0  0  0
    6.9574   57.9896   17.3878 C   0  0  0  0  0  0
    5.5068   57.2958   18.0815 S   0  0  0  0  0  0
    8.5696   60.6002   14.7502 S   0  0  0  0  0  0
    8.1817   59.9486   13.4958 O   0  0  0  0  0  0
    9.9103   61.1752   14.9050 O   0  0  0  0  0  0
    7.3124   61.9502   15.1261 C   0  0  0  0  0  0
    6.3172   55.2967   21.2256 C   0  0  0  0  0  0
    7.1593   56.0732   21.6818 O   0  0  0  0  0  0
    5.6409   54.3092   22.2121 C   0  0  0  0  0  0
    6.3306   54.0923   23.5873 C   0  0  0  0  0  0
    6.4061   55.3095   24.5312 C   0  0  0  0  0  0
    6.7044   54.8966   26.2737 S   0  0  0  0  0  0
    5.2327   54.2542   27.0212 C   0  0  0  0  0  0
    4.0211   54.1962   26.3268 C   0  0  0  0  0  0
    2.8850   53.6961   26.9593 C   0  0  0  0  0  0
    2.9606   53.2527   28.2812 C   0  0  0  0  0  0
    4.1726   53.3079   28.9712 C   0  0  0  0  0  0
    5.3063   53.8147   28.3422 C   0  0  0  0  0  0
    1.7270   52.6818   28.9587 C   0  0  0  0  0  0
    1.3530   51.0578   18.7926 H   0  0  0  0  0  0
    2.1974   50.6804   17.3063 H   0  0  0  0  0  0
    3.0551   50.6201   18.8367 H   0  0  0  0  0  0
    2.6762   53.1104   19.1409 H   0  0  0  0  0  0
    2.0088   53.2335   17.5068 H   0  0  0  0  0  0
    3.6507   51.5262   15.9231 H   0  0  0  0  0  0
    3.5262   53.2598   15.5524 H   0  0  0  0  0  0
    5.5549   52.0192   14.4686 H   0  0  0  0  0  0
    6.0402   53.4028   15.4241 H   0  0  0  0  0  0
    6.2000   51.7694   16.0804 H   0  0  0  0  0  0
    4.2247   54.9022   17.3145 H   0  0  0  0  0  0
    5.8036   54.0815   17.5101 H   0  0  0  0  0  0
    4.7687   53.5340   19.9314 H   0  0  0  0  0  0
    3.8895   55.0180   19.6787 H   0  0  0  0  0  0
   10.2568   57.3425   18.0399 H   0  0  0  0  0  0
   10.4851   59.1025   16.3084 H   0  0  0  0  0  0
    6.2027   59.4334   15.9734 H   0  0  0  0  0  0
    7.3861   62.7102   14.3523 H   0  0  0  0  0  0
    7.5392   62.3860   16.0945 H   0  0  0  0  0  0
    6.3069   61.5324   15.1376 H   0  0  0  0  0  0
    4.6105   54.6286   22.3702 H   0  0  0  0  0  0
    5.6009   53.3223   21.7532 H   0  0  0  0  0  0
    5.7876   53.3002   24.1024 H   0  0  0  0  0  0
    7.3376   53.6967   23.4395 H   0  0  0  0  0  0
    7.2183   55.9643   24.2172 H   0  0  0  0  0  0
    5.5042   55.9111   24.4820 H   0  0  0  0  0  0
    3.9413   54.5325   25.3055 H   0  0  0  0  0  0
    1.9501   53.6484   26.4209 H   0  0  0  0  0  0
    4.2399   52.9604   29.9915 H   0  0  0  0  0  0
    6.2432   53.8661   28.8794 H   0  0  0  0  0  0
    1.1226   52.1156   28.2473 H   0  0  0  0  0  0
    1.9945   51.9881   29.7574 H   0  0  0  0  0  0
    1.1095   53.4797   29.3741 H   0  0  0  0  0  0
    4.6647   52.0568   17.9883 H   0  0  0  0  0  0
  1  2  1  0  0  0
  1 35  1  0  0  0
  1 36  1  0  0  0
  1 37  1  0  0  0
  2  3  1  0  0  0
  2 38  1  0  0  0
  2 39  1  0  0  0
  3  4  1  0  0  0
  3  6  1  0  0  0
  3 68  1  0  0  0
  4  5  1  0  0  0
  4 40  1  0  0  0
  4 41  1  0  0  0
  5 42  1  0  0  0
  5 43  1  0  0  0
  5 44  1  0  0  0
  6  7  1  0  0  0
  6 45  1  0  0  0
  6 46  1  0  0  0
  7  8  1  0  0  0
  7 47  1  0  0  0
  7 48  1  0  0  0
  8  9  1  0  0  0
  8 22  1  0  0  0
  9 17  1  0  0  0
  9 10  2  0  0  0
 10 11  1  0  0  0
 11 16  2  0  0  0
 11 12  1  0  0  0
 12 13  2  0  0  0
 12 49  1  0  0  0
 13 14  1  0  0  0
 13 50  1  0  0  0
 14 15  2  0  0  0
 14 18  1  0  0  0
 15 16  1  0  0  0
 15 51  1  0  0  0
 16 17  1  0  0  0
 18 19  2  0  0  0
 18 20  2  0  0  0
 18 21  1  0  0  0
 21 52  1  0  0  0
 21 53  1  0  0  0
 21 54  1  0  0  0
 22 23  2  0  0  0
 22 24  1  0  0  0
 24 25  1  0  0  0
 24 55  1  0  0  0
 24 56  1  0  0  0
 25 26  1  0  0  0
 25 57  1  0  0  0
 25 58  1  0  0  0
 26 27  1  0  0  0
 26 59  1  0  0  0
 26 60  1  0  0  0
 27 28  1  0  0  0
 28 33  2  0  0  0
 28 29  1  0  0  0
 29 30  2  0  0  0
 29 61  1  0  0  0
 30 31  1  0  0  0
 30 62  1  0  0  0
 31 32  2  0  0  0
 31 34  1  0  0  0
 32 33  1  0  0  0
 32 63  1  0  0  0
 33 64  1  0  0  0
 34 65  1  0  0  0
 34 66  1  0  0  0
 34 67  1  0  0  0
M  CHG  1   3   1
M  END
> <i_i_glide_confnum>
183

> <i_i_glide_lignum>
1094

> <i_i_glide_posenum>
318

> <i_i_glide_rotatable_bonds>
13

> <i_m_Source_File_Index>
5541

> <b_m_subgroup_collapsed>
0

> <r_i_docking_score>
-6.29143

> <r_i_glide_ecoul>
-8.56881

> <r_i_glide_eff_state_penalty>
0

> <r_i_glide_einternal>
11.4643

> <r_i_glide_emodel>
-69.7385

> <r_i_glide_energy>
-50.7806

> <r_i_glide_erotb>
0.757904

> <r_i_glide_esite>
-0.0931962

> <r_i_glide_evdw>
-42.2118

> <r_i_glide_gscore>
-6.29143

> <r_i_glide_hbond>
-0.227531

> <r_i_glide_ligand_efficiency>
-0.185042

> <r_i_glide_ligand_efficiency_ln>
-1.38995

> <r_i_glide_ligand_efficiency_sa>
-0.599464

> <r_i_glide_lipo>
-2.86438

> <r_i_glide_metal>
0

> <r_i_glide_rewards>
-0.468313

> <s_i_glide_gridfile>
wee1_glide-grid

> <s_m_Source_File>
wee1_decoys_glide_SP.sdf

> <s_m_Source_Path>
/Users/zhangxujun/Desktop

> <s_m_entry_id>
5816

> <s_m_entry_name>
wee1_decoys_glide_SP.5541

> <s_m_subgroup_title>
wee1_decoys_glide_SP

> <s_m_subgroupid>
wee1_decoys_glide_SP


$$$$
