ZINC35701875_4631
                    3D
 Schrodinger Suite 2024-2.
 63 66  0  0  1  0            999 V2000
    3.3564   53.7850   26.4178 C   0  0  0  0  0  0
    3.5261   53.7600   24.8988 C   0  0  0  0  0  0
    2.5607   53.5538   23.9530 C   0  0  0  0  0  0
    2.8861   53.6997   22.4287 C   0  0  1  0  0  0
    2.3115   54.5588   22.0799 H   0  0  0  0  0  0
    4.3207   54.0965   22.2376 N   0  0  0  0  0  0
    4.9299   54.4634   21.0322 C   0  0  0  0  0  0
    6.1838   54.9092   21.2276 C   0  0  0  0  0  0
    6.7037   54.8815   22.8994 S   0  0  0  0  0  0
    5.1239   54.2665   23.3683 C   0  0  0  0  0  0
    4.8078   54.0985   24.5902 N   0  0  0  0  0  0
    4.3040   54.4720   19.7090 C   0  0  0  0  0  0
    4.5280   55.3518   18.7097 C   0  0  0  0  0  0
    5.3341   56.3541   18.6635 O   0  5  0  0  0  0
    3.8094   55.2702   17.5367 N   0  0  0  0  0  0
    4.2245   55.6017   16.1712 C   0  0  0  0  0  0
    4.8103   54.4244   15.3680 C   0  0  1  0  0  0
    5.0306   54.7562   14.3511 H   0  0  0  0  0  0
    6.0710   53.7792   15.9486 C   0  0  0  0  0  0
    5.9613   52.3618   15.4473 C   0  0  0  0  0  0
    4.4610   52.0998   15.5704 C   0  0  0  0  0  0
    3.8510   53.3647   15.3084 O   0  0  0  0  0  0
    2.4496   52.5048   21.5527 C   0  0  0  0  0  0
    3.3456   51.4966   21.1834 C   0  0  0  0  0  0
    2.9363   50.4887   20.3151 C   0  0  0  0  0  0
    1.6209   50.4300   19.8514 C   0  0  0  0  0  0
    0.7224   51.4283   20.2267 C   0  0  0  0  0  0
    1.1422   52.4623   21.0559 C   0  0  0  0  0  0
    1.1618   49.2965   18.9342 C   0  0  0  0  0  0
   -0.0106   48.8176   19.3554 F   0  0  0  0  0  0
    1.0092   49.7624   17.6946 F   0  0  0  0  0  0
    2.0272   48.2803   18.9048 F   0  0  0  0  0  0
    1.1841   53.1987   24.3083 C   0  0  0  0  0  0
    0.2144   53.6870   23.7307 O   0  0  0  0  0  0
    1.1001   52.2467   25.2720 O   0  0  0  0  0  0
   -0.1458   51.6996   25.6946 C   0  0  0  0  0  0
   -0.6188   50.6153   24.7082 C   0  0  0  0  0  0
    0.0572   51.1347   27.1077 C   0  0  0  0  0  0
    3.7947   52.8909   26.8602 H   0  0  0  0  0  0
    3.8545   54.6529   26.8531 H   0  0  0  0  0  0
    2.3166   53.8477   26.7339 H   0  0  0  0  0  0
    6.8541   55.2724   20.4624 H   0  0  0  0  0  0
    3.5759   53.7024   19.5085 H   0  0  0  0  0  0
    3.0708   54.5845   17.5313 H   0  0  0  0  0  0
    4.9239   56.4386   16.1734 H   0  0  0  0  0  0
    3.3441   55.9752   15.6481 H   0  0  0  0  0  0
    6.0542   53.7940   17.0395 H   0  0  0  0  0  0
    6.9825   54.3055   15.6645 H   0  0  0  0  0  0
    6.5627   51.6679   16.0354 H   0  0  0  0  0  0
    6.2793   52.2898   14.4055 H   0  0  0  0  0  0
    4.2055   51.7844   16.5836 H   0  0  0  0  0  0
    4.1309   51.3394   14.8628 H   0  0  0  0  0  0
    4.3703   51.5173   21.5245 H   0  0  0  0  0  0
    3.6476   49.7581   19.9765 H   0  0  0  0  0  0
   -0.2930   51.4163   19.8583 H   0  0  0  0  0  0
    0.4480   53.2525   21.2894 H   0  0  0  0  0  0
   -0.8956   52.4909   25.7530 H   0  0  0  0  0  0
   -1.5686   50.1856   25.0253 H   0  0  0  0  0  0
   -0.7585   51.0209   23.7064 H   0  0  0  0  0  0
    0.1055   49.8020   24.6387 H   0  0  0  0  0  0
   -0.8647   50.6992   27.4940 H   0  0  0  0  0  0
    0.8196   50.3554   27.1231 H   0  0  0  0  0  0
    0.3670   51.9142   27.8037 H   0  0  0  0  0  0
  1  2  1  0  0  0
  1 39  1  0  0  0
  1 40  1  0  0  0
  1 41  1  0  0  0
  2 11  1  0  0  0
  2  3  2  0  0  0
  3  4  1  0  0  0
  3 33  1  0  0  0
  4  5  1  0  0  0
  4  6  1  0  0  0
  4 23  1  0  0  0
  6 10  1  0  0  0
  6  7  1  0  0  0
  7  8  2  0  0  0
  7 12  1  0  0  0
  8  9  1  0  0  0
  8 42  1  0  0  0
  9 10  1  0  0  0
 10 11  2  0  0  0
 12 13  2  0  0  0
 12 43  1  0  0  0
 13 14  1  0  0  0
 13 15  1  0  0  0
 15 16  1  0  0  0
 15 44  1  0  0  0
 16 17  1  0  0  0
 16 45  1  0  0  0
 16 46  1  0  0  0
 17 18  1  0  0  0
 17 22  1  0  0  0
 17 19  1  0  0  0
 19 20  1  0  0  0
 19 47  1  0  0  0
 19 48  1  0  0  0
 20 21  1  0  0  0
 20 49  1  0  0  0
 20 50  1  0  0  0
 21 22  1  0  0  0
 21 51  1  0  0  0
 21 52  1  0  0  0
 23 28  2  0  0  0
 23 24  1  0  0  0
 24 25  2  0  0  0
 24 53  1  0  0  0
 25 26  1  0  0  0
 25 54  1  0  0  0
 26 27  2  0  0  0
 26 29  1  0  0  0
 27 28  1  0  0  0
 27 55  1  0  0  0
 28 56  1  0  0  0
 29 30  1  0  0  0
 29 31  1  0  0  0
 29 32  1  0  0  0
 33 34  2  0  0  0
 33 35  1  0  0  0
 35 36  1  0  0  0
 36 37  1  0  0  0
 36 38  1  0  0  0
 36 57  1  0  0  0
 37 58  1  0  0  0
 37 59  1  0  0  0
 37 60  1  0  0  0
 38 61  1  0  0  0
 38 62  1  0  0  0
 38 63  1  0  0  0
M  CHG  1  14  -1
M  END
> <i_i_glide_confnum>
115

> <i_i_glide_lignum>
4632

> <i_i_glide_posenum>
69

> <i_i_glide_rotatable_bonds>
9

> <i_m_Source_File_Index>
4922

> <b_m_subgroup_collapsed>
0

> <r_i_docking_score>
-3.57654

> <r_i_glide_ecoul>
-0.407913

> <r_i_glide_eff_state_penalty>
0

> <r_i_glide_einternal>
7.84622

> <r_i_glide_emodel>
-41.4769

> <r_i_glide_energy>
-35.5824

> <r_i_glide_erotb>
0.451855

> <r_i_glide_esite>
-0.132233

> <r_i_glide_evdw>
-35.1745

> <r_i_glide_gscore>
-3.57654

> <r_i_glide_hbond>
0

> <r_i_glide_ligand_efficiency>
-0.0993484

> <r_i_glide_ligand_efficiency_ln>
-0.780305

> <r_i_glide_ligand_efficiency_sa>
-0.328041

> <r_i_glide_lipo>
-1.30892

> <r_i_glide_metal>
0

> <r_i_glide_rewards>
-0.767329

> <s_i_glide_gridfile>
wee1_glide-grid

> <s_m_Source_File>
wee1_decoys_glide_SP.sdf

> <s_m_Source_Path>
/Users/zhangxujun/Desktop

> <s_m_entry_id>
5197

> <s_m_entry_name>
wee1_decoys_glide_SP.4922

> <s_m_subgroup_title>
wee1_decoys_glide_SP

> <s_m_subgroupid>
wee1_decoys_glide_SP


$$$$
