ZINC38684900_847
                    3D
 Schrodinger Suite 2024-2.
 58 61  0  0  1  0            999 V2000
   -0.5814   48.4861   24.9578 C   0  0  0  0  0  0
   -0.5183   49.5231   26.0804 C   0  0  0  0  0  0
    0.0720   50.7124   25.5682 O   0  0  0  0  0  0
    0.3925   51.7156   26.4574 C   0  0  0  0  0  0
   -0.3181   51.9956   27.6323 C   0  0  0  0  0  0
    0.0843   53.0457   28.4588 C   0  0  0  0  0  0
    1.2014   53.8134   28.1239 C   0  0  0  0  0  0
    1.9508   53.5238   26.9768 C   0  0  0  0  0  0
    1.5044   52.4934   26.1446 C   0  0  0  0  0  0
    3.2500   54.3004   26.6713 C   0  0  2  0  0  0
    3.0141   55.3373   26.8831 H   0  0  0  0  0  0
    3.7326   54.2850   25.2002 C   0  0  0  0  0  0
    2.8481   54.3306   24.1098 C   0  0  0  0  0  0
    3.3064   54.2096   22.7997 C   0  0  0  0  0  0
    4.6674   54.0967   22.5365 C   0  0  0  0  0  0
    5.5732   54.0965   23.6030 C   0  0  0  0  0  0
    5.1099   54.1922   24.9123 C   0  0  0  0  0  0
    6.0774   54.1556   25.8931 O   0  0  0  0  0  0
    5.6936   53.9469   27.1705 C   0  0  0  0  0  0
    4.4177   53.9509   27.6037 C   0  0  0  0  0  0
    4.1469   53.6765   28.9750 C   0  0  0  0  0  0
    3.9035   53.4534   30.0823 N   0  0  0  0  0  0
    6.8096   53.6966   27.9151 N   0  0  0  0  0  0
    5.0776   53.9850   21.2284 O   0  0  0  0  0  0
    5.9357   54.8971   20.7015 C   0  0  0  0  0  0
    6.3879   55.8936   21.2763 O   0  0  0  0  0  0
    6.3334   54.5143   19.2679 C   0  0  0  0  0  0
    7.6251   55.0119   18.9107 O   0  0  0  0  0  0
    7.7949   56.3391   18.5657 C   0  0  0  0  0  0
    6.7475   57.2594   18.3891 C   0  0  0  0  0  0
    7.0227   58.5799   18.0359 C   0  0  0  0  0  0
    8.3402   58.9958   17.8595 C   0  0  0  0  0  0
    9.3912   58.0943   18.0383 C   0  0  0  0  0  0
    9.1083   56.7718   18.3884 C   0  0  0  0  0  0
   10.8309   58.5454   17.8771 C   0  0  0  0  0  0
   -0.9934   47.5504   25.3312 H   0  0  0  0  0  0
    0.4150   48.2775   24.5639 H   0  0  0  0  0  0
   -1.2086   48.8319   24.1366 H   0  0  0  0  0  0
   -1.5199   49.7078   26.4733 H   0  0  0  0  0  0
    0.1041   49.1309   26.8799 H   0  0  0  0  0  0
   -1.1827   51.4100   27.9097 H   0  0  0  0  0  0
   -0.4701   53.2620   29.3604 H   0  0  0  0  0  0
    1.5045   54.6131   28.7852 H   0  0  0  0  0  0
    2.0598   52.2114   25.2624 H   0  0  0  0  0  0
    1.7874   54.4296   24.2778 H   0  0  0  0  0  0
    2.5983   54.2206   21.9838 H   0  0  0  0  0  0
    6.6354   54.0125   23.4196 H   0  0  0  0  0  0
    6.7670   53.6797   28.9234 H   0  0  0  0  0  0
    7.6397   53.3263   27.4783 H   0  0  0  0  0  0
    6.3302   53.4276   19.1695 H   0  0  0  0  0  0
    5.5753   54.8685   18.5704 H   0  0  0  0  0  0
    5.7173   56.9690   18.5175 H   0  0  0  0  0  0
    6.2227   59.2965   17.8969 H   0  0  0  0  0  0
    8.5331   60.0213   17.5815 H   0  0  0  0  0  0
    9.9145   56.0664   18.5322 H   0  0  0  0  0  0
   10.9293   59.6203   18.0250 H   0  0  0  0  0  0
   11.4634   58.0620   18.6239 H   0  0  0  0  0  0
   11.2048   58.2826   16.8875 H   0  0  0  0  0  0
  1  2  1  0  0  0
  1 36  1  0  0  0
  1 37  1  0  0  0
  1 38  1  0  0  0
  2  3  1  0  0  0
  2 39  1  0  0  0
  2 40  1  0  0  0
  3  4  1  0  0  0
  4  9  2  0  0  0
  4  5  1  0  0  0
  5  6  2  0  0  0
  5 41  1  0  0  0
  6  7  1  0  0  0
  6 42  1  0  0  0
  7  8  2  0  0  0
  7 43  1  0  0  0
  8  9  1  0  0  0
  8 10  1  0  0  0
  9 44  1  0  0  0
 10 11  1  0  0  0
 10 20  1  0  0  0
 10 12  1  0  0  0
 12 17  2  0  0  0
 12 13  1  0  0  0
 13 14  2  0  0  0
 13 45  1  0  0  0
 14 15  1  0  0  0
 14 46  1  0  0  0
 15 16  2  0  0  0
 15 24  1  0  0  0
 16 17  1  0  0  0
 16 47  1  0  0  0
 17 18  1  0  0  0
 18 19  1  0  0  0
 19 20  2  0  0  0
 19 23  1  0  0  0
 20 21  1  0  0  0
 21 22  3  0  0  0
 23 48  1  0  0  0
 23 49  1  0  0  0
 24 25  1  0  0  0
 25 26  2  0  0  0
 25 27  1  0  0  0
 27 28  1  0  0  0
 27 50  1  0  0  0
 27 51  1  0  0  0
 28 29  1  0  0  0
 29 34  2  0  0  0
 29 30  1  0  0  0
 30 31  2  0  0  0
 30 52  1  0  0  0
 31 32  1  0  0  0
 31 53  1  0  0  0
 32 33  2  0  0  0
 32 54  1  0  0  0
 33 34  1  0  0  0
 33 35  1  0  0  0
 34 55  1  0  0  0
 35 56  1  0  0  0
 35 57  1  0  0  0
 35 58  1  0  0  0
M  END
> <i_i_glide_confnum>
3

> <i_i_glide_lignum>
848

> <i_i_glide_posenum>
255

> <i_i_glide_rotatable_bonds>
9

> <i_m_Source_File_Index>
1145

> <b_m_subgroup_collapsed>
0

> <r_i_docking_score>
-5.3247

> <r_i_glide_ecoul>
-6.25758

> <r_i_glide_eff_state_penalty>
0

> <r_i_glide_einternal>
13.7475

> <r_i_glide_emodel>
-61.2264

> <r_i_glide_energy>
-53.846

> <r_i_glide_erotb>
0.675112

> <r_i_glide_esite>
0

> <r_i_glide_evdw>
-47.5884

> <r_i_glide_gscore>
-5.3247

> <r_i_glide_hbond>
-0.205982

> <r_i_glide_ligand_efficiency>
-0.156609

> <r_i_glide_ligand_efficiency_ln>
-1.17638

> <r_i_glide_ligand_efficiency_sa>
-0.507352

> <r_i_glide_lipo>
-2.80395

> <r_i_glide_metal>
0

> <r_i_glide_rewards>
0.328171

> <s_i_glide_gridfile>
wee1_glide-grid

> <s_m_Source_File>
wee1_decoys_glide_SP.sdf

> <s_m_Source_Path>
/Users/zhangxujun/Desktop

> <s_m_entry_id>
1420

> <s_m_entry_name>
wee1_decoys_glide_SP.1145

> <s_m_subgroup_title>
wee1_decoys_glide_SP

> <s_m_subgroupid>
wee1_decoys_glide_SP


$$$$
