ZINC26961100_4277
                    3D
 Schrodinger Suite 2024-2.
 48 51  0  0  1  0            999 V2000
    1.6841   52.2076   31.9204 C   0  0  0  0  0  0
    1.9376   52.5094   30.4490 C   0  0  0  0  0  0
    3.0616   53.0196   30.1255 N   0  0  0  0  0  0
    3.2615   53.3213   28.8175 C   0  0  0  0  0  0
    2.3754   53.1402   27.7500 C   0  0  0  0  0  0
    2.9195   53.5876   26.5241 C   0  0  0  0  0  0
    4.2136   54.1156   26.6880 C   0  0  0  0  0  0
    4.7523   54.0464   28.3341 S   0  0  0  0  0  0
    5.0565   54.7426   25.5843 C   0  0  0  0  0  0
    4.4854   54.3259   24.2124 C   0  0  0  0  0  0
    2.9546   54.4778   24.1524 C   0  0  0  0  0  0
    2.2230   53.5612   25.1619 C   0  0  0  0  0  0
    0.9873   52.5219   28.0653 C   0  0  2  0  0  0
    0.2301   53.2670   27.8113 H   0  0  0  0  0  0
    0.8764   52.2027   29.5210 N   0  0  0  0  0  0
   -0.4952   52.0961   29.9438 N   0  0  0  0  0  0
    0.7044   51.1299   26.9114 S   0  0  0  0  0  0
   -1.0566   50.6884   27.0173 C   0  0  0  0  0  0
   -2.0473   51.6765   26.4027 C   0  0  0  0  0  0
   -1.6683   52.4964   25.5708 O   0  0  0  0  0  0
   -3.3181   51.5425   26.8405 N   0  0  0  0  0  0
   -4.4743   52.2602   26.4797 C   0  0  0  0  0  0
   -5.6046   52.0327   27.2705 C   0  0  0  0  0  0
   -6.7960   52.7017   27.0010 C   0  0  0  0  0  0
   -6.8635   53.5888   25.9306 C   0  0  0  0  0  0
   -5.7513   53.8085   25.1226 C   0  0  0  0  0  0
   -4.5548   53.1508   25.3945 C   0  0  0  0  0  0
   -8.4964   54.4980   25.5684 Br  0  0  0  0  0  0
    1.1125   51.2976   32.0812 H   0  0  0  0  0  0
    2.6125   52.0952   32.4814 H   0  0  0  0  0  0
    1.1049   53.0127   32.3714 H   0  0  0  0  0  0
    5.0323   55.8281   25.6750 H   0  0  0  0  0  0
    6.1009   54.4420   25.6673 H   0  0  0  0  0  0
    4.9577   54.8967   23.4140 H   0  0  0  0  0  0
    4.7578   53.2963   24.0033 H   0  0  0  0  0  0
    2.7040   55.5153   24.3544 H   0  0  0  0  0  0
    2.5935   54.2717   23.1443 H   0  0  0  0  0  0
    2.2210   52.5402   24.7794 H   0  0  0  0  0  0
    1.1753   53.8523   25.2397 H   0  0  0  0  0  0
   -1.0094   52.8704   29.5535 H   0  0  0  0  0  0
   -0.8696   51.2135   29.6200 H   0  0  0  0  0  0
   -1.3155   50.5084   28.0566 H   0  0  0  0  0  0
   -1.1751   49.7389   26.4935 H   0  0  0  0  0  0
   -3.4663   50.8177   27.5276 H   0  0  0  0  0  0
   -5.5670   51.3390   28.1002 H   0  0  0  0  0  0
   -7.6706   52.5204   27.6101 H   0  0  0  0  0  0
   -5.8173   54.4817   24.2794 H   0  0  0  0  0  0
   -3.7189   53.3398   24.7393 H   0  0  0  0  0  0
  1  2  1  0  0  0
  1 29  1  0  0  0
  1 30  1  0  0  0
  1 31  1  0  0  0
  2 15  1  0  0  0
  2  3  2  0  0  0
  3  4  1  0  0  0
  4  8  1  0  0  0
  4  5  2  0  0  0
  5  6  1  0  0  0
  5 13  1  0  0  0
  6 12  1  0  0  0
  6  7  2  0  0  0
  7  8  1  0  0  0
  7  9  1  0  0  0
  9 10  1  0  0  0
  9 32  1  0  0  0
  9 33  1  0  0  0
 10 11  1  0  0  0
 10 34  1  0  0  0
 10 35  1  0  0  0
 11 12  1  0  0  0
 11 36  1  0  0  0
 11 37  1  0  0  0
 12 38  1  0  0  0
 12 39  1  0  0  0
 13 14  1  0  0  0
 13 15  1  0  0  0
 13 17  1  0  0  0
 15 16  1  0  0  0
 16 40  1  0  0  0
 16 41  1  0  0  0
 17 18  1  0  0  0
 18 19  1  0  0  0
 18 42  1  0  0  0
 18 43  1  0  0  0
 19 20  2  0  0  0
 19 21  1  0  0  0
 21 22  1  0  0  0
 21 44  1  0  0  0
 22 27  2  0  0  0
 22 23  1  0  0  0
 23 24  2  0  0  0
 23 45  1  0  0  0
 24 25  1  0  0  0
 24 46  1  0  0  0
 25 26  2  0  0  0
 25 28  1  0  0  0
 26 27  1  0  0  0
 26 47  1  0  0  0
 27 48  1  0  0  0
M  END
> <i_i_glide_confnum>
24

> <i_i_glide_lignum>
4278

> <i_i_glide_posenum>
381

> <i_i_glide_rotatable_bonds>
5

> <i_m_Source_File_Index>
462

> <b_m_subgroup_collapsed>
0

> <r_i_docking_score>
-5.21269

> <r_i_glide_ecoul>
-3.85969

> <r_i_glide_eff_state_penalty>
0

> <r_i_glide_einternal>
5.29116

> <r_i_glide_emodel>
-55.374

> <r_i_glide_energy>
-44.0904

> <r_i_glide_erotb>
0.372382

> <r_i_glide_esite>
-0.0810005

> <r_i_glide_evdw>
-40.2307

> <r_i_glide_gscore>
-5.21269

> <r_i_glide_hbond>
-0.172632

> <r_i_glide_ligand_efficiency>
-0.193063

> <r_i_glide_ligand_efficiency_ln>
-1.21343

> <r_i_glide_ligand_efficiency_sa>
-0.579188

> <r_i_glide_lipo>
-2.34414

> <r_i_glide_metal>
0

> <r_i_glide_rewards>
-0.396806

> <s_i_glide_gridfile>
wee1_glide-grid

> <s_m_Source_File>
wee1_decoys_glide_SP.sdf

> <s_m_Source_Path>
/Users/zhangxujun/Desktop

> <s_m_entry_id>
737

> <s_m_entry_name>
wee1_decoys_glide_SP.462

> <s_m_subgroup_title>
wee1_decoys_glide_SP

> <s_m_subgroupid>
wee1_decoys_glide_SP


$$$$
