ZINC20600075_1351
                    3D
 Schrodinger Suite 2024-2.
 66 69  0  0  1  0            999 V2000
    0.7562   51.4202   17.3920 C   0  0  0  0  0  0
    2.2941   51.4808   17.3590 C   0  0  0  0  0  0
    2.8038   51.8992   15.9663 C   0  0  0  0  0  0
    2.7569   52.4394   18.4992 N   0  3  1  0  0  0
    2.9001   51.6194   19.8051 C   0  0  0  0  0  0
    3.1207   52.5880   20.9676 C   0  0  0  0  0  0
    4.3391   53.5113   20.7807 C   0  0  1  0  0  0
    4.3057   54.1959   19.4018 C   0  0  0  0  0  0
    4.0731   53.2192   18.2367 C   0  0  0  0  0  0
    4.4647   54.4916   21.8529 N   0  0  0  0  0  0
    5.0402   53.9709   23.0896 C   0  0  1  0  0  0
    5.2211   52.8968   23.0114 H   0  0  0  0  0  0
    6.4202   54.6157   23.3452 C   0  0  0  0  0  0
    6.9230   54.3675   24.7731 C   0  0  0  0  0  0
    5.9707   55.0297   25.7712 C   0  0  0  0  0  0
    4.5444   54.5455   25.5655 C   0  0  0  0  0  0
    4.0960   54.0968   24.3007 C   0  0  0  0  0  0
    2.7683   53.6482   24.2631 C   0  0  0  0  0  0
    1.9772   53.5424   25.3546 N   0  0  0  0  0  0
    2.5059   53.9728   26.5280 C   0  0  0  0  0  0
    3.7510   54.4927   26.6693 N   0  0  0  0  0  0
    1.7381   53.8507   27.6821 N   0  0  0  0  0  0
    1.7046   54.9098   28.7046 C   0  0  0  0  0  0
    1.6350   54.3226   30.1249 C   0  0  0  0  0  0
    0.5458   53.2442   30.3153 C   0  0  0  0  0  0
    0.5059   52.2815   29.1144 C   0  0  0  0  0  0
    0.5173   53.0316   27.7702 C   0  0  0  0  0  0
    0.6273   52.5140   31.6705 C   0  0  0  0  0  0
    1.9179   51.9877   31.9238 O   0  0  0  0  0  0
    0.3787   50.7420   16.6278 H   0  0  0  0  0  0
    0.3118   52.3993   17.2089 H   0  0  0  0  0  0
    0.3741   51.0582   18.3463 H   0  0  0  0  0  0
    2.7033   50.4970   17.5971 H   0  0  0  0  0  0
    2.4332   51.2122   15.2041 H   0  0  0  0  0  0
    2.4732   52.9029   15.6938 H   0  0  0  0  0  0
    3.8904   51.8558   15.9072 H   0  0  0  0  0  0
    1.9705   51.0686   19.9611 H   0  0  0  0  0  0
    3.7253   50.9145   19.6816 H   0  0  0  0  0  0
    2.2207   53.1969   21.0669 H   0  0  0  0  0  0
    3.2290   51.9992   21.8762 H   0  0  0  0  0  0
    5.2207   52.8653   20.7530 H   0  0  0  0  0  0
    5.2359   54.7370   19.2253 H   0  0  0  0  0  0
    3.5060   54.9316   19.3709 H   0  0  0  0  0  0
    4.8797   52.4968   18.1102 H   0  0  0  0  0  0
    3.9370   53.8015   17.3254 H   0  0  0  0  0  0
    5.0335   55.2622   21.5431 H   0  0  0  0  0  0
    7.1485   54.2506   22.6210 H   0  0  0  0  0  0
    6.3654   55.6965   23.2014 H   0  0  0  0  0  0
    7.0291   53.2995   24.9726 H   0  0  0  0  0  0
    7.9021   54.8139   24.8833 H   0  0  0  0  0  0
    6.3032   54.8538   26.7959 H   0  0  0  0  0  0
    5.9867   56.1068   25.6230 H   0  0  0  0  0  0
    2.3191   53.3009   23.3507 H   0  0  0  0  0  0
    2.6009   55.5290   28.6437 H   0  0  0  0  0  0
    0.8587   55.5707   28.5119 H   0  0  0  0  0  0
    2.6225   53.8973   30.3190 H   0  0  0  0  0  0
    1.5135   55.1111   30.8694 H   0  0  0  0  0  0
   -0.4051   53.7797   30.2734 H   0  0  0  0  0  0
   -0.3629   51.6237   29.1870 H   0  0  0  0  0  0
    1.3649   51.6067   29.1458 H   0  0  0  0  0  0
   -0.3601   53.6741   27.6838 H   0  0  0  0  0  0
    0.4764   52.2915   26.9681 H   0  0  0  0  0  0
    0.3628   53.1921   32.4811 H   0  0  0  0  0  0
   -0.0944   51.6975   31.6816 H   0  0  0  0  0  0
    1.9857   51.8312   32.8737 H   0  0  0  0  0  0
    2.0148   53.1203   18.6229 H   0  0  0  0  0  0
  1  2  1  0  0  0
  1 30  1  0  0  0
  1 31  1  0  0  0
  1 32  1  0  0  0
  2  3  1  0  0  0
  2  4  1  0  0  0
  2 33  1  0  0  0
  3 34  1  0  0  0
  3 35  1  0  0  0
  3 36  1  0  0  0
  4  9  1  0  0  0
  4  5  1  0  0  0
  4 66  1  0  0  0
  5  6  1  0  0  0
  5 37  1  0  0  0
  5 38  1  0  0  0
  6  7  1  0  0  0
  6 39  1  0  0  0
  6 40  1  0  0  0
  7  8  1  0  0  0
  7 10  1  0  0  0
  7 41  1  0  0  0
  8  9  1  0  0  0
  8 42  1  0  0  0
  8 43  1  0  0  0
  9 44  1  0  0  0
  9 45  1  0  0  0
 10 11  1  0  0  0
 10 46  1  0  0  0
 11 12  1  0  0  0
 11 17  1  0  0  0
 11 13  1  0  0  0
 13 14  1  0  0  0
 13 47  1  0  0  0
 13 48  1  0  0  0
 14 15  1  0  0  0
 14 49  1  0  0  0
 14 50  1  0  0  0
 15 16  1  0  0  0
 15 51  1  0  0  0
 15 52  1  0  0  0
 16 21  2  0  0  0
 16 17  1  0  0  0
 17 18  2  0  0  0
 18 19  1  0  0  0
 18 53  1  0  0  0
 19 20  2  0  0  0
 20 21  1  0  0  0
 20 22  1  0  0  0
 22 27  1  0  0  0
 22 23  1  0  0  0
 23 24  1  0  0  0
 23 54  1  0  0  0
 23 55  1  0  0  0
 24 25  1  0  0  0
 24 56  1  0  0  0
 24 57  1  0  0  0
 25 26  1  0  0  0
 25 28  1  0  0  0
 25 58  1  0  0  0
 26 27  1  0  0  0
 26 59  1  0  0  0
 26 60  1  0  0  0
 27 61  1  0  0  0
 27 62  1  0  0  0
 28 29  1  0  0  0
 28 63  1  0  0  0
 28 64  1  0  0  0
 29 65  1  0  0  0
M  CHG  1   4   1
M  END
> <i_i_glide_confnum>
109

> <i_i_glide_lignum>
1352

> <i_i_glide_posenum>
125

> <i_i_glide_rotatable_bonds>
6

> <i_m_Source_File_Index>
274

> <b_m_subgroup_collapsed>
0

> <r_i_docking_score>
-6.41626

> <r_i_glide_ecoul>
-5.3246

> <r_i_glide_eff_state_penalty>
0

> <r_i_glide_einternal>
8.41001

> <r_i_glide_emodel>
-53.792

> <r_i_glide_energy>
-39.1928

> <r_i_glide_erotb>
0.516214

> <r_i_glide_esite>
-0.0437431

> <r_i_glide_evdw>
-33.8682

> <r_i_glide_gscore>
-6.41626

> <r_i_glide_hbond>
-0.386277

> <r_i_glide_ligand_efficiency>
-0.229152

> <r_i_glide_ligand_efficiency_ln>
-1.48106

> <r_i_glide_ligand_efficiency_sa>
-0.695841

> <r_i_glide_lipo>
-2.71824

> <r_i_glide_metal>
0

> <r_i_glide_rewards>
-1.29211

> <s_i_glide_gridfile>
wee1_glide-grid

> <s_m_Source_File>
wee1_decoys_glide_SP.sdf

> <s_m_Source_Path>
/Users/zhangxujun/Desktop

> <s_m_entry_id>
549

> <s_m_entry_name>
wee1_decoys_glide_SP.274

> <s_m_subgroup_title>
wee1_decoys_glide_SP

> <s_m_subgroupid>
wee1_decoys_glide_SP


$$$$
