ZINC32126266_4942
                    3D
 Schrodinger Suite 2024-2.
 47 50  0  0  1  0            999 V2000
    1.5299   51.7860   22.2617 C   0  0  0  0  0  0
    2.7271   52.3045   21.7666 C   0  0  0  0  0  0
    3.2094   53.5200   22.2555 C   0  0  0  0  0  0
    2.4621   54.2459   23.1865 C   0  0  0  0  0  0
    1.2739   53.7314   23.6819 C   0  0  0  0  0  0
    0.8089   52.4956   23.2372 C   0  0  0  0  0  0
   -0.3584   52.0440   23.8703 N   0  0  0  0  0  0
   -1.1276   50.9702   23.6123 C   0  0  0  0  0  0
   -1.0194   50.2313   22.6334 O   0  0  0  0  0  0
   -2.2333   50.7599   24.6148 C   0  0  0  0  0  0
   -3.5376   50.5544   24.1388 C   0  0  0  0  0  0
   -4.5967   50.3488   25.0214 C   0  0  0  0  0  0
   -4.3636   50.3211   26.3940 C   0  0  0  0  0  0
   -3.0710   50.4966   26.8816 C   0  0  0  0  0  0
   -2.0019   50.7108   26.0097 C   0  0  0  0  0  0
   -0.4272   50.8914   26.7191 Cl  0  0  0  0  0  0
   -5.6727   50.0571   27.4881 Cl  0  0  0  0  0  0
    4.4536   54.0035   21.8105 N   0  0  0  0  0  0
    5.4807   54.4917   22.5701 C   0  0  0  0  0  0
    6.7045   55.2968   21.7656 S   0  0  0  0  0  0
    5.3805   54.2253   23.9158 N   0  0  0  0  0  0
    6.0345   54.6797   25.0120 C   0  0  0  0  0  0
    7.1031   55.2959   24.9992 O   0  0  0  0  0  0
    5.3446   54.3881   26.3327 C   0  0  0  0  0  0
    6.0106   54.6767   27.5433 C   0  0  0  0  0  0
    5.3867   54.4968   28.7829 C   0  0  0  0  0  0
    4.0924   53.9987   28.7979 C   0  0  0  0  0  0
    3.4374   53.6964   27.6439 C   0  0  0  0  0  0
    4.0268   53.8775   26.3985 C   0  0  0  0  0  0
    2.1800   53.2728   27.9339 O   0  0  0  0  0  0
    2.1317   53.1438   29.3313 C   0  0  0  0  0  0
    3.2724   53.7731   29.8594 O   0  0  0  0  0  0
    1.1994   50.8245   21.9000 H   0  0  0  0  0  0
    3.2892   51.7445   21.0323 H   0  0  0  0  0  0
    2.8152   55.1976   23.5543 H   0  0  0  0  0  0
    0.7313   54.2948   24.4266 H   0  0  0  0  0  0
   -0.6262   52.5727   24.6849 H   0  0  0  0  0  0
   -3.7402   50.5630   23.0771 H   0  0  0  0  0  0
   -5.5969   50.2042   24.6405 H   0  0  0  0  0  0
   -2.8891   50.4353   27.9459 H   0  0  0  0  0  0
    4.5581   54.0697   20.8071 H   0  0  0  0  0  0
    4.5750   53.6652   24.1456 H   0  0  0  0  0  0
    7.0153   55.0765   27.5433 H   0  0  0  0  0  0
    5.9031   54.7838   29.6819 H   0  0  0  0  0  0
    3.4563   53.6287   25.5198 H   0  0  0  0  0  0
    1.2229   53.6079   29.7211 H   0  0  0  0  0  0
    2.1472   52.0819   29.5882 H   0  0  0  0  0  0
  1  6  2  0  0  0
  1  2  1  0  0  0
  1 33  1  0  0  0
  2  3  2  0  0  0
  2 34  1  0  0  0
  3  4  1  0  0  0
  3 18  1  0  0  0
  4  5  2  0  0  0
  4 35  1  0  0  0
  5  6  1  0  0  0
  5 36  1  0  0  0
  6  7  1  0  0  0
  7  8  1  0  0  0
  7 37  1  0  0  0
  8  9  2  0  0  0
  8 10  1  0  0  0
 10 15  2  0  0  0
 10 11  1  0  0  0
 11 12  2  0  0  0
 11 38  1  0  0  0
 12 13  1  0  0  0
 12 39  1  0  0  0
 13 14  2  0  0  0
 13 17  1  0  0  0
 14 15  1  0  0  0
 14 40  1  0  0  0
 15 16  1  0  0  0
 18 19  1  0  0  0
 18 41  1  0  0  0
 19 20  2  0  0  0
 19 21  1  0  0  0
 21 22  1  0  0  0
 21 42  1  0  0  0
 22 23  2  0  0  0
 22 24  1  0  0  0
 24 29  2  0  0  0
 24 25  1  0  0  0
 25 26  2  0  0  0
 25 43  1  0  0  0
 26 27  1  0  0  0
 26 44  1  0  0  0
 27 32  1  0  0  0
 27 28  2  0  0  0
 28 29  1  0  0  0
 28 30  1  0  0  0
 29 45  1  0  0  0
 30 31  1  0  0  0
 31 32  1  0  0  0
 31 46  1  0  0  0
 31 47  1  0  0  0
M  END
> <i_i_glide_confnum>
156

> <i_i_glide_lignum>
4943

> <i_i_glide_posenum>
184

> <i_i_glide_rotatable_bonds>
8

> <i_m_Source_File_Index>
4324

> <b_m_subgroup_collapsed>
0

> <r_i_docking_score>
-5.61934

> <r_i_glide_ecoul>
-2.98025

> <r_i_glide_eff_state_penalty>
0

> <r_i_glide_einternal>
9.52158

> <r_i_glide_emodel>
-60.0386

> <r_i_glide_energy>
-47.5627

> <r_i_glide_erotb>
0.596908

> <r_i_glide_esite>
-0.000162658

> <r_i_glide_evdw>
-44.5825

> <r_i_glide_gscore>
-5.61934

> <r_i_glide_hbond>
-0.573725

> <r_i_glide_ligand_efficiency>
-0.175604

> <r_i_glide_ligand_efficiency_ln>
-1.25832

> <r_i_glide_ligand_efficiency_sa>
-0.557509

> <r_i_glide_lipo>
-2.03531

> <r_i_glide_metal>
0

> <r_i_glide_rewards>
-0.93089

> <s_i_glide_gridfile>
wee1_glide-grid

> <s_m_Source_File>
wee1_decoys_glide_SP.sdf

> <s_m_Source_Path>
/Users/zhangxujun/Desktop

> <s_m_entry_id>
4599

> <s_m_entry_name>
wee1_decoys_glide_SP.4324

> <s_m_subgroup_title>
wee1_decoys_glide_SP

> <s_m_subgroupid>
wee1_decoys_glide_SP


$$$$
