ZINC49122876_1600
                    3D
 Schrodinger Suite 2024-2.
 42 43  0  0  1  0            999 V2000
    3.2852   54.0727   29.6679 C   0  0  0  0  0  0
    3.3906   54.4597   28.1847 C   0  0  0  0  0  0
    4.2327   53.4876   27.3075 C   0  0  2  0  0  0
    3.7656   52.5043   27.3884 H   0  0  0  0  0  0
    5.7014   53.3430   27.7882 C   0  0  0  0  0  0
    6.5628   54.5886   27.4939 C   0  0  0  0  0  0
    6.5441   54.9533   25.9952 C   0  0  0  0  0  0
    5.1012   55.0864   25.4710 C   0  0  0  0  0  0
    4.2621   53.8275   25.7834 C   0  0  2  0  0  0
    4.6897   52.9938   25.2334 H   0  0  0  0  0  0
    2.8906   54.0968   25.3087 N   0  0  0  0  0  0
    2.3050   53.5582   23.7460 S   0  0  0  0  0  0
    1.2559   54.4965   23.3429 O   0  0  0  0  0  0
    3.4618   53.2971   22.8819 O   0  0  0  0  0  0
    1.4825   52.0070   24.0800 C   0  0  0  0  0  0
    1.7112   50.8828   23.2816 C   0  0  0  0  0  0
    1.0602   49.6966   23.6135 C   0  0  0  0  0  0
    0.2133   49.5813   24.6695 N   0  0  0  0  0  0
   -0.0231   50.6818   25.4285 C   0  0  0  0  0  0
    0.5922   51.9130   25.1552 C   0  0  0  0  0  0
   -0.9297   50.4988   26.4820 N   0  0  0  0  0  0
   -1.2746   51.5718   27.3983 N   0  0  0  0  0  0
    2.5756   54.7278   30.1742 H   0  0  0  0  0  0
    2.9395   53.0468   29.7914 H   0  0  0  0  0  0
    4.2412   54.1716   30.1807 H   0  0  0  0  0  0
    3.7912   55.4663   28.1179 H   0  0  0  0  0  0
    2.3725   54.5172   27.7979 H   0  0  0  0  0  0
    6.1586   52.4967   27.2815 H   0  0  0  0  0  0
    5.7458   53.1047   28.8498 H   0  0  0  0  0  0
    6.1988   55.4306   28.0813 H   0  0  0  0  0  0
    7.5871   54.4160   27.8231 H   0  0  0  0  0  0
    7.0858   55.8853   25.8257 H   0  0  0  0  0  0
    7.0686   54.1851   25.4240 H   0  0  0  0  0  0
    4.6443   55.9674   25.9160 H   0  0  0  0  0  0
    5.1144   55.2717   24.3959 H   0  0  0  0  0  0
    2.3917   54.8743   25.7445 H   0  0  0  0  0  0
    2.3872   50.9238   22.4388 H   0  0  0  0  0  0
    1.2281   48.8010   23.0343 H   0  0  0  0  0  0
    0.3934   52.7802   25.7654 H   0  0  0  0  0  0
   -1.0388   49.5875   26.9389 H   0  0  0  0  0  0
   -0.4348   52.0687   27.6627 H   0  0  0  0  0  0
   -1.9635   52.1680   26.9597 H   0  0  0  0  0  0
  1  2  1  0  0  0
  1 23  1  0  0  0
  1 24  1  0  0  0
  1 25  1  0  0  0
  2  3  1  0  0  0
  2 26  1  0  0  0
  2 27  1  0  0  0
  3  4  1  0  0  0
  3  9  1  0  0  0
  3  5  1  0  0  0
  5  6  1  0  0  0
  5 28  1  0  0  0
  5 29  1  0  0  0
  6  7  1  0  0  0
  6 30  1  0  0  0
  6 31  1  0  0  0
  7  8  1  0  0  0
  7 32  1  0  0  0
  7 33  1  0  0  0
  8  9  1  0  0  0
  8 34  1  0  0  0
  8 35  1  0  0  0
  9 10  1  0  0  0
  9 11  1  0  0  0
 11 12  1  0  0  0
 11 36  1  0  0  0
 12 13  2  0  0  0
 12 14  2  0  0  0
 12 15  1  0  0  0
 15 20  2  0  0  0
 15 16  1  0  0  0
 16 17  2  0  0  0
 16 37  1  0  0  0
 17 18  1  0  0  0
 17 38  1  0  0  0
 18 19  2  0  0  0
 19 20  1  0  0  0
 19 21  1  0  0  0
 20 39  1  0  0  0
 21 22  1  0  0  0
 21 40  1  0  0  0
 22 41  1  0  0  0
 22 42  1  0  0  0
M  END
> <i_i_glide_confnum>
11

> <i_i_glide_lignum>
1601

> <i_i_glide_posenum>
212

> <i_i_glide_rotatable_bonds>
5

> <i_m_Source_File_Index>
2831

> <b_m_subgroup_collapsed>
0

> <r_i_docking_score>
-4.46308

> <r_i_glide_ecoul>
-1.66639

> <r_i_glide_eff_state_penalty>
0

> <r_i_glide_einternal>
6.83589

> <r_i_glide_emodel>
-35.4787

> <r_i_glide_energy>
-29.976

> <r_i_glide_erotb>
0.618238

> <r_i_glide_esite>
-0.0869137

> <r_i_glide_evdw>
-28.3097

> <r_i_glide_gscore>
-4.46308

> <r_i_glide_hbond>
-0.16

> <r_i_glide_ligand_efficiency>
-0.223154

> <r_i_glide_ligand_efficiency_ln>
-1.11696

> <r_i_glide_ligand_efficiency_sa>
-0.605733

> <r_i_glide_lipo>
-2.02531

> <r_i_glide_metal>
0

> <r_i_glide_rewards>
-1.14365

> <s_i_glide_gridfile>
wee1_glide-grid

> <s_m_Source_File>
wee1_decoys_glide_SP.sdf

> <s_m_Source_Path>
/Users/zhangxujun/Desktop

> <s_m_entry_id>
3106

> <s_m_entry_name>
wee1_decoys_glide_SP.2831

> <s_m_subgroup_title>
wee1_decoys_glide_SP

> <s_m_subgroupid>
wee1_decoys_glide_SP


$$$$
