ZINC39637501_784
                    3D
 Schrodinger Suite 2024-2.
 78 81  0  0  1  0            999 V2000
    0.1941   49.8606   15.8105 C   0  0  0  0  0  0
    0.9132   49.6825   17.1621 C   0  0  2  0  0  0
    1.9218   50.0781   17.0337 H   0  0  0  0  0  0
    1.0354   48.1944   17.5450 C   0  0  0  0  0  0
    1.8987   48.0155   18.8044 C   0  0  0  0  0  0
    1.4000   48.8738   19.9879 C   0  0  0  0  0  0
    1.1124   50.3592   19.6267 C   0  0  1  0  0  0
    2.0884   50.7801   19.3643 H   0  0  0  0  0  0
    0.2585   50.4814   18.3254 C   0  0  2  0  0  0
    0.3427   51.5276   18.0216 H   0  0  0  0  0  0
   -1.2479   50.1942   18.5550 C   0  0  0  0  0  0
    0.5633   51.1091   20.7590 N   0  0  0  0  0  0
    1.2621   51.6186   21.7864 C   0  0  0  0  0  0
    2.4898   51.5631   21.8590 O   0  0  0  0  0  0
    0.4314   52.3488   22.8746 C   0  0  2  0  0  0
   -0.5519   52.5636   22.4527 H   0  0  0  0  0  0
    1.1144   53.6411   23.3811 C   0  0  0  0  0  0
    1.8184   53.2344   24.6047 N   0  0  0  0  0  0
    1.4982   51.8529   24.9449 C   0  0  0  0  0  0
    0.2366   51.4702   24.1496 C   0  0  0  0  0  0
   -1.0650   51.9009   24.8928 C   0  0  0  0  0  0
   -1.2232   51.2291   26.2779 C   0  0  0  0  0  0
   -1.2182   49.6961   26.0815 N   0  3  0  0  0  0
   -0.0013   49.1701   25.2890 C   0  0  0  0  0  0
    0.0665   49.9311   23.9459 C   0  0  0  0  0  0
    2.8504   53.9499   25.1259 C   0  0  0  0  0  0
    3.3169   54.8967   24.4997 O   0  0  0  0  0  0
    3.3721   53.6726   26.5725 C   0  0  1  0  0  0
    3.0204   52.6965   26.8820 H   0  0  0  0  0  0
    4.9250   53.6200   26.7723 C   0  0  0  0  0  0
    5.7062   54.9148   26.4784 C   0  0  0  0  0  0
    5.2894   53.1164   28.1871 C   0  0  0  0  0  0
    2.9141   54.7515   27.4019 O   0  0  0  0  0  0
    2.0773   54.5707   28.4862 C   0  0  0  0  0  0
    1.4218   53.3746   28.8245 C   0  0  0  0  0  0
    0.6211   53.3143   29.9638 C   0  0  0  0  0  0
    0.4710   54.4436   30.7660 C   0  0  0  0  0  0
    1.1050   55.6376   30.4317 C   0  0  0  0  0  0
    1.9029   55.6966   29.2928 C   0  0  0  0  0  0
   -0.7924   49.3958   15.8056 H   0  0  0  0  0  0
    0.0706   50.9152   15.5642 H   0  0  0  0  0  0
    0.7693   49.4042   15.0036 H   0  0  0  0  0  0
    1.4938   47.6459   16.7204 H   0  0  0  0  0  0
    0.0510   47.7418   17.6650 H   0  0  0  0  0  0
    2.9338   48.2794   18.5754 H   0  0  0  0  0  0
    1.9044   46.9634   19.0925 H   0  0  0  0  0  0
    2.1332   48.8200   20.7953 H   0  0  0  0  0  0
    0.4836   48.4190   20.3672 H   0  0  0  0  0  0
   -1.4160   49.1690   18.8817 H   0  0  0  0  0  0
   -1.6747   50.8530   19.3116 H   0  0  0  0  0  0
   -1.8320   50.3526   17.6494 H   0  0  0  0  0  0
   -0.4203   51.3149   20.7007 H   0  0  0  0  0  0
    0.3162   54.3370   23.6459 H   0  0  0  0  0  0
    1.7386   54.0732   22.5953 H   0  0  0  0  0  0
    2.3044   51.2787   24.4818 H   0  0  0  0  0  0
    1.4811   51.5995   26.0014 H   0  0  0  0  0  0
   -1.0464   52.9771   25.0670 H   0  0  0  0  0  0
   -1.9469   51.7338   24.2710 H   0  0  0  0  0  0
   -0.4234   51.4608   26.9814 H   0  0  0  0  0  0
   -2.1764   51.4677   26.7515 H   0  0  0  0  0  0
   -1.2807   49.2176   26.9935 H   0  0  0  0  0  0
    0.8757   49.3099   25.9219 H   0  0  0  0  0  0
   -0.1627   48.0975   25.1617 H   0  0  0  0  0  0
   -0.7950   49.7073   23.3132 H   0  0  0  0  0  0
    0.9261   49.5222   23.4116 H   0  0  0  0  0  0
    5.3248   52.8966   26.0813 H   0  0  0  0  0  0
    5.4086   55.6956   27.1706 H   0  0  0  0  0  0
    6.7795   54.7622   26.6143 H   0  0  0  0  0  0
    5.5691   55.2750   25.4590 H   0  0  0  0  0  0
    5.0070   53.8410   28.9530 H   0  0  0  0  0  0
    4.7891   52.1777   28.4292 H   0  0  0  0  0  0
    6.3636   52.9432   28.2786 H   0  0  0  0  0  0
    1.5060   52.4785   28.2336 H   0  0  0  0  0  0
    0.1219   52.3937   30.2326 H   0  0  0  0  0  0
   -0.1332   54.3864   31.6612 H   0  0  0  0  0  0
    0.9946   56.5119   31.0573 H   0  0  0  0  0  0
    2.4003   56.6215   29.0389 H   0  0  0  0  0  0
   -2.0609   49.4295   25.5938 H   0  0  0  0  0  0
  1  2  1  0  0  0
  1 40  1  0  0  0
  1 41  1  0  0  0
  1 42  1  0  0  0
  2  3  1  0  0  0
  2  9  1  0  0  0
  2  4  1  0  0  0
  4  5  1  0  0  0
  4 43  1  0  0  0
  4 44  1  0  0  0
  5  6  1  0  0  0
  5 45  1  0  0  0
  5 46  1  0  0  0
  6  7  1  0  0  0
  6 47  1  0  0  0
  6 48  1  0  0  0
  7  8  1  0  0  0
  7  9  1  0  0  0
  7 12  1  0  0  0
  9 10  1  0  0  0
  9 11  1  0  0  0
 11 49  1  0  0  0
 11 50  1  0  0  0
 11 51  1  0  0  0
 12 13  1  0  0  0
 12 52  1  0  0  0
 13 14  2  0  0  0
 13 15  1  0  0  0
 15 16  1  0  0  0
 15 20  1  0  0  0
 15 17  1  0  0  0
 17 18  1  0  0  0
 17 53  1  0  0  0
 17 54  1  0  0  0
 18 19  1  0  0  0
 18 26  1  0  0  0
 19 20  1  0  0  0
 19 55  1  0  0  0
 19 56  1  0  0  0
 20 25  1  0  0  0
 20 21  1  0  0  0
 21 22  1  0  0  0
 21 57  1  0  0  0
 21 58  1  0  0  0
 22 23  1  0  0  0
 22 59  1  0  0  0
 22 60  1  0  0  0
 23 24  1  0  0  0
 23 61  1  0  0  0
 23 78  1  0  0  0
 24 25  1  0  0  0
 24 62  1  0  0  0
 24 63  1  0  0  0
 25 64  1  0  0  0
 25 65  1  0  0  0
 26 27  2  0  0  0
 26 28  1  0  0  0
 28 29  1  0  0  0
 28 30  1  0  0  0
 28 33  1  0  0  0
 30 31  1  0  0  0
 30 32  1  0  0  0
 30 66  1  0  0  0
 31 67  1  0  0  0
 31 68  1  0  0  0
 31 69  1  0  0  0
 32 70  1  0  0  0
 32 71  1  0  0  0
 32 72  1  0  0  0
 33 34  1  0  0  0
 34 39  2  0  0  0
 34 35  1  0  0  0
 35 36  2  0  0  0
 35 73  1  0  0  0
 36 37  1  0  0  0
 36 74  1  0  0  0
 37 38  2  0  0  0
 37 75  1  0  0  0
 38 39  1  0  0  0
 38 76  1  0  0  0
 39 77  1  0  0  0
M  CHG  1  23   1
M  END
> <i_i_glide_confnum>
164

> <i_i_glide_lignum>
785

> <i_i_glide_posenum>
350

> <i_i_glide_rotatable_bonds>
8

> <i_m_Source_File_Index>
5699

> <b_m_subgroup_collapsed>
0

> <r_i_docking_score>
-6.09089

> <r_i_glide_ecoul>
-5.66676

> <r_i_glide_eff_state_penalty>
0

> <r_i_glide_einternal>
6.14787

> <r_i_glide_emodel>
-56.8562

> <r_i_glide_energy>
-43.3065

> <r_i_glide_erotb>
0.547294

> <r_i_glide_esite>
-0.103098

> <r_i_glide_evdw>
-37.6398

> <r_i_glide_gscore>
-6.09089

> <r_i_glide_hbond>
-0.2

> <r_i_glide_ligand_efficiency>
-0.179144

> <r_i_glide_ligand_efficiency_ln>
-1.34565

> <r_i_glide_ligand_efficiency_sa>
-0.580356

> <r_i_glide_lipo>
-2.81145

> <r_i_glide_metal>
0

> <r_i_glide_rewards>
-0.791628

> <s_i_glide_gridfile>
wee1_glide-grid

> <s_m_Source_File>
wee1_decoys_glide_SP.sdf

> <s_m_Source_Path>
/Users/zhangxujun/Desktop

> <s_m_entry_id>
5974

> <s_m_entry_name>
wee1_decoys_glide_SP.5699

> <s_m_subgroup_title>
wee1_decoys_glide_SP

> <s_m_subgroupid>
wee1_decoys_glide_SP


$$$$
