ZINC08898054_2898
                    3D
 Schrodinger Suite 2024-2.
 61 65  0  0  1  0            999 V2000
    2.7362   53.1837   29.9004 C   0  0  0  0  0  0
    1.7996   52.8861   28.9084 C   0  0  0  0  0  0
    2.0683   53.1369   27.5612 C   0  0  0  0  0  0
    3.3250   53.6717   27.2563 C   0  0  0  0  0  0
    4.2897   53.9889   28.2379 C   0  0  0  0  0  0
    3.9738   53.7601   29.5853 C   0  0  0  0  0  0
    5.4113   54.4964   27.5099 C   0  0  0  0  0  0
    5.0734   54.4197   26.1586 C   0  0  0  0  0  0
    3.7950   53.9437   26.0070 O   0  0  0  0  0  0
    5.8259   54.7677   24.9733 C   0  0  0  0  0  0
    6.8745   55.4125   25.0486 O   0  0  0  0  0  0
    5.2310   54.3087   23.8464 N   0  0  0  0  0  0
    5.4378   54.4922   22.5024 C   0  0  0  0  0  0
    6.7043   55.2968   21.7653 S   0  0  0  0  0  0
    4.4898   53.9262   21.6937 N   0  0  0  0  0  0
    3.3726   53.1595   22.0814 C   0  0  0  0  0  0
    2.4289   53.6570   22.9882 C   0  0  0  0  0  0
    1.4318   52.8177   23.4801 C   0  0  0  0  0  0
    1.3642   51.4844   23.0621 C   0  0  0  0  0  0
    2.2451   51.0283   22.0753 C   0  0  0  0  0  0
    3.2477   51.8622   21.5827 C   0  0  0  0  0  0
    0.4598   50.6011   23.6328 N   0  0  0  0  0  0
   -0.6595   50.0161   22.8764 C   0  0  0  0  0  0
   -1.1598   48.6315   23.3731 C   0  0  0  0  0  0
    0.0378   49.0873   25.5596 C   0  0  0  0  0  0
    0.2664   50.5280   25.0861 C   0  0  0  0  0  0
   -1.6027   47.1642   25.4337 C   0  0  0  0  0  0
   -3.0724   46.7903   25.3110 C   0  0  0  0  0  0
   -3.9358   47.0509   26.3830 C   0  0  0  0  0  0
   -5.2826   46.6962   26.3020 C   0  0  0  0  0  0
   -5.7760   46.0788   25.1519 C   0  0  0  0  0  0
   -4.9202   45.8152   24.0808 C   0  0  0  0  0  0
   -3.5714   46.1649   24.1609 C   0  0  0  0  0  0
   -2.7481   45.8816   23.1247 F   0  0  0  0  0  0
    2.4888   52.9517   30.9265 H   0  0  0  0  0  0
    0.8521   52.4494   29.1954 H   0  0  0  0  0  0
    1.3496   52.9158   26.7883 H   0  0  0  0  0  0
    4.6944   54.0078   30.3496 H   0  0  0  0  0  0
    6.3504   54.8542   27.9078 H   0  0  0  0  0  0
    4.4148   53.7508   24.0497 H   0  0  0  0  0  0
    4.6535   53.9895   20.6988 H   0  0  0  0  0  0
    2.4955   54.6726   23.3524 H   0  0  0  0  0  0
    0.7388   53.1957   24.2183 H   0  0  0  0  0  0
    2.1921   50.0060   21.7274 H   0  0  0  0  0  0
    3.9539   51.4777   20.8598 H   0  0  0  0  0  0
   -1.4689   50.7293   23.0474 H   0  0  0  0  0  0
   -0.4647   50.0131   21.8025 H   0  0  0  0  0  0
   -0.4944   47.8259   23.0661 H   0  0  0  0  0  0
   -2.1707   48.4463   23.0091 H   0  0  0  0  0  0
    0.8499   48.4066   25.2918 H   0  0  0  0  0  0
   -0.0958   49.0741   26.6428 H   0  0  0  0  0  0
    1.1046   50.9698   25.6142 H   0  0  0  0  0  0
   -0.5975   51.1466   25.3353 H   0  0  0  0  0  0
   -0.9464   46.4746   24.9015 H   0  0  0  0  0  0
   -1.3010   47.1354   26.4815 H   0  0  0  0  0  0
   -3.5600   47.5214   27.2832 H   0  0  0  0  0  0
   -5.9460   46.8970   27.1326 H   0  0  0  0  0  0
   -6.8191   45.8017   25.0917 H   0  0  0  0  0  0
   -5.3016   45.3400   23.1884 H   0  0  0  0  0  0
   -1.2666   48.5822   24.9162 N   0  3  0  0  0  0
   -1.9964   49.2108   25.2201 H   0  0  0  0  0  0
  1  6  2  0  0  0
  1  2  1  0  0  0
  1 35  1  0  0  0
  2  3  2  0  0  0
  2 36  1  0  0  0
  3  4  1  0  0  0
  3 37  1  0  0  0
  4  9  1  0  0  0
  4  5  2  0  0  0
  5  6  1  0  0  0
  5  7  1  0  0  0
  6 38  1  0  0  0
  7  8  2  0  0  0
  7 39  1  0  0  0
  8  9  1  0  0  0
  8 10  1  0  0  0
 10 11  2  0  0  0
 10 12  1  0  0  0
 12 13  1  0  0  0
 12 40  1  0  0  0
 13 14  2  0  0  0
 13 15  1  0  0  0
 15 16  1  0  0  0
 15 41  1  0  0  0
 16 21  2  0  0  0
 16 17  1  0  0  0
 17 18  2  0  0  0
 17 42  1  0  0  0
 18 19  1  0  0  0
 18 43  1  0  0  0
 19 20  2  0  0  0
 19 22  1  0  0  0
 20 21  1  0  0  0
 20 44  1  0  0  0
 21 45  1  0  0  0
 22 26  1  0  0  0
 22 23  1  0  0  0
 23 24  1  0  0  0
 23 46  1  0  0  0
 23 47  1  0  0  0
 24 48  1  0  0  0
 24 49  1  0  0  0
 24 60  1  0  0  0
 25 26  1  0  0  0
 25 50  1  0  0  0
 25 51  1  0  0  0
 25 60  1  0  0  0
 26 52  1  0  0  0
 26 53  1  0  0  0
 27 28  1  0  0  0
 27 54  1  0  0  0
 27 55  1  0  0  0
 27 60  1  0  0  0
 28 33  2  0  0  0
 28 29  1  0  0  0
 29 30  2  0  0  0
 29 56  1  0  0  0
 30 31  1  0  0  0
 30 57  1  0  0  0
 31 32  2  0  0  0
 31 58  1  0  0  0
 32 33  1  0  0  0
 32 59  1  0  0  0
 33 34  1  0  0  0
 60 61  1  0  0  0
M  CHG  1  60   1
M  END
> <i_i_glide_confnum>
19

> <i_i_glide_lignum>
2899

> <i_i_glide_posenum>
373

> <i_i_glide_rotatable_bonds>
8

> <i_m_Source_File_Index>
5811

> <b_m_subgroup_collapsed>
0

> <r_i_docking_score>
-5.44569

> <r_i_glide_ecoul>
-4.69099

> <r_i_glide_eff_state_penalty>
0

> <r_i_glide_einternal>
7.03667

> <r_i_glide_emodel>
-63.8917

> <r_i_glide_energy>
-50.8462

> <r_i_glide_erotb>
0.59414

> <r_i_glide_esite>
-0.118844

> <r_i_glide_evdw>
-46.1552

> <r_i_glide_gscore>
-5.44569

> <r_i_glide_hbond>
-0.262597

> <r_i_glide_ligand_efficiency>
-0.155591

> <r_i_glide_ligand_efficiency_ln>
-1.19545

> <r_i_glide_ligand_efficiency_sa>
-0.508949

> <r_i_glide_lipo>
-2.23309

> <r_i_glide_metal>
0

> <r_i_glide_rewards>
-0.413898

> <s_i_glide_gridfile>
wee1_glide-grid

> <s_m_Source_File>
wee1_decoys_glide_SP.sdf

> <s_m_Source_Path>
/Users/zhangxujun/Desktop

> <s_m_entry_id>
6086

> <s_m_entry_name>
wee1_decoys_glide_SP.5811

> <s_m_subgroup_title>
wee1_decoys_glide_SP

> <s_m_subgroupid>
wee1_decoys_glide_SP


$$$$
