ZINC14911479_673
                    3D
 Schrodinger Suite 2024-2.
 53 56  0  0  1  0            999 V2000
    5.2358   54.3002   28.2554 C   0  0  0  0  0  0
    5.2440   54.3856   26.7432 C   0  0  0  0  0  0
    4.2706   54.1000   25.7495 C   0  0  0  0  0  0
    4.7007   54.2734   24.5046 N   0  0  0  0  0  0
    5.9476   54.6579   24.4226 C   0  0  0  0  0  0
    6.7042   54.8961   25.9395 S   0  0  0  0  0  0
    6.7047   54.8906   23.2812 N   0  0  0  0  0  0
    6.2639   54.8966   22.0057 C   0  0  0  0  0  0
    5.1043   54.6414   21.6718 O   0  0  0  0  0  0
    7.3344   55.2947   20.9632 C   0  0  0  0  0  0
    6.7828   55.5122   19.6024 N   0  0  0  0  0  0
    6.3594   54.5363   18.7654 C   0  0  0  0  0  0
    6.3034   53.3287   18.9905 O   0  0  0  0  0  0
    6.0146   55.2280   17.4412 C   0  0  1  0  0  0
    6.9537   54.6938   16.3135 C   0  0  0  0  0  0
    6.6673   53.2433   15.8562 C   0  0  0  0  0  0
    5.1798   53.0267   15.5152 C   0  0  0  0  0  0
    4.2434   53.5191   16.6370 C   0  0  0  0  0  0
    4.5202   54.9980   17.0258 C   0  0  1  0  0  0
    4.4063   55.5400   16.0836 H   0  0  0  0  0  0
    3.4282   55.5435   17.9691 C   0  0  0  0  0  0
    6.3080   56.5882   17.8134 N   0  0  0  0  0  0
    6.6699   56.7586   19.0871 C   0  0  0  0  0  0
    6.7044   57.8260   19.6953 O   0  0  0  0  0  0
    2.8568   53.5867   25.9430 C   0  0  0  0  0  0
    2.0857   53.1961   24.8324 C   0  0  0  0  0  0
    0.8167   52.6476   24.9960 C   0  0  0  0  0  0
    0.2917   52.4951   26.2744 C   0  0  0  0  0  0
    1.0234   52.8945   27.3865 C   0  0  0  0  0  0
    2.2922   53.4422   27.2189 C   0  0  0  0  0  0
   -1.4485   51.7604   26.5016 Br  0  0  0  0  0  0
    4.9439   53.3080   28.5992 H   0  0  0  0  0  0
    6.2194   54.4920   28.6873 H   0  0  0  0  0  0
    4.5602   55.0278   28.7037 H   0  0  0  0  0  0
    7.6813   55.1141   23.4319 H   0  0  0  0  0  0
    8.0856   54.5077   20.9157 H   0  0  0  0  0  0
    7.8641   56.1811   21.3165 H   0  0  0  0  0  0
    7.9963   54.7760   16.6301 H   0  0  0  0  0  0
    6.9484   55.3918   15.4752 H   0  0  0  0  0  0
    7.2863   52.9995   14.9920 H   0  0  0  0  0  0
    6.9625   52.5384   16.6343 H   0  0  0  0  0  0
    4.9418   53.5502   14.5880 H   0  0  0  0  0  0
    4.9959   51.9685   15.3238 H   0  0  0  0  0  0
    3.2172   53.4322   16.2774 H   0  0  0  0  0  0
    4.2771   52.8591   17.5051 H   0  0  0  0  0  0
    3.5041   55.0856   18.9559 H   0  0  0  0  0  0
    3.5136   56.6230   18.0930 H   0  0  0  0  0  0
    2.4261   55.3416   17.5869 H   0  0  0  0  0  0
    6.4515   57.2988   17.1149 H   0  0  0  0  0  0
    2.4703   53.2882   23.8281 H   0  0  0  0  0  0
    0.2418   52.3399   24.1347 H   0  0  0  0  0  0
    0.6068   52.7784   28.3763 H   0  0  0  0  0  0
    2.8151   53.7389   28.1082 H   0  0  0  0  0  0
  1  2  1  0  0  0
  1 32  1  0  0  0
  1 33  1  0  0  0
  1 34  1  0  0  0
  2  6  1  0  0  0
  2  3  2  0  0  0
  3  4  1  0  0  0
  3 25  1  0  0  0
  4  5  2  0  0  0
  5  6  1  0  0  0
  5  7  1  0  0  0
  7  8  1  0  0  0
  7 35  1  0  0  0
  8  9  2  0  0  0
  8 10  1  0  0  0
 10 11  1  0  0  0
 10 36  1  0  0  0
 10 37  1  0  0  0
 11 23  1  0  0  0
 11 12  1  0  0  0
 12 13  2  0  0  0
 12 14  1  0  0  0
 14 19  1  0  0  0
 14 15  1  0  0  0
 14 22  1  0  0  0
 15 16  1  0  0  0
 15 38  1  0  0  0
 15 39  1  0  0  0
 16 17  1  0  0  0
 16 40  1  0  0  0
 16 41  1  0  0  0
 17 18  1  0  0  0
 17 42  1  0  0  0
 17 43  1  0  0  0
 18 19  1  0  0  0
 18 44  1  0  0  0
 18 45  1  0  0  0
 19 20  1  0  0  0
 19 21  1  0  0  0
 21 46  1  0  0  0
 21 47  1  0  0  0
 21 48  1  0  0  0
 22 23  1  0  0  0
 22 49  1  0  0  0
 23 24  2  0  0  0
 25 30  2  0  0  0
 25 26  1  0  0  0
 26 27  2  0  0  0
 26 50  1  0  0  0
 27 28  1  0  0  0
 27 51  1  0  0  0
 28 29  2  0  0  0
 28 31  1  0  0  0
 29 30  1  0  0  0
 29 52  1  0  0  0
 30 53  1  0  0  0
M  END
> <i_i_glide_confnum>
69

> <i_i_glide_lignum>
674

> <i_i_glide_posenum>
170

> <i_i_glide_rotatable_bonds>
5

> <i_m_Source_File_Index>
4281

> <b_m_subgroup_collapsed>
0

> <r_i_docking_score>
-6.05055

> <r_i_glide_ecoul>
-4.48768

> <r_i_glide_eff_state_penalty>
0

> <r_i_glide_einternal>
4.51928

> <r_i_glide_emodel>
-60.5109

> <r_i_glide_energy>
-45.0067

> <r_i_glide_erotb>
0.421518

> <r_i_glide_esite>
0

> <r_i_glide_evdw>
-40.519

> <r_i_glide_gscore>
-6.05055

> <r_i_glide_hbond>
-0.60409

> <r_i_glide_ligand_efficiency>
-0.201685

> <r_i_glide_ligand_efficiency_ln>
-1.37475

> <r_i_glide_ligand_efficiency_sa>
-0.626682

> <r_i_glide_lipo>
-2.44415

> <r_i_glide_metal>
0

> <r_i_glide_rewards>
-0.724719

> <s_i_glide_gridfile>
wee1_glide-grid

> <s_m_Source_File>
wee1_decoys_glide_SP.sdf

> <s_m_Source_Path>
/Users/zhangxujun/Desktop

> <s_m_entry_id>
4556

> <s_m_entry_name>
wee1_decoys_glide_SP.4281

> <s_m_subgroup_title>
wee1_decoys_glide_SP

> <s_m_subgroupid>
wee1_decoys_glide_SP


$$$$
