ZINC35711721_2879
                    3D
 Schrodinger Suite 2024-2.
 66 68  0  0  1  0            999 V2000
    0.3040   48.5468   24.6817 C   0  0  0  0  0  0
   -1.1676   48.9932   24.6652 C   0  0  0  0  0  0
   -1.5067   50.2189   25.5487 C   0  0  0  0  0  0
   -0.6232   51.3967   25.3200 N   0  0  0  0  0  0
    0.4676   51.7490   26.1205 C   0  0  0  0  0  0
    1.2885   52.7923   25.7909 C   0  0  0  0  0  0
    1.0748   53.5086   24.4383 C   0  0  2  0  0  0
    1.1870   54.5844   24.5708 H   0  0  0  0  0  0
   -0.3254   53.2967   24.0381 N   0  0  0  0  0  0
   -1.0504   52.1819   24.2703 C   0  0  0  0  0  0
   -1.9972   51.9723   23.5087 O   0  0  0  0  0  0
    2.0931   53.2161   23.3169 C   0  0  0  0  0  0
    1.9879   52.0884   22.4922 C   0  0  0  0  0  0
    2.8462   51.9273   21.4005 C   0  0  0  0  0  0
    3.8177   52.8917   21.1141 C   0  0  0  0  0  0
    3.9509   53.9962   21.9658 C   0  0  0  0  0  0
    3.0878   54.1573   23.0399 C   0  0  0  0  0  0
    4.6192   52.6805   19.9700 N   0  0  0  0  0  0
    5.4589   53.5395   19.3523 C   0  0  0  0  0  0
    5.6022   54.7240   19.6522 O   0  0  0  0  0  0
    6.1646   52.8979   18.4014 N   0  0  0  0  0  0
    7.2965   53.3229   17.6814 C   0  0  0  0  0  0
    7.9083   52.3539   16.8788 C   0  0  0  0  0  0
    9.0705   52.6503   16.1660 C   0  0  0  0  0  0
    9.6308   53.9238   16.2459 C   0  0  0  0  0  0
    9.0262   54.9014   17.0363 C   0  0  0  0  0  0
    7.8647   54.6070   17.7494 C   0  0  0  0  0  0
    9.5669   56.1385   17.1175 F   0  0  0  0  0  0
   10.7611   54.2055   15.5577 F   0  0  0  0  0  0
    2.3958   53.2969   26.6600 C   0  0  0  0  0  0
    2.5261   53.0130   27.8528 O   0  0  0  0  0  0
    3.2390   54.1472   26.0305 O   0  0  0  0  0  0
    4.3543   54.7373   26.6938 C   0  0  0  0  0  0
    5.6357   53.8887   26.5821 C   0  0  0  0  0  0
    6.1752   53.8607   25.1386 C   0  0  0  0  0  0
    6.7119   54.3912   27.5553 C   0  0  0  0  0  0
    0.6399   50.8967   27.3884 C   0  0  0  0  0  0
    0.4356   47.6512   24.0817 H   0  0  0  0  0  0
    0.9697   49.3113   24.2805 H   0  0  0  0  0  0
    0.6430   48.2982   25.6843 H   0  0  0  0  0  0
   -1.7932   48.1584   24.9846 H   0  0  0  0  0  0
   -1.4634   49.1983   23.6349 H   0  0  0  0  0  0
   -1.5116   49.9295   26.5971 H   0  0  0  0  0  0
   -2.5505   50.4794   25.3579 H   0  0  0  0  0  0
   -0.6303   53.8045   23.2246 H   0  0  0  0  0  0
    1.2262   51.3456   22.6762 H   0  0  0  0  0  0
    2.7349   51.0609   20.7635 H   0  0  0  0  0  0
    4.6977   54.7572   21.8108 H   0  0  0  0  0  0
    3.1899   55.0444   23.6460 H   0  0  0  0  0  0
    4.5219   51.7749   19.5293 H   0  0  0  0  0  0
    5.8978   51.9279   18.2249 H   0  0  0  0  0  0
    7.4984   51.3550   16.8217 H   0  0  0  0  0  0
    9.5439   51.8907   15.5597 H   0  0  0  0  0  0
    7.4370   55.3941   18.3495 H   0  0  0  0  0  0
    4.1127   54.9489   27.7373 H   0  0  0  0  0  0
    4.5352   55.6968   26.2174 H   0  0  0  0  0  0
    5.3892   52.8682   26.8801 H   0  0  0  0  0  0
    6.3764   54.8647   24.7626 H   0  0  0  0  0  0
    5.4647   53.3882   24.4609 H   0  0  0  0  0  0
    7.1043   53.2970   25.0733 H   0  0  0  0  0  0
    7.0628   55.3870   27.2851 H   0  0  0  0  0  0
    6.3365   54.4372   28.5787 H   0  0  0  0  0  0
    7.5716   53.7228   27.5584 H   0  0  0  0  0  0
    1.6683   50.8415   27.7357 H   0  0  0  0  0  0
    0.0147   51.2800   28.1963 H   0  0  0  0  0  0
    0.3867   49.8506   27.2460 H   0  0  0  0  0  0
  1  2  1  0  0  0
  1 38  1  0  0  0
  1 39  1  0  0  0
  1 40  1  0  0  0
  2  3  1  0  0  0
  2 41  1  0  0  0
  2 42  1  0  0  0
  3  4  1  0  0  0
  3 43  1  0  0  0
  3 44  1  0  0  0
  4 10  1  0  0  0
  4  5  1  0  0  0
  5  6  2  0  0  0
  5 37  1  0  0  0
  6  7  1  0  0  0
  6 30  1  0  0  0
  7  8  1  0  0  0
  7  9  1  0  0  0
  7 12  1  0  0  0
  9 10  1  0  0  0
  9 45  1  0  0  0
 10 11  2  0  0  0
 12 17  2  0  0  0
 12 13  1  0  0  0
 13 14  2  0  0  0
 13 46  1  0  0  0
 14 15  1  0  0  0
 14 47  1  0  0  0
 15 16  2  0  0  0
 15 18  1  0  0  0
 16 17  1  0  0  0
 16 48  1  0  0  0
 17 49  1  0  0  0
 18 19  1  0  0  0
 18 50  1  0  0  0
 19 20  2  0  0  0
 19 21  1  0  0  0
 21 22  1  0  0  0
 21 51  1  0  0  0
 22 27  2  0  0  0
 22 23  1  0  0  0
 23 24  2  0  0  0
 23 52  1  0  0  0
 24 25  1  0  0  0
 24 53  1  0  0  0
 25 26  2  0  0  0
 25 29  1  0  0  0
 26 27  1  0  0  0
 26 28  1  0  0  0
 27 54  1  0  0  0
 30 31  2  0  0  0
 30 32  1  0  0  0
 32 33  1  0  0  0
 33 34  1  0  0  0
 33 55  1  0  0  0
 33 56  1  0  0  0
 34 35  1  0  0  0
 34 36  1  0  0  0
 34 57  1  0  0  0
 35 58  1  0  0  0
 35 59  1  0  0  0
 35 60  1  0  0  0
 36 61  1  0  0  0
 36 62  1  0  0  0
 36 63  1  0  0  0
 37 64  1  0  0  0
 37 65  1  0  0  0
 37 66  1  0  0  0
M  END
> <i_i_glide_confnum>
76

> <i_i_glide_lignum>
2880

> <i_i_glide_posenum>
378

> <i_i_glide_rotatable_bonds>
11

> <i_m_Source_File_Index>
5205

> <b_m_subgroup_collapsed>
0

> <r_i_docking_score>
-5.2608

> <r_i_glide_ecoul>
-4.91395

> <r_i_glide_eff_state_penalty>
0

> <r_i_glide_einternal>
2.03613

> <r_i_glide_emodel>
-63.2555

> <r_i_glide_energy>
-46.9581

> <r_i_glide_erotb>
0.652047

> <r_i_glide_esite>
-0.215196

> <r_i_glide_evdw>
-42.0442

> <r_i_glide_gscore>
-5.2608

> <r_i_glide_hbond>
-0.252934

> <r_i_glide_ligand_efficiency>
-0.146133

> <r_i_glide_ligand_efficiency_ln>
-1.14777

> <r_i_glide_ligand_efficiency_sa>
-0.482522

> <r_i_glide_lipo>
-2.24798

> <r_i_glide_metal>
0

> <r_i_glide_rewards>
-0.357442

> <s_i_glide_gridfile>
wee1_glide-grid

> <s_m_Source_File>
wee1_decoys_glide_SP.sdf

> <s_m_Source_Path>
/Users/zhangxujun/Desktop

> <s_m_entry_id>
5480

> <s_m_entry_name>
wee1_decoys_glide_SP.5205

> <s_m_subgroup_title>
wee1_decoys_glide_SP

> <s_m_subgroupid>
wee1_decoys_glide_SP


$$$$
