ZINC39676577_3080
                    3D
 Schrodinger Suite 2024-2.
 74 77  0  0  1  0            999 V2000
    1.8547   48.4324   19.2907 C   0  0  0  0  0  0
    1.6529   49.1438   20.5118 O   0  0  0  0  0  0
    2.2745   50.3670   20.6784 C   0  0  0  0  0  0
    3.0018   51.0233   19.6817 C   0  0  0  0  0  0
    3.6547   52.2225   19.9490 C   0  0  0  0  0  0
    3.5982   52.8152   21.2216 C   0  0  0  0  0  0
    2.8084   52.1773   22.1943 C   0  0  0  0  0  0
    2.1665   50.9690   21.9266 C   0  0  0  0  0  0
    4.3946   54.1133   21.5440 C   0  0  0  0  0  0
    4.9408   54.2006   22.9939 C   0  0  0  0  0  0
    4.0752   54.4966   24.0574 C   0  0  0  0  0  0
    4.5519   54.5993   25.3653 C   0  0  0  0  0  0
    5.9235   54.4767   25.6239 C   0  0  0  0  0  0
    6.7879   54.2597   24.5587 C   0  0  0  0  0  0
    6.3093   54.1103   23.2662 C   0  0  0  0  0  0
    6.5068   54.5662   26.8721 O   0  0  0  0  0  0
    5.6762   54.4640   28.0233 C   0  0  0  0  0  0
    5.3788   54.4152   20.4769 N   0  0  0  0  0  0
    6.2040   55.4696   20.2905 C   0  0  0  0  0  0
    6.3044   56.3990   21.0859 O   0  0  0  0  0  0
    7.0521   55.5319   18.9875 C   0  0  1  0  0  0
    8.0391   55.8891   19.2851 H   0  0  0  0  0  0
    7.3089   54.1159   18.4068 C   0  0  0  0  0  0
    7.4881   54.3741   16.9796 N   0  0  0  0  0  0
    7.1261   55.7346   16.5985 C   0  0  0  0  0  0
    6.4408   56.3740   17.8279 C   0  0  0  0  0  0
    4.8830   56.2814   17.7216 C   0  0  0  0  0  0
    4.3166   57.0348   16.4911 C   0  0  0  0  0  0
    4.8258   58.4971   16.4985 N   0  3  0  0  0  0
    6.3541   58.6328   16.6818 C   0  0  0  0  0  0
    6.7436   57.8812   17.9700 C   0  0  0  0  0  0
    8.0814   53.5329   16.0976 C   0  0  0  0  0  0
    8.2441   53.8524   14.9172 O   0  0  0  0  0  0
    8.5475   52.1413   16.5724 C   0  0  0  0  0  0
    9.1975   51.2564   15.4806 C   0  0  0  0  0  0
   10.3024   49.9519   16.0864 S   0  0  0  0  0  0
   10.8439   49.2516   14.4990 C   0  0  0  0  0  0
    1.3655   47.4626   19.3521 H   0  0  0  0  0  0
    1.4268   48.9667   18.4419 H   0  0  0  0  0  0
    2.9148   48.2530   19.0996 H   0  0  0  0  0  0
    3.1042   50.6023   18.6906 H   0  0  0  0  0  0
    4.2175   52.6581   19.1383 H   0  0  0  0  0  0
    2.6992   52.5729   23.1879 H   0  0  0  0  0  0
    1.5986   50.4759   22.7011 H   0  0  0  0  0  0
    3.6410   54.8963   21.4596 H   0  0  0  0  0  0
    3.0190   54.6403   23.8694 H   0  0  0  0  0  0
    3.8462   54.7943   26.1583 H   0  0  0  0  0  0
    7.8506   54.2033   24.7299 H   0  0  0  0  0  0
    7.0337   53.9670   22.4817 H   0  0  0  0  0  0
    6.2999   54.4906   28.9149 H   0  0  0  0  0  0
    4.9708   55.2878   28.0923 H   0  0  0  0  0  0
    5.1246   53.5241   28.0336 H   0  0  0  0  0  0
    5.3221   53.7728   19.7033 H   0  0  0  0  0  0
    6.4315   53.4718   18.4707 H   0  0  0  0  0  0
    8.1990   53.6971   18.8733 H   0  0  0  0  0  0
    8.0776   56.2491   16.4504 H   0  0  0  0  0  0
    6.5895   55.8397   15.6572 H   0  0  0  0  0  0
    4.5878   55.2342   17.6342 H   0  0  0  0  0  0
    4.3951   56.6430   18.6266 H   0  0  0  0  0  0
    4.6172   56.6037   15.5360 H   0  0  0  0  0  0
    3.2261   57.0956   16.5109 H   0  0  0  0  0  0
    4.5463   58.9843   15.6549 H   0  0  0  0  0  0
    6.8211   58.2441   15.7757 H   0  0  0  0  0  0
    6.5656   59.6967   16.7416 H   0  0  0  0  0  0
    6.2798   58.3148   18.8584 H   0  0  0  0  0  0
    7.8170   58.0227   18.1025 H   0  0  0  0  0  0
    7.8183   51.5849   17.1614 H   0  0  0  0  0  0
    9.3436   52.3551   17.2878 H   0  0  0  0  0  0
    9.7817   51.8642   14.7869 H   0  0  0  0  0  0
    8.4155   50.8032   14.8702 H   0  0  0  0  0  0
   11.6018   48.4876   14.6615 H   0  0  0  0  0  0
   11.2755   50.0194   13.8551 H   0  0  0  0  0  0
   10.0017   48.7951   13.9768 H   0  0  0  0  0  0
    4.3828   59.0172   17.2439 H   0  0  0  0  0  0
  1  2  1  0  0  0
  1 38  1  0  0  0
  1 39  1  0  0  0
  1 40  1  0  0  0
  2  3  1  0  0  0
  3  8  2  0  0  0
  3  4  1  0  0  0
  4  5  2  0  0  0
  4 41  1  0  0  0
  5  6  1  0  0  0
  5 42  1  0  0  0
  6  7  2  0  0  0
  6  9  1  0  0  0
  7  8  1  0  0  0
  7 43  1  0  0  0
  8 44  1  0  0  0
  9 10  1  0  0  0
  9 18  1  0  0  0
  9 45  1  0  0  0
 10 15  2  0  0  0
 10 11  1  0  0  0
 11 12  2  0  0  0
 11 46  1  0  0  0
 12 13  1  0  0  0
 12 47  1  0  0  0
 13 14  2  0  0  0
 13 16  1  0  0  0
 14 15  1  0  0  0
 14 48  1  0  0  0
 15 49  1  0  0  0
 16 17  1  0  0  0
 17 50  1  0  0  0
 17 51  1  0  0  0
 17 52  1  0  0  0
 18 19  1  0  0  0
 18 53  1  0  0  0
 19 20  2  0  0  0
 19 21  1  0  0  0
 21 22  1  0  0  0
 21 26  1  0  0  0
 21 23  1  0  0  0
 23 24  1  0  0  0
 23 54  1  0  0  0
 23 55  1  0  0  0
 24 25  1  0  0  0
 24 32  1  0  0  0
 25 26  1  0  0  0
 25 56  1  0  0  0
 25 57  1  0  0  0
 26 31  1  0  0  0
 26 27  1  0  0  0
 27 28  1  0  0  0
 27 58  1  0  0  0
 27 59  1  0  0  0
 28 29  1  0  0  0
 28 60  1  0  0  0
 28 61  1  0  0  0
 29 30  1  0  0  0
 29 62  1  0  0  0
 29 74  1  0  0  0
 30 31  1  0  0  0
 30 63  1  0  0  0
 30 64  1  0  0  0
 31 65  1  0  0  0
 31 66  1  0  0  0
 32 33  2  0  0  0
 32 34  1  0  0  0
 34 35  1  0  0  0
 34 67  1  0  0  0
 34 68  1  0  0  0
 35 36  1  0  0  0
 35 69  1  0  0  0
 35 70  1  0  0  0
 36 37  1  0  0  0
 37 71  1  0  0  0
 37 72  1  0  0  0
 37 73  1  0  0  0
M  CHG  1  29   1
M  END
> <i_i_glide_confnum>
389

> <i_i_glide_lignum>
3081

> <i_i_glide_posenum>
27

> <i_i_glide_rotatable_bonds>
11

> <i_m_Source_File_Index>
5961

> <b_m_subgroup_collapsed>
0

> <r_i_docking_score>
-5.7661

> <r_i_glide_ecoul>
-7.50699

> <r_i_glide_eff_state_penalty>
0

> <r_i_glide_einternal>
18.2919

> <r_i_glide_emodel>
-63.8801

> <r_i_glide_energy>
-51.2168

> <r_i_glide_erotb>
0.623976

> <r_i_glide_esite>
-0.0775829

> <r_i_glide_evdw>
-43.7098

> <r_i_glide_gscore>
-5.7661

> <r_i_glide_hbond>
0

> <r_i_glide_ligand_efficiency>
-0.16017

> <r_i_glide_ligand_efficiency_ln>
-1.25801

> <r_i_glide_ligand_efficiency_sa>
-0.528868

> <r_i_glide_lipo>
-2.85295

> <r_i_glide_metal>
0

> <r_i_glide_rewards>
-0.148013

> <s_i_glide_gridfile>
wee1_glide-grid

> <s_m_Source_File>
wee1_decoys_glide_SP.sdf

> <s_m_Source_Path>
/Users/zhangxujun/Desktop

> <s_m_entry_id>
6236

> <s_m_entry_name>
wee1_decoys_glide_SP.5961

> <s_m_subgroup_title>
wee1_decoys_glide_SP

> <s_m_subgroupid>
wee1_decoys_glide_SP


$$$$
