ZINC50654115_4702
                    3D
 Schrodinger Suite 2024-2.
 28 29  0  0  1  0            999 V2000
    5.7188   54.1101   23.9711 C   0  0  0  0  0  0
    6.4277   54.2358   25.1622 C   0  0  0  0  0  0
    5.7530   54.3335   26.3808 C   0  0  0  0  0  0
    4.3434   54.3028   26.4274 C   0  0  0  0  0  0
    3.6541   54.2051   25.2125 C   0  0  0  0  0  0
    4.3277   54.0967   23.9966 C   0  0  0  0  0  0
    3.4389   53.9635   22.5246 Cl  0  0  0  0  0  0
    3.5985   54.4967   27.5617 N   0  5  0  0  0  0
    3.8178   53.6750   28.8748 S   0  0  0  0  0  0
    4.7044   52.5121   28.7728 O   0  0  0  0  0  0
    3.9033   54.4967   30.0817 O   0  0  0  0  0  0
    2.1882   52.9697   28.9589 C   0  0  0  0  0  0
    1.1714   53.6001   29.6817 C   0  0  0  0  0  0
   -0.1070   53.0410   29.6782 C   0  0  0  0  0  0
   -0.3540   51.8837   28.9364 C   0  0  0  0  0  0
    0.6530   51.3065   28.2602 N   0  3  0  0  0  0
    1.9044   51.8014   28.2544 C   0  0  0  0  0  0
   -1.6248   51.2967   28.8821 N   0  0  0  0  0  0
    6.4896   54.4965   27.5055 F   0  0  0  0  0  0
    6.2475   54.0345   23.0320 H   0  0  0  0  0  0
    7.5044   54.2653   25.1368 H   0  0  0  0  0  0
    2.5737   54.2134   25.2105 H   0  0  0  0  0  0
    1.3625   54.5141   30.2267 H   0  0  0  0  0  0
   -0.8956   53.5117   30.2396 H   0  0  0  0  0  0
    2.6436   51.2719   27.6817 H   0  0  0  0  0  0
   -2.3833   51.6761   29.4249 H   0  0  0  0  0  0
   -1.7175   50.3396   28.5381 H   0  0  0  0  0  0
    0.4513   50.4628   27.7417 H   0  0  0  0  0  0
  1  6  2  0  0  0
  1  2  1  0  0  0
  1 20  1  0  0  0
  2  3  2  0  0  0
  2 21  1  0  0  0
  3  4  1  0  0  0
  3 19  1  0  0  0
  4  5  2  0  0  0
  4  8  1  0  0  0
  5  6  1  0  0  0
  5 22  1  0  0  0
  6  7  1  0  0  0
  8  9  1  0  0  0
  9 10  2  0  0  0
  9 11  2  0  0  0
  9 12  1  0  0  0
 12 17  2  0  0  0
 12 13  1  0  0  0
 13 14  2  0  0  0
 13 23  1  0  0  0
 14 15  1  0  0  0
 14 24  1  0  0  0
 15 16  2  0  0  0
 15 18  1  0  0  0
 16 17  1  0  0  0
 16 28  1  0  0  0
 17 25  1  0  0  0
 18 26  1  0  0  0
 18 27  1  0  0  0
M  CHG  2   8  -1  16   1
M  END
> <i_i_glide_confnum>
2

> <i_i_glide_lignum>
4703

> <i_i_glide_posenum>
300

> <i_i_glide_rotatable_bonds>
3

> <i_m_Source_File_Index>
2985

> <b_m_subgroup_collapsed>
0

> <r_i_docking_score>
-6.02654

> <r_i_glide_ecoul>
-3.21801

> <r_i_glide_eff_state_penalty>
0

> <r_i_glide_einternal>
9.99085

> <r_i_glide_emodel>
-43.9021

> <r_i_glide_energy>
-32.6463

> <r_i_glide_erotb>
0.606383

> <r_i_glide_esite>
-0.155922

> <r_i_glide_evdw>
-29.4283

> <r_i_glide_gscore>
-6.02654

> <r_i_glide_hbond>
-0.2

> <r_i_glide_ligand_efficiency>
-0.317187

> <r_i_glide_ligand_efficiency_ln>
-1.52786

> <r_i_glide_ligand_efficiency_sa>
-0.846381

> <r_i_glide_lipo>
-2.37309

> <r_i_glide_metal>
0

> <r_i_glide_rewards>
-1.9498

> <s_i_glide_gridfile>
wee1_glide-grid

> <s_m_Source_File>
wee1_decoys_glide_SP.sdf

> <s_m_Source_Path>
/Users/zhangxujun/Desktop

> <s_m_entry_id>
3260

> <s_m_entry_name>
wee1_decoys_glide_SP.2985

> <s_m_subgroup_title>
wee1_decoys_glide_SP

> <s_m_subgroupid>
wee1_decoys_glide_SP


$$$$
