ZINC66967541_1459
                    3D
 Schrodinger Suite 2024-2.
 56 59  0  0  1  0            999 V2000
    3.1973   53.5437   22.6228 C   0  0  0  0  0  0
    4.5457   54.1053   22.1890 C   0  0  0  0  0  0
    4.7743   54.2910   20.8212 C   0  0  0  0  0  0
    5.9559   54.8825   20.3476 C   0  0  0  0  0  0
    6.9033   55.2984   21.2945 C   0  0  0  0  0  0
    6.7054   55.0832   22.6554 C   0  0  0  0  0  0
    5.5392   54.4623   23.1197 C   0  0  0  0  0  0
    5.3632   54.0999   24.4710 N   0  0  0  0  0  0
    5.9890   54.5634   25.5704 C   0  0  0  0  0  0
    6.7050   55.5646   25.6308 O   0  0  0  0  0  0
    5.7135   53.7874   26.6278 N   0  0  0  0  0  0
    5.5487   54.2589   28.0049 C   0  0  0  0  0  0
    4.1087   54.1142   28.4655 C   0  0  0  0  0  0
    3.1739   53.3346   27.9876 N   0  0  0  0  0  0
    2.1455   53.6285   28.7600 C   0  0  0  0  0  0
    2.3531   54.5427   29.6818 N   0  0  0  0  0  0
    3.6958   54.8708   29.5099 O   0  0  0  0  0  0
    0.7879   52.9571   28.6155 C   0  0  0  0  0  0
    0.2678   52.5274   27.2624 C   0  0  0  0  0  0
    0.6803   51.4857   28.2855 C   0  0  0  0  0  0
    6.3075   54.9317   18.8680 C   0  0  0  0  0  0
    7.5036   54.9859   18.5635 O   0  0  0  0  0  0
    5.3389   54.7893   17.9190 N   0  0  0  0  0  0
    5.7293   54.2290   16.6036 C   0  0  0  0  0  0
    4.6222   53.2509   16.1666 C   0  0  0  0  0  0
    3.2512   53.9318   16.0986 C   0  0  0  0  0  0
    2.9216   54.6045   17.4400 C   0  0  0  0  0  0
    4.0466   55.5210   17.9911 C   0  0  2  0  0  0
    3.7867   55.7169   19.0276 H   0  0  0  0  0  0
    4.0819   56.8954   17.2911 C   0  0  0  0  0  0
    2.8149   54.0856   23.4889 H   0  0  0  0  0  0
    2.4449   53.6492   21.8391 H   0  0  0  0  0  0
    3.2830   52.4946   22.8858 H   0  0  0  0  0  0
    4.0307   53.9227   20.1303 H   0  0  0  0  0  0
    7.8428   55.7316   20.9792 H   0  0  0  0  0  0
    7.5018   55.3615   23.3290 H   0  0  0  0  0  0
    4.6354   53.4205   24.6273 H   0  0  0  0  0  0
    5.4717   52.8206   26.4583 H   0  0  0  0  0  0
    6.2070   53.6790   28.6523 H   0  0  0  0  0  0
    5.8704   55.2978   28.1010 H   0  0  0  0  0  0
    0.0388   53.3329   29.3149 H   0  0  0  0  0  0
   -0.7920   52.6639   27.0450 H   0  0  0  0  0  0
    0.8931   52.6845   26.3825 H   0  0  0  0  0  0
    1.5915   50.9095   28.1206 H   0  0  0  0  0  0
   -0.0944   50.8967   28.7800 H   0  0  0  0  0  0
    6.6636   53.6662   16.6508 H   0  0  0  0  0  0
    5.8265   55.0388   15.8803 H   0  0  0  0  0  0
    4.5893   52.4016   16.8522 H   0  0  0  0  0  0
    4.8721   52.8311   15.1922 H   0  0  0  0  0  0
    2.4807   53.2040   15.8412 H   0  0  0  0  0  0
    3.2499   54.6779   15.3028 H   0  0  0  0  0  0
    2.7362   53.8144   18.1688 H   0  0  0  0  0  0
    1.9802   55.1518   17.3755 H   0  0  0  0  0  0
    3.0990   57.3673   17.2829 H   0  0  0  0  0  0
    4.3820   56.8097   16.2467 H   0  0  0  0  0  0
    4.7627   57.5822   17.7947 H   0  0  0  0  0  0
  1  2  1  0  0  0
  1 31  1  0  0  0
  1 32  1  0  0  0
  1 33  1  0  0  0
  2  7  2  0  0  0
  2  3  1  0  0  0
  3  4  2  0  0  0
  3 34  1  0  0  0
  4  5  1  0  0  0
  4 21  1  0  0  0
  5  6  2  0  0  0
  5 35  1  0  0  0
  6  7  1  0  0  0
  6 36  1  0  0  0
  7  8  1  0  0  0
  8  9  1  0  0  0
  8 37  1  0  0  0
  9 10  2  0  0  0
  9 11  1  0  0  0
 11 12  1  0  0  0
 11 38  1  0  0  0
 12 13  1  0  0  0
 12 39  1  0  0  0
 12 40  1  0  0  0
 13 17  1  0  0  0
 13 14  2  0  0  0
 14 15  1  0  0  0
 15 16  2  0  0  0
 15 18  1  0  0  0
 16 17  1  0  0  0
 18 20  1  0  0  0
 18 19  1  0  0  0
 18 41  1  0  0  0
 19 20  1  0  0  0
 19 42  1  0  0  0
 19 43  1  0  0  0
 20 44  1  0  0  0
 20 45  1  0  0  0
 21 22  2  0  0  0
 21 23  1  0  0  0
 23 28  1  0  0  0
 23 24  1  0  0  0
 24 25  1  0  0  0
 24 46  1  0  0  0
 24 47  1  0  0  0
 25 26  1  0  0  0
 25 48  1  0  0  0
 25 49  1  0  0  0
 26 27  1  0  0  0
 26 50  1  0  0  0
 26 51  1  0  0  0
 27 28  1  0  0  0
 27 52  1  0  0  0
 27 53  1  0  0  0
 28 29  1  0  0  0
 28 30  1  0  0  0
 30 54  1  0  0  0
 30 55  1  0  0  0
 30 56  1  0  0  0
M  END
> <i_i_glide_confnum>
231

> <i_i_glide_lignum>
1460

> <i_i_glide_posenum>
88

> <i_i_glide_rotatable_bonds>
8

> <i_m_Source_File_Index>
3537

> <b_m_subgroup_collapsed>
0

> <r_i_docking_score>
-4.93344

> <r_i_glide_ecoul>
-6.86138

> <r_i_glide_eff_state_penalty>
0

> <r_i_glide_einternal>
9.17091

> <r_i_glide_emodel>
-57.8173

> <r_i_glide_energy>
-49.4004

> <r_i_glide_erotb>
0.99125

> <r_i_glide_esite>
-0.00182278

> <r_i_glide_evdw>
-42.539

> <r_i_glide_gscore>
-4.93344

> <r_i_glide_hbond>
-0.32

> <r_i_glide_ligand_efficiency>
-0.170119

> <r_i_glide_ligand_efficiency_ln>
-1.12963

> <r_i_glide_ligand_efficiency_sa>
-0.522658

> <r_i_glide_lipo>
-1.95356

> <r_i_glide_metal>
0

> <r_i_glide_rewards>
-0.493148

> <s_i_glide_gridfile>
wee1_glide-grid

> <s_m_Source_File>
wee1_decoys_glide_SP.sdf

> <s_m_Source_Path>
/Users/zhangxujun/Desktop

> <s_m_entry_id>
3812

> <s_m_entry_name>
wee1_decoys_glide_SP.3537

> <s_m_subgroup_title>
wee1_decoys_glide_SP

> <s_m_subgroupid>
wee1_decoys_glide_SP


$$$$
