ZINC39606947_88
                    3D
 Schrodinger Suite 2024-2.
 59 62  0  0  1  0            999 V2000
   -3.6959   53.6329   25.8145 C   0  0  0  0  0  0
   -3.2507   52.2695   25.2528 C   0  0  1  0  0  0
   -4.0539   51.8593   24.6386 H   0  0  0  0  0  0
   -2.0146   52.4268   24.3219 C   0  0  0  0  0  0
   -2.0990   52.7241   23.1338 O   0  0  0  0  0  0
   -0.8090   52.3463   24.9266 N   0  0  0  0  0  0
   -0.4812   52.1487   26.2744 C   0  0  0  0  0  0
    0.8088   52.4752   26.7169 C   0  0  0  0  0  0
    1.1714   52.3055   28.0658 C   0  0  0  0  0  0
    0.2003   51.8394   28.9630 C   0  0  0  0  0  0
   -1.0790   51.5070   28.5244 C   0  0  0  0  0  0
   -1.4192   51.6462   27.1819 C   0  0  0  0  0  0
   -2.9747   51.0537   26.5907 S   0  0  0  0  0  0
    2.5692   52.5315   28.5646 C   0  0  0  0  0  0
    2.9726   52.0989   29.6492 O   0  0  0  0  0  0
    3.3366   53.2963   27.7257 O   0  0  0  0  0  0
    4.7215   53.5952   28.0065 C   0  0  2  0  0  0
    5.2392   52.6621   28.2422 H   0  0  0  0  0  0
    4.8677   54.5671   29.2021 C   0  0  0  0  0  0
    5.4479   54.1136   26.7353 C   0  0  0  0  0  0
    6.6052   54.5259   26.8390 O   0  0  0  0  0  0
    4.7759   54.0309   25.5633 N   0  0  0  0  0  0
    5.1874   54.3283   24.2513 C   0  0  0  0  0  0
    4.2828   54.0147   23.2357 C   0  0  0  0  0  0
    4.5896   54.2877   21.9041 C   0  0  0  0  0  0
    5.8058   54.8956   21.5507 C   0  0  0  0  0  0
    6.7046   55.1985   22.5825 C   0  0  0  0  0  0
    6.4148   54.9084   23.9125 C   0  0  0  0  0  0
    6.0944   55.2815   20.2364 N   0  0  0  0  0  0
    5.1181   55.1253   19.1362 C   0  0  0  0  0  0
    5.3474   56.1392   17.9936 C   0  0  0  0  0  0
    6.7735   56.0740   17.4351 C   0  0  0  0  0  0
    7.7815   56.1422   18.5891 C   0  0  0  0  0  0
    7.4570   55.1083   19.6868 C   0  0  0  0  0  0
   -3.8954   54.3515   25.0189 H   0  0  0  0  0  0
   -4.6161   53.5294   26.3895 H   0  0  0  0  0  0
   -2.9483   54.0587   26.4819 H   0  0  0  0  0  0
   -0.0561   52.5469   24.2871 H   0  0  0  0  0  0
    1.5331   52.8375   25.9998 H   0  0  0  0  0  0
    0.4330   51.6960   30.0088 H   0  0  0  0  0  0
   -1.7895   51.0831   29.2204 H   0  0  0  0  0  0
    5.9024   54.8958   29.3451 H   0  0  0  0  0  0
    4.2381   55.4437   29.0692 H   0  0  0  0  0  0
    4.5522   54.0989   30.1322 H   0  0  0  0  0  0
    3.8500   53.6382   25.6376 H   0  0  0  0  0  0
    3.3291   53.5587   23.4663 H   0  0  0  0  0  0
    3.8536   54.0280   21.1570 H   0  0  0  0  0  0
    7.6404   55.6953   22.3761 H   0  0  0  0  0  0
    7.1529   55.1764   24.6503 H   0  0  0  0  0  0
    4.1068   55.2951   19.5012 H   0  0  0  0  0  0
    5.1501   54.0994   18.7657 H   0  0  0  0  0  0
    5.1047   57.1448   18.3414 H   0  0  0  0  0  0
    4.6383   55.9382   17.1895 H   0  0  0  0  0  0
    6.9097   55.1420   16.8831 H   0  0  0  0  0  0
    6.9453   56.8855   16.7266 H   0  0  0  0  0  0
    8.7868   55.9597   18.2057 H   0  0  0  0  0  0
    7.8117   57.1439   19.0235 H   0  0  0  0  0  0
    8.2274   55.1911   20.4521 H   0  0  0  0  0  0
    7.5427   54.0978   19.2810 H   0  0  0  0  0  0
  1  2  1  0  0  0
  1 35  1  0  0  0
  1 36  1  0  0  0
  1 37  1  0  0  0
  2  3  1  0  0  0
  2 13  1  0  0  0
  2  4  1  0  0  0
  4  5  2  0  0  0
  4  6  1  0  0  0
  6  7  1  0  0  0
  6 38  1  0  0  0
  7 12  2  0  0  0
  7  8  1  0  0  0
  8  9  2  0  0  0
  8 39  1  0  0  0
  9 10  1  0  0  0
  9 14  1  0  0  0
 10 11  2  0  0  0
 10 40  1  0  0  0
 11 12  1  0  0  0
 11 41  1  0  0  0
 12 13  1  0  0  0
 14 15  2  0  0  0
 14 16  1  0  0  0
 16 17  1  0  0  0
 17 18  1  0  0  0
 17 19  1  0  0  0
 17 20  1  0  0  0
 19 42  1  0  0  0
 19 43  1  0  0  0
 19 44  1  0  0  0
 20 21  2  0  0  0
 20 22  1  0  0  0
 22 23  1  0  0  0
 22 45  1  0  0  0
 23 28  2  0  0  0
 23 24  1  0  0  0
 24 25  2  0  0  0
 24 46  1  0  0  0
 25 26  1  0  0  0
 25 47  1  0  0  0
 26 27  2  0  0  0
 26 29  1  0  0  0
 27 28  1  0  0  0
 27 48  1  0  0  0
 28 49  1  0  0  0
 29 34  1  0  0  0
 29 30  1  0  0  0
 30 31  1  0  0  0
 30 50  1  0  0  0
 30 51  1  0  0  0
 31 32  1  0  0  0
 31 52  1  0  0  0
 31 53  1  0  0  0
 32 33  1  0  0  0
 32 54  1  0  0  0
 32 55  1  0  0  0
 33 34  1  0  0  0
 33 56  1  0  0  0
 33 57  1  0  0  0
 34 58  1  0  0  0
 34 59  1  0  0  0
M  END
> <i_i_glide_confnum>
234

> <i_i_glide_lignum>
89

> <i_i_glide_posenum>
45

> <i_i_glide_rotatable_bonds>
7

> <i_m_Source_File_Index>
5963

> <b_m_subgroup_collapsed>
0

> <r_i_docking_score>
-6.05111

> <r_i_glide_ecoul>
-4.43349

> <r_i_glide_eff_state_penalty>
0

> <r_i_glide_einternal>
6.56255

> <r_i_glide_emodel>
-67.3959

> <r_i_glide_energy>
-51.5401

> <r_i_glide_erotb>
0.683083

> <r_i_glide_esite>
0

> <r_i_glide_evdw>
-47.1066

> <r_i_glide_gscore>
-6.05111

> <r_i_glide_hbond>
-0.142099

> <r_i_glide_ligand_efficiency>
-0.189097

> <r_i_glide_ligand_efficiency_ln>
-1.35501

> <r_i_glide_ligand_efficiency_sa>
-0.600346

> <r_i_glide_lipo>
-2.34285

> <r_i_glide_metal>
0

> <r_i_glide_rewards>
-1.22889

> <s_i_glide_gridfile>
wee1_glide-grid

> <s_m_Source_File>
wee1_decoys_glide_SP.sdf

> <s_m_Source_Path>
/Users/zhangxujun/Desktop

> <s_m_entry_id>
6238

> <s_m_entry_name>
wee1_decoys_glide_SP.5963

> <s_m_subgroup_title>
wee1_decoys_glide_SP

> <s_m_subgroupid>
wee1_decoys_glide_SP


$$$$
