ZINC03073376_3861
                    3D
 Schrodinger Suite 2024-2.
 37 40  0  0  1  0            999 V2000
    6.6154   54.8923   22.6811 C   0  0  0  0  0  0
    5.5074   54.3063   22.0798 C   0  0  0  0  0  0
    4.4124   53.9100   22.8438 C   0  0  0  0  0  0
    4.4078   54.0978   24.2537 C   0  0  0  0  0  0
    5.5479   54.6969   24.8653 C   0  0  0  0  0  0
    6.6456   55.0862   24.0586 C   0  0  0  0  0  0
    5.5500   54.8968   26.2616 C   0  0  0  0  0  0
    4.4469   54.5380   27.0268 C   0  0  0  0  0  0
    3.3103   53.9406   26.4742 C   0  0  0  0  0  0
    3.3102   53.7230   25.0812 C   0  0  0  0  0  0
    2.2526   53.1334   24.4219 O   0  0  0  0  0  0
    1.2378   52.6179   25.1452 C   0  0  0  0  0  0
    1.0847   52.7477   26.4779 C   0  0  0  0  0  0
    2.0553   53.5931   27.3216 C   0  0  1  0  0  0
    1.5911   54.5671   27.4872 H   0  0  0  0  0  0
    2.2827   53.0609   28.7559 C   0  0  0  0  0  0
    3.5153   52.5317   29.1715 C   0  0  0  0  0  0
    3.6998   52.0934   30.4799 C   0  0  0  0  0  0
    2.6325   52.0967   31.3742 C   0  0  0  0  0  0
    1.4005   52.6103   30.9801 C   0  0  0  0  0  0
    1.2353   53.1205   29.6938 C   0  0  0  0  0  0
    0.0566   53.7052   29.3751 F   0  0  0  0  0  0
   -0.0688   52.1563   27.0796 C   0  0  0  0  0  0
   -1.0380   51.6961   27.5091 N   0  0  0  0  0  0
    0.4229   51.9317   24.2875 N   0  0  0  0  0  0
    7.4627   55.1972   22.0794 H   0  0  0  0  0  0
    5.4967   54.1568   21.0086 H   0  0  0  0  0  0
    3.5576   53.4611   22.3584 H   0  0  0  0  0  0
    7.5050   55.5512   24.5179 H   0  0  0  0  0  0
    6.4050   55.3555   26.7361 H   0  0  0  0  0  0
    4.4758   54.7613   28.0844 H   0  0  0  0  0  0
    4.3437   52.4384   28.4865 H   0  0  0  0  0  0
    4.6600   51.7006   30.7867 H   0  0  0  0  0  0
    2.7612   51.7228   32.3815 H   0  0  0  0  0  0
    0.5763   52.6372   31.6798 H   0  0  0  0  0  0
   -0.3897   51.4470   24.6410 H   0  0  0  0  0  0
    0.7628   51.6610   23.3753 H   0  0  0  0  0  0
  1  6  2  0  0  0
  1  2  1  0  0  0
  1 26  1  0  0  0
  2  3  2  0  0  0
  2 27  1  0  0  0
  3  4  1  0  0  0
  3 28  1  0  0  0
  4 10  2  0  0  0
  4  5  1  0  0  0
  5  6  1  0  0  0
  5  7  2  0  0  0
  6 29  1  0  0  0
  7  8  1  0  0  0
  7 30  1  0  0  0
  8  9  2  0  0  0
  8 31  1  0  0  0
  9 14  1  0  0  0
  9 10  1  0  0  0
 10 11  1  0  0  0
 11 12  1  0  0  0
 12 13  2  0  0  0
 12 25  1  0  0  0
 13 14  1  0  0  0
 13 23  1  0  0  0
 14 15  1  0  0  0
 14 16  1  0  0  0
 16 21  2  0  0  0
 16 17  1  0  0  0
 17 18  2  0  0  0
 17 32  1  0  0  0
 18 19  1  0  0  0
 18 33  1  0  0  0
 19 20  2  0  0  0
 19 34  1  0  0  0
 20 21  1  0  0  0
 20 35  1  0  0  0
 21 22  1  0  0  0
 23 24  3  0  0  0
 25 36  1  0  0  0
 25 37  1  0  0  0
M  END
> <i_i_glide_confnum>
1

> <i_i_glide_lignum>
3862

> <i_i_glide_posenum>
119

> <i_i_glide_rotatable_bonds>
2

> <i_m_Source_File_Index>
4344

> <b_m_subgroup_collapsed>
0

> <r_i_docking_score>
-7.06472

> <r_i_glide_ecoul>
-1.16305

> <r_i_glide_eff_state_penalty>
0

> <r_i_glide_einternal>
1.69181

> <r_i_glide_emodel>
-52.4433

> <r_i_glide_energy>
-37.8842

> <r_i_glide_erotb>
0.186034

> <r_i_glide_esite>
-0.00460507

> <r_i_glide_evdw>
-36.7211

> <r_i_glide_gscore>
-7.06472

> <r_i_glide_hbond>
0

> <r_i_glide_ligand_efficiency>
-0.294363

> <r_i_glide_ligand_efficiency_ln>
-1.69091

> <r_i_glide_ligand_efficiency_sa>
-0.84909

> <r_i_glide_lipo>
-3.69973

> <r_i_glide_metal>
0

> <r_i_glide_rewards>
-1.5359

> <s_i_glide_gridfile>
wee1_glide-grid

> <s_m_Source_File>
wee1_decoys_glide_SP.sdf

> <s_m_Source_Path>
/Users/zhangxujun/Desktop

> <s_m_entry_id>
4619

> <s_m_entry_name>
wee1_decoys_glide_SP.4344

> <s_m_subgroup_title>
wee1_decoys_glide_SP

> <s_m_subgroupid>
wee1_decoys_glide_SP


$$$$
