ZINC19418704_5893
                    3D
 Schrodinger Suite 2024-2.
 48 51  0  0  1  0            999 V2000
    1.3551   56.4234   29.7979 C   0  0  0  0  0  0
    0.9005   55.3584   30.4785 C   0  0  0  0  0  0
    0.6289   53.9772   29.9025 C   0  0  0  0  0  0
    0.7852   53.9457   28.4836 O   0  0  0  0  0  0
    1.1470   52.7013   27.9578 C   0  0  1  0  0  0
    0.5664   51.9047   28.4325 H   0  0  0  0  0  0
    0.9454   52.7103   26.4371 C   0  0  0  0  0  0
   -0.0354   52.0778   25.7596 C   0  0  0  0  0  0
   -1.0465   51.2872   26.2562 N   0  0  0  0  0  0
   -1.8305   50.3606   25.5484 C   0  0  0  0  0  0
   -1.5577   49.9891   24.2205 C   0  0  0  0  0  0
   -2.3214   49.0282   23.5519 C   0  0  0  0  0  0
   -3.3724   48.4152   24.2437 C   0  0  0  0  0  0
   -3.6556   48.7957   25.5770 C   0  0  0  0  0  0
   -2.8961   49.7722   26.2325 C   0  0  0  0  0  0
   -5.0055   47.8474   26.1622 S   0  0  0  0  0  0
   -5.0324   47.0088   24.6153 C   0  0  0  0  0  0
   -4.1690   47.4394   23.7358 N   0  0  0  0  0  0
   -6.1607   45.6971   24.2421 S   0  0  0  0  0  0
   -6.7043   45.1399   25.9058 C   0  0  0  0  0  0
   -5.5381   44.5236   26.7001 C   0  0  0  0  0  0
   -4.5317   44.0954   26.0821 O   0  0  0  0  0  0
   -5.6950   44.4951   27.9419 O   0  5  0  0  0  0
    1.9213   53.4783   25.6465 C   0  0  0  0  0  0
    1.7378   53.8955   24.4977 O   0  0  0  0  0  0
    3.2035   53.7118   26.3649 C   0  0  0  0  0  0
    4.2345   54.4402   25.7596 C   0  0  0  0  0  0
    5.4506   54.6256   26.4133 C   0  0  0  0  0  0
    5.6492   54.1067   27.6928 C   0  0  0  0  0  0
    4.6313   53.3805   28.3105 C   0  0  0  0  0  0
    3.4199   53.1801   27.6465 C   0  0  0  0  0  0
    2.4821   52.3882   28.2795 O   0  0  0  0  0  0
    6.7043   55.4922   25.6155 Cl  0  0  0  0  0  0
    1.5197   57.3707   30.2942 H   0  0  0  0  0  0
    1.5673   56.3685   28.7397 H   0  0  0  0  0  0
    0.7050   55.4636   31.5350 H   0  0  0  0  0  0
   -0.3863   53.6694   30.1571 H   0  0  0  0  0  0
    1.3120   53.2885   30.4003 H   0  0  0  0  0  0
   -0.0995   52.1698   24.6853 H   0  0  0  0  0  0
   -1.1859   51.2398   27.2555 H   0  0  0  0  0  0
   -0.7263   50.4209   23.6848 H   0  0  0  0  0  0
   -2.0924   48.7441   22.5350 H   0  0  0  0  0  0
   -3.0961   50.0156   27.2661 H   0  0  0  0  0  0
   -7.1786   45.9517   26.4557 H   0  0  0  0  0  0
   -7.4672   44.3723   25.7767 H   0  0  0  0  0  0
    4.1088   54.8535   24.7680 H   0  0  0  0  0  0
    6.5913   54.2565   28.2023 H   0  0  0  0  0  0
    4.7869   52.9527   29.2883 H   0  0  0  0  0  0
  1  2  2  0  0  0
  1 34  1  0  0  0
  1 35  1  0  0  0
  2  3  1  0  0  0
  2 36  1  0  0  0
  3  4  1  0  0  0
  3 37  1  0  0  0
  3 38  1  0  0  0
  4  5  1  0  0  0
  5  6  1  0  0  0
  5 32  1  0  0  0
  5  7  1  0  0  0
  7  8  2  0  0  0
  7 24  1  0  0  0
  8  9  1  0  0  0
  8 39  1  0  0  0
  9 10  1  0  0  0
  9 40  1  0  0  0
 10 15  2  0  0  0
 10 11  1  0  0  0
 11 12  2  0  0  0
 11 41  1  0  0  0
 12 13  1  0  0  0
 12 42  1  0  0  0
 13 18  1  0  0  0
 13 14  2  0  0  0
 14 15  1  0  0  0
 14 16  1  0  0  0
 15 43  1  0  0  0
 16 17  1  0  0  0
 17 18  2  0  0  0
 17 19  1  0  0  0
 19 20  1  0  0  0
 20 21  1  0  0  0
 20 44  1  0  0  0
 20 45  1  0  0  0
 21 22  2  0  0  0
 21 23  1  0  0  0
 24 25  2  0  0  0
 24 26  1  0  0  0
 26 31  2  0  0  0
 26 27  1  0  0  0
 27 28  2  0  0  0
 27 46  1  0  0  0
 28 29  1  0  0  0
 28 33  1  0  0  0
 29 30  2  0  0  0
 29 47  1  0  0  0
 30 31  1  0  0  0
 30 48  1  0  0  0
 31 32  1  0  0  0
M  CHG  1  23  -1
M  END
> <i_i_glide_confnum>
36

> <i_i_glide_lignum>
5894

> <i_i_glide_posenum>
115

> <i_i_glide_rotatable_bonds>
8

> <i_m_Source_File_Index>
3193

> <b_m_subgroup_collapsed>
0

> <r_i_docking_score>
-5.833

> <r_i_glide_ecoul>
-6.56723

> <r_i_glide_eff_state_penalty>
0

> <r_i_glide_einternal>
8.72829

> <r_i_glide_emodel>
-58.8298

> <r_i_glide_energy>
-44.0337

> <r_i_glide_erotb>
0.597773

> <r_i_glide_esite>
-0.0494909

> <r_i_glide_evdw>
-37.4664

> <r_i_glide_gscore>
-5.833

> <r_i_glide_hbond>
-0.34144

> <r_i_glide_ligand_efficiency>
-0.182281

> <r_i_glide_ligand_efficiency_ln>
-1.30617

> <r_i_glide_ligand_efficiency_sa>
-0.578707

> <r_i_glide_lipo>
-2.56604

> <r_i_glide_metal>
0

> <r_i_glide_rewards>
-0.615391

> <s_i_glide_gridfile>
wee1_glide-grid

> <s_m_Source_File>
wee1_decoys_glide_SP.sdf

> <s_m_Source_Path>
/Users/zhangxujun/Desktop

> <s_m_entry_id>
3468

> <s_m_entry_name>
wee1_decoys_glide_SP.3193

> <s_m_subgroup_title>
wee1_decoys_glide_SP

> <s_m_subgroupid>
wee1_decoys_glide_SP


$$$$
