ZINC01252105_962
                    3D
 Schrodinger Suite 2024-2.
 52 56  0  0  1  0            999 V2000
    5.2437   54.1726   20.6626 C   0  0  0  0  0  0
    4.6116   52.9301   20.9460 O   0  0  0  0  0  0
    3.4577   52.9238   21.7090 C   0  0  0  0  0  0
    3.0727   53.9951   22.5253 C   0  0  0  0  0  0
    1.9256   53.9131   23.3055 C   0  0  0  0  0  0
    1.1256   52.7665   23.2904 C   0  0  0  0  0  0
    1.4740   51.6927   22.4383 C   0  0  0  0  0  0
    2.6526   51.7746   21.6671 C   0  0  0  0  0  0
    3.0629   50.7104   20.8934 O   0  0  0  0  0  0
    2.7028   50.7979   19.5205 C   0  0  0  0  0  0
    0.6135   50.4767   22.3387 C   0  0  0  0  0  0
   -0.4193   50.5695   21.6366 O   0  0  0  0  0  0
   -0.0470   52.7040   24.3093 C   0  0  2  0  0  0
   -0.1048   53.6969   24.7491 H   0  0  0  0  0  0
    0.1524   51.7466   25.3998 N   0  0  0  0  0  0
   -1.0067   51.2907   26.1574 C   0  0  1  0  0  0
   -1.1224   50.2271   25.9362 H   0  0  0  0  0  0
   -0.5842   51.4548   27.6151 C   0  0  0  0  0  0
    0.8251   51.9935   27.4895 C   0  0  0  0  0  0
    1.1485   52.1960   26.2789 N   0  0  0  0  0  0
    1.6987   52.2419   28.6474 C   0  0  0  0  0  0
    3.0693   52.4965   28.4850 C   0  0  0  0  0  0
    3.8745   52.6108   29.6175 C   0  0  0  0  0  0
    3.2964   52.4964   30.8814 C   0  0  0  0  0  0
    1.9160   52.2999   30.9693 C   0  0  0  0  0  0
    1.1213   52.1662   29.8773 N   0  0  0  0  0  0
   -2.3088   51.9726   25.7453 C   0  0  0  0  0  0
   -3.4721   51.9366   26.5241 C   0  0  0  0  0  0
   -4.6400   52.5702   26.0978 C   0  0  0  0  0  0
   -4.6589   53.2507   24.8821 C   0  0  0  0  0  0
   -3.5180   53.2709   24.0818 C   0  0  0  0  0  0
   -2.3628   52.6172   24.4999 C   0  0  0  0  0  0
   -1.2804   52.6396   23.6399 O   0  0  0  0  0  0
   -6.2093   52.4977   27.1713 Br  0  0  0  0  0  0
    6.0293   54.0177   19.9239 H   0  0  0  0  0  0
    4.5398   54.8937   20.2452 H   0  0  0  0  0  0
    5.7071   54.5969   21.5541 H   0  0  0  0  0  0
    3.6657   54.8945   22.5849 H   0  0  0  0  0  0
    1.6823   54.7437   23.9520 H   0  0  0  0  0  0
    3.0508   49.9058   18.9991 H   0  0  0  0  0  0
    3.1594   51.6625   19.0367 H   0  0  0  0  0  0
    1.6210   50.8580   19.3935 H   0  0  0  0  0  0
   -1.2045   52.1680   28.1576 H   0  0  0  0  0  0
   -0.5926   50.4971   28.1326 H   0  0  0  0  0  0
    3.5176   52.5546   27.5031 H   0  0  0  0  0  0
    4.9376   52.7675   29.5071 H   0  0  0  0  0  0
    3.9041   52.5603   31.7729 H   0  0  0  0  0  0
    1.4242   52.2165   31.9295 H   0  0  0  0  0  0
   -3.4701   51.4082   27.4670 H   0  0  0  0  0  0
   -5.5613   53.7424   24.5495 H   0  0  0  0  0  0
   -3.5253   53.7847   23.1359 H   0  0  0  0  0  0
    0.9827   49.4548   22.9575 O   0  5  0  0  0  0
  1  2  1  0  0  0
  1 35  1  0  0  0
  1 36  1  0  0  0
  1 37  1  0  0  0
  2  3  1  0  0  0
  3  8  2  0  0  0
  3  4  1  0  0  0
  4  5  2  0  0  0
  4 38  1  0  0  0
  5  6  1  0  0  0
  5 39  1  0  0  0
  6  7  2  0  0  0
  6 13  1  0  0  0
  7  8  1  0  0  0
  7 11  1  0  0  0
  8  9  1  0  0  0
  9 10  1  0  0  0
 10 40  1  0  0  0
 10 41  1  0  0  0
 10 42  1  0  0  0
 11 12  2  0  0  0
 11 52  1  0  0  0
 13 14  1  0  0  0
 13 33  1  0  0  0
 13 15  1  0  0  0
 15 20  1  0  0  0
 15 16  1  0  0  0
 16 17  1  0  0  0
 16 18  1  0  0  0
 16 27  1  0  0  0
 18 19  1  0  0  0
 18 43  1  0  0  0
 18 44  1  0  0  0
 19 20  2  0  0  0
 19 21  1  0  0  0
 21 26  2  0  0  0
 21 22  1  0  0  0
 22 23  2  0  0  0
 22 45  1  0  0  0
 23 24  1  0  0  0
 23 46  1  0  0  0
 24 25  2  0  0  0
 24 47  1  0  0  0
 25 26  1  0  0  0
 25 48  1  0  0  0
 27 32  2  0  0  0
 27 28  1  0  0  0
 28 29  2  0  0  0
 28 49  1  0  0  0
 29 30  1  0  0  0
 29 34  1  0  0  0
 30 31  2  0  0  0
 30 50  1  0  0  0
 31 32  1  0  0  0
 31 51  1  0  0  0
 32 33  1  0  0  0
M  CHG  1  52  -1
M  END
> <i_i_glide_confnum>
11

> <i_i_glide_lignum>
963

> <i_i_glide_posenum>
223

> <i_i_glide_rotatable_bonds>
5

> <i_m_Source_File_Index>
5385

> <b_m_subgroup_collapsed>
0

> <r_i_docking_score>
-4.40326

> <r_i_glide_ecoul>
-2.1195

> <r_i_glide_eff_state_penalty>
0

> <r_i_glide_einternal>
1.37985

> <r_i_glide_emodel>
-53.8459

> <r_i_glide_energy>
-42.8359

> <r_i_glide_erotb>
0.157887

> <r_i_glide_esite>
0

> <r_i_glide_evdw>
-40.7164

> <r_i_glide_gscore>
-4.40326

> <r_i_glide_hbond>
0

> <r_i_glide_ligand_efficiency>
-0.133432

> <r_i_glide_ligand_efficiency_ln>
-0.979262

> <r_i_glide_ligand_efficiency_sa>
-0.427988

> <r_i_glide_lipo>
-1.80698

> <r_i_glide_metal>
0

> <r_i_glide_rewards>
-0.40042

> <s_i_glide_gridfile>
wee1_glide-grid

> <s_m_Source_File>
wee1_decoys_glide_SP.sdf

> <s_m_Source_Path>
/Users/zhangxujun/Desktop

> <s_m_entry_id>
5660

> <s_m_entry_name>
wee1_decoys_glide_SP.5385

> <s_m_subgroup_title>
wee1_decoys_glide_SP

> <s_m_subgroupid>
wee1_decoys_glide_SP


$$$$
