ZINC39883543_4146
                    3D
 Schrodinger Suite 2024-2.
 69 73  0  0  1  0            999 V2000
    1.6998   53.0100   28.5377 C   0  0  0  0  0  0
    2.8982   53.9312   28.9043 C   0  0  0  0  0  0
    2.3453   55.3131   29.3191 C   0  0  0  0  0  0
    3.5858   53.2657   30.1241 C   0  0  0  0  0  0
    3.8783   54.0973   27.7121 C   0  0  0  0  0  0
    5.2678   54.2012   27.9108 C   0  0  0  0  0  0
    6.1729   54.2649   26.8511 C   0  0  0  0  0  0
    5.6387   54.2136   25.5613 C   0  0  0  0  0  0
    4.2539   54.1457   25.3067 C   0  0  0  0  0  0
    3.3766   54.1288   26.4005 C   0  0  0  0  0  0
    4.1101   54.0967   23.8755 C   0  0  0  0  0  0
    5.4196   54.1342   23.4021 C   0  0  0  0  0  0
    6.3466   54.2189   24.3980 O   0  0  0  0  0  0
    2.8134   54.0336   23.0704 C   0  0  0  0  0  0
    1.9486   52.7870   23.3306 C   0  0  0  0  0  0
    1.9035   52.3024   24.4607 O   0  0  0  0  0  0
    1.2394   52.3297   22.2777 N   0  0  0  0  0  0
    0.4069   51.2048   22.2216 C   0  0  0  0  0  0
   -0.5147   50.9062   21.1965 C   0  0  0  0  0  0
   -1.2711   49.7374   21.4777 C   0  0  0  0  0  0
   -0.8665   49.1130   22.6671 C   0  0  0  0  0  0
    0.4017   49.9705   23.4597 S   0  0  0  0  0  0
   -1.4870   47.8600   23.2639 C   0  0  0  0  0  0
   -2.2591   47.1099   22.1612 C   0  0  0  0  0  0
   -3.1808   48.0600   21.3769 C   0  0  0  0  0  0
   -2.3994   49.1553   20.6134 C   0  0  0  0  0  0
   -0.7294   51.7339   20.0295 C   0  0  0  0  0  0
   -1.8567   52.0889   19.6769 O   0  0  0  0  0  0
    0.4056   52.0939   19.4036 N   0  0  0  0  0  0
    0.4940   52.9013   18.1833 C   0  0  0  0  0  0
    0.4255   52.1018   16.8570 C   0  0  1  0  0  0
    0.6134   52.7849   16.0268 H   0  0  0  0  0  0
    1.2392   50.8047   16.7764 C   0  0  0  0  0  0
    0.4862   49.9440   15.7864 C   0  0  0  0  0  0
   -0.9338   50.5099   15.8024 C   0  0  0  0  0  0
   -0.9023   51.5983   16.7241 O   0  0  0  0  0  0
    1.0810   52.7800   29.4069 H   0  0  0  0  0  0
    2.0402   52.0591   28.1232 H   0  0  0  0  0  0
    1.0266   53.4650   27.8114 H   0  0  0  0  0  0
    3.1353   55.9799   29.6615 H   0  0  0  0  0  0
    1.8407   55.8077   28.4872 H   0  0  0  0  0  0
    1.6220   55.2289   30.1315 H   0  0  0  0  0  0
    4.3042   53.9306   30.6037 H   0  0  0  0  0  0
    2.8603   52.9811   30.8847 H   0  0  0  0  0  0
    4.1137   52.3540   29.8379 H   0  0  0  0  0  0
    5.6812   54.2209   28.9050 H   0  0  0  0  0  0
    7.2357   54.3182   27.0252 H   0  0  0  0  0  0
    2.3160   54.0959   26.2136 H   0  0  0  0  0  0
    5.8279   54.1259   22.4007 H   0  0  0  0  0  0
    2.1890   54.8963   23.2947 H   0  0  0  0  0  0
    3.0377   54.0975   22.0041 H   0  0  0  0  0  0
    1.2351   52.9147   21.4541 H   0  0  0  0  0  0
   -0.7310   47.2148   23.7137 H   0  0  0  0  0  0
   -2.1715   48.1378   24.0667 H   0  0  0  0  0  0
   -1.5585   46.6307   21.4751 H   0  0  0  0  0  0
   -2.8440   46.3055   22.6077 H   0  0  0  0  0  0
   -3.7905   47.4917   20.6727 H   0  0  0  0  0  0
   -3.8840   48.5281   22.0680 H   0  0  0  0  0  0
   -3.1006   49.9257   20.2925 H   0  0  0  0  0  0
   -1.9732   48.7332   19.7027 H   0  0  0  0  0  0
    1.2685   51.6716   19.7141 H   0  0  0  0  0  0
   -0.2823   53.6692   18.1828 H   0  0  0  0  0  0
    1.4395   53.4451   18.2168 H   0  0  0  0  0  0
    2.2841   50.9859   16.5185 H   0  0  0  0  0  0
    1.2824   50.3086   17.7461 H   0  0  0  0  0  0
    0.9224   50.0333   14.7911 H   0  0  0  0  0  0
    0.5167   48.8904   16.0664 H   0  0  0  0  0  0
   -1.2290   50.8692   14.8153 H   0  0  0  0  0  0
   -1.6652   49.7695   16.1291 H   0  0  0  0  0  0
  1  2  1  0  0  0
  1 37  1  0  0  0
  1 38  1  0  0  0
  1 39  1  0  0  0
  2  3  1  0  0  0
  2  4  1  0  0  0
  2  5  1  0  0  0
  3 40  1  0  0  0
  3 41  1  0  0  0
  3 42  1  0  0  0
  4 43  1  0  0  0
  4 44  1  0  0  0
  4 45  1  0  0  0
  5 10  2  0  0  0
  5  6  1  0  0  0
  6  7  2  0  0  0
  6 46  1  0  0  0
  7  8  1  0  0  0
  7 47  1  0  0  0
  8 13  1  0  0  0
  8  9  2  0  0  0
  9 10  1  0  0  0
  9 11  1  0  0  0
 10 48  1  0  0  0
 11 12  2  0  0  0
 11 14  1  0  0  0
 12 13  1  0  0  0
 12 49  1  0  0  0
 14 15  1  0  0  0
 14 50  1  0  0  0
 14 51  1  0  0  0
 15 16  2  0  0  0
 15 17  1  0  0  0
 17 18  1  0  0  0
 17 52  1  0  0  0
 18 22  1  0  0  0
 18 19  2  0  0  0
 19 20  1  0  0  0
 19 27  1  0  0  0
 20 26  1  0  0  0
 20 21  2  0  0  0
 21 22  1  0  0  0
 21 23  1  0  0  0
 23 24  1  0  0  0
 23 53  1  0  0  0
 23 54  1  0  0  0
 24 25  1  0  0  0
 24 55  1  0  0  0
 24 56  1  0  0  0
 25 26  1  0  0  0
 25 57  1  0  0  0
 25 58  1  0  0  0
 26 59  1  0  0  0
 26 60  1  0  0  0
 27 28  2  0  0  0
 27 29  1  0  0  0
 29 30  1  0  0  0
 29 61  1  0  0  0
 30 31  1  0  0  0
 30 62  1  0  0  0
 30 63  1  0  0  0
 31 32  1  0  0  0
 31 36  1  0  0  0
 31 33  1  0  0  0
 33 34  1  0  0  0
 33 64  1  0  0  0
 33 65  1  0  0  0
 34 35  1  0  0  0
 34 66  1  0  0  0
 34 67  1  0  0  0
 35 36  1  0  0  0
 35 68  1  0  0  0
 35 69  1  0  0  0
M  END
> <i_i_glide_confnum>
239

> <i_i_glide_lignum>
4147

> <i_i_glide_posenum>
315

> <i_i_glide_rotatable_bonds>
9

> <i_m_Source_File_Index>
1949

> <b_m_subgroup_collapsed>
0

> <r_i_docking_score>
-5.75979

> <r_i_glide_ecoul>
-4.07666

> <r_i_glide_eff_state_penalty>
0

> <r_i_glide_einternal>
9.69365

> <r_i_glide_emodel>
-57.5928

> <r_i_glide_energy>
-46.4512

> <r_i_glide_erotb>
0.583056

> <r_i_glide_esite>
-0.036798

> <r_i_glide_evdw>
-42.3745

> <r_i_glide_gscore>
-5.75979

> <r_i_glide_hbond>
-0.200976

> <r_i_glide_ligand_efficiency>
-0.164565

> <r_i_glide_ligand_efficiency_ln>
-1.2644

> <r_i_glide_ligand_efficiency_sa>
-0.538304

> <r_i_glide_lipo>
-3.0417

> <r_i_glide_metal>
0

> <r_i_glide_rewards>
-0.333148

> <s_i_glide_gridfile>
wee1_glide-grid

> <s_m_Source_File>
wee1_decoys_glide_SP.sdf

> <s_m_Source_Path>
/Users/zhangxujun/Desktop

> <s_m_entry_id>
2224

> <s_m_entry_name>
wee1_decoys_glide_SP.1949

> <s_m_subgroup_title>
wee1_decoys_glide_SP

> <s_m_subgroupid>
wee1_decoys_glide_SP


$$$$
