ZINC38621035_3991
                    3D
 Schrodinger Suite 2024-2.
 66 70  0  0  1  0            999 V2000
   -5.1737   49.8319   31.3450 C   0  0  0  0  0  0
   -5.4377   48.6394   30.4421 C   0  0  0  0  0  0
   -6.5845   47.8575   30.5999 C   0  0  0  0  0  0
   -6.8293   46.7916   29.7331 C   0  0  0  0  0  0
   -5.9271   46.4963   28.7099 C   0  0  0  0  0  0
   -4.7621   47.2649   28.5494 C   0  0  0  0  0  0
   -4.5348   48.3344   29.4219 C   0  0  0  0  0  0
   -3.7913   47.0818   27.5455 N   0  0  0  0  0  0
   -3.8307   46.2995   26.4364 C   0  0  0  0  0  0
   -4.6698   45.4174   26.2349 O   0  0  0  0  0  0
   -2.8093   46.5961   25.3736 C   0  0  0  0  0  0
   -2.9168   46.0969   24.2496 O   0  0  0  0  0  0
   -1.7908   47.4286   25.6818 N   0  0  0  0  0  0
   -0.7819   47.8966   24.7235 C   0  0  0  0  0  0
   -0.9752   49.3900   24.3412 C   0  0  1  0  0  0
   -2.0297   49.4524   24.0618 H   0  0  0  0  0  0
   -0.7934   50.3653   25.5161 C   0  0  0  0  0  0
   -1.7327   51.3993   25.7099 C   0  0  0  0  0  0
   -1.5833   52.3256   26.7492 C   0  0  0  0  0  0
   -0.4877   52.1829   27.5905 C   0  0  0  0  0  0
    0.4240   51.1839   27.4170 C   0  0  0  0  0  0
    0.3047   50.2518   26.3904 C   0  0  0  0  0  0
    1.3992   51.2972   28.3582 O   0  0  0  0  0  0
    0.9103   52.2366   29.2777 C   0  0  0  0  0  0
   -0.1061   52.9597   28.6398 O   0  0  0  0  0  0
   -0.2526   49.7708   23.1099 N   0  0  0  0  0  0
   -0.5933   51.1192   22.6316 C   0  0  0  0  0  0
    0.1446   51.5157   21.3272 C   0  0  0  0  0  0
    1.5733   51.1720   21.2895 N   0  0  0  0  0  0
    1.8006   49.7951   21.7368 C   0  0  0  0  0  0
    1.1944   49.5344   23.1300 C   0  0  0  0  0  0
    2.5939   52.1118   21.3380 C   0  0  0  0  0  0
    3.6886   51.9471   20.4828 C   0  0  0  0  0  0
    4.7531   52.8466   20.5009 C   0  0  0  0  0  0
    4.7523   53.9082   21.4031 C   0  0  0  0  0  0
    3.6832   54.0690   22.2835 C   0  0  0  0  0  0
    2.6086   53.1791   22.2559 C   0  0  0  0  0  0
    1.5966   53.3665   23.1368 F   0  0  0  0  0  0
   -4.2506   49.6974   31.9151 H   0  0  0  0  0  0
   -5.9943   50.0142   32.0437 H   0  0  0  0  0  0
   -5.0367   50.7304   30.7405 H   0  0  0  0  0  0
   -7.2932   48.0809   31.3840 H   0  0  0  0  0  0
   -7.7231   46.1979   29.8522 H   0  0  0  0  0  0
   -6.1586   45.6704   28.0564 H   0  0  0  0  0  0
   -3.6551   48.9494   29.3025 H   0  0  0  0  0  0
   -2.9908   47.6974   27.6754 H   0  0  0  0  0  0
   -1.6846   47.7737   26.6370 H   0  0  0  0  0  0
    0.1961   47.7301   25.1737 H   0  0  0  0  0  0
   -0.7714   47.2906   23.8149 H   0  0  0  0  0  0
   -2.5773   51.4942   25.0432 H   0  0  0  0  0  0
   -2.2995   53.1218   26.8814 H   0  0  0  0  0  0
    1.0419   49.4724   26.2714 H   0  0  0  0  0  0
    1.7032   52.8987   29.6244 H   0  0  0  0  0  0
    0.4872   51.7168   30.1397 H   0  0  0  0  0  0
   -1.6697   51.2337   22.4967 H   0  0  0  0  0  0
   -0.2518   51.8294   23.3858 H   0  0  0  0  0  0
    0.0058   52.5812   21.1420 H   0  0  0  0  0  0
   -0.3167   50.9972   20.4860 H   0  0  0  0  0  0
    2.8707   49.5846   21.7803 H   0  0  0  0  0  0
    1.3819   49.1074   21.0001 H   0  0  0  0  0  0
    1.6832   50.1876   23.8564 H   0  0  0  0  0  0
    1.4044   48.4975   23.3774 H   0  0  0  0  0  0
    3.7088   51.1303   19.7732 H   0  0  0  0  0  0
    5.5735   52.7129   19.8087 H   0  0  0  0  0  0
    5.5782   54.6053   21.4204 H   0  0  0  0  0  0
    3.6804   54.8924   22.9840 H   0  0  0  0  0  0
  1  2  1  0  0  0
  1 39  1  0  0  0
  1 40  1  0  0  0
  1 41  1  0  0  0
  2  7  2  0  0  0
  2  3  1  0  0  0
  3  4  2  0  0  0
  3 42  1  0  0  0
  4  5  1  0  0  0
  4 43  1  0  0  0
  5  6  2  0  0  0
  5 44  1  0  0  0
  6  7  1  0  0  0
  6  8  1  0  0  0
  7 45  1  0  0  0
  8  9  1  0  0  0
  8 46  1  0  0  0
  9 10  2  0  0  0
  9 11  1  0  0  0
 11 12  2  0  0  0
 11 13  1  0  0  0
 13 14  1  0  0  0
 13 47  1  0  0  0
 14 15  1  0  0  0
 14 48  1  0  0  0
 14 49  1  0  0  0
 15 16  1  0  0  0
 15 17  1  0  0  0
 15 26  1  0  0  0
 17 22  2  0  0  0
 17 18  1  0  0  0
 18 19  2  0  0  0
 18 50  1  0  0  0
 19 20  1  0  0  0
 19 51  1  0  0  0
 20 25  1  0  0  0
 20 21  2  0  0  0
 21 22  1  0  0  0
 21 23  1  0  0  0
 22 52  1  0  0  0
 23 24  1  0  0  0
 24 25  1  0  0  0
 24 53  1  0  0  0
 24 54  1  0  0  0
 26 31  1  0  0  0
 26 27  1  0  0  0
 27 28  1  0  0  0
 27 55  1  0  0  0
 27 56  1  0  0  0
 28 29  1  0  0  0
 28 57  1  0  0  0
 28 58  1  0  0  0
 29 30  1  0  0  0
 29 32  1  0  0  0
 30 31  1  0  0  0
 30 59  1  0  0  0
 30 60  1  0  0  0
 31 61  1  0  0  0
 31 62  1  0  0  0
 32 37  2  0  0  0
 32 33  1  0  0  0
 33 34  2  0  0  0
 33 63  1  0  0  0
 34 35  1  0  0  0
 34 64  1  0  0  0
 35 36  2  0  0  0
 35 65  1  0  0  0
 36 37  1  0  0  0
 36 66  1  0  0  0
 37 38  1  0  0  0
M  END
> <i_i_glide_confnum>
327

> <i_i_glide_lignum>
3992

> <i_i_glide_posenum>
56

> <i_i_glide_rotatable_bonds>
9

> <i_m_Source_File_Index>
4825

> <b_m_subgroup_collapsed>
0

> <r_i_docking_score>
-4.73457

> <r_i_glide_ecoul>
-12.055

> <r_i_glide_eff_state_penalty>
0

> <r_i_glide_einternal>
15.6922

> <r_i_glide_emodel>
-60.2961

> <r_i_glide_energy>
-50.6435

> <r_i_glide_erotb>
0.722883

> <r_i_glide_esite>
-0.364639

> <r_i_glide_evdw>
-38.5885

> <r_i_glide_gscore>
-4.73457

> <r_i_glide_hbond>
-0.33599

> <r_i_glide_ligand_efficiency>
-0.127961

> <r_i_glide_ligand_efficiency_ln>
-1.02682

> <r_i_glide_ligand_efficiency_sa>
-0.426396

> <r_i_glide_lipo>
-0.557033

> <r_i_glide_metal>
0

> <r_i_glide_rewards>
-0.462113

> <s_i_glide_gridfile>
wee1_glide-grid

> <s_m_Source_File>
wee1_decoys_glide_SP.sdf

> <s_m_Source_Path>
/Users/zhangxujun/Desktop

> <s_m_entry_id>
5100

> <s_m_entry_name>
wee1_decoys_glide_SP.4825

> <s_m_subgroup_title>
wee1_decoys_glide_SP

> <s_m_subgroupid>
wee1_decoys_glide_SP


$$$$
