ZINC38906479_2148
                    3D
 Schrodinger Suite 2024-2.
 40 43  0  0  1  0            999 V2000
    1.7514   56.0955   29.6225 C   0  0  0  0  0  0
    1.0652   55.7323   30.8477 C   0  0  0  0  0  0
    0.4028   54.5511   30.9867 C   0  0  0  0  0  0
    0.3693   53.6281   29.9376 C   0  0  0  0  0  0
   -0.2018   52.4466   29.8883 N   0  3  0  0  0  0
    0.0143   51.8385   28.5621 C   0  0  0  0  0  0
    0.8476   52.8969   27.8654 C   0  0  0  0  0  0
    1.0141   53.9238   28.7315 C   0  0  0  0  0  0
    1.7207   55.2164   28.6059 C   0  0  0  0  0  0
    1.3364   52.8383   26.5134 C   0  0  0  0  0  0
    2.3986   53.4456   26.1684 N   0  0  0  0  0  0
    2.6855   53.3620   24.8603 N   0  0  0  0  0  0
    3.8078   53.9008   24.3407 C   0  0  0  0  0  0
    4.6632   54.4978   25.0042 O   0  0  0  0  0  0
    3.9667   53.6960   22.9091 C   0  0  0  0  0  0
    3.0289   53.4665   22.0824 N   0  0  0  0  0  0
    3.5659   53.2439   20.8079 N   0  0  0  0  0  0
    4.9770   53.5822   20.7795 C   0  0  2  0  0  0
    5.5053   52.7276   20.3581 H   0  0  0  0  0  0
    5.3278   53.7833   22.2498 C   0  0  0  0  0  0
    5.2838   54.7749   19.8734 C   0  0  0  0  0  0
    6.3549   55.6736   19.9384 C   0  0  0  0  0  0
    6.3524   56.6679   18.9574 C   0  0  0  0  0  0
    5.2863   56.5515   18.0879 C   0  0  0  0  0  0
    4.3047   55.1820   18.4777 S   0  0  0  0  0  0
    4.8458   57.6811   16.6235 Br  0  0  0  0  0  0
    2.2679   57.0413   29.5341 H   0  0  0  0  0  0
    1.1045   56.4222   31.6815 H   0  0  0  0  0  0
   -0.0797   54.3333   31.9302 H   0  0  0  0  0  0
   -0.9590   51.6512   28.1055 H   0  0  0  0  0  0
    0.5387   50.8957   28.7079 H   0  0  0  0  0  0
    2.2433   55.5022   27.7041 H   0  0  0  0  0  0
    0.7156   52.2341   25.8536 H   0  0  0  0  0  0
    2.0247   52.8641   24.2806 H   0  0  0  0  0  0
    2.9595   53.6629   20.1102 H   0  0  0  0  0  0
    5.9831   52.9966   22.6268 H   0  0  0  0  0  0
    5.8010   54.7424   22.4631 H   0  0  0  0  0  0
    7.1256   55.6130   20.6932 H   0  0  0  0  0  0
    7.0989   57.4447   18.8774 H   0  0  0  0  0  0
   -0.7215   52.0043   30.6471 H   0  0  0  0  0  0
  1  9  2  0  0  0
  1  2  1  0  0  0
  1 27  1  0  0  0
  2  3  2  0  0  0
  2 28  1  0  0  0
  3  4  1  0  0  0
  3 29  1  0  0  0
  4  8  1  0  0  0
  4  5  2  0  0  0
  5  6  1  0  0  0
  5 40  1  0  0  0
  6  7  1  0  0  0
  6 30  1  0  0  0
  6 31  1  0  0  0
  7  8  2  0  0  0
  7 10  1  0  0  0
  8  9  1  0  0  0
  9 32  1  0  0  0
 10 11  2  0  0  0
 10 33  1  0  0  0
 11 12  1  0  0  0
 12 13  1  0  0  0
 12 34  1  0  0  0
 13 14  2  0  0  0
 13 15  1  0  0  0
 15 20  1  0  0  0
 15 16  2  0  0  0
 16 17  1  0  0  0
 17 18  1  0  0  0
 17 35  1  0  0  0
 18 19  1  0  0  0
 18 20  1  0  0  0
 18 21  1  0  0  0
 20 36  1  0  0  0
 20 37  1  0  0  0
 21 25  1  0  0  0
 21 22  2  0  0  0
 22 23  1  0  0  0
 22 38  1  0  0  0
 23 24  2  0  0  0
 23 39  1  0  0  0
 24 25  1  0  0  0
 24 26  1  0  0  0
M  CHG  1   5   1
M  END
> <i_i_glide_confnum>
12

> <i_i_glide_lignum>
2149

> <i_i_glide_posenum>
234

> <i_i_glide_rotatable_bonds>
5

> <i_m_Source_File_Index>
451

> <b_m_subgroup_collapsed>
0

> <r_i_docking_score>
-5.52754

> <r_i_glide_ecoul>
-2.37576

> <r_i_glide_eff_state_penalty>
0

> <r_i_glide_einternal>
7.09601

> <r_i_glide_emodel>
-52.5084

> <r_i_glide_energy>
-40.2608

> <r_i_glide_erotb>
0.453971

> <r_i_glide_esite>
-0.0295148

> <r_i_glide_evdw>
-37.885

> <r_i_glide_gscore>
-5.52754

> <r_i_glide_hbond>
-0.121456

> <r_i_glide_ligand_efficiency>
-0.221102

> <r_i_glide_ligand_efficiency_ln>
-1.31019

> <r_i_glide_ligand_efficiency_sa>
-0.646505

> <r_i_glide_lipo>
-2.18491

> <r_i_glide_metal>
0

> <r_i_glide_rewards>
-1.39502

> <s_i_glide_gridfile>
wee1_glide-grid

> <s_m_Source_File>
wee1_decoys_glide_SP.sdf

> <s_m_Source_Path>
/Users/zhangxujun/Desktop

> <s_m_entry_id>
726

> <s_m_entry_name>
wee1_decoys_glide_SP.451

> <s_m_subgroup_title>
wee1_decoys_glide_SP

> <s_m_subgroupid>
wee1_decoys_glide_SP


$$$$
