ZINC39678242_644
                    3D
 Schrodinger Suite 2024-2.
 74 78  0  0  1  0            999 V2000
    6.3104   54.5015   25.7031 C   0  0  0  0  0  0
    6.4497   54.4420   27.0872 C   0  0  0  0  0  0
    5.3287   54.2445   27.8910 C   0  0  0  0  0  0
    4.0490   54.1112   27.3288 C   0  0  0  0  0  0
    3.9246   54.1139   25.9221 C   0  0  0  0  0  0
    5.0534   54.3431   25.1254 C   0  0  0  0  0  0
    2.5657   54.0196   25.2327 C   0  0  0  0  0  0
    2.3043   52.7255   24.6211 N   0  0  0  0  0  0
    1.5710   52.5446   23.5169 C   0  0  0  0  0  0
    1.1045   53.4912   22.8871 O   0  0  0  0  0  0
    1.3937   51.0776   23.0504 C   0  0  2  0  0  0
    2.3194   50.5391   23.2564 H   0  0  0  0  0  0
    1.1572   51.0676   21.5203 C   0  0  0  0  0  0
    0.2579   49.9310   21.3155 N   0  0  0  0  0  0
   -0.0805   49.2653   22.5695 C   0  0  0  0  0  0
    0.1775   50.3206   23.6676 C   0  0  0  0  0  0
    0.5033   49.7032   25.0490 C   0  0  0  0  0  0
   -0.6063   48.7429   25.5036 C   0  0  0  0  0  0
   -1.9045   49.5612   25.6682 N   0  3  0  0  0  0
   -2.3046   50.3734   24.4096 C   0  0  0  0  0  0
   -1.0884   51.2029   23.9243 C   0  0  0  0  0  0
   -0.4062   49.6789   20.1612 C   0  0  0  0  0  0
   -1.2910   48.8261   20.0696 O   0  0  0  0  0  0
   -0.0355   50.4960   18.9447 C   0  0  0  0  0  0
    1.2495   50.3336   18.4047 C   0  0  0  0  0  0
    1.6448   51.0420   17.2757 C   0  0  0  0  0  0
    0.7600   51.9213   16.6633 C   0  0  0  0  0  0
   -0.5196   52.0935   17.1844 C   0  0  0  0  0  0
   -0.9446   51.3892   18.3227 C   0  0  0  0  0  0
   -2.3443   51.6985   18.8873 C   0  0  0  0  0  0
   -2.7901   52.8886   18.4804 F   0  0  0  0  0  0
   -3.2139   50.7538   18.5335 F   0  0  0  0  0  0
   -2.3216   51.7859   20.2187 F   0  0  0  0  0  0
    2.9387   53.9029   28.1419 N   0  0  0  0  0  0
    2.7997   54.6576   29.3978 C   0  0  0  0  0  0
    1.3490   54.6414   29.9268 C   0  0  0  0  0  0
    0.8361   53.2101   30.1365 C   0  0  0  0  0  0
    1.0718   52.3851   28.8648 C   0  0  0  0  0  0
    2.5232   52.5060   28.3542 C   0  0  0  0  0  0
    7.1739   54.6618   25.0733 H   0  0  0  0  0  0
    7.4223   54.5538   27.5443 H   0  0  0  0  0  0
    5.4628   54.2054   28.9618 H   0  0  0  0  0  0
    4.9575   54.3888   24.0497 H   0  0  0  0  0  0
    1.7529   54.1806   25.9384 H   0  0  0  0  0  0
    2.4905   54.8303   24.4999 H   0  0  0  0  0  0
    2.6201   51.9189   25.1376 H   0  0  0  0  0  0
    0.5894   51.9445   21.2017 H   0  0  0  0  0  0
    2.0972   50.9618   20.9759 H   0  0  0  0  0  0
    0.6760   48.4973   22.7259 H   0  0  0  0  0  0
   -1.0545   48.7807   22.6227 H   0  0  0  0  0  0
    1.4152   49.1079   24.9778 H   0  0  0  0  0  0
    0.7048   50.4675   25.8007 H   0  0  0  0  0  0
   -0.8128   47.9335   24.8016 H   0  0  0  0  0  0
   -0.4055   48.3060   26.4812 H   0  0  0  0  0  0
   -2.6485   48.9368   25.9526 H   0  0  0  0  0  0
   -2.6692   49.6573   23.6728 H   0  0  0  0  0  0
   -3.1406   51.0063   24.7114 H   0  0  0  0  0  0
   -0.8824   52.0107   24.6287 H   0  0  0  0  0  0
   -1.3731   51.7018   22.9954 H   0  0  0  0  0  0
    1.9617   49.6519   18.8517 H   0  0  0  0  0  0
    2.6426   50.9030   16.8794 H   0  0  0  0  0  0
    1.0698   52.4717   15.7866 H   0  0  0  0  0  0
   -1.1789   52.7914   16.6900 H   0  0  0  0  0  0
    3.4907   54.2567   30.1410 H   0  0  0  0  0  0
    3.0881   55.6954   29.2181 H   0  0  0  0  0  0
    1.2990   55.1870   30.8705 H   0  0  0  0  0  0
    0.7045   55.1945   29.2422 H   0  0  0  0  0  0
   -0.2225   53.2127   30.4009 H   0  0  0  0  0  0
    1.3591   52.7492   30.9758 H   0  0  0  0  0  0
    0.3798   52.6717   28.0729 H   0  0  0  0  0  0
    0.8507   51.3365   29.0703 H   0  0  0  0  0  0
    2.5871   51.9768   27.4042 H   0  0  0  0  0  0
    3.2213   52.0162   29.0341 H   0  0  0  0  0  0
   -1.7719   50.1854   26.4527 H   0  0  0  0  0  0
  1  6  2  0  0  0
  1  2  1  0  0  0
  1 40  1  0  0  0
  2  3  2  0  0  0
  2 41  1  0  0  0
  3  4  1  0  0  0
  3 42  1  0  0  0
  4  5  2  0  0  0
  4 34  1  0  0  0
  5  6  1  0  0  0
  5  7  1  0  0  0
  6 43  1  0  0  0
  7  8  1  0  0  0
  7 44  1  0  0  0
  7 45  1  0  0  0
  8  9  1  0  0  0
  8 46  1  0  0  0
  9 10  2  0  0  0
  9 11  1  0  0  0
 11 12  1  0  0  0
 11 16  1  0  0  0
 11 13  1  0  0  0
 13 14  1  0  0  0
 13 47  1  0  0  0
 13 48  1  0  0  0
 14 15  1  0  0  0
 14 22  1  0  0  0
 15 16  1  0  0  0
 15 49  1  0  0  0
 15 50  1  0  0  0
 16 21  1  0  0  0
 16 17  1  0  0  0
 17 18  1  0  0  0
 17 51  1  0  0  0
 17 52  1  0  0  0
 18 19  1  0  0  0
 18 53  1  0  0  0
 18 54  1  0  0  0
 19 20  1  0  0  0
 19 55  1  0  0  0
 19 74  1  0  0  0
 20 21  1  0  0  0
 20 56  1  0  0  0
 20 57  1  0  0  0
 21 58  1  0  0  0
 21 59  1  0  0  0
 22 23  2  0  0  0
 22 24  1  0  0  0
 24 29  2  0  0  0
 24 25  1  0  0  0
 25 26  2  0  0  0
 25 60  1  0  0  0
 26 27  1  0  0  0
 26 61  1  0  0  0
 27 28  2  0  0  0
 27 62  1  0  0  0
 28 29  1  0  0  0
 28 63  1  0  0  0
 29 30  1  0  0  0
 30 31  1  0  0  0
 30 32  1  0  0  0
 30 33  1  0  0  0
 34 39  1  0  0  0
 34 35  1  0  0  0
 35 36  1  0  0  0
 35 64  1  0  0  0
 35 65  1  0  0  0
 36 37  1  0  0  0
 36 66  1  0  0  0
 36 67  1  0  0  0
 37 38  1  0  0  0
 37 68  1  0  0  0
 37 69  1  0  0  0
 38 39  1  0  0  0
 38 70  1  0  0  0
 38 71  1  0  0  0
 39 72  1  0  0  0
 39 73  1  0  0  0
M  CHG  1  19   1
M  END
> <i_i_glide_confnum>
449

> <i_i_glide_lignum>
645

> <i_i_glide_posenum>
75

> <i_i_glide_rotatable_bonds>
8

> <i_m_Source_File_Index>
343

> <b_m_subgroup_collapsed>
0

> <r_i_docking_score>
-6.06105

> <r_i_glide_ecoul>
-3.82917

> <r_i_glide_eff_state_penalty>
0

> <r_i_glide_einternal>
4.27726

> <r_i_glide_emodel>
-67.9453

> <r_i_glide_energy>
-48.4748

> <r_i_glide_erotb>
0.514311

> <r_i_glide_esite>
-0.198154

> <r_i_glide_evdw>
-44.6456

> <r_i_glide_gscore>
-6.06105

> <r_i_glide_hbond>
0

> <r_i_glide_ligand_efficiency>
-0.159501

> <r_i_glide_ligand_efficiency_ln>
-1.30694

> <r_i_glide_ligand_efficiency_sa>
-0.536239

> <r_i_glide_lipo>
-2.9929

> <r_i_glide_metal>
0

> <r_i_glide_rewards>
-0.577652

> <s_i_glide_gridfile>
wee1_glide-grid

> <s_m_Source_File>
wee1_decoys_glide_SP.sdf

> <s_m_Source_Path>
/Users/zhangxujun/Desktop

> <s_m_entry_id>
618

> <s_m_entry_name>
wee1_decoys_glide_SP.343

> <s_m_subgroup_title>
wee1_decoys_glide_SP

> <s_m_subgroupid>
wee1_decoys_glide_SP


$$$$
