ZINC29540713_4716
                    3D
 Schrodinger Suite 2024-2.
 36 38  0  0  1  0            999 V2000
    1.7036   53.0693   29.2036 C   0  0  0  0  0  0
    1.4513   53.0580   27.8240 C   0  0  0  0  0  0
    0.2723   52.4804   27.3527 C   0  0  0  0  0  0
   -0.6450   51.9097   28.2303 C   0  0  0  0  0  0
   -0.3879   51.9048   29.6085 C   0  0  0  0  0  0
    0.7899   52.4967   30.0923 C   0  0  0  0  0  0
    1.1695   52.4967   31.7811 Cl  0  0  0  0  0  0
   -1.2956   51.2967   30.4817 N   0  0  0  0  0  0
   -2.1103   51.2630   27.5710 Cl  0  0  0  0  0  0
    2.2884   53.6096   26.8425 N   0  0  0  0  0  0
    3.5632   54.0474   26.9184 C   0  0  0  0  0  0
    4.2362   54.0544   27.9484 O   0  0  0  0  0  0
    4.1732   54.6205   25.6162 C   0  0  1  0  0  0
    4.0501   55.6967   25.7350 H   0  0  0  0  0  0
    5.6352   54.2753   25.3753 C   0  0  0  0  0  0
    5.7766   54.0967   23.8632 C   0  0  0  0  0  0
    6.8486   53.9499   23.2817 O   0  0  0  0  0  0
    4.5171   54.0967   23.3471 N   0  0  0  0  0  0
    3.4555   54.1783   24.3430 C   0  0  0  0  0  0
    4.1255   53.8357   21.9498 C   0  0  0  0  0  0
    5.0569   54.0962   20.7813 C   0  0  0  0  0  0
    4.7351   52.6762   21.1901 C   0  0  0  0  0  0
    2.5993   53.5156   29.6052 H   0  0  0  0  0  0
    0.0515   52.4699   26.2947 H   0  0  0  0  0  0
   -1.2201   51.4038   31.4986 H   0  0  0  0  0  0
   -1.9312   50.5962   30.1160 H   0  0  0  0  0  0
    1.8769   53.6394   25.9233 H   0  0  0  0  0  0
    6.2741   55.1193   25.6357 H   0  0  0  0  0  0
    5.9919   53.4025   25.9257 H   0  0  0  0  0  0
    3.0698   53.1590   24.4122 H   0  0  0  0  0  0
    2.6666   54.8664   24.0346 H   0  0  0  0  0  0
    3.0687   54.0417   21.7680 H   0  0  0  0  0  0
    4.6209   54.4909   19.8631 H   0  0  0  0  0  0
    6.0546   54.4968   20.9570 H   0  0  0  0  0  0
    5.5044   52.0739   21.6741 H   0  0  0  0  0  0
    4.0894   52.0766   20.5471 H   0  0  0  0  0  0
  1  6  2  0  0  0
  1  2  1  0  0  0
  1 23  1  0  0  0
  2  3  2  0  0  0
  2 10  1  0  0  0
  3  4  1  0  0  0
  3 24  1  0  0  0
  4  5  2  0  0  0
  4  9  1  0  0  0
  5  6  1  0  0  0
  5  8  1  0  0  0
  6  7  1  0  0  0
  8 25  1  0  0  0
  8 26  1  0  0  0
 10 11  1  0  0  0
 10 27  1  0  0  0
 11 12  2  0  0  0
 11 13  1  0  0  0
 13 14  1  0  0  0
 13 19  1  0  0  0
 13 15  1  0  0  0
 15 16  1  0  0  0
 15 28  1  0  0  0
 15 29  1  0  0  0
 16 17  2  0  0  0
 16 18  1  0  0  0
 18 19  1  0  0  0
 18 20  1  0  0  0
 19 30  1  0  0  0
 19 31  1  0  0  0
 20 22  1  0  0  0
 20 21  1  0  0  0
 20 32  1  0  0  0
 21 22  1  0  0  0
 21 33  1  0  0  0
 21 34  1  0  0  0
 22 35  1  0  0  0
 22 36  1  0  0  0
M  END
> <i_i_glide_confnum>
27

> <i_i_glide_lignum>
4717

> <i_i_glide_posenum>
219

> <i_i_glide_rotatable_bonds>
4

> <i_m_Source_File_Index>
622

> <b_m_subgroup_collapsed>
0

> <r_i_docking_score>
-5.60549

> <r_i_glide_ecoul>
-4.36445

> <r_i_glide_eff_state_penalty>
0

> <r_i_glide_einternal>
6.04305

> <r_i_glide_emodel>
-47.3339

> <r_i_glide_energy>
-37.0241

> <r_i_glide_erotb>
0.69736

> <r_i_glide_esite>
-0.1

> <r_i_glide_evdw>
-32.6596

> <r_i_glide_gscore>
-5.60549

> <r_i_glide_hbond>
-0.206864

> <r_i_glide_ligand_efficiency>
-0.266928

> <r_i_glide_ligand_efficiency_ln>
-1.38595

> <r_i_glide_ligand_efficiency_sa>
-0.736434

> <r_i_glide_lipo>
-1.46792

> <r_i_glide_metal>
0

> <r_i_glide_rewards>
-2.24042

> <s_i_glide_gridfile>
wee1_glide-grid

> <s_m_Source_File>
wee1_decoys_glide_SP.sdf

> <s_m_Source_Path>
/Users/zhangxujun/Desktop

> <s_m_entry_id>
897

> <s_m_entry_name>
wee1_decoys_glide_SP.622

> <s_m_subgroup_title>
wee1_decoys_glide_SP

> <s_m_subgroupid>
wee1_decoys_glide_SP


$$$$
