ZINC66733055_3805
                    3D
 Schrodinger Suite 2024-2.
 43 45  0  0  1  0            999 V2000
    5.6284   54.2769   28.7565 C   0  0  0  0  0  0
    5.1886   54.2483   27.3075 C   0  0  0  0  0  0
    6.0435   54.7110   26.3206 C   0  0  0  0  0  0
    5.6739   54.6461   24.9795 C   0  0  0  0  0  0
    4.4058   54.1494   24.6063 C   0  0  0  0  0  0
    3.5040   53.6971   25.6123 C   0  0  0  0  0  0
    3.9458   53.7372   26.9526 C   0  0  0  0  0  0
    2.2411   53.0961   25.2419 N   0  0  0  0  0  0
    2.0363   52.6678   23.8336 C   0  0  0  0  0  0
    2.5208   53.8171   22.9416 C   0  0  0  0  0  0
    4.0254   54.0260   23.1269 C   0  0  0  0  0  0
    1.2088   52.8705   26.1279 C   0  0  0  0  0  0
    1.1150   53.3530   27.2570 O   0  0  0  0  0  0
    0.1544   51.8557   25.7818 C   0  0  0  0  0  0
    0.3058   50.5635   26.2769 C   0  0  0  0  0  0
   -0.6511   49.6026   26.0167 C   0  0  0  0  0  0
   -1.8076   49.9256   25.2987 C   0  0  0  0  0  0
   -1.9556   51.2226   24.7874 C   0  0  0  0  0  0
   -0.9818   52.1903   25.0360 C   0  0  0  0  0  0
   -2.8922   48.8970   25.1073 C   0  0  0  0  0  0
   -3.6309   48.9045   24.1251 O   0  0  0  0  0  0
   -3.0274   47.9942   26.0817 N   0  0  0  0  0  0
    6.7110   55.0742   23.9471 C   0  0  0  0  0  0
    5.8717   55.2971   29.0520 H   0  0  0  0  0  0
    4.8591   53.8977   29.4297 H   0  0  0  0  0  0
    6.5332   53.6818   28.8808 H   0  0  0  0  0  0
    7.0159   55.0846   26.6037 H   0  0  0  0  0  0
    3.3545   53.3349   27.7575 H   0  0  0  0  0  0
    2.7015   51.8281   23.6325 H   0  0  0  0  0  0
    1.0240   52.3897   23.5469 H   0  0  0  0  0  0
    2.3190   53.5828   21.8956 H   0  0  0  0  0  0
    1.9634   54.7310   23.1553 H   0  0  0  0  0  0
    4.5630   53.1763   22.7038 H   0  0  0  0  0  0
    4.3307   54.8967   22.5511 H   0  0  0  0  0  0
    1.1531   50.2920   26.8879 H   0  0  0  0  0  0
   -0.4984   48.6128   26.4278 H   0  0  0  0  0  0
   -2.8385   51.4932   24.2244 H   0  0  0  0  0  0
   -1.1193   53.1946   24.6600 H   0  0  0  0  0  0
   -2.4781   48.0933   26.9424 H   0  0  0  0  0  0
   -3.7504   47.2975   26.0241 H   0  0  0  0  0  0
    7.5041   55.6672   24.4020 H   0  0  0  0  0  0
    7.1552   54.1975   23.4762 H   0  0  0  0  0  0
    6.2989   55.6962   23.1583 H   0  0  0  0  0  0
  1  2  1  0  0  0
  1 24  1  0  0  0
  1 25  1  0  0  0
  1 26  1  0  0  0
  2  7  2  0  0  0
  2  3  1  0  0  0
  3  4  2  0  0  0
  3 27  1  0  0  0
  4  5  1  0  0  0
  4 23  1  0  0  0
  5 11  1  0  0  0
  5  6  2  0  0  0
  6  7  1  0  0  0
  6  8  1  0  0  0
  7 28  1  0  0  0
  8  9  1  0  0  0
  8 12  1  0  0  0
  9 10  1  0  0  0
  9 29  1  0  0  0
  9 30  1  0  0  0
 10 11  1  0  0  0
 10 31  1  0  0  0
 10 32  1  0  0  0
 11 33  1  0  0  0
 11 34  1  0  0  0
 12 13  2  0  0  0
 12 14  1  0  0  0
 14 19  2  0  0  0
 14 15  1  0  0  0
 15 16  2  0  0  0
 15 35  1  0  0  0
 16 17  1  0  0  0
 16 36  1  0  0  0
 17 18  2  0  0  0
 17 20  1  0  0  0
 18 19  1  0  0  0
 18 37  1  0  0  0
 19 38  1  0  0  0
 20 21  2  0  0  0
 20 22  1  0  0  0
 22 39  1  0  0  0
 22 40  1  0  0  0
 23 41  1  0  0  0
 23 42  1  0  0  0
 23 43  1  0  0  0
M  END
> <i_i_glide_confnum>
1

> <i_i_glide_lignum>
3806

> <i_i_glide_posenum>
87

> <i_i_glide_rotatable_bonds>
3

> <i_m_Source_File_Index>
4141

> <b_m_subgroup_collapsed>
0

> <r_i_docking_score>
-6.29964

> <r_i_glide_ecoul>
-4.79271

> <r_i_glide_eff_state_penalty>
0

> <r_i_glide_einternal>
2.81715

> <r_i_glide_emodel>
-47.1523

> <r_i_glide_energy>
-33.1274

> <r_i_glide_erotb>
0.389098

> <r_i_glide_esite>
-0.141064

> <r_i_glide_evdw>
-28.3347

> <r_i_glide_gscore>
-6.29964

> <r_i_glide_hbond>
-0.16

> <r_i_glide_ligand_efficiency>
-0.273897

> <r_i_glide_ligand_efficiency_ln>
-1.52331

> <r_i_glide_ligand_efficiency_sa>
-0.778927

> <r_i_glide_lipo>
-2.45219

> <r_i_glide_metal>
0

> <r_i_glide_rewards>
-1.79984

> <s_i_glide_gridfile>
wee1_glide-grid

> <s_m_Source_File>
wee1_decoys_glide_SP.sdf

> <s_m_Source_Path>
/Users/zhangxujun/Desktop

> <s_m_entry_id>
4416

> <s_m_entry_name>
wee1_decoys_glide_SP.4141

> <s_m_subgroup_title>
wee1_decoys_glide_SP

> <s_m_subgroupid>
wee1_decoys_glide_SP


$$$$
