ZINC39596408_3056
                    3D
 Schrodinger Suite 2024-2.
 66 70  0  0  1  0            999 V2000
   -1.7414   46.8090   22.4212 C   0  0  0  0  0  0
   -1.2856   48.0426   23.2243 C   0  0  1  0  0  0
   -2.1580   48.5737   23.6150 H   0  0  0  0  0  0
   -0.3841   47.6787   24.4312 C   0  0  0  0  0  0
   -0.3521   48.6744   25.5068 N   0  0  0  0  0  0
    0.1608   49.9094   25.4211 C   0  0  0  0  0  0
    0.7085   50.3394   24.4079 O   0  0  0  0  0  0
    0.0662   50.7632   26.7112 C   0  0  1  0  0  0
    0.1456   50.0973   27.5707 H   0  0  0  0  0  0
    1.2436   51.7556   26.7520 C   0  0  0  0  0  0
    0.7163   52.9077   27.4782 N   0  0  0  0  0  0
   -0.7203   52.7721   27.7404 C   0  0  0  0  0  0
   -1.2197   51.6269   26.8327 C   0  0  0  0  0  0
   -1.7215   52.2226   25.4770 C   0  0  0  0  0  0
   -3.0393   53.0044   25.6246 C   0  0  0  0  0  0
   -4.1188   52.0190   26.1057 N   0  3  0  0  0  0
   -3.7802   51.3621   27.4602 C   0  0  0  0  0  0
   -2.3680   50.7662   27.4286 C   0  0  0  0  0  0
    1.4881   53.8221   28.1256 C   0  0  0  0  0  0
    1.0422   54.5505   29.0151 O   0  0  0  0  0  0
    2.8892   53.9310   27.7608 C   0  0  0  0  0  0
    3.8903   54.0375   28.7137 C   0  0  0  0  0  0
    5.5100   54.0957   28.0825 S   0  0  0  0  0  0
    4.8736   54.0754   26.4521 C   0  0  0  0  0  0
    3.4422   54.0239   26.4319 C   0  0  0  0  0  0
    2.8121   54.0854   25.1701 C   0  0  0  0  0  0
    3.5734   54.1113   24.0017 C   0  0  0  0  0  0
    4.9609   54.1099   24.0557 C   0  0  0  0  0  0
    5.6324   54.1035   25.2726 C   0  0  0  0  0  0
   -0.5174   48.8952   22.3771 O   0  0  0  0  0  0
   -1.1128   49.8032   21.5262 C   0  0  0  0  0  0
   -0.2451   50.6744   20.8657 C   0  0  0  0  0  0
   -0.7392   51.6255   19.9775 C   0  0  0  0  0  0
   -2.1092   51.6970   19.7414 C   0  0  0  0  0  0
   -2.9862   50.8335   20.3920 C   0  0  0  0  0  0
   -2.4925   49.8905   21.2899 C   0  0  0  0  0  0
   -2.5964   52.6182   18.8814 F   0  0  0  0  0  0
   -2.2710   46.0988   23.0534 H   0  0  0  0  0  0
   -2.4154   47.0849   21.6128 H   0  0  0  0  0  0
   -0.8980   46.2921   21.9676 H   0  0  0  0  0  0
   -0.7320   46.7516   24.8858 H   0  0  0  0  0  0
    0.6365   47.4890   24.0912 H   0  0  0  0  0  0
   -0.7004   48.3698   26.4098 H   0  0  0  0  0  0
    2.0808   51.2969   27.2818 H   0  0  0  0  0  0
    1.4652   52.0921   25.7449 H   0  0  0  0  0  0
   -1.2782   53.7033   27.6780 H   0  0  0  0  0  0
   -0.8049   52.4472   28.7802 H   0  0  0  0  0  0
   -0.9542   52.8625   25.0387 H   0  0  0  0  0  0
   -1.8847   51.4375   24.7373 H   0  0  0  0  0  0
   -3.0062   53.7991   26.3691 H   0  0  0  0  0  0
   -3.3910   53.4081   24.6730 H   0  0  0  0  0  0
   -5.0152   52.4860   26.1669 H   0  0  0  0  0  0
   -3.8824   52.0967   28.2474 H   0  0  0  0  0  0
   -4.5364   50.5930   27.6288 H   0  0  0  0  0  0
   -2.4368   49.8244   26.8815 H   0  0  0  0  0  0
   -2.0936   50.4965   28.4489 H   0  0  0  0  0  0
    3.7585   54.0357   29.7848 H   0  0  0  0  0  0
    1.7362   54.0965   25.0956 H   0  0  0  0  0  0
    3.0788   54.1383   23.0403 H   0  0  0  0  0  0
    5.5268   54.1289   23.1337 H   0  0  0  0  0  0
    6.7128   54.1164   25.3065 H   0  0  0  0  0  0
    0.8190   50.6088   21.0479 H   0  0  0  0  0  0
   -0.0630   52.2970   19.4679 H   0  0  0  0  0  0
   -4.0461   50.8953   20.2006 H   0  0  0  0  0  0
   -3.1924   49.2297   21.7752 H   0  0  0  0  0  0
   -4.2217   51.2909   25.4123 H   0  0  0  0  0  0
  1  2  1  0  0  0
  1 38  1  0  0  0
  1 39  1  0  0  0
  1 40  1  0  0  0
  2  3  1  0  0  0
  2  4  1  0  0  0
  2 30  1  0  0  0
  4  5  1  0  0  0
  4 41  1  0  0  0
  4 42  1  0  0  0
  5  6  1  0  0  0
  5 43  1  0  0  0
  6  7  2  0  0  0
  6  8  1  0  0  0
  8  9  1  0  0  0
  8 13  1  0  0  0
  8 10  1  0  0  0
 10 11  1  0  0  0
 10 44  1  0  0  0
 10 45  1  0  0  0
 11 12  1  0  0  0
 11 19  1  0  0  0
 12 13  1  0  0  0
 12 46  1  0  0  0
 12 47  1  0  0  0
 13 18  1  0  0  0
 13 14  1  0  0  0
 14 15  1  0  0  0
 14 48  1  0  0  0
 14 49  1  0  0  0
 15 16  1  0  0  0
 15 50  1  0  0  0
 15 51  1  0  0  0
 16 17  1  0  0  0
 16 52  1  0  0  0
 16 66  1  0  0  0
 17 18  1  0  0  0
 17 53  1  0  0  0
 17 54  1  0  0  0
 18 55  1  0  0  0
 18 56  1  0  0  0
 19 20  2  0  0  0
 19 21  1  0  0  0
 21 25  1  0  0  0
 21 22  2  0  0  0
 22 23  1  0  0  0
 22 57  1  0  0  0
 23 24  1  0  0  0
 24 29  2  0  0  0
 24 25  1  0  0  0
 25 26  2  0  0  0
 26 27  1  0  0  0
 26 58  1  0  0  0
 27 28  2  0  0  0
 27 59  1  0  0  0
 28 29  1  0  0  0
 28 60  1  0  0  0
 29 61  1  0  0  0
 30 31  1  0  0  0
 31 36  2  0  0  0
 31 32  1  0  0  0
 32 33  2  0  0  0
 32 62  1  0  0  0
 33 34  1  0  0  0
 33 63  1  0  0  0
 34 35  2  0  0  0
 34 37  1  0  0  0
 35 36  1  0  0  0
 35 64  1  0  0  0
 36 65  1  0  0  0
M  CHG  1  16   1
M  END
> <i_i_glide_confnum>
287

> <i_i_glide_lignum>
3057

> <i_i_glide_posenum>
149

> <i_i_glide_rotatable_bonds>
8

> <i_m_Source_File_Index>
3219

> <b_m_subgroup_collapsed>
0

> <r_i_docking_score>
-5.09451

> <r_i_glide_ecoul>
-3.48742

> <r_i_glide_eff_state_penalty>
0

> <r_i_glide_einternal>
8.64019

> <r_i_glide_emodel>
-55.4306

> <r_i_glide_energy>
-43.1446

> <r_i_glide_erotb>
0.578823

> <r_i_glide_esite>
-0.204246

> <r_i_glide_evdw>
-39.6572

> <r_i_glide_gscore>
-5.09451

> <r_i_glide_hbond>
-0.132903

> <r_i_glide_ligand_efficiency>
-0.145557

> <r_i_glide_ligand_efficiency_ln>
-1.11836

> <r_i_glide_ligand_efficiency_sa>
-0.476128

> <r_i_glide_lipo>
-2.36267

> <r_i_glide_metal>
0

> <r_i_glide_rewards>
-0.467545

> <s_i_glide_gridfile>
wee1_glide-grid

> <s_m_Source_File>
wee1_decoys_glide_SP.sdf

> <s_m_Source_Path>
/Users/zhangxujun/Desktop

> <s_m_entry_id>
3494

> <s_m_entry_name>
wee1_decoys_glide_SP.3219

> <s_m_subgroup_title>
wee1_decoys_glide_SP

> <s_m_subgroupid>
wee1_decoys_glide_SP


$$$$
