ZINC62329337_6177
                    3D
 Schrodinger Suite 2024-2.
 34 36  0  0  1  0            999 V2000
    6.1338   54.7804   19.1780 C   0  0  0  0  0  0
    5.5651   54.5838   20.5684 C   0  0  0  0  0  0
    4.3074   54.0926   20.6426 N   0  0  0  0  0  0
    3.8104   53.9244   21.8931 C   0  0  0  0  0  0
    4.5304   54.2132   23.0657 C   0  0  0  0  0  0
    5.8513   54.6749   22.8512 C   0  0  0  0  0  0
    6.3652   54.8969   21.6161 N   0  0  0  0  0  0
    6.7047   54.9932   23.8999 N   0  0  0  0  0  0
    3.8581   54.0788   24.4150 C   0  0  0  0  0  0
    4.4371   54.2905   25.5674 N   0  0  0  0  0  0
    3.6482   54.0990   26.6086 C   0  0  0  0  0  0
    2.3406   53.6954   26.3202 C   0  0  0  0  0  0
    2.1982   53.6051   24.5825 S   0  0  0  0  0  0
    1.2519   53.3283   27.3054 C   0  0  0  0  0  0
    1.6524   52.1833   28.2578 C   0  0  0  0  0  0
    2.7064   52.5481   29.3275 C   0  0  0  0  0  0
    4.1152   52.9272   28.8186 C   0  0  0  0  0  0
    4.1993   54.2380   28.0115 C   0  0  0  0  0  0
    6.1865   53.8232   18.6570 H   0  0  0  0  0  0
    5.4899   55.4426   18.5976 H   0  0  0  0  0  0
    7.1354   55.2123   19.2007 H   0  0  0  0  0  0
    2.7916   53.5689   21.9204 H   0  0  0  0  0  0
    6.4050   54.7753   24.8378 H   0  0  0  0  0  0
    7.6705   55.2150   23.6807 H   0  0  0  0  0  0
    0.9951   54.1969   27.9132 H   0  0  0  0  0  0
    0.3407   53.0439   26.7782 H   0  0  0  0  0  0
    0.7541   51.8423   28.7758 H   0  0  0  0  0  0
    1.9932   51.3219   27.6820 H   0  0  0  0  0  0
    2.3190   53.3581   29.9475 H   0  0  0  0  0  0
    2.8100   51.6971   30.0009 H   0  0  0  0  0  0
    4.7671   53.0273   29.6814 H   0  0  0  0  0  0
    4.5364   52.1023   28.2426 H   0  0  0  0  0  0
    5.2394   54.5702   27.9907 H   0  0  0  0  0  0
    3.6610   55.0203   28.5484 H   0  0  0  0  0  0
  1  2  1  0  0  0
  1 19  1  0  0  0
  1 20  1  0  0  0
  1 21  1  0  0  0
  2  7  2  0  0  0
  2  3  1  0  0  0
  3  4  2  0  0  0
  4  5  1  0  0  0
  4 22  1  0  0  0
  5  6  2  0  0  0
  5  9  1  0  0  0
  6  7  1  0  0  0
  6  8  1  0  0  0
  8 23  1  0  0  0
  8 24  1  0  0  0
  9 13  1  0  0  0
  9 10  2  0  0  0
 10 11  1  0  0  0
 11 18  1  0  0  0
 11 12  2  0  0  0
 12 13  1  0  0  0
 12 14  1  0  0  0
 14 15  1  0  0  0
 14 25  1  0  0  0
 14 26  1  0  0  0
 15 16  1  0  0  0
 15 27  1  0  0  0
 15 28  1  0  0  0
 16 17  1  0  0  0
 16 29  1  0  0  0
 16 30  1  0  0  0
 17 18  1  0  0  0
 17 31  1  0  0  0
 17 32  1  0  0  0
 18 33  1  0  0  0
 18 34  1  0  0  0
M  END
> <i_i_glide_confnum>
1

> <i_i_glide_lignum>
6178

> <i_i_glide_posenum>
180

> <i_i_glide_rotatable_bonds>
1

> <i_m_Source_File_Index>
2188

> <b_m_subgroup_collapsed>
0

> <r_i_docking_score>
-5.93019

> <r_i_glide_ecoul>
-1.93933

> <r_i_glide_eff_state_penalty>
0

> <r_i_glide_einternal>
0.00564927

> <r_i_glide_emodel>
-41.056

> <r_i_glide_energy>
-29.8606

> <r_i_glide_erotb>
0.261131

> <r_i_glide_esite>
0

> <r_i_glide_evdw>
-27.9213

> <r_i_glide_gscore>
-5.93019

> <r_i_glide_hbond>
-0.32

> <r_i_glide_ligand_efficiency>
-0.329455

> <r_i_glide_ligand_efficiency_ln>
-1.52432

> <r_i_glide_ligand_efficiency_sa>
-0.863416

> <r_i_glide_lipo>
-2.39995

> <r_i_glide_metal>
0

> <r_i_glide_rewards>
-1.7844

> <s_i_glide_gridfile>
wee1_glide-grid

> <s_m_Source_File>
wee1_decoys_glide_SP.sdf

> <s_m_Source_Path>
/Users/zhangxujun/Desktop

> <s_m_entry_id>
2463

> <s_m_entry_name>
wee1_decoys_glide_SP.2188

> <s_m_subgroup_title>
wee1_decoys_glide_SP

> <s_m_subgroupid>
wee1_decoys_glide_SP


$$$$
