ZINC38663959_4605
                    3D
 Schrodinger Suite 2024-2.
 53 56  0  0  1  0            999 V2000
   -1.7563   56.9533   17.0606 C   0  0  0  0  0  0
   -0.5718   56.1089   16.5805 C   0  0  0  0  0  0
   -0.5866   54.8555   17.2525 O   0  0  0  0  0  0
    0.5144   54.0770   17.2820 C   0  0  0  0  0  0
    1.5765   54.3364   16.7060 O   0  0  0  0  0  0
    0.3161   52.9058   18.1285 C   0  0  0  0  0  0
    1.2707   52.3347   18.8967 C   0  0  0  0  0  0
    2.5911   52.7467   18.9923 N   0  0  0  0  0  0
    3.4785   52.0993   19.9464 C   0  0  2  0  0  0
    4.4217   51.8976   19.4353 H   0  0  0  0  0  0
    2.7048   50.4995   20.1945 S   0  0  0  0  0  0
    1.0728   51.1412   19.8108 C   0  0  0  0  0  0
    3.6709   52.8544   21.1857 N   0  0  0  0  0  0
    4.7045   53.6861   21.4336 C   0  0  0  0  0  0
    5.4972   54.0369   20.5555 O   0  0  0  0  0  0
    4.9435   54.0798   22.8809 C   0  0  0  0  0  0
    6.1923   54.6037   23.2487 C   0  0  0  0  0  0
    6.5287   54.9101   24.5651 C   0  0  0  0  0  0
    5.5776   54.6315   25.5458 C   0  0  0  0  0  0
    4.2946   54.1014   25.2261 C   0  0  0  0  0  0
    3.9757   53.8613   23.8774 C   0  0  0  0  0  0
    3.5968   53.9084   26.4666 C   0  0  0  0  0  0
    4.4598   54.3124   27.4775 C   0  0  0  0  0  0
    5.6248   54.7726   26.9171 N   0  0  0  0  0  0
    6.3815   55.1319   27.4800 H   0  0  0  0  0  0
    4.1344   54.3559   28.9609 C   0  0  0  0  0  0
    2.6006   54.2091   29.1103 C   0  0  0  0  0  0
    2.0413   53.0506   28.2472 C   0  0  2  0  0  0
    2.5825   52.1270   28.4609 H   0  0  0  0  0  0
    2.1959   53.3664   26.7349 C   0  0  0  0  0  0
    0.5621   52.7714   28.5798 C   0  0  0  0  0  0
   -1.7630   57.9225   16.5615 H   0  0  0  0  0  0
   -1.6969   57.1340   18.1347 H   0  0  0  0  0  0
   -2.7058   56.4623   16.8471 H   0  0  0  0  0  0
   -0.6226   55.9511   15.5030 H   0  0  0  0  0  0
    0.3568   56.6451   16.7904 H   0  0  0  0  0  0
   -0.6860   52.5040   18.1452 H   0  0  0  0  0  0
    2.9779   53.4963   18.4371 H   0  0  0  0  0  0
    0.6040   51.4587   20.7432 H   0  0  0  0  0  0
    0.4646   50.3583   19.3575 H   0  0  0  0  0  0
    2.9169   52.8059   21.8503 H   0  0  0  0  0  0
    6.9449   54.7768   22.4916 H   0  0  0  0  0  0
    7.4997   55.3133   24.8059 H   0  0  0  0  0  0
    3.0029   53.4591   23.6422 H   0  0  0  0  0  0
    4.6325   53.5314   29.4709 H   0  0  0  0  0  0
    4.4827   55.2777   29.4283 H   0  0  0  0  0  0
    2.3668   54.0231   30.1591 H   0  0  0  0  0  0
    2.0786   55.1387   28.8765 H   0  0  0  0  0  0
    1.4629   54.0992   26.4114 H   0  0  0  0  0  0
    2.0190   52.4674   26.1432 H   0  0  0  0  0  0
   -0.0637   53.6473   28.4050 H   0  0  0  0  0  0
    0.1678   51.9539   27.9736 H   0  0  0  0  0  0
    0.4415   52.4822   29.6251 H   0  0  0  0  0  0
  1  2  1  0  0  0
  1 32  1  0  0  0
  1 33  1  0  0  0
  1 34  1  0  0  0
  2  3  1  0  0  0
  2 35  1  0  0  0
  2 36  1  0  0  0
  3  4  1  0  0  0
  4  5  2  0  0  0
  4  6  1  0  0  0
  6 37  1  0  0  0
  6  7  2  0  0  0
  7 12  1  0  0  0
  7  8  1  0  0  0
  8  9  1  0  0  0
  8 38  1  0  0  0
  9 10  1  0  0  0
  9 11  1  0  0  0
  9 13  1  0  0  0
 11 12  1  0  0  0
 12 39  1  0  0  0
 12 40  1  0  0  0
 13 14  1  0  0  0
 13 41  1  0  0  0
 14 15  2  0  0  0
 14 16  1  0  0  0
 16 21  2  0  0  0
 16 17  1  0  0  0
 17 18  2  0  0  0
 17 42  1  0  0  0
 18 19  1  0  0  0
 18 43  1  0  0  0
 19 24  1  0  0  0
 19 20  2  0  0  0
 20 21  1  0  0  0
 20 22  1  0  0  0
 21 44  1  0  0  0
 22 30  1  0  0  0
 22 23  2  0  0  0
 23 24  1  0  0  0
 23 26  1  0  0  0
 24 25  1  0  0  0
 26 27  1  0  0  0
 26 45  1  0  0  0
 26 46  1  0  0  0
 27 28  1  0  0  0
 27 47  1  0  0  0
 27 48  1  0  0  0
 28 29  1  0  0  0
 28 30  1  0  0  0
 28 31  1  0  0  0
 30 49  1  0  0  0
 30 50  1  0  0  0
 31 51  1  0  0  0
 31 52  1  0  0  0
 31 53  1  0  0  0
M  END
> <i_i_glide_confnum>
1

> <i_i_glide_lignum>
4606

> <i_i_glide_posenum>
142

> <i_i_glide_rotatable_bonds>
6

> <i_m_Source_File_Index>
3438

> <b_m_subgroup_collapsed>
0

> <r_i_docking_score>
-5.71986

> <r_i_glide_ecoul>
0.372934

> <r_i_glide_eff_state_penalty>
0

> <r_i_glide_einternal>
5.39035

> <r_i_glide_emodel>
-59.2208

> <r_i_glide_energy>
-43.3984

> <r_i_glide_erotb>
0.61386

> <r_i_glide_esite>
-0.0720221

> <r_i_glide_evdw>
-43.7714

> <r_i_glide_gscore>
-5.71986

> <r_i_glide_hbond>
0

> <r_i_glide_ligand_efficiency>
-0.204281

> <r_i_glide_ligand_efficiency_ln>
-1.32031

> <r_i_glide_ligand_efficiency_sa>
-0.620317

> <r_i_glide_lipo>
-3.18311

> <r_i_glide_metal>
0

> <r_i_glide_rewards>
-0.945962

> <s_i_glide_gridfile>
wee1_glide-grid

> <s_m_Source_File>
wee1_decoys_glide_SP.sdf

> <s_m_Source_Path>
/Users/zhangxujun/Desktop

> <s_m_entry_id>
3713

> <s_m_entry_name>
wee1_decoys_glide_SP.3438

> <s_m_subgroup_title>
wee1_decoys_glide_SP

> <s_m_subgroupid>
wee1_decoys_glide_SP


$$$$
