ZINC26726177_836
                    3D
 Schrodinger Suite 2024-2.
 58 61  0  0  1  0            999 V2000
   -0.1739   52.2057   30.3128 C   0  0  0  0  0  0
    1.2221   52.0972   29.6840 C   0  0  0  0  0  0
    1.1348   51.8342   28.2839 O   0  0  0  0  0  0
    1.0417   52.8534   27.3991 C   0  0  0  0  0  0
    1.1044   54.0336   27.7523 O   0  0  0  0  0  0
    0.9078   52.4693   25.9677 C   0  0  0  0  0  0
    0.5039   51.2573   25.4989 C   0  0  0  0  0  0
    0.3751   51.0675   24.1497 N   0  0  0  0  0  0
    0.2808   52.0470   23.2207 C   0  0  0  0  0  0
   -0.1287   51.8553   22.0815 O   0  0  0  0  0  0
    0.5997   53.2824   23.6811 N   0  0  0  0  0  0
    1.3628   53.5248   24.9287 C   0  0  2  0  0  0
    1.1044   54.4968   25.2840 H   0  0  0  0  0  0
    2.8759   53.7504   24.7484 C   0  0  0  0  0  0
    3.6804   54.0959   25.8439 C   0  0  0  0  0  0
    5.0481   54.2629   25.6971 C   0  0  0  0  0  0
    5.6376   54.0990   24.4510 C   0  0  0  0  0  0
    4.8309   53.8739   23.3261 C   0  0  0  0  0  0
    3.4625   53.6968   23.4770 C   0  0  0  0  0  0
    7.0110   54.1455   24.4243 O   0  0  0  0  0  0
    7.6565   53.6125   23.2816 C   0  0  0  0  0  0
   -0.0836   50.0943   26.3177 C   0  0  0  0  0  0
   -1.1919   49.3596   25.6815 N   0  0  0  0  0  0
   -0.7100   48.0953   25.1031 C   0  0  0  0  0  0
   -1.6494   47.5141   24.0380 C   0  0  0  0  0  0
   -3.0751   47.4458   24.5895 C   0  0  0  0  0  0
   -3.4948   48.8359   25.0622 C   0  0  0  0  0  0
   -2.5487   49.7376   25.6208 C   0  0  0  0  0  0
   -3.0025   51.0088   26.0471 C   0  0  0  0  0  0
   -4.3428   51.3683   25.9199 C   0  0  0  0  0  0
   -5.2565   50.4852   25.3654 C   0  0  0  0  0  0
   -4.8321   49.2322   24.9405 C   0  0  0  0  0  0
   -6.5545   50.8431   25.2397 F   0  0  0  0  0  0
   -2.1702   51.9357   26.5762 F   0  0  0  0  0  0
   -0.0956   52.3653   31.3876 H   0  0  0  0  0  0
   -0.7375   53.0384   29.8917 H   0  0  0  0  0  0
   -0.7564   51.2963   30.1555 H   0  0  0  0  0  0
    1.7800   51.2964   30.1580 H   0  0  0  0  0  0
    1.7998   53.0023   29.8853 H   0  0  0  0  0  0
    0.0785   50.1614   23.8205 H   0  0  0  0  0  0
    0.6984   53.9727   22.9533 H   0  0  0  0  0  0
    3.2803   54.2171   26.8345 H   0  0  0  0  0  0
    5.6598   54.4696   26.5634 H   0  0  0  0  0  0
    5.2504   53.7942   22.3341 H   0  0  0  0  0  0
    2.8818   53.4865   22.5918 H   0  0  0  0  0  0
    8.6639   53.2959   23.5426 H   0  0  0  0  0  0
    7.7220   54.3648   22.4943 H   0  0  0  0  0  0
    7.1527   52.7323   22.8818 H   0  0  0  0  0  0
    0.7304   49.4095   26.5657 H   0  0  0  0  0  0
   -0.4768   50.4421   27.2717 H   0  0  0  0  0  0
    0.3605   48.0202   24.9021 H   0  0  0  0  0  0
   -0.8957   47.4057   25.9282 H   0  0  0  0  0  0
   -1.6254   48.1475   23.1493 H   0  0  0  0  0  0
   -1.2960   46.5354   23.7123 H   0  0  0  0  0  0
   -3.7608   47.0592   23.8344 H   0  0  0  0  0  0
   -3.1161   46.7592   25.4361 H   0  0  0  0  0  0
   -4.6712   52.3434   26.2480 H   0  0  0  0  0  0
   -5.5595   48.5580   24.5119 H   0  0  0  0  0  0
  1  2  1  0  0  0
  1 35  1  0  0  0
  1 36  1  0  0  0
  1 37  1  0  0  0
  2  3  1  0  0  0
  2 38  1  0  0  0
  2 39  1  0  0  0
  3  4  1  0  0  0
  4  5  2  0  0  0
  4  6  1  0  0  0
  6 12  1  0  0  0
  6  7  2  0  0  0
  7  8  1  0  0  0
  7 22  1  0  0  0
  8  9  1  0  0  0
  8 40  1  0  0  0
  9 10  2  0  0  0
  9 11  1  0  0  0
 11 12  1  0  0  0
 11 41  1  0  0  0
 12 13  1  0  0  0
 12 14  1  0  0  0
 14 19  2  0  0  0
 14 15  1  0  0  0
 15 16  2  0  0  0
 15 42  1  0  0  0
 16 17  1  0  0  0
 16 43  1  0  0  0
 17 18  2  0  0  0
 17 20  1  0  0  0
 18 19  1  0  0  0
 18 44  1  0  0  0
 19 45  1  0  0  0
 20 21  1  0  0  0
 21 46  1  0  0  0
 21 47  1  0  0  0
 21 48  1  0  0  0
 22 23  1  0  0  0
 22 49  1  0  0  0
 22 50  1  0  0  0
 23 28  1  0  0  0
 23 24  1  0  0  0
 24 25  1  0  0  0
 24 51  1  0  0  0
 24 52  1  0  0  0
 25 26  1  0  0  0
 25 53  1  0  0  0
 25 54  1  0  0  0
 26 27  1  0  0  0
 26 55  1  0  0  0
 26 56  1  0  0  0
 27 32  2  0  0  0
 27 28  1  0  0  0
 28 29  2  0  0  0
 29 30  1  0  0  0
 29 34  1  0  0  0
 30 31  2  0  0  0
 30 57  1  0  0  0
 31 32  1  0  0  0
 31 33  1  0  0  0
 32 58  1  0  0  0
M  END
> <i_i_glide_confnum>
91

> <i_i_glide_lignum>
837

> <i_i_glide_posenum>
197

> <i_i_glide_rotatable_bonds>
7

> <i_m_Source_File_Index>
5575

> <b_m_subgroup_collapsed>
0

> <r_i_docking_score>
-3.90461

> <r_i_glide_ecoul>
-0.823396

> <r_i_glide_eff_state_penalty>
0

> <r_i_glide_einternal>
15.0086

> <r_i_glide_emodel>
-34.463

> <r_i_glide_energy>
-35.4218

> <r_i_glide_erotb>
0.480344

> <r_i_glide_esite>
-0.126585

> <r_i_glide_evdw>
-34.5984

> <r_i_glide_gscore>
-3.90461

> <r_i_glide_hbond>
0

> <r_i_glide_ligand_efficiency>
-0.118322

> <r_i_glide_ligand_efficiency_ln>
-0.868365

> <r_i_glide_ligand_efficiency_sa>
-0.37952

> <r_i_glide_lipo>
-1.81012

> <r_i_glide_metal>
0

> <r_i_glide_rewards>
-0.594815

> <s_i_glide_gridfile>
wee1_glide-grid

> <s_m_Source_File>
wee1_decoys_glide_SP.sdf

> <s_m_Source_Path>
/Users/zhangxujun/Desktop

> <s_m_entry_id>
5850

> <s_m_entry_name>
wee1_decoys_glide_SP.5575

> <s_m_subgroup_title>
wee1_decoys_glide_SP

> <s_m_subgroupid>
wee1_decoys_glide_SP


$$$$
