ZINC39683345_3082
                    3D
 Schrodinger Suite 2024-2.
 72 75  0  0  1  0            999 V2000
   -3.0994   53.4401   14.9730 C   0  0  0  0  0  0
   -3.6211   54.8805   14.8060 C   0  0  0  0  0  0
   -5.0276   55.0430   15.4089 C   0  0  0  0  0  0
   -2.6282   55.9171   15.3673 C   0  0  0  0  0  0
   -2.4321   55.7116   16.7650 O   0  0  0  0  0  0
   -1.5022   56.5956   17.3788 C   0  0  0  0  0  0
   -0.0414   56.3441   16.9573 C   0  0  0  0  0  0
    0.3955   54.8664   17.0498 C   0  0  0  0  0  0
    1.8305   54.7415   17.2791 N   0  0  0  0  0  0
    2.7999   54.7740   16.3448 C   0  0  0  0  0  0
    2.5436   54.7656   15.1435 O   0  0  0  0  0  0
    4.2897   54.8937   16.7879 C   0  0  2  0  0  0
    4.8395   54.1379   16.2252 H   0  0  0  0  0  0
    4.4701   54.5111   18.2782 C   0  0  0  0  0  0
    5.5662   55.3530   18.7701 N   0  0  0  0  0  0
    6.0518   56.2473   17.7137 C   0  0  0  0  0  0
    4.9068   56.3178   16.6706 C   0  0  0  0  0  0
    3.8885   57.4462   17.0353 C   0  0  0  0  0  0
    4.4946   58.8633   16.9765 C   0  0  0  0  0  0
    5.1049   59.0964   15.5821 N   0  3  0  0  0  0
    6.0985   58.0001   15.1426 C   0  0  0  0  0  0
    5.3790   56.6366   15.2299 C   0  0  0  0  0  0
    6.0192   55.4497   20.0564 C   0  0  0  0  0  0
    6.9009   56.2541   20.3695 O   0  0  0  0  0  0
    5.4159   54.6292   21.1081 C   0  0  0  0  0  0
    4.4438   53.6264   21.1337 C   0  0  0  0  0  0
    4.1908   53.3249   22.4670 C   0  0  0  0  0  0
    5.0491   54.0973   23.2259 C   0  0  0  0  0  0
    5.8247   54.8503   22.3951 O   0  0  0  0  0  0
    5.2032   54.2492   24.6969 C   0  0  0  0  0  0
    6.4462   54.4991   25.2890 C   0  0  0  0  0  0
    6.5470   54.5787   26.6790 C   0  0  0  0  0  0
    5.4105   54.4192   27.4684 C   0  0  0  0  0  0
    4.1722   54.1802   26.8865 C   0  0  0  0  0  0
    4.0684   54.0966   25.5005 C   0  0  0  0  0  0
    5.5047   54.4999   28.8143 F   0  0  0  0  0  0
   -2.9874   53.1760   16.0255 H   0  0  0  0  0  0
   -2.1244   53.3152   14.5000 H   0  0  0  0  0  0
   -3.7758   52.7161   14.5202 H   0  0  0  0  0  0
   -3.7068   55.0696   13.7344 H   0  0  0  0  0  0
   -5.0335   54.8266   16.4779 H   0  0  0  0  0  0
   -5.3973   56.0609   15.2801 H   0  0  0  0  0  0
   -5.7425   54.3723   14.9309 H   0  0  0  0  0  0
   -1.6872   55.8260   14.8228 H   0  0  0  0  0  0
   -2.9996   56.9274   15.1841 H   0  0  0  0  0  0
   -1.7858   57.6351   17.2021 H   0  0  0  0  0  0
   -1.5889   56.4477   18.4556 H   0  0  0  0  0  0
    0.1359   56.7096   15.9458 H   0  0  0  0  0  0
    0.5957   56.9637   17.5880 H   0  0  0  0  0  0
   -0.0837   54.4040   17.9146 H   0  0  0  0  0  0
    0.0536   54.2930   16.1851 H   0  0  0  0  0  0
    2.0927   54.7106   18.2530 H   0  0  0  0  0  0
    3.6135   54.8237   18.8798 H   0  0  0  0  0  0
    4.6996   53.4466   18.3679 H   0  0  0  0  0  0
    6.8928   55.7448   17.2348 H   0  0  0  0  0  0
    6.3981   57.2265   18.0398 H   0  0  0  0  0  0
    3.0097   57.4317   16.3884 H   0  0  0  0  0  0
    3.5064   57.2789   18.0412 H   0  0  0  0  0  0
    3.7176   59.6187   17.1239 H   0  0  0  0  0  0
    5.3049   59.0421   17.6836 H   0  0  0  0  0  0
    4.3481   59.1575   14.9150 H   0  0  0  0  0  0
    6.4026   58.2482   14.1239 H   0  0  0  0  0  0
    6.9653   58.0745   15.8025 H   0  0  0  0  0  0
    6.0808   55.8638   14.9061 H   0  0  0  0  0  0
    4.5480   56.5814   14.5231 H   0  0  0  0  0  0
    3.9100   53.1649   20.3185 H   0  0  0  0  0  0
    3.4523   52.6257   22.8295 H   0  0  0  0  0  0
    7.3273   54.6049   24.6735 H   0  0  0  0  0  0
    7.4980   54.7546   27.1594 H   0  0  0  0  0  0
    3.2986   54.0529   27.5086 H   0  0  0  0  0  0
    3.1010   53.9024   25.0582 H   0  0  0  0  0  0
    5.5371   60.0146   15.5959 H   0  0  0  0  0  0
  1  2  1  0  0  0
  1 37  1  0  0  0
  1 38  1  0  0  0
  1 39  1  0  0  0
  2  3  1  0  0  0
  2  4  1  0  0  0
  2 40  1  0  0  0
  3 41  1  0  0  0
  3 42  1  0  0  0
  3 43  1  0  0  0
  4  5  1  0  0  0
  4 44  1  0  0  0
  4 45  1  0  0  0
  5  6  1  0  0  0
  6  7  1  0  0  0
  6 46  1  0  0  0
  6 47  1  0  0  0
  7  8  1  0  0  0
  7 48  1  0  0  0
  7 49  1  0  0  0
  8  9  1  0  0  0
  8 50  1  0  0  0
  8 51  1  0  0  0
  9 10  1  0  0  0
  9 52  1  0  0  0
 10 11  2  0  0  0
 10 12  1  0  0  0
 12 13  1  0  0  0
 12 17  1  0  0  0
 12 14  1  0  0  0
 14 15  1  0  0  0
 14 53  1  0  0  0
 14 54  1  0  0  0
 15 16  1  0  0  0
 15 23  1  0  0  0
 16 17  1  0  0  0
 16 55  1  0  0  0
 16 56  1  0  0  0
 17 22  1  0  0  0
 17 18  1  0  0  0
 18 19  1  0  0  0
 18 57  1  0  0  0
 18 58  1  0  0  0
 19 20  1  0  0  0
 19 59  1  0  0  0
 19 60  1  0  0  0
 20 21  1  0  0  0
 20 61  1  0  0  0
 20 72  1  0  0  0
 21 22  1  0  0  0
 21 62  1  0  0  0
 21 63  1  0  0  0
 22 64  1  0  0  0
 22 65  1  0  0  0
 23 24  2  0  0  0
 23 25  1  0  0  0
 25 29  1  0  0  0
 25 26  2  0  0  0
 26 27  1  0  0  0
 26 66  1  0  0  0
 27 28  2  0  0  0
 27 67  1  0  0  0
 28 29  1  0  0  0
 28 30  1  0  0  0
 30 35  2  0  0  0
 30 31  1  0  0  0
 31 32  2  0  0  0
 31 68  1  0  0  0
 32 33  1  0  0  0
 32 69  1  0  0  0
 33 34  2  0  0  0
 33 36  1  0  0  0
 34 35  1  0  0  0
 34 70  1  0  0  0
 35 71  1  0  0  0
M  CHG  1  20   1
M  END
> <i_i_glide_confnum>
301

> <i_i_glide_lignum>
3083

> <i_i_glide_posenum>
30

> <i_i_glide_rotatable_bonds>
11

> <i_m_Source_File_Index>
4279

> <b_m_subgroup_collapsed>
0

> <r_i_docking_score>
-5.52034

> <r_i_glide_ecoul>
-7.50709

> <r_i_glide_eff_state_penalty>
0

> <r_i_glide_einternal>
9.26944

> <r_i_glide_emodel>
-57.18

> <r_i_glide_energy>
-43.0372

> <r_i_glide_erotb>
0.858329

> <r_i_glide_esite>
-0.0953541

> <r_i_glide_evdw>
-35.5301

> <r_i_glide_gscore>
-5.52034

> <r_i_glide_hbond>
-0.377452

> <r_i_glide_ligand_efficiency>
-0.157724

> <r_i_glide_ligand_efficiency_ln>
-1.21184

> <r_i_glide_ligand_efficiency_sa>
-0.515926

> <r_i_glide_lipo>
-2.59084

> <r_i_glide_metal>
0

> <r_i_glide_rewards>
-0.412458

> <s_i_glide_gridfile>
wee1_glide-grid

> <s_m_Source_File>
wee1_decoys_glide_SP.sdf

> <s_m_Source_Path>
/Users/zhangxujun/Desktop

> <s_m_entry_id>
4554

> <s_m_entry_name>
wee1_decoys_glide_SP.4279

> <s_m_subgroup_title>
wee1_decoys_glide_SP

> <s_m_subgroupid>
wee1_decoys_glide_SP


$$$$
