ZINC08597778_601
                    3D
 Schrodinger Suite 2024-2.
 57 61  0  0  1  0            999 V2000
    8.2774   55.9953   20.7977 C   0  0  0  0  0  0
    6.9746   55.2968   21.1315 C   0  0  0  0  0  0
    6.0559   55.0265   20.1141 C   0  0  0  0  0  0
    4.8729   54.3535   20.4072 C   0  0  0  0  0  0
    4.5960   53.9751   21.7211 C   0  0  0  0  0  0
    5.5240   54.2356   22.7400 C   0  0  0  0  0  0
    6.7064   54.9058   22.4461 C   0  0  0  0  0  0
    3.3915   53.3003   21.9636 N   0  0  0  0  0  0
    2.6302   53.4163   23.0707 C   0  0  0  0  0  0
    2.8274   54.2374   23.9694 O   0  0  0  0  0  0
    1.5563   52.4586   23.1645 C   0  0  0  0  0  0
    0.8974   51.7423   22.1434 C   0  0  0  0  0  0
   -0.1089   51.0178   22.5858 N   0  0  0  0  0  0
   -0.1411   51.2528   23.9047 N   0  0  0  0  0  0
    0.8543   52.1124   24.3129 C   0  0  0  0  0  0
    0.9865   52.4968   25.6134 N   0  0  0  0  0  0
    0.3090   51.9832   26.5737 C   0  0  0  0  0  0
   -0.5577   50.7268   26.2670 C   0  0  0  0  0  0
   -1.1893   50.7842   24.8287 C   0  0  1  0  0  0
   -1.5235   49.7968   24.5015 H   0  0  0  0  0  0
   -2.4805   51.6254   24.8060 C   0  0  0  0  0  0
   -2.5291   52.8964   24.2093 C   0  0  0  0  0  0
   -3.6955   53.6583   24.2515 C   0  0  0  0  0  0
   -4.8337   53.1602   24.8812 C   0  0  0  0  0  0
   -4.8044   51.8949   25.4653 C   0  0  0  0  0  0
   -3.6375   51.1320   25.4277 C   0  0  0  0  0  0
   -3.6377   49.9055   25.9968 F   0  0  0  0  0  0
    0.3877   52.5584   27.9374 C   0  0  0  0  0  0
   -0.1170   51.8879   29.0600 C   0  0  0  0  0  0
   -0.0950   52.4968   30.3130 C   0  0  0  0  0  0
    0.4253   53.7896   30.4597 C   0  0  0  0  0  0
    0.9623   54.4428   29.3574 C   0  0  0  0  0  0
    0.9558   53.8309   28.1129 C   0  0  0  0  0  0
    0.4494   54.4966   31.6370 O   0  0  0  0  0  0
    0.1768   53.8247   32.8552 C   0  0  0  0  0  0
    9.0124   55.2861   20.4200 H   0  0  0  0  0  0
    8.1194   56.7543   20.0319 H   0  0  0  0  0  0
    8.6914   56.4945   21.6746 H   0  0  0  0  0  0
    6.2620   55.3231   19.0952 H   0  0  0  0  0  0
    4.1684   54.1450   19.6146 H   0  0  0  0  0  0
    5.3387   53.9242   23.7569 H   0  0  0  0  0  0
    7.4213   55.1048   23.2307 H   0  0  0  0  0  0
    3.0719   52.6879   21.2303 H   0  0  0  0  0  0
    1.1365   51.7653   21.0905 H   0  0  0  0  0  0
    0.0793   49.8441   26.3259 H   0  0  0  0  0  0
   -1.3365   50.5784   27.0132 H   0  0  0  0  0  0
   -1.6598   53.3197   23.7280 H   0  0  0  0  0  0
   -3.7146   54.6388   23.7962 H   0  0  0  0  0  0
   -5.7400   53.7471   24.9090 H   0  0  0  0  0  0
   -5.6859   51.5013   25.9500 H   0  0  0  0  0  0
   -0.5402   50.8968   28.9890 H   0  0  0  0  0  0
   -0.5013   51.9597   31.1588 H   0  0  0  0  0  0
    1.3741   55.4351   29.4665 H   0  0  0  0  0  0
    1.3727   54.3788   27.2801 H   0  0  0  0  0  0
   -0.8953   53.6967   32.9714 H   0  0  0  0  0  0
    0.6852   52.8622   32.9368 H   0  0  0  0  0  0
    0.5157   54.4516   33.6786 H   0  0  0  0  0  0
  1  2  1  0  0  0
  1 36  1  0  0  0
  1 37  1  0  0  0
  1 38  1  0  0  0
  2  7  2  0  0  0
  2  3  1  0  0  0
  3  4  2  0  0  0
  3 39  1  0  0  0
  4  5  1  0  0  0
  4 40  1  0  0  0
  5  6  2  0  0  0
  5  8  1  0  0  0
  6  7  1  0  0  0
  6 41  1  0  0  0
  7 42  1  0  0  0
  8  9  1  0  0  0
  8 43  1  0  0  0
  9 10  2  0  0  0
  9 11  1  0  0  0
 11 15  2  0  0  0
 11 12  1  0  0  0
 12 13  2  0  0  0
 12 44  1  0  0  0
 13 14  1  0  0  0
 14 19  1  0  0  0
 14 15  1  0  0  0
 15 16  1  0  0  0
 16 17  2  0  0  0
 17 28  1  0  0  0
 17 18  1  0  0  0
 18 19  1  0  0  0
 18 46  1  0  0  0
 18 45  1  0  0  0
 19 20  1  0  0  0
 19 21  1  0  0  0
 21 26  2  0  0  0
 21 22  1  0  0  0
 22 23  2  0  0  0
 22 47  1  0  0  0
 23 24  1  0  0  0
 23 48  1  0  0  0
 24 25  2  0  0  0
 24 49  1  0  0  0
 25 26  1  0  0  0
 25 50  1  0  0  0
 26 27  1  0  0  0
 28 33  2  0  0  0
 28 29  1  0  0  0
 29 30  2  0  0  0
 29 51  1  0  0  0
 30 31  1  0  0  0
 30 52  1  0  0  0
 31 32  2  0  0  0
 31 34  1  0  0  0
 32 33  1  0  0  0
 32 53  1  0  0  0
 33 54  1  0  0  0
 34 35  1  0  0  0
 35 55  1  0  0  0
 35 56  1  0  0  0
 35 57  1  0  0  0
M  END
> <i_i_glide_confnum>
59

> <i_i_glide_lignum>
602

> <i_i_glide_posenum>
196

> <i_i_glide_rotatable_bonds>
6

> <i_m_Source_File_Index>
2886

> <b_m_subgroup_collapsed>
0

> <r_i_docking_score>
-5.58247

> <r_i_glide_ecoul>
-4.2869

> <r_i_glide_eff_state_penalty>
0

> <r_i_glide_einternal>
2.43051

> <r_i_glide_emodel>
-64.6525

> <r_i_glide_energy>
-48.8276

> <r_i_glide_erotb>
0.486081

> <r_i_glide_esite>
-0.0393588

> <r_i_glide_evdw>
-44.5407

> <r_i_glide_gscore>
-5.58247

> <r_i_glide_hbond>
0

> <r_i_glide_ligand_efficiency>
-0.16419

> <r_i_glide_ligand_efficiency_ln>
-1.23333

> <r_i_glide_ligand_efficiency_sa>
-0.531913

> <r_i_glide_lipo>
-2.60047

> <r_i_glide_metal>
0

> <r_i_glide_rewards>
-0.558659

> <s_i_glide_gridfile>
wee1_glide-grid

> <s_m_Source_File>
wee1_decoys_glide_SP.sdf

> <s_m_Source_Path>
/Users/zhangxujun/Desktop

> <s_m_entry_id>
3161

> <s_m_entry_name>
wee1_decoys_glide_SP.2886

> <s_m_subgroup_title>
wee1_decoys_glide_SP

> <s_m_subgroupid>
wee1_decoys_glide_SP


$$$$
