ZINC52094937_1806
                    3D
 Schrodinger Suite 2024-2.
 34 36  0  0  1  0            999 V2000
    2.4444   53.3394   26.4692 C   0  0  0  0  0  0
    3.7261   53.8710   26.7138 C   0  0  0  0  0  0
    4.5159   54.2766   25.6106 C   0  0  0  0  0  0
    4.0166   54.1900   24.3041 C   0  0  0  0  0  0
    2.7379   53.6802   24.1100 C   0  0  0  0  0  0
    1.9806   53.2597   25.1624 C   0  0  0  0  0  0
    0.8131   52.7708   24.6296 N   0  0  0  0  0  0
    0.0647   52.3475   25.1578 H   0  0  0  0  0  0
    0.8087   52.8632   23.2858 C   0  0  0  0  0  0
   -0.0726   52.4958   22.5159 O   0  0  0  0  0  0
    1.9879   53.4447   22.9788 N   0  0  0  0  0  0
    2.2716   53.6533   22.0319 H   0  0  0  0  0  0
    6.3040   54.9093   25.8346 Br  0  0  0  0  0  0
    4.2751   53.9863   28.1479 C   0  0  1  0  0  0
    4.9120   54.8705   28.1871 H   0  0  0  0  0  0
    3.2294   54.1995   29.2810 C   0  0  1  0  0  0
    3.8104   54.3038   30.2003 H   0  0  0  0  0  0
    2.4475   55.5304   29.1360 C   0  0  0  0  0  0
    1.2732   55.6613   30.1001 C   0  0  0  0  0  0
    0.4324   54.3794   30.1075 C   0  0  0  0  0  0
    1.3053   53.1547   30.4164 C   0  0  0  0  0  0
    2.3981   53.0467   29.5043 O   0  0  0  0  0  0
    5.1108   52.8965   28.4815 O   0  0  0  0  0  0
    1.8169   52.9845   27.2696 H   0  0  0  0  0  0
    4.6289   54.4956   23.4695 H   0  0  0  0  0  0
    2.0749   55.6303   28.1152 H   0  0  0  0  0  0
    3.1096   56.3812   29.2813 H   0  0  0  0  0  0
    0.6956   56.5372   29.8158 H   0  0  0  0  0  0
    1.6316   55.8726   31.1073 H   0  0  0  0  0  0
   -0.0513   54.2419   29.1389 H   0  0  0  0  0  0
   -0.3667   54.4596   30.8435 H   0  0  0  0  0  0
    0.7073   52.2439   30.3585 H   0  0  0  0  0  0
    1.6861   53.2215   31.4362 H   0  0  0  0  0  0
    5.7376   52.7598   27.7640 H   0  0  0  0  0  0
  1  6  2  0  0  0
  1  2  1  0  0  0
  1 24  1  0  0  0
  2  3  2  0  0  0
  2 14  1  0  0  0
  3  4  1  0  0  0
  3 13  1  0  0  0
  4  5  2  0  0  0
  4 25  1  0  0  0
  5 11  1  0  0  0
  5  6  1  0  0  0
  6  7  1  0  0  0
  7  8  1  0  0  0
  7  9  1  0  0  0
  9 10  2  0  0  0
  9 11  1  0  0  0
 11 12  1  0  0  0
 14 15  1  0  0  0
 14 16  1  0  0  0
 14 23  1  0  0  0
 16 17  1  0  0  0
 16 22  1  0  0  0
 16 18  1  0  0  0
 18 19  1  0  0  0
 18 26  1  0  0  0
 18 27  1  0  0  0
 19 20  1  0  0  0
 19 28  1  0  0  0
 19 29  1  0  0  0
 20 21  1  0  0  0
 20 30  1  0  0  0
 20 31  1  0  0  0
 21 22  1  0  0  0
 21 32  1  0  0  0
 21 33  1  0  0  0
 23 34  1  0  0  0
M  END
> <i_i_glide_confnum>
1

> <i_i_glide_lignum>
1807

> <i_i_glide_posenum>
100

> <i_i_glide_rotatable_bonds>
3

> <i_m_Source_File_Index>
1989

> <b_m_subgroup_collapsed>
0

> <r_i_docking_score>
-6.34231

> <r_i_glide_ecoul>
-2.82751

> <r_i_glide_eff_state_penalty>
0

> <r_i_glide_einternal>
3.2879

> <r_i_glide_emodel>
-53.2945

> <r_i_glide_energy>
-39.8813

> <r_i_glide_erotb>
0.350601

> <r_i_glide_esite>
0

> <r_i_glide_evdw>
-37.0538

> <r_i_glide_gscore>
-6.34231

> <r_i_glide_hbond>
0

> <r_i_glide_ligand_efficiency>
-0.333806

> <r_i_glide_ligand_efficiency_ln>
-1.60791

> <r_i_glide_ligand_efficiency_sa>
-0.890728

> <r_i_glide_lipo>
-2.98103

> <r_i_glide_metal>
0

> <r_i_glide_rewards>
-1.43506

> <s_i_glide_gridfile>
wee1_glide-grid

> <s_m_Source_File>
wee1_decoys_glide_SP.sdf

> <s_m_Source_Path>
/Users/zhangxujun/Desktop

> <s_m_entry_id>
2264

> <s_m_entry_name>
wee1_decoys_glide_SP.1989

> <s_m_subgroup_title>
wee1_decoys_glide_SP

> <s_m_subgroupid>
wee1_decoys_glide_SP


$$$$
