ZINC66856545_1457
                    3D
 Schrodinger Suite 2024-2.
 56 59  0  0  1  0            999 V2000
    7.0235   53.7450   28.1741 C   0  0  0  0  0  0
    5.8145   54.3754   27.4648 C   0  0  1  0  0  0
    5.6305   55.3427   27.9323 H   0  0  0  0  0  0
    6.0996   54.6958   25.9784 C   0  0  0  0  0  0
    7.1036   55.3545   25.7135 O   0  0  0  0  0  0
    5.2020   54.2661   25.0677 N   0  0  0  0  0  0
    5.2150   54.3789   23.6709 C   0  0  0  0  0  0
    6.3070   54.8207   22.9052 C   0  0  0  0  0  0
    6.1959   54.8968   21.5176 C   0  0  0  0  0  0
    5.0168   54.5010   20.8695 C   0  0  0  0  0  0
    3.9354   54.0735   21.6451 C   0  0  0  0  0  0
    4.0355   54.0071   23.0277 C   0  0  0  0  0  0
    4.9270   54.6149   19.3728 C   0  0  0  0  0  0
    5.6257   55.4854   18.6838 N   0  0  0  0  0  0
    5.2990   55.3390   17.3432 N   0  0  0  0  0  0
    4.4016   54.3893   17.2696 C   0  0  0  0  0  0
    4.1451   53.8529   18.5173 N   0  0  0  0  0  0
    3.1670   52.7923   18.8013 C   0  0  0  0  0  0
    2.7438   52.0770   17.4928 C   0  0  0  0  0  0
    2.5241   53.0512   16.3209 C   0  0  0  0  0  0
    3.8123   53.8264   15.9854 C   0  0  0  0  0  0
    4.6280   53.5338   27.6753 N   0  0  0  0  0  0
    3.7142   53.7055   28.6416 C   0  0  0  0  0  0
    3.8751   54.4946   29.5758 O   0  0  0  0  0  0
    2.4257   52.8462   28.5209 C   0  0  0  0  0  0
    2.4238   51.7730   29.6343 C   0  0  0  0  0  0
    2.0431   52.2825   31.0376 C   0  0  0  0  0  0
    0.8287   53.0271   30.9919 O   0  0  0  0  0  0
    0.8453   54.1658   30.1358 C   0  0  0  0  0  0
    1.1723   53.7500   28.6858 C   0  0  0  0  0  0
    7.9040   54.3766   28.0573 H   0  0  0  0  0  0
    6.8494   53.6688   29.2461 H   0  0  0  0  0  0
    7.2566   52.7525   27.7838 H   0  0  0  0  0  0
    4.3817   53.8111   25.4378 H   0  0  0  0  0  0
    7.2445   55.1105   23.3557 H   0  0  0  0  0  0
    7.0448   55.2488   20.9451 H   0  0  0  0  0  0
    2.9944   53.8057   21.1963 H   0  0  0  0  0  0
    3.1776   53.6742   23.5955 H   0  0  0  0  0  0
    3.5866   52.0903   19.5249 H   0  0  0  0  0  0
    2.2904   53.2628   19.2462 H   0  0  0  0  0  0
    3.4961   51.3334   17.2173 H   0  0  0  0  0  0
    1.8337   51.5033   17.6755 H   0  0  0  0  0  0
    2.1830   52.5030   15.4420 H   0  0  0  0  0  0
    1.7250   53.7501   16.5729 H   0  0  0  0  0  0
    3.6128   54.6135   15.2585 H   0  0  0  0  0  0
    4.5313   53.1495   15.5236 H   0  0  0  0  0  0
    4.4985   52.7857   27.0074 H   0  0  0  0  0  0
    2.4697   52.3987   27.5271 H   0  0  0  0  0  0
    3.3710   51.2324   29.6313 H   0  0  0  0  0  0
    1.7459   50.9824   29.3083 H   0  0  0  0  0  0
    2.8560   52.8955   31.4192 H   0  0  0  0  0  0
    1.9201   51.4602   31.7401 H   0  0  0  0  0  0
    1.5760   54.8895   30.4956 H   0  0  0  0  0  0
   -0.1259   54.6549   30.1827 H   0  0  0  0  0  0
    0.3267   53.2144   28.2529 H   0  0  0  0  0  0
    1.2138   54.6031   28.0074 H   0  0  0  0  0  0
  1  2  1  0  0  0
  1 31  1  0  0  0
  1 32  1  0  0  0
  1 33  1  0  0  0
  2  3  1  0  0  0
  2  4  1  0  0  0
  2 22  1  0  0  0
  4  5  2  0  0  0
  4  6  1  0  0  0
  6  7  1  0  0  0
  6 34  1  0  0  0
  7 12  2  0  0  0
  7  8  1  0  0  0
  8  9  2  0  0  0
  8 35  1  0  0  0
  9 10  1  0  0  0
  9 36  1  0  0  0
 10 11  2  0  0  0
 10 13  1  0  0  0
 11 12  1  0  0  0
 11 37  1  0  0  0
 12 38  1  0  0  0
 13 17  1  0  0  0
 13 14  2  0  0  0
 14 15  1  0  0  0
 15 16  2  0  0  0
 16 21  1  0  0  0
 16 17  1  0  0  0
 17 18  1  0  0  0
 18 19  1  0  0  0
 18 39  1  0  0  0
 18 40  1  0  0  0
 19 20  1  0  0  0
 19 41  1  0  0  0
 19 42  1  0  0  0
 20 21  1  0  0  0
 20 43  1  0  0  0
 20 44  1  0  0  0
 21 45  1  0  0  0
 21 46  1  0  0  0
 22 23  1  0  0  0
 22 47  1  0  0  0
 23 24  2  0  0  0
 23 25  1  0  0  0
 25 30  1  0  0  0
 25 26  1  0  0  0
 25 48  1  0  0  0
 26 27  1  0  0  0
 26 49  1  0  0  0
 26 50  1  0  0  0
 27 28  1  0  0  0
 27 51  1  0  0  0
 27 52  1  0  0  0
 28 29  1  0  0  0
 29 30  1  0  0  0
 29 53  1  0  0  0
 29 54  1  0  0  0
 30 55  1  0  0  0
 30 56  1  0  0  0
M  END
> <i_i_glide_confnum>
33

> <i_i_glide_lignum>
1458

> <i_i_glide_posenum>
232

> <i_i_glide_rotatable_bonds>
7

> <i_m_Source_File_Index>
269

> <b_m_subgroup_collapsed>
0

> <r_i_docking_score>
-6.53006

> <r_i_glide_ecoul>
-6.89889

> <r_i_glide_eff_state_penalty>
0

> <r_i_glide_einternal>
2.42153

> <r_i_glide_emodel>
-68.8546

> <r_i_glide_energy>
-48.8526

> <r_i_glide_erotb>
0.743438

> <r_i_glide_esite>
-0.0267015

> <r_i_glide_evdw>
-41.9537

> <r_i_glide_gscore>
-6.53006

> <r_i_glide_hbond>
-0.364681

> <r_i_glide_ligand_efficiency>
-0.225175

> <r_i_glide_ligand_efficiency_ln>
-1.49522

> <r_i_glide_ligand_efficiency_sa>
-0.691808

> <r_i_glide_lipo>
-2.27481

> <r_i_glide_metal>
0

> <r_i_glide_rewards>
-1.47479

> <s_i_glide_gridfile>
wee1_glide-grid

> <s_m_Source_File>
wee1_decoys_glide_SP.sdf

> <s_m_Source_Path>
/Users/zhangxujun/Desktop

> <s_m_entry_id>
544

> <s_m_entry_name>
wee1_decoys_glide_SP.269

> <s_m_subgroup_title>
wee1_decoys_glide_SP

> <s_m_subgroupid>
wee1_decoys_glide_SP


$$$$
