ZINC02649451_5483
                    3D
 Schrodinger Suite 2024-2.
 54 57  0  0  1  0            999 V2000
   -2.4809   46.6052   17.3677 C   0  0  0  0  0  0
   -1.0986   46.9418   17.3503 O   0  0  0  0  0  0
   -0.1917   46.1068   16.7184 C   0  0  0  0  0  0
   -0.5768   44.9579   16.0072 C   0  0  0  0  0  0
    0.3708   44.1721   15.3545 C   0  0  0  0  0  0
    1.7142   44.5302   15.3878 C   0  0  0  0  0  0
    2.1202   45.6693   16.0811 C   0  0  0  0  0  0
    1.1786   46.4418   16.7673 C   0  0  0  0  0  0
    1.6518   47.5588   17.4734 N   0  0  0  0  0  0
    1.4205   47.8085   18.7799 C   0  0  0  0  0  0
    0.8945   46.9994   19.5501 O   0  0  0  0  0  0
    1.8659   49.1602   19.2789 C   0  0  0  0  0  0
    1.8671   50.2747   18.4283 C   0  0  0  0  0  0
    2.2973   51.5135   18.8902 C   0  0  0  0  0  0
    2.7439   51.6425   20.2011 C   0  0  0  0  0  0
    2.7057   50.5487   21.0742 C   0  0  0  0  0  0
    2.2628   49.3131   20.6118 C   0  0  0  0  0  0
    3.2155   52.8966   20.5978 N   0  0  0  0  0  0
    4.3491   53.1206   21.2876 C   0  0  0  0  0  0
    5.1040   52.2276   21.6817 O   0  0  0  0  0  0
    4.6717   54.5967   21.5424 C   0  0  0  0  0  0
    6.2298   54.8932   22.4524 S   0  0  0  0  0  0
    5.7146   54.5755   24.1497 C   0  0  0  0  0  0
    4.5180   54.3953   24.5312 N   0  0  0  0  0  0
    4.4619   54.1457   25.8682 N   0  0  0  0  0  0
    5.6703   54.0964   26.5231 C   0  0  0  0  0  0
    6.0741   53.6977   28.0816 S   0  0  0  0  0  0
    6.9352   54.5144   25.4086 S   0  0  0  0  0  0
    3.1950   53.8795   26.4645 C   0  0  0  0  0  0
    2.8129   54.4966   27.6677 C   0  0  0  0  0  0
    1.6032   54.1687   28.2784 C   0  0  0  0  0  0
    0.7650   53.2317   27.6827 C   0  0  0  0  0  0
    1.1039   52.6451   26.4660 C   0  0  0  0  0  0
    2.3054   52.9829   25.8499 C   0  0  0  0  0  0
   -3.0251   47.3516   17.9459 H   0  0  0  0  0  0
   -2.9032   46.5940   16.3616 H   0  0  0  0  0  0
   -2.6488   45.6362   17.8405 H   0  0  0  0  0  0
   -1.6116   44.6587   15.9439 H   0  0  0  0  0  0
    0.0595   43.2896   14.8148 H   0  0  0  0  0  0
    2.4425   43.9194   14.8787 H   0  0  0  0  0  0
    3.1700   45.9334   16.1053 H   0  0  0  0  0  0
    2.2871   48.1823   16.9880 H   0  0  0  0  0  0
    1.5577   50.1927   17.3968 H   0  0  0  0  0  0
    2.3205   52.3524   18.2091 H   0  0  0  0  0  0
    3.0343   50.6475   22.0982 H   0  0  0  0  0  0
    2.2638   48.4750   21.2933 H   0  0  0  0  0  0
    2.7391   53.6954   20.2006 H   0  0  0  0  0  0
    3.8324   55.0574   22.0645 H   0  0  0  0  0  0
    4.7632   55.0881   20.5748 H   0  0  0  0  0  0
    3.4580   55.2194   28.1468 H   0  0  0  0  0  0
    1.3197   54.6339   29.2114 H   0  0  0  0  0  0
   -0.1657   52.9651   28.1623 H   0  0  0  0  0  0
    0.4400   51.9258   26.0082 H   0  0  0  0  0  0
    2.5674   52.5026   24.9167 H   0  0  0  0  0  0
  1  2  1  0  0  0
  1 35  1  0  0  0
  1 36  1  0  0  0
  1 37  1  0  0  0
  2  3  1  0  0  0
  3  8  2  0  0  0
  3  4  1  0  0  0
  4  5  2  0  0  0
  4 38  1  0  0  0
  5  6  1  0  0  0
  5 39  1  0  0  0
  6  7  2  0  0  0
  6 40  1  0  0  0
  7  8  1  0  0  0
  7 41  1  0  0  0
  8  9  1  0  0  0
  9 10  1  0  0  0
  9 42  1  0  0  0
 10 11  2  0  0  0
 10 12  1  0  0  0
 12 17  2  0  0  0
 12 13  1  0  0  0
 13 14  2  0  0  0
 13 43  1  0  0  0
 14 15  1  0  0  0
 14 44  1  0  0  0
 15 16  2  0  0  0
 15 18  1  0  0  0
 16 17  1  0  0  0
 16 45  1  0  0  0
 17 46  1  0  0  0
 18 19  1  0  0  0
 18 47  1  0  0  0
 19 20  2  0  0  0
 19 21  1  0  0  0
 21 22  1  0  0  0
 21 48  1  0  0  0
 21 49  1  0  0  0
 22 23  1  0  0  0
 23 28  1  0  0  0
 23 24  2  0  0  0
 24 25  1  0  0  0
 25 26  1  0  0  0
 25 29  1  0  0  0
 26 27  2  0  0  0
 26 28  1  0  0  0
 29 34  2  0  0  0
 29 30  1  0  0  0
 30 31  2  0  0  0
 30 50  1  0  0  0
 31 32  1  0  0  0
 31 51  1  0  0  0
 32 33  2  0  0  0
 32 52  1  0  0  0
 33 34  1  0  0  0
 33 53  1  0  0  0
 34 54  1  0  0  0
M  END
> <i_i_glide_confnum>
138

> <i_i_glide_lignum>
5484

> <i_i_glide_posenum>
189

> <i_i_glide_rotatable_bonds>
10

> <i_m_Source_File_Index>
1556

> <b_m_subgroup_collapsed>
0

> <r_i_docking_score>
-6.1419

> <r_i_glide_ecoul>
-6.39948

> <r_i_glide_eff_state_penalty>
0

> <r_i_glide_einternal>
5.74014

> <r_i_glide_emodel>
-73.7994

> <r_i_glide_energy>
-54.9409

> <r_i_glide_erotb>
0.712262

> <r_i_glide_esite>
-0.115962

> <r_i_glide_evdw>
-48.5414

> <r_i_glide_gscore>
-6.1419

> <r_i_glide_hbond>
-0.399513

> <r_i_glide_ligand_efficiency>
-0.180644

> <r_i_glide_ligand_efficiency_ln>
-1.35692

> <r_i_glide_ligand_efficiency_sa>
-0.585217

> <r_i_glide_lipo>
-2.21438

> <r_i_glide_metal>
0

> <r_i_glide_rewards>
-0.737322

> <s_i_glide_gridfile>
wee1_glide-grid

> <s_m_Source_File>
wee1_decoys_glide_SP.sdf

> <s_m_Source_Path>
/Users/zhangxujun/Desktop

> <s_m_entry_id>
1831

> <s_m_entry_name>
wee1_decoys_glide_SP.1556

> <s_m_subgroup_title>
wee1_decoys_glide_SP

> <s_m_subgroupid>
wee1_decoys_glide_SP


$$$$
