ZINC21363255_5848
                    3D
 Schrodinger Suite 2024-2.
 47 50  0  0  1  0            999 V2000
    0.0148   53.2999   31.3046 C   0  0  0  0  0  0
    0.8606   53.5089   30.0642 C   0  0  0  0  0  0
    0.9090   52.5209   29.0795 C   0  0  0  0  0  0
    1.6927   52.7114   27.9425 C   0  0  0  0  0  0
    2.4372   53.8857   27.7910 C   0  0  0  0  0  0
    2.3752   54.8775   28.7766 C   0  0  0  0  0  0
    1.5774   54.6968   29.9022 C   0  0  0  0  0  0
    3.2974   54.1008   26.5902 C   0  0  0  0  0  0
    4.5383   54.7189   26.5190 C   0  0  0  0  0  0
    4.9355   54.7097   25.2276 O   0  0  0  0  0  0
    3.9211   54.0751   24.5866 C   0  0  0  0  0  0
    2.9402   53.6997   25.3806 N   0  0  0  0  0  0
    4.0343   53.8380   23.1128 C   0  0  0  0  0  0
    3.0367   53.1250   22.4412 C   0  0  0  0  0  0
    3.1318   52.9046   21.0707 C   0  0  0  0  0  0
    4.2163   53.4277   20.3503 C   0  0  0  0  0  0
    5.2253   54.1133   21.0253 C   0  0  0  0  0  0
    5.1417   54.3105   22.4007 C   0  0  0  0  0  0
    4.3767   53.2930   18.9608 N   0  0  0  0  0  0
    3.4446   53.0084   18.0303 C   0  0  0  0  0  0
    2.2370   52.8838   18.2556 O   0  0  0  0  0  0
    4.0022   52.8988   16.8114 N   0  0  0  0  0  0
    3.3592   52.5466   15.6151 C   0  0  0  0  0  0
    3.8471   53.1072   14.4341 C   0  0  0  0  0  0
    3.2588   52.7774   13.2143 C   0  0  0  0  0  0
    2.1955   51.8760   13.1781 C   0  0  0  0  0  0
    1.7200   51.2948   14.3504 C   0  0  0  0  0  0
    2.3003   51.6270   15.5710 C   0  0  0  0  0  0
    1.6268   51.5560   11.9945 F   0  0  0  0  0  0
   -0.8768   52.7163   31.0708 H   0  0  0  0  0  0
    0.5771   52.7684   32.0737 H   0  0  0  0  0  0
   -0.3277   54.2492   31.7174 H   0  0  0  0  0  0
    0.3451   51.6048   29.1935 H   0  0  0  0  0  0
    1.7293   51.9382   27.1882 H   0  0  0  0  0  0
    2.9373   55.7937   28.6669 H   0  0  0  0  0  0
    1.5255   55.4735   30.6514 H   0  0  0  0  0  0
    5.1965   55.1806   27.2388 H   0  0  0  0  0  0
    2.1834   52.7348   22.9767 H   0  0  0  0  0  0
    2.3461   52.3435   20.5869 H   0  0  0  0  0  0
    6.0764   54.5088   20.4872 H   0  0  0  0  0  0
    5.9316   54.8507   22.9041 H   0  0  0  0  0  0
    5.3112   53.4596   18.6218 H   0  0  0  0  0  0
    4.9783   53.1392   16.7251 H   0  0  0  0  0  0
    4.6750   53.8028   14.4520 H   0  0  0  0  0  0
    3.6217   53.2166   12.2968 H   0  0  0  0  0  0
    0.9105   50.5795   14.3139 H   0  0  0  0  0  0
    1.9476   51.1463   16.4719 H   0  0  0  0  0  0
  1  2  1  0  0  0
  1 30  1  0  0  0
  1 31  1  0  0  0
  1 32  1  0  0  0
  2  7  2  0  0  0
  2  3  1  0  0  0
  3  4  2  0  0  0
  3 33  1  0  0  0
  4  5  1  0  0  0
  4 34  1  0  0  0
  5  6  2  0  0  0
  5  8  1  0  0  0
  6  7  1  0  0  0
  6 35  1  0  0  0
  7 36  1  0  0  0
  8 12  1  0  0  0
  8  9  2  0  0  0
  9 10  1  0  0  0
  9 37  1  0  0  0
 10 11  1  0  0  0
 11 12  2  0  0  0
 11 13  1  0  0  0
 13 18  2  0  0  0
 13 14  1  0  0  0
 14 15  2  0  0  0
 14 38  1  0  0  0
 15 16  1  0  0  0
 15 39  1  0  0  0
 16 17  2  0  0  0
 16 19  1  0  0  0
 17 18  1  0  0  0
 17 40  1  0  0  0
 18 41  1  0  0  0
 19 20  1  0  0  0
 19 42  1  0  0  0
 20 21  2  0  0  0
 20 22  1  0  0  0
 22 23  1  0  0  0
 22 43  1  0  0  0
 23 28  2  0  0  0
 23 24  1  0  0  0
 24 25  2  0  0  0
 24 44  1  0  0  0
 25 26  1  0  0  0
 25 45  1  0  0  0
 26 27  2  0  0  0
 26 29  1  0  0  0
 27 28  1  0  0  0
 27 46  1  0  0  0
 28 47  1  0  0  0
M  END
> <i_i_glide_confnum>
1

> <i_i_glide_lignum>
5849

> <i_i_glide_posenum>
185

> <i_i_glide_rotatable_bonds>
6

> <i_m_Source_File_Index>
1419

> <b_m_subgroup_collapsed>
0

> <r_i_docking_score>
-4.52895

> <r_i_glide_ecoul>
0.0634811

> <r_i_glide_eff_state_penalty>
0

> <r_i_glide_einternal>
4.9438

> <r_i_glide_emodel>
-44.6834

> <r_i_glide_energy>
-34.2713

> <r_i_glide_erotb>
0.648751

> <r_i_glide_esite>
-0.155166

> <r_i_glide_evdw>
-34.3348

> <r_i_glide_gscore>
-4.52895

> <r_i_glide_hbond>
0

> <r_i_glide_ligand_efficiency>
-0.156171

> <r_i_glide_ligand_efficiency_ln>
-1.03701

> <r_i_glide_ligand_efficiency_sa>
-0.479806

> <r_i_glide_lipo>
-2.52984

> <r_i_glide_metal>
0

> <r_i_glide_rewards>
-0.785473

> <s_i_glide_gridfile>
wee1_glide-grid

> <s_m_Source_File>
wee1_decoys_glide_SP.sdf

> <s_m_Source_Path>
/Users/zhangxujun/Desktop

> <s_m_entry_id>
1694

> <s_m_entry_name>
wee1_decoys_glide_SP.1419

> <s_m_subgroup_title>
wee1_decoys_glide_SP

> <s_m_subgroupid>
wee1_decoys_glide_SP


$$$$
