ZINC39275509_1679
                    3D
 Schrodinger Suite 2024-2.
 27 29  0  0  1  0            999 V2000
    2.8900   53.7342   24.3572 C   0  0  0  0  0  0
    3.9920   54.0965   23.5869 C   0  0  0  0  0  0
    5.1914   54.4309   24.2114 C   0  0  0  0  0  0
    5.2925   54.4183   25.6000 C   0  0  0  0  0  0
    4.1910   54.0506   26.3690 C   0  0  0  0  0  0
    2.9828   53.6977   25.7502 C   0  0  0  0  0  0
    1.8331   53.2968   26.4567 N   0  0  0  0  0  0
    1.8085   53.0173   27.8896 C   0  0  1  0  0  0
    2.7583   52.5321   28.1223 H   0  0  0  0  0  0
    1.7416   54.3331   28.7448 C   0  0  0  0  0  0
    2.3510   55.4344   28.7234 N   0  0  0  0  0  0
    1.7678   56.0956   29.7889 C   0  0  0  0  0  0
    0.8748   55.5102   30.4817 N   0  0  0  0  0  0
    0.7410   54.3042   29.8401 C   0  0  0  0  0  0
   -0.0684   53.3406   30.0843 N   0  0  0  0  0  0
   -0.0565   52.2469   29.2201 C   0  0  0  0  0  0
    0.7448   52.0271   28.2342 N   0  0  0  0  0  0
   -1.0127   51.2975   29.4492 N   0  0  0  0  0  0
    6.7043   54.8962   23.1559 Br  0  0  0  0  0  0
    1.9659   53.4716   23.8631 H   0  0  0  0  0  0
    3.9167   54.1138   22.5092 H   0  0  0  0  0  0
    6.2241   54.6773   26.0802 H   0  0  0  0  0  0
    4.2979   54.0342   27.4421 H   0  0  0  0  0  0
    1.1637   52.7592   25.9259 H   0  0  0  0  0  0
    2.0770   57.1072   30.0423 H   0  0  0  0  0  0
   -1.0451   50.4545   28.8873 H   0  0  0  0  0  0
   -1.5518   51.3194   30.3031 H   0  0  0  0  0  0
  1  6  2  0  0  0
  1  2  1  0  0  0
  1 20  1  0  0  0
  2  3  2  0  0  0
  2 21  1  0  0  0
  3  4  1  0  0  0
  3 19  1  0  0  0
  4  5  2  0  0  0
  4 22  1  0  0  0
  5  6  1  0  0  0
  5 23  1  0  0  0
  6  7  1  0  0  0
  7  8  1  0  0  0
  7 24  1  0  0  0
  8  9  1  0  0  0
  8 17  1  0  0  0
  8 10  1  0  0  0
 10 14  1  0  0  0
 10 11  2  0  0  0
 11 12  1  0  0  0
 12 13  2  0  0  0
 12 25  1  0  0  0
 13 14  1  0  0  0
 14 15  2  0  0  0
 15 16  1  0  0  0
 16 17  2  0  0  0
 16 18  1  0  0  0
 18 26  1  0  0  0
 18 27  1  0  0  0
M  END
> <i_i_glide_confnum>
3

> <i_i_glide_lignum>
1680

> <i_i_glide_posenum>
336

> <i_i_glide_rotatable_bonds>
2

> <i_m_Source_File_Index>
3905

> <b_m_subgroup_collapsed>
0

> <r_i_docking_score>
-6.3871

> <r_i_glide_ecoul>
-2.60466

> <r_i_glide_eff_state_penalty>
0

> <r_i_glide_einternal>
0.491237

> <r_i_glide_emodel>
-54.6655

> <r_i_glide_energy>
-38.7482

> <r_i_glide_erotb>
0.396377

> <r_i_glide_esite>
-0.0770999

> <r_i_glide_evdw>
-36.1436

> <r_i_glide_gscore>
-6.3871

> <r_i_glide_hbond>
-0.110312

> <r_i_glide_ligand_efficiency>
-0.354839

> <r_i_glide_ligand_efficiency_ln>
-1.64177

> <r_i_glide_ligand_efficiency_sa>
-0.929941

> <r_i_glide_lipo>
-1.61418

> <r_i_glide_metal>
0

> <r_i_glide_rewards>
-2.78401

> <s_i_glide_gridfile>
wee1_glide-grid

> <s_m_Source_File>
wee1_decoys_glide_SP.sdf

> <s_m_Source_Path>
/Users/zhangxujun/Desktop

> <s_m_entry_id>
4180

> <s_m_entry_name>
wee1_decoys_glide_SP.3905

> <s_m_subgroup_title>
wee1_decoys_glide_SP

> <s_m_subgroupid>
wee1_decoys_glide_SP


$$$$
