ZINC25460073_23
                    3D
 Schrodinger Suite 2024-2.
 52 56  0  0  1  0            999 V2000
    6.9010   55.8147   20.2303 C   0  0  0  0  0  0
    5.7964   55.6574   19.2105 C   0  0  0  0  0  0
    4.7191   54.7766   19.0627 C   0  0  0  0  0  0
    4.0578   55.1950   17.9004 C   0  0  0  0  0  0
    4.7379   56.2930   17.4086 C   0  0  0  0  0  0
    5.7927   56.5751   18.2086 O   0  0  0  0  0  0
    4.3252   53.6867   19.9632 C   0  0  0  0  0  0
    4.6777   53.6423   21.2244 N   0  0  0  0  0  0
    4.1250   52.4943   21.7686 N   0  0  0  0  0  0
    3.4233   51.8999   20.8374 C   0  0  0  0  0  0
    3.5754   52.5690   19.6431 N   0  0  0  0  0  0
    3.1044   52.1648   18.4057 N   0  0  0  0  0  0
    2.4745   50.4179   21.0564 S   0  0  0  0  0  0
    1.9494   50.5649   22.8033 C   0  0  0  0  0  0
    0.5009   51.0584   23.0254 C   0  0  0  0  0  0
   -0.3890   50.5121   22.3663 O   0  0  0  0  0  0
    0.2341   52.0034   23.9840 N   0  0  0  0  0  0
    1.2381   52.8409   24.5084 C   0  0  0  0  0  0
    1.9165   53.7478   23.6805 C   0  0  0  0  0  0
    2.9875   54.4962   24.1517 C   0  0  0  0  0  0
    3.3834   54.3806   25.4772 C   0  0  0  0  0  0
    2.6746   53.5437   26.3332 C   0  0  0  0  0  0
    1.5969   52.7675   25.8816 C   0  0  0  0  0  0
    0.8719   51.8996   26.9279 C   0  0  0  0  0  0
   -0.2739   50.9495   26.5159 C   0  0  0  0  0  0
   -1.3856   51.6197   25.7148 C   0  0  0  0  0  0
   -1.0801   52.1806   24.4581 C   0  0  0  0  0  0
   -2.0808   52.8624   23.7537 C   0  0  0  0  0  0
   -3.3661   52.9831   24.2758 C   0  0  0  0  0  0
   -3.6684   52.4210   25.5126 C   0  0  0  0  0  0
   -2.6820   51.7447   26.2267 C   0  0  0  0  0  0
    7.0731   54.8975   20.7924 H   0  0  0  0  0  0
    7.8497   56.0789   19.7618 H   0  0  0  0  0  0
    6.6610   56.5937   20.9531 H   0  0  0  0  0  0
    3.1667   54.7554   17.4778 H   0  0  0  0  0  0
    4.5942   56.9439   16.5583 H   0  0  0  0  0  0
    3.6476   51.3671   18.0804 H   0  0  0  0  0  0
    2.1160   51.9650   18.4297 H   0  0  0  0  0  0
    2.6885   51.1121   23.3751 H   0  0  0  0  0  0
    1.9765   49.5534   23.2096 H   0  0  0  0  0  0
    1.6443   53.8361   22.6376 H   0  0  0  0  0  0
    3.5140   55.1534   23.4771 H   0  0  0  0  0  0
    4.2191   54.9570   25.8459 H   0  0  0  0  0  0
    2.9745   53.4899   27.3696 H   0  0  0  0  0  0
    0.4632   52.5898   27.6673 H   0  0  0  0  0  0
    1.6226   51.3076   27.4530 H   0  0  0  0  0  0
   -0.7002   50.5054   27.4179 H   0  0  0  0  0  0
    0.1089   50.0969   25.9525 H   0  0  0  0  0  0
   -1.8575   53.2957   22.7926 H   0  0  0  0  0  0
   -4.1273   53.5102   23.7210 H   0  0  0  0  0  0
   -4.6647   52.5093   25.9198 H   0  0  0  0  0  0
   -2.9217   51.3192   27.1913 H   0  0  0  0  0  0
  1  2  1  0  0  0
  1 32  1  0  0  0
  1 33  1  0  0  0
  1 34  1  0  0  0
  2  6  1  0  0  0
  2  3  2  0  0  0
  3  4  1  0  0  0
  3  7  1  0  0  0
  4  5  2  0  0  0
  4 35  1  0  0  0
  5  6  1  0  0  0
  5 36  1  0  0  0
  7 11  1  0  0  0
  7  8  2  0  0  0
  8  9  1  0  0  0
  9 10  2  0  0  0
 10 11  1  0  0  0
 10 13  1  0  0  0
 11 12  1  0  0  0
 12 37  1  0  0  0
 12 38  1  0  0  0
 13 14  1  0  0  0
 14 15  1  0  0  0
 14 39  1  0  0  0
 14 40  1  0  0  0
 15 16  2  0  0  0
 15 17  1  0  0  0
 17 27  1  0  0  0
 17 18  1  0  0  0
 18 23  2  0  0  0
 18 19  1  0  0  0
 19 20  2  0  0  0
 19 41  1  0  0  0
 20 21  1  0  0  0
 20 42  1  0  0  0
 21 22  2  0  0  0
 21 43  1  0  0  0
 22 23  1  0  0  0
 22 44  1  0  0  0
 23 24  1  0  0  0
 24 25  1  0  0  0
 24 45  1  0  0  0
 24 46  1  0  0  0
 25 26  1  0  0  0
 25 47  1  0  0  0
 25 48  1  0  0  0
 26 31  2  0  0  0
 26 27  1  0  0  0
 27 28  2  0  0  0
 28 29  1  0  0  0
 28 49  1  0  0  0
 29 30  2  0  0  0
 29 50  1  0  0  0
 30 31  1  0  0  0
 30 51  1  0  0  0
 31 52  1  0  0  0
M  END
> <i_i_glide_confnum>
309

> <i_i_glide_lignum>
24

> <i_i_glide_posenum>
50

> <i_i_glide_rotatable_bonds>
5

> <i_m_Source_File_Index>
3915

> <b_m_subgroup_collapsed>
0

> <r_i_docking_score>
-5.02486

> <r_i_glide_ecoul>
-3.09256

> <r_i_glide_eff_state_penalty>
0

> <r_i_glide_einternal>
2.40589

> <r_i_glide_emodel>
-54.776

> <r_i_glide_energy>
-41.0235

> <r_i_glide_erotb>
0.427289

> <r_i_glide_esite>
-0.142367

> <r_i_glide_evdw>
-37.9309

> <r_i_glide_gscore>
-5.02486

> <r_i_glide_hbond>
-0.154942

> <r_i_glide_ligand_efficiency>
-0.162092

> <r_i_glide_ligand_efficiency_ln>
-1.13326

> <r_i_glide_ligand_efficiency_sa>
-0.509194

> <r_i_glide_lipo>
-2.19906

> <r_i_glide_metal>
0

> <r_i_glide_rewards>
-0.595349

> <s_i_glide_gridfile>
wee1_glide-grid

> <s_m_Source_File>
wee1_decoys_glide_SP.sdf

> <s_m_Source_Path>
/Users/zhangxujun/Desktop

> <s_m_entry_id>
4190

> <s_m_entry_name>
wee1_decoys_glide_SP.3915

> <s_m_subgroup_title>
wee1_decoys_glide_SP

> <s_m_subgroupid>
wee1_decoys_glide_SP


$$$$
