ZINC14544861_2350
                    3D
 Schrodinger Suite 2024-2.
 58 63  0  0  1  0            999 V2000
    5.4217   54.4910   23.4965 C   0  0  0  0  0  0
    6.4979   54.4908   24.3801 C   0  0  0  0  0  0
    6.2671   54.4982   25.7530 C   0  0  0  0  0  0
    4.9577   54.5070   26.2357 C   0  0  0  0  0  0
    3.8814   54.4972   25.3485 C   0  0  0  0  0  0
    4.1134   54.4942   23.9773 C   0  0  0  0  0  0
    4.6954   54.5647   27.7255 C   0  0  0  0  0  0
    4.4237   53.2385   28.3099 N   0  0  0  0  0  0
    3.1593   53.0174   29.5106 S   0  0  0  0  0  0
    3.5484   51.8918   30.3689 O   0  0  0  0  0  0
    2.8578   54.3335   30.0817 O   0  0  0  0  0  0
    1.6758   52.4934   28.6684 C   0  0  0  0  0  0
    0.5444   52.2126   29.4343 C   0  0  0  0  0  0
   -0.5964   51.6968   28.8284 C   0  0  0  0  0  0
   -0.6135   51.4493   27.4566 C   0  0  0  0  0  0
    0.5045   51.7834   26.6594 C   0  0  0  0  0  0
    1.6412   52.3027   27.2860 C   0  0  0  0  0  0
    0.4329   51.4762   25.1695 C   0  0  2  0  0  0
    0.6813   50.4160   25.0719 H   0  0  0  0  0  0
    1.2295   52.2459   24.1405 C   0  0  0  0  0  0
    0.5052   52.3679   23.0091 C   0  0  0  0  0  0
   -0.9028   51.8188   23.1959 C   0  0  0  0  0  0
   -0.9885   51.7625   24.7178 C   0  0  1  0  0  0
   -1.2794   52.7676   25.0397 H   0  0  0  0  0  0
   -1.9404   50.7708   25.4281 C   0  0  1  0  0  0
   -1.6233   49.7567   25.1804 H   0  0  0  0  0  0
   -1.7915   50.9045   26.8899 N   0  0  0  0  0  0
   -3.3869   50.9319   25.0038 C   0  0  0  0  0  0
   -4.1428   50.0439   24.2599 C   0  0  0  0  0  0
   -5.4188   50.5178   24.1018 N   0  0  0  0  0  0
   -6.1337   50.0118   23.6015 H   0  0  0  0  0  0
   -5.5443   51.7351   24.7290 C   0  0  0  0  0  0
   -4.2675   52.0364   25.2948 C   0  0  0  0  0  0
   -4.1139   53.2522   25.9806 C   0  0  0  0  0  0
   -5.2016   54.1159   26.0868 C   0  0  0  0  0  0
   -6.4374   53.7907   25.5356 C   0  0  0  0  0  0
   -6.6413   52.5939   24.8499 C   0  0  0  0  0  0
    5.6033   54.4865   22.4311 H   0  0  0  0  0  0
    7.5045   54.4856   23.9957 H   0  0  0  0  0  0
    7.1024   54.5001   26.4379 H   0  0  0  0  0  0
    2.8662   54.5087   25.7185 H   0  0  0  0  0  0
    3.2823   54.4972   23.2870 H   0  0  0  0  0  0
    5.5652   54.9819   28.2380 H   0  0  0  0  0  0
    3.8983   55.2689   27.9710 H   0  0  0  0  0  0
    5.0578   52.4618   28.1032 H   0  0  0  0  0  0
    0.5558   52.3564   30.5066 H   0  0  0  0  0  0
   -1.4550   51.4510   29.4366 H   0  0  0  0  0  0
    2.5186   52.5029   26.6944 H   0  0  0  0  0  0
    2.2638   52.5127   24.2782 H   0  0  0  0  0  0
    0.8441   52.7972   22.0754 H   0  0  0  0  0  0
   -1.0362   50.8409   22.7326 H   0  0  0  0  0  0
   -1.6644   52.4833   22.7863 H   0  0  0  0  0  0
   -2.2487   50.1563   27.3995 H   0  0  0  0  0  0
   -3.8716   49.0843   23.8409 H   0  0  0  0  0  0
   -3.1654   53.5110   26.4266 H   0  0  0  0  0  0
   -5.0840   55.0475   26.6229 H   0  0  0  0  0  0
   -7.2606   54.4824   25.6396 H   0  0  0  0  0  0
   -7.6010   52.3556   24.4134 H   0  0  0  0  0  0
  1  6  2  0  0  0
  1  2  1  0  0  0
  1 38  1  0  0  0
  2  3  2  0  0  0
  2 39  1  0  0  0
  3  4  1  0  0  0
  3 40  1  0  0  0
  4  5  2  0  0  0
  4  7  1  0  0  0
  5  6  1  0  0  0
  5 41  1  0  0  0
  6 42  1  0  0  0
  7  8  1  0  0  0
  7 43  1  0  0  0
  7 44  1  0  0  0
  8  9  1  0  0  0
  8 45  1  0  0  0
  9 10  2  0  0  0
  9 11  2  0  0  0
  9 12  1  0  0  0
 12 17  2  0  0  0
 12 13  1  0  0  0
 13 14  2  0  0  0
 13 46  1  0  0  0
 14 15  1  0  0  0
 14 47  1  0  0  0
 15 27  1  0  0  0
 15 16  2  0  0  0
 16 17  1  0  0  0
 16 18  1  0  0  0
 17 48  1  0  0  0
 18 19  1  0  0  0
 18 23  1  0  0  0
 18 20  1  0  0  0
 20 21  2  0  0  0
 20 49  1  0  0  0
 21 22  1  0  0  0
 21 50  1  0  0  0
 22 23  1  0  0  0
 22 51  1  0  0  0
 22 52  1  0  0  0
 23 24  1  0  0  0
 23 25  1  0  0  0
 25 26  1  0  0  0
 25 27  1  0  0  0
 25 28  1  0  0  0
 27 53  1  0  0  0
 28 33  1  0  0  0
 28 29  2  0  0  0
 29 30  1  0  0  0
 29 54  1  0  0  0
 30 31  1  0  0  0
 30 32  1  0  0  0
 32 37  2  0  0  0
 32 33  1  0  0  0
 33 34  2  0  0  0
 34 35  1  0  0  0
 34 55  1  0  0  0
 35 36  2  0  0  0
 35 56  1  0  0  0
 36 37  1  0  0  0
 36 57  1  0  0  0
 37 58  1  0  0  0
M  END
> <i_i_glide_confnum>
57

> <i_i_glide_lignum>
2351

> <i_i_glide_posenum>
385

> <i_i_glide_rotatable_bonds>
5

> <i_m_Source_File_Index>
5191

> <b_m_subgroup_collapsed>
0

> <r_i_docking_score>
-4.16273

> <r_i_glide_ecoul>
-8.26289

> <r_i_glide_eff_state_penalty>
0

> <r_i_glide_einternal>
11.7217

> <r_i_glide_emodel>
-50.6449

> <r_i_glide_energy>
-51.3198

> <r_i_glide_erotb>
0.387194

> <r_i_glide_esite>
-0.149993

> <r_i_glide_evdw>
-43.0569

> <r_i_glide_gscore>
-4.16273

> <r_i_glide_hbond>
-0.063589

> <r_i_glide_ligand_efficiency>
-0.126143

> <r_i_glide_ligand_efficiency_ln>
-0.92577

> <r_i_glide_ligand_efficiency_sa>
-0.404609

> <r_i_glide_lipo>
-2.72982

> <r_i_glide_metal>
0

> <r_i_glide_rewards>
1.78575

> <s_i_glide_gridfile>
wee1_glide-grid

> <s_m_Source_File>
wee1_decoys_glide_SP.sdf

> <s_m_Source_Path>
/Users/zhangxujun/Desktop

> <s_m_entry_id>
5466

> <s_m_entry_name>
wee1_decoys_glide_SP.5191

> <s_m_subgroup_title>
wee1_decoys_glide_SP

> <s_m_subgroupid>
wee1_decoys_glide_SP


$$$$
