ZINC02363662_2782
                    3D
 Schrodinger Suite 2024-2.
 59 62  0  0  1  0            999 V2000
    2.2487   48.4447   19.1430 C   0  0  0  0  0  0
    1.4797   49.6626   18.5915 C   0  0  0  0  0  0
    0.0594   49.8475   19.1628 C   0  0  0  0  0  0
    2.2434   50.8730   18.5550 O   0  0  0  0  0  0
    2.7046   51.5310   19.6804 C   0  0  0  0  0  0
    2.4598   51.1493   21.0052 C   0  0  0  0  0  0
    2.9447   51.9166   22.0585 C   0  0  0  0  0  0
    3.6840   53.0835   21.8157 C   0  0  0  0  0  0
    3.9526   53.4428   20.4919 C   0  0  0  0  0  0
    3.4654   52.6741   19.4393 C   0  0  0  0  0  0
    4.2073   53.9813   22.9537 C   0  0  1  0  0  0
    4.1061   54.9880   22.5578 H   0  0  0  0  0  0
    3.3760   53.9442   24.2383 C   0  0  0  0  0  0
    1.9745   53.8848   24.3256 C   0  0  0  0  0  0
    1.5363   53.6964   25.5376 N   0  0  0  0  0  0
    2.6136   53.7345   26.3221 N   0  0  0  0  0  0
    3.7603   53.9556   25.5879 C   0  0  0  0  0  0
    4.9726   54.0959   26.2302 N   0  0  0  0  0  0
    6.1857   54.5235   25.8576 C   0  0  0  0  0  0
    7.1044   54.5779   26.6653 O   0  0  0  0  0  0
    6.3732   54.9584   24.4010 C   0  0  0  0  0  0
    5.9934   53.6967   23.1534 S   0  0  0  0  0  0
    2.4622   53.6786   27.7961 C   0  0  1  0  0  0
    3.4108   53.2900   28.1669 H   0  0  0  0  0  0
    2.1815   55.1125   28.2990 C   0  0  0  0  0  0
    1.7583   55.1791   29.7747 C   0  0  0  0  0  0
    0.7394   54.2171   30.0614 O   0  0  0  0  0  0
    1.0136   52.8463   29.7405 C   0  0  0  0  0  0
    1.2818   52.7677   28.2187 C   0  0  0  0  0  0
    2.2160   52.3135   30.5520 C   0  0  0  0  0  0
   -0.2919   52.0970   30.0418 C   0  0  0  0  0  0
    1.1045   53.9755   23.2812 O   0  0  0  0  0  0
    1.6210   47.5538   19.1547 H   0  0  0  0  0  0
    2.6357   48.5868   20.1492 H   0  0  0  0  0  0
    3.1038   48.2233   18.5019 H   0  0  0  0  0  0
    1.3270   49.4373   17.5351 H   0  0  0  0  0  0
   -0.5058   48.9174   19.1101 H   0  0  0  0  0  0
    0.0442   50.1761   20.1986 H   0  0  0  0  0  0
   -0.4872   50.5908   18.5823 H   0  0  0  0  0  0
    1.8881   50.2715   21.2502 H   0  0  0  0  0  0
    2.7044   51.6016   23.0641 H   0  0  0  0  0  0
    4.5314   54.3280   20.2718 H   0  0  0  0  0  0
    3.6748   52.9660   18.4203 H   0  0  0  0  0  0
    4.9667   53.8340   27.2030 H   0  0  0  0  0  0
    7.4375   55.1603   24.2767 H   0  0  0  0  0  0
    5.9008   55.9145   24.2063 H   0  0  0  0  0  0
    3.0956   55.6963   28.1994 H   0  0  0  0  0  0
    1.4329   55.6063   27.6819 H   0  0  0  0  0  0
    2.6264   55.0230   30.4122 H   0  0  0  0  0  0
    1.3794   56.1744   30.0108 H   0  0  0  0  0  0
    0.3757   53.0030   27.6587 H   0  0  0  0  0  0
    1.5313   51.7331   27.9765 H   0  0  0  0  0  0
    2.4459   51.2968   30.2429 H   0  0  0  0  0  0
    3.1290   52.8898   30.4173 H   0  0  0  0  0  0
    1.9937   52.3038   31.6201 H   0  0  0  0  0  0
   -0.2573   51.0682   29.6819 H   0  0  0  0  0  0
   -0.4956   52.0765   31.1127 H   0  0  0  0  0  0
   -1.1468   52.5688   29.5603 H   0  0  0  0  0  0
    1.5846   53.9833   22.4471 H   0  0  0  0  0  0
  1  2  1  0  0  0
  1 33  1  0  0  0
  1 34  1  0  0  0
  1 35  1  0  0  0
  2  3  1  0  0  0
  2  4  1  0  0  0
  2 36  1  0  0  0
  3 37  1  0  0  0
  3 38  1  0  0  0
  3 39  1  0  0  0
  4  5  1  0  0  0
  5 10  2  0  0  0
  5  6  1  0  0  0
  6  7  2  0  0  0
  6 40  1  0  0  0
  7  8  1  0  0  0
  7 41  1  0  0  0
  8  9  2  0  0  0
  8 11  1  0  0  0
  9 10  1  0  0  0
  9 42  1  0  0  0
 10 43  1  0  0  0
 11 12  1  0  0  0
 11 22  1  0  0  0
 11 13  1  0  0  0
 13 17  2  0  0  0
 13 14  1  0  0  0
 14 15  2  0  0  0
 14 32  1  0  0  0
 15 16  1  0  0  0
 16 17  1  0  0  0
 16 23  1  0  0  0
 17 18  1  0  0  0
 18 19  1  0  0  0
 18 44  1  0  0  0
 19 20  2  0  0  0
 19 21  1  0  0  0
 21 22  1  0  0  0
 21 45  1  0  0  0
 21 46  1  0  0  0
 23 24  1  0  0  0
 23 29  1  0  0  0
 23 25  1  0  0  0
 25 26  1  0  0  0
 25 47  1  0  0  0
 25 48  1  0  0  0
 26 27  1  0  0  0
 26 49  1  0  0  0
 26 50  1  0  0  0
 27 28  1  0  0  0
 28 29  1  0  0  0
 28 30  1  0  0  0
 28 31  1  0  0  0
 29 51  1  0  0  0
 29 52  1  0  0  0
 30 53  1  0  0  0
 30 54  1  0  0  0
 30 55  1  0  0  0
 31 56  1  0  0  0
 31 57  1  0  0  0
 31 58  1  0  0  0
 32 59  1  0  0  0
M  END
> <i_i_glide_confnum>
5

> <i_i_glide_lignum>
2783

> <i_i_glide_posenum>
341

> <i_i_glide_rotatable_bonds>
5

> <i_m_Source_File_Index>
283

> <b_m_subgroup_collapsed>
0

> <r_i_docking_score>
-7.03679

> <r_i_glide_ecoul>
-1.38326

> <r_i_glide_eff_state_penalty>
0

> <r_i_glide_einternal>
3.46757

> <r_i_glide_emodel>
-65.6649

> <r_i_glide_energy>
-47.9466

> <r_i_glide_erotb>
0.320415

> <r_i_glide_esite>
0

> <r_i_glide_evdw>
-46.5633

> <r_i_glide_gscore>
-7.03679

> <r_i_glide_hbond>
-0.27584

> <r_i_glide_ligand_efficiency>
-0.23456

> <r_i_glide_ligand_efficiency_ln>
-1.59883

> <r_i_glide_ligand_efficiency_sa>
-0.728831

> <r_i_glide_lipo>
-2.83526

> <r_i_glide_metal>
0

> <r_i_glide_rewards>
-1.71045

> <s_i_glide_gridfile>
wee1_glide-grid

> <s_m_Source_File>
wee1_decoys_glide_SP.sdf

> <s_m_Source_Path>
/Users/zhangxujun/Desktop

> <s_m_entry_id>
558

> <s_m_entry_name>
wee1_decoys_glide_SP.283

> <s_m_subgroup_title>
wee1_decoys_glide_SP

> <s_m_subgroupid>
wee1_decoys_glide_SP


$$$$
