ZINC36862334_1887
                    3D
 Schrodinger Suite 2024-2.
 39 41  0  0  1  0            999 V2000
    1.5867   54.0959   23.8123 C   0  0  0  0  0  0
    3.0006   54.1097   24.3851 C   0  0  0  0  0  0
    4.0353   54.3245   23.4730 C   0  0  0  0  0  0
    5.3443   54.4962   23.9041 C   0  0  0  0  0  0
    5.6469   54.4291   25.2588 C   0  0  0  0  0  0
    4.6399   54.1817   26.1962 C   0  0  0  0  0  0
    3.3052   54.0046   25.7669 C   0  0  0  0  0  0
    2.3461   53.7779   26.7772 N   0  0  0  0  0  0
    1.4049   52.8144   26.8154 C   0  0  0  0  0  0
    1.1063   52.0963   25.8632 O   0  0  0  0  0  0
    0.7655   52.6598   28.1080 C   0  0  0  0  0  0
    1.1311   53.2146   29.3459 C   0  0  0  0  0  0
    0.2970   52.7255   30.3506 C   0  0  0  0  0  0
   -0.5604   51.8597   29.7138 C   0  0  0  0  0  0
   -0.3165   51.8259   28.3643 N   0  0  0  0  0  0
   -1.0765   51.0104   27.4178 C   0  0  0  0  0  0
   -2.5896   50.9605   27.5299 C   0  0  0  0  0  0
   -1.9493   51.7044   26.3893 C   0  0  0  0  0  0
    0.3047   53.0089   31.6813 N   0  0  0  0  0  0
    5.0360   54.0990   27.6687 C   0  0  0  0  0  0
    6.7044   54.8967   22.6368 Br  0  0  0  0  0  0
    0.8621   54.4964   24.5167 H   0  0  0  0  0  0
    1.5141   54.7294   22.9269 H   0  0  0  0  0  0
    1.2923   53.0858   23.5285 H   0  0  0  0  0  0
    3.8147   54.4128   22.4175 H   0  0  0  0  0  0
    6.6690   54.5715   25.5741 H   0  0  0  0  0  0
    2.5189   54.2572   27.6446 H   0  0  0  0  0  0
    1.9418   53.9031   29.5196 H   0  0  0  0  0  0
   -1.3457   51.2446   30.1327 H   0  0  0  0  0  0
   -0.5530   50.0964   27.1333 H   0  0  0  0  0  0
   -3.0711   49.9982   27.3459 H   0  0  0  0  0  0
   -3.0834   51.5196   28.3254 H   0  0  0  0  0  0
   -1.9743   52.7955   26.3798 H   0  0  0  0  0  0
   -1.9860   51.2816   25.3853 H   0  0  0  0  0  0
   -0.3346   52.5014   32.3038 H   0  0  0  0  0  0
    0.6902   53.8662   32.0504 H   0  0  0  0  0  0
    4.5227   54.8699   28.2443 H   0  0  0  0  0  0
    4.7532   53.1284   28.0801 H   0  0  0  0  0  0
    6.1090   54.2236   27.8215 H   0  0  0  0  0  0
  1  2  1  0  0  0
  1 22  1  0  0  0
  1 23  1  0  0  0
  1 24  1  0  0  0
  2  7  2  0  0  0
  2  3  1  0  0  0
  3  4  2  0  0  0
  3 25  1  0  0  0
  4  5  1  0  0  0
  4 21  1  0  0  0
  5  6  2  0  0  0
  5 26  1  0  0  0
  6  7  1  0  0  0
  6 20  1  0  0  0
  7  8  1  0  0  0
  8  9  1  0  0  0
  8 27  1  0  0  0
  9 10  2  0  0  0
  9 11  1  0  0  0
 11 15  1  0  0  0
 11 12  2  0  0  0
 12 13  1  0  0  0
 12 28  1  0  0  0
 13 14  2  0  0  0
 13 19  1  0  0  0
 14 15  1  0  0  0
 14 29  1  0  0  0
 15 16  1  0  0  0
 16 18  1  0  0  0
 16 17  1  0  0  0
 16 30  1  0  0  0
 17 18  1  0  0  0
 17 31  1  0  0  0
 17 32  1  0  0  0
 18 33  1  0  0  0
 18 34  1  0  0  0
 19 35  1  0  0  0
 19 36  1  0  0  0
 20 37  1  0  0  0
 20 38  1  0  0  0
 20 39  1  0  0  0
M  END
> <i_i_glide_confnum>
25

> <i_i_glide_lignum>
1888

> <i_i_glide_posenum>
44

> <i_i_glide_rotatable_bonds>
4

> <i_m_Source_File_Index>
3672

> <b_m_subgroup_collapsed>
0

> <r_i_docking_score>
-5.76011

> <r_i_glide_ecoul>
-3.84779

> <r_i_glide_eff_state_penalty>
0

> <r_i_glide_einternal>
1.34482

> <r_i_glide_emodel>
-51.7546

> <r_i_glide_energy>
-38.5156

> <r_i_glide_erotb>
0.62783

> <r_i_glide_esite>
-0.132938

> <r_i_glide_evdw>
-34.6678

> <r_i_glide_gscore>
-5.76011

> <r_i_glide_hbond>
-0.16

> <r_i_glide_ligand_efficiency>
-0.274291

> <r_i_glide_ligand_efficiency_ln>
-1.42418

> <r_i_glide_ligand_efficiency_sa>
-0.756748

> <r_i_glide_lipo>
-2.46366

> <r_i_glide_metal>
0

> <r_i_glide_rewards>
-1.32078

> <s_i_glide_gridfile>
wee1_glide-grid

> <s_m_Source_File>
wee1_decoys_glide_SP.sdf

> <s_m_Source_Path>
/Users/zhangxujun/Desktop

> <s_m_entry_id>
3947

> <s_m_entry_name>
wee1_decoys_glide_SP.3672

> <s_m_subgroup_title>
wee1_decoys_glide_SP

> <s_m_subgroupid>
wee1_decoys_glide_SP


$$$$
