ZINC17157807_2300
                    3D
 Schrodinger Suite 2024-2.
 68 72  0  0  1  0            999 V2000
    1.8834   56.3409   29.4886 C   0  0  0  0  0  0
    1.1045   55.2179   28.7862 C   0  0  2  0  0  0
    0.3315   55.6669   28.1613 H   0  0  0  0  0  0
    0.4258   54.2382   29.7788 C   0  0  0  0  0  0
    1.4417   53.2643   30.4106 C   0  0  2  0  0  0
    2.2295   53.8416   30.8815 H   0  0  0  0  0  0
    2.0924   52.4527   29.2758 C   0  0  0  0  0  0
    2.7595   53.3798   28.3268 N   0  0  0  0  0  0
    1.9217   54.4474   27.7465 C   0  0  0  0  0  0
    4.4956   53.6675   28.4129 S   0  0  0  0  0  0
    5.1045   52.4259   28.8816 O   0  0  0  0  0  0
    4.7242   54.8967   29.1737 O   0  0  0  0  0  0
    5.0289   53.9682   26.7178 C   0  0  0  0  0  0
    4.1603   53.7228   25.6502 C   0  0  0  0  0  0
    4.5409   54.0160   24.3480 C   0  0  0  0  0  0
    5.8275   54.4956   24.0773 C   0  0  0  0  0  0
    6.6967   54.7350   25.1529 C   0  0  0  0  0  0
    6.3005   54.4833   26.4680 C   0  0  0  0  0  0
    6.3043   54.7047   22.6547 C   0  0  0  0  0  0
    7.4991   54.8965   22.4296 O   0  0  0  0  0  0
    5.3626   54.6686   21.6737 N   0  0  0  0  0  0
    5.7666   54.7145   20.3227 N   0  0  0  0  0  0
    6.3792   55.8063   19.8008 C   0  0  0  0  0  0
    6.3766   56.9054   20.3642 O   0  0  0  0  0  0
    7.1895   55.6238   18.4865 C   0  0  0  0  0  0
    8.7036   55.6846   18.8698 C   0  0  0  0  0  0
    9.5808   55.5485   17.5996 C   0  0  1  0  0  0
    9.2848   54.1895   16.9120 C   0  0  0  0  0  0
    7.7883   54.1218   16.5078 C   0  0  1  0  0  0
    6.9083   54.2524   17.7773 C   0  0  0  0  0  0
    7.4604   55.2840   15.5334 C   0  0  0  0  0  0
    7.7488   56.6453   16.2213 C   0  0  2  0  0  0
    9.2472   56.7077   16.6228 C   0  0  0  0  0  0
    6.8647   56.7824   17.4908 C   0  0  0  0  0  0
    0.7943   52.3827   31.4828 C   0  0  0  0  0  0
    2.7032   55.9518   30.0818 H   0  0  0  0  0  0
    2.3030   57.0415   28.7688 H   0  0  0  0  0  0
    1.2380   56.9123   30.1569 H   0  0  0  0  0  0
   -0.3699   53.6742   29.2885 H   0  0  0  0  0  0
   -0.0948   54.7998   30.5564 H   0  0  0  0  0  0
    1.3385   51.8913   28.7209 H   0  0  0  0  0  0
    2.8193   51.7356   29.6579 H   0  0  0  0  0  0
    2.5815   55.1531   27.2449 H   0  0  0  0  0  0
    1.2865   53.9882   26.9883 H   0  0  0  0  0  0
    3.1848   53.2892   25.8011 H   0  0  0  0  0  0
    3.8339   53.8032   23.5593 H   0  0  0  0  0  0
    7.6914   55.1065   24.9600 H   0  0  0  0  0  0
    6.9756   54.6777   27.2905 H   0  0  0  0  0  0
    4.5534   54.0765   21.7851 H   0  0  0  0  0  0
    5.8543   53.7959   19.9125 H   0  0  0  0  0  0
    8.9603   54.8937   19.5782 H   0  0  0  0  0  0
    8.9478   56.6228   19.3735 H   0  0  0  0  0  0
   10.6344   55.5945   17.8804 H   0  0  0  0  0  0
    9.5359   53.3636   17.5817 H   0  0  0  0  0  0
    9.9181   54.0661   16.0313 H   0  0  0  0  0  0
    7.5846   53.1667   16.0203 H   0  0  0  0  0  0
    5.8551   54.1673   17.5020 H   0  0  0  0  0  0
    7.1196   53.4095   18.4382 H   0  0  0  0  0  0
    6.4164   55.2323   15.2201 H   0  0  0  0  0  0
    8.0524   55.1881   14.6215 H   0  0  0  0  0  0
    7.5216   57.4590   15.5305 H   0  0  0  0  0  0
    9.8786   56.6455   15.7353 H   0  0  0  0  0  0
    9.4738   57.6690   17.0866 H   0  0  0  0  0  0
    7.0401   57.7586   17.9486 H   0  0  0  0  0  0
    5.8097   56.7683   17.2117 H   0  0  0  0  0  0
   -0.0056   51.7654   31.0697 H   0  0  0  0  0  0
    1.5237   51.7158   31.9440 H   0  0  0  0  0  0
    0.3566   52.9830   32.2820 H   0  0  0  0  0  0
  1  2  1  0  0  0
  1 36  1  0  0  0
  1 37  1  0  0  0
  1 38  1  0  0  0
  2  3  1  0  0  0
  2  9  1  0  0  0
  2  4  1  0  0  0
  4  5  1  0  0  0
  4 39  1  0  0  0
  4 40  1  0  0  0
  5  6  1  0  0  0
  5  7  1  0  0  0
  5 35  1  0  0  0
  7  8  1  0  0  0
  7 41  1  0  0  0
  7 42  1  0  0  0
  8  9  1  0  0  0
  8 10  1  0  0  0
  9 43  1  0  0  0
  9 44  1  0  0  0
 10 11  2  0  0  0
 10 12  2  0  0  0
 10 13  1  0  0  0
 13 18  2  0  0  0
 13 14  1  0  0  0
 14 15  2  0  0  0
 14 45  1  0  0  0
 15 16  1  0  0  0
 15 46  1  0  0  0
 16 17  2  0  0  0
 16 19  1  0  0  0
 17 18  1  0  0  0
 17 47  1  0  0  0
 18 48  1  0  0  0
 19 20  2  0  0  0
 19 21  1  0  0  0
 21 22  1  0  0  0
 21 49  1  0  0  0
 22 23  1  0  0  0
 22 50  1  0  0  0
 23 24  2  0  0  0
 23 25  1  0  0  0
 25 30  1  0  0  0
 25 34  1  0  0  0
 25 26  1  0  0  0
 26 27  1  0  0  0
 26 51  1  0  0  0
 26 52  1  0  0  0
 27 33  1  0  0  0
 27 28  1  0  0  0
 27 53  1  0  0  0
 28 29  1  0  0  0
 28 54  1  0  0  0
 28 55  1  0  0  0
 29 30  1  0  0  0
 29 31  1  0  0  0
 29 56  1  0  0  0
 30 57  1  0  0  0
 30 58  1  0  0  0
 31 32  1  0  0  0
 31 59  1  0  0  0
 31 60  1  0  0  0
 32 33  1  0  0  0
 32 34  1  0  0  0
 32 61  1  0  0  0
 33 62  1  0  0  0
 33 63  1  0  0  0
 34 64  1  0  0  0
 34 65  1  0  0  0
 35 66  1  0  0  0
 35 67  1  0  0  0
 35 68  1  0  0  0
M  END
> <i_i_glide_confnum>
214

> <i_i_glide_lignum>
2301

> <i_i_glide_posenum>
78

> <i_i_glide_rotatable_bonds>
7

> <i_m_Source_File_Index>
3163

> <b_m_subgroup_collapsed>
0

> <r_i_docking_score>
-3.86477

> <r_i_glide_ecoul>
-0.569879

> <r_i_glide_eff_state_penalty>
0

> <r_i_glide_einternal>
8.09501

> <r_i_glide_emodel>
-48.615

> <r_i_glide_energy>
-47.1978

> <r_i_glide_erotb>
0.541063

> <r_i_glide_esite>
0

> <r_i_glide_evdw>
-46.6279

> <r_i_glide_gscore>
-3.86477

> <r_i_glide_hbond>
-0.200574

> <r_i_glide_ligand_efficiency>
-0.117114

> <r_i_glide_ligand_efficiency_ln>
-0.859504

> <r_i_glide_ligand_efficiency_sa>
-0.375648

> <r_i_glide_lipo>
-2.96379

> <r_i_glide_metal>
0

> <r_i_glide_rewards>
1.17541

> <s_i_glide_gridfile>
wee1_glide-grid

> <s_m_Source_File>
wee1_decoys_glide_SP.sdf

> <s_m_Source_Path>
/Users/zhangxujun/Desktop

> <s_m_entry_id>
3438

> <s_m_entry_name>
wee1_decoys_glide_SP.3163

> <s_m_subgroup_title>
wee1_decoys_glide_SP

> <s_m_subgroupid>
wee1_decoys_glide_SP


$$$$
