ZINC03770429_462
                    3D
 Schrodinger Suite 2024-2.
 56 59  0  0  1  0            999 V2000
   -3.6564   52.3597   23.6982 C   0  0  0  0  0  0
   -2.5508   52.0361   24.6822 C   0  0  0  0  0  0
   -2.8348   51.3364   25.8572 C   0  0  0  0  0  0
   -1.8158   51.0485   26.7627 C   0  0  0  0  0  0
   -0.5108   51.4658   26.5045 C   0  0  0  0  0  0
   -0.2154   52.1869   25.3438 C   0  0  0  0  0  0
   -1.2430   52.4576   24.4258 C   0  0  0  0  0  0
    1.1170   52.6057   25.1908 N   0  0  0  0  0  0
    1.6145   53.6141   24.4397 C   0  0  0  0  0  0
    0.9509   54.3004   23.6756 O   0  0  0  0  0  0
    3.0481   53.8188   24.5633 C   0  0  0  0  0  0
    3.6461   53.9575   25.7867 C   0  0  0  0  0  0
    4.9953   54.1532   25.9783 N   0  0  0  0  0  0
    5.4575   54.0288   27.2659 C   0  0  0  0  0  0
    6.6363   54.0334   27.6363 O   0  0  0  0  0  0
    4.3249   53.8931   28.2845 C   0  0  1  0  0  0
    4.3894   54.7642   28.9389 H   0  0  0  0  0  0
    2.8043   54.0146   27.3619 S   0  0  0  0  0  0
    4.4553   52.5821   29.1095 C   0  0  0  0  0  0
    3.5292   52.4042   30.3238 C   0  0  0  0  0  0
    3.9041   51.7373   31.2874 O   0  0  0  0  0  0
    2.3135   52.9746   30.2040 O   0  0  0  0  0  0
    1.2945   52.7276   31.1667 C   0  0  0  0  0  0
    5.7788   54.4113   24.8425 C   0  0  0  0  0  0
    5.3069   54.4006   23.5692 C   0  0  0  0  0  0
    3.8357   54.0668   23.2471 C   0  0  1  0  0  0
    3.4689   55.0290   22.8871 H   0  0  0  0  0  0
    3.5832   53.1845   21.9973 C   0  0  0  0  0  0
    3.9048   53.6702   20.7202 C   0  0  0  0  0  0
    3.6790   52.9001   19.5784 C   0  0  0  0  0  0
    3.1042   51.6365   19.6904 C   0  0  0  0  0  0
    2.7599   51.1424   20.9448 C   0  0  0  0  0  0
    2.9969   51.9128   22.0817 C   0  0  0  0  0  0
    2.2024   49.9168   21.0626 F   0  0  0  0  0  0
    6.1539   54.8443   22.4998 C   0  0  0  0  0  0
    6.8315   55.2966   21.6762 N   0  0  0  0  0  0
    7.1043   54.7224   25.0616 N   0  0  0  0  0  0
   -4.6349   52.3621   24.1795 H   0  0  0  0  0  0
   -3.5079   53.3573   23.2833 H   0  0  0  0  0  0
   -3.6603   51.6365   22.8829 H   0  0  0  0  0  0
   -3.8405   51.0055   26.0690 H   0  0  0  0  0  0
   -2.0367   50.4969   27.6665 H   0  0  0  0  0  0
    0.2610   51.2367   27.2258 H   0  0  0  0  0  0
   -1.0462   52.9893   23.5083 H   0  0  0  0  0  0
    1.7692   52.1770   25.8277 H   0  0  0  0  0  0
    5.4803   52.4960   29.4720 H   0  0  0  0  0  0
    4.2882   51.7097   28.4817 H   0  0  0  0  0  0
    0.4440   53.3847   30.9851 H   0  0  0  0  0  0
    1.6398   52.8964   32.1877 H   0  0  0  0  0  0
    0.9444   51.6968   31.0988 H   0  0  0  0  0  0
    4.3281   54.6565   20.6005 H   0  0  0  0  0  0
    3.9447   53.2811   18.6026 H   0  0  0  0  0  0
    2.9453   51.0344   18.8062 H   0  0  0  0  0  0
    2.7041   51.4980   23.0339 H   0  0  0  0  0  0
    7.7452   54.8968   24.2942 H   0  0  0  0  0  0
    7.4999   54.5036   25.9676 H   0  0  0  0  0  0
  1  2  1  0  0  0
  1 38  1  0  0  0
  1 39  1  0  0  0
  1 40  1  0  0  0
  2  7  2  0  0  0
  2  3  1  0  0  0
  3  4  2  0  0  0
  3 41  1  0  0  0
  4  5  1  0  0  0
  4 42  1  0  0  0
  5  6  2  0  0  0
  5 43  1  0  0  0
  6  7  1  0  0  0
  6  8  1  0  0  0
  7 44  1  0  0  0
  8  9  1  0  0  0
  8 45  1  0  0  0
  9 10  2  0  0  0
  9 11  1  0  0  0
 11 26  1  0  0  0
 11 12  2  0  0  0
 12 18  1  0  0  0
 12 13  1  0  0  0
 13 14  1  0  0  0
 13 24  1  0  0  0
 14 15  2  0  0  0
 14 16  1  0  0  0
 16 17  1  0  0  0
 16 18  1  0  0  0
 16 19  1  0  0  0
 19 20  1  0  0  0
 19 46  1  0  0  0
 19 47  1  0  0  0
 20 21  2  0  0  0
 20 22  1  0  0  0
 22 23  1  0  0  0
 23 48  1  0  0  0
 23 49  1  0  0  0
 23 50  1  0  0  0
 24 25  2  0  0  0
 24 37  1  0  0  0
 25 26  1  0  0  0
 25 35  1  0  0  0
 26 27  1  0  0  0
 26 28  1  0  0  0
 28 33  2  0  0  0
 28 29  1  0  0  0
 29 30  2  0  0  0
 29 51  1  0  0  0
 30 31  1  0  0  0
 30 52  1  0  0  0
 31 32  2  0  0  0
 31 53  1  0  0  0
 32 33  1  0  0  0
 32 34  1  0  0  0
 33 54  1  0  0  0
 35 36  3  0  0  0
 37 55  1  0  0  0
 37 56  1  0  0  0
M  END
> <i_i_glide_confnum>
2

> <i_i_glide_lignum>
463

> <i_i_glide_posenum>
351

> <i_i_glide_rotatable_bonds>
8

> <i_m_Source_File_Index>
3426

> <b_m_subgroup_collapsed>
0

> <r_i_docking_score>
-7.32168

> <r_i_glide_ecoul>
-3.03839

> <r_i_glide_eff_state_penalty>
0

> <r_i_glide_einternal>
10.0694

> <r_i_glide_emodel>
-73.7998

> <r_i_glide_energy>
-55.4806

> <r_i_glide_erotb>
0.503716

> <r_i_glide_esite>
0

> <r_i_glide_evdw>
-52.4422

> <r_i_glide_gscore>
-7.32168

> <r_i_glide_hbond>
-0.671107

> <r_i_glide_ligand_efficiency>
-0.209191

> <r_i_glide_ligand_efficiency_ln>
-1.60727

> <r_i_glide_ligand_efficiency_sa>
-0.684277

> <r_i_glide_lipo>
-2.16535

> <r_i_glide_metal>
0

> <r_i_glide_rewards>
-1.91107

> <s_i_glide_gridfile>
wee1_glide-grid

> <s_m_Source_File>
wee1_decoys_glide_SP.sdf

> <s_m_Source_Path>
/Users/zhangxujun/Desktop

> <s_m_entry_id>
3701

> <s_m_entry_name>
wee1_decoys_glide_SP.3426

> <s_m_subgroup_title>
wee1_decoys_glide_SP

> <s_m_subgroupid>
wee1_decoys_glide_SP


$$$$
