ZINC10098861_3365
                    3D
 Schrodinger Suite 2024-2.
 63 65  0  0  1  0            999 V2000
    7.9237   56.2828   16.2839 C   0  0  0  0  0  0
    7.2978   55.4640   17.4275 C   0  0  2  0  0  0
    7.7849   54.4859   17.4116 H   0  0  0  0  0  0
    5.7769   55.3139   17.2428 C   0  0  0  0  0  0
    5.1809   54.2957   18.2368 C   0  0  0  0  0  0
    5.6878   54.5735   19.6652 C   0  0  0  0  0  0
    6.7851   55.4321   19.8724 C   0  0  0  0  0  0
    7.1191   55.6965   21.5394 S   0  0  0  0  0  0
    5.8192   54.6416   22.0048 C   0  0  0  0  0  0
    5.1394   54.0838   20.8961 C   0  0  0  0  0  0
    3.9934   53.1732   21.0494 C   0  0  0  0  0  0
    3.4367   53.0402   22.1458 O   0  0  0  0  0  0
    3.6392   52.4946   19.9371 N   0  0  0  0  0  0
    2.6963   51.5437   19.8093 C   0  0  0  0  0  0
    2.0744   50.9912   20.7236 O   0  0  0  0  0  0
    2.5903   51.3112   18.4633 O   0  0  0  0  0  0
    1.8291   50.1735   18.0820 C   0  0  0  0  0  0
    5.4933   54.4197   23.3386 N   0  0  0  0  0  0
    6.0441   54.8958   24.4737 C   0  0  0  0  0  0
    7.0528   55.5952   24.5619 O   0  0  0  0  0  0
    5.3086   54.4747   25.7132 C   0  0  0  0  0  0
    3.9060   54.4575   25.7387 C   0  0  0  0  0  0
    3.2339   54.0965   26.8990 C   0  0  0  0  0  0
    3.9607   53.7440   28.0343 C   0  0  0  0  0  0
    5.3548   53.7404   28.0116 C   0  0  0  0  0  0
    6.0276   54.1117   26.8554 C   0  0  0  0  0  0
    3.0966   53.3998   29.5565 S   0  0  0  0  0  0
    2.7796   54.7296   30.0817 O   0  0  0  0  0  0
    3.9044   52.4581   30.3410 O   0  0  0  0  0  0
    1.5759   52.5771   29.1424 N   0  0  0  0  0  0
    1.7828   51.3852   28.2821 C   0  0  0  0  0  0
    0.5589   52.3926   30.2351 C   0  0  0  0  0  0
    0.2574   53.6675   31.0442 C   0  0  0  0  0  0
   -0.7629   51.7928   29.7152 C   0  0  0  0  0  0
    7.5814   56.1452   18.7844 C   0  0  0  0  0  0
    7.4928   57.2831   16.2212 H   0  0  0  0  0  0
    9.0001   56.3933   16.4205 H   0  0  0  0  0  0
    7.7678   55.7966   15.3204 H   0  0  0  0  0  0
    5.2849   56.2870   17.3025 H   0  0  0  0  0  0
    5.5661   54.9699   16.2288 H   0  0  0  0  0  0
    5.4565   53.2840   17.9308 H   0  0  0  0  0  0
    4.0941   54.3635   18.1744 H   0  0  0  0  0  0
    4.1212   52.7212   19.0822 H   0  0  0  0  0  0
    1.8289   50.0874   16.9951 H   0  0  0  0  0  0
    2.2641   49.2566   18.4841 H   0  0  0  0  0  0
    0.7935   50.2514   18.4172 H   0  0  0  0  0  0
    4.6998   53.8017   23.4542 H   0  0  0  0  0  0
    3.3247   54.7394   24.8713 H   0  0  0  0  0  0
    2.1537   54.1044   26.9170 H   0  0  0  0  0  0
    5.9273   53.4701   28.8817 H   0  0  0  0  0  0
    7.1072   54.1145   26.8565 H   0  0  0  0  0  0
    0.9401   51.2525   27.6035 H   0  0  0  0  0  0
    2.6775   51.5127   27.6809 H   0  0  0  0  0  0
    1.9206   50.4967   28.8907 H   0  0  0  0  0  0
    0.9987   51.6967   30.9475 H   0  0  0  0  0  0
   -0.5316   53.4803   31.7690 H   0  0  0  0  0  0
   -0.0482   54.4986   30.4079 H   0  0  0  0  0  0
    1.1040   53.9783   31.6486 H   0  0  0  0  0  0
   -1.4117   51.5164   30.5465 H   0  0  0  0  0  0
   -1.2947   52.4967   29.0780 H   0  0  0  0  0  0
   -0.6201   50.8841   29.1399 H   0  0  0  0  0  0
    7.2799   57.1930   18.7452 H   0  0  0  0  0  0
    8.6505   56.1235   19.0033 H   0  0  0  0  0  0
  1  2  1  0  0  0
  1 36  1  0  0  0
  1 37  1  0  0  0
  1 38  1  0  0  0
  2  3  1  0  0  0
  2 35  1  0  0  0
  2  4  1  0  0  0
  4  5  1  0  0  0
  4 39  1  0  0  0
  4 40  1  0  0  0
  5  6  1  0  0  0
  5 41  1  0  0  0
  5 42  1  0  0  0
  6 10  1  0  0  0
  6  7  2  0  0  0
  7  8  1  0  0  0
  7 35  1  0  0  0
  8  9  1  0  0  0
  9 10  2  0  0  0
  9 18  1  0  0  0
 10 11  1  0  0  0
 11 12  2  0  0  0
 11 13  1  0  0  0
 13 14  1  0  0  0
 13 43  1  0  0  0
 14 15  2  0  0  0
 14 16  1  0  0  0
 16 17  1  0  0  0
 17 44  1  0  0  0
 17 45  1  0  0  0
 17 46  1  0  0  0
 18 19  1  0  0  0
 18 47  1  0  0  0
 19 20  2  0  0  0
 19 21  1  0  0  0
 21 26  2  0  0  0
 21 22  1  0  0  0
 22 23  2  0  0  0
 22 48  1  0  0  0
 23 24  1  0  0  0
 23 49  1  0  0  0
 24 25  2  0  0  0
 24 27  1  0  0  0
 25 26  1  0  0  0
 25 50  1  0  0  0
 26 51  1  0  0  0
 27 28  2  0  0  0
 27 29  2  0  0  0
 27 30  1  0  0  0
 30 31  1  0  0  0
 30 32  1  0  0  0
 31 52  1  0  0  0
 31 53  1  0  0  0
 31 54  1  0  0  0
 32 33  1  0  0  0
 32 34  1  0  0  0
 32 55  1  0  0  0
 33 56  1  0  0  0
 33 57  1  0  0  0
 33 58  1  0  0  0
 34 59  1  0  0  0
 34 60  1  0  0  0
 34 61  1  0  0  0
 35 62  1  0  0  0
 35 63  1  0  0  0
M  END
> <i_i_glide_confnum>
142

> <i_i_glide_lignum>
3366

> <i_i_glide_posenum>
162

> <i_i_glide_rotatable_bonds>
10

> <i_m_Source_File_Index>
4358

> <b_m_subgroup_collapsed>
0

> <r_i_docking_score>
-4.42901

> <r_i_glide_ecoul>
-5.92724

> <r_i_glide_eff_state_penalty>
0

> <r_i_glide_einternal>
11.2096

> <r_i_glide_emodel>
-64.6788

> <r_i_glide_energy>
-59.5019

> <r_i_glide_erotb>
0.635445

> <r_i_glide_esite>
-0.125683

> <r_i_glide_evdw>
-53.5747

> <r_i_glide_gscore>
-4.42901

> <r_i_glide_hbond>
-0.143267

> <r_i_glide_ligand_efficiency>
-0.130265

> <r_i_glide_ligand_efficiency_ln>
-0.978493

> <r_i_glide_ligand_efficiency_sa>
-0.422008

> <r_i_glide_lipo>
-2.42661

> <r_i_glide_metal>
0

> <r_i_glide_rewards>
1.19892

> <s_i_glide_gridfile>
wee1_glide-grid

> <s_m_Source_File>
wee1_decoys_glide_SP.sdf

> <s_m_Source_Path>
/Users/zhangxujun/Desktop

> <s_m_entry_id>
4633

> <s_m_entry_name>
wee1_decoys_glide_SP.4358

> <s_m_subgroup_title>
wee1_decoys_glide_SP

> <s_m_subgroupid>
wee1_decoys_glide_SP


$$$$
