ZINC40604129_1642
                    3D
 Schrodinger Suite 2024-2.
 40 42  0  0  1  0            999 V2000
    6.7040   53.7687   27.5357 C   0  0  0  0  0  0
    5.7469   54.8405   26.9713 C   0  0  1  0  0  0
    5.8208   55.6962   27.6437 H   0  0  0  0  0  0
    6.0829   55.2176   25.5217 C   0  0  0  0  0  0
    5.2603   54.2571   24.6846 C   0  0  0  0  0  0
    3.9583   54.0977   25.4687 C   0  0  0  0  0  0
    4.3605   54.3363   26.8706 N   0  0  0  0  0  0
    3.5817   54.0874   27.9598 C   0  0  0  0  0  0
    3.9377   54.3765   29.1057 O   0  0  0  0  0  0
    2.4007   53.4847   27.6936 N   0  0  0  0  0  0
    1.3740   52.9588   28.6089 C   0  0  0  0  0  0
    0.8379   53.9411   29.6795 C   0  0  0  0  0  0
    0.7904   52.7503   30.6522 C   0  0  0  0  0  0
    1.8821   52.0979   29.7861 C   0  0  0  0  0  0
    0.3163   52.2819   27.7325 C   0  0  0  0  0  0
    0.4172   50.9953   27.2740 N   0  0  0  0  0  0
    1.1468   50.3290   27.4832 H   0  0  0  0  0  0
   -0.6740   50.7886   26.4795 C   0  0  0  0  0  0
   -1.4026   51.9780   26.4961 C   0  0  0  0  0  0
   -0.7807   52.8542   27.2818 N   0  0  0  0  0  0
   -2.6521   52.2626   25.7664 C   0  0  0  0  0  0
   -3.2956   53.2918   26.0818 O   0  0  0  0  0  0
   -2.9753   51.4605   24.8613 O   0  5  0  0  0  0
    7.7118   54.1729   27.6228 H   0  0  0  0  0  0
    6.4071   53.4325   28.5294 H   0  0  0  0  0  0
    6.7698   52.8986   26.8829 H   0  0  0  0  0  0
    7.1495   55.1961   25.2964 H   0  0  0  0  0  0
    5.7399   56.2321   25.3141 H   0  0  0  0  0  0
    5.7740   53.2969   24.6194 H   0  0  0  0  0  0
    5.0943   54.5991   23.6625 H   0  0  0  0  0  0
    3.5556   53.0959   25.3115 H   0  0  0  0  0  0
    3.2458   54.8617   25.1511 H   0  0  0  0  0  0
    2.1898   53.3261   26.7205 H   0  0  0  0  0  0
    1.5457   54.7082   29.9952 H   0  0  0  0  0  0
   -0.1179   54.4163   29.4661 H   0  0  0  0  0  0
    1.0678   52.9646   31.6849 H   0  0  0  0  0  0
   -0.1600   52.2094   30.6446 H   0  0  0  0  0  0
    1.7951   51.0232   29.6473 H   0  0  0  0  0  0
    2.8872   52.3317   30.1392 H   0  0  0  0  0  0
   -0.8482   49.8368   25.9951 H   0  0  0  0  0  0
  1  2  1  0  0  0
  1 24  1  0  0  0
  1 25  1  0  0  0
  1 26  1  0  0  0
  2  3  1  0  0  0
  2  7  1  0  0  0
  2  4  1  0  0  0
  4  5  1  0  0  0
  4 27  1  0  0  0
  4 28  1  0  0  0
  5  6  1  0  0  0
  5 29  1  0  0  0
  5 30  1  0  0  0
  6  7  1  0  0  0
  6 31  1  0  0  0
  6 32  1  0  0  0
  7  8  1  0  0  0
  8  9  2  0  0  0
  8 10  1  0  0  0
 10 11  1  0  0  0
 10 33  1  0  0  0
 11 14  1  0  0  0
 11 12  1  0  0  0
 11 15  1  0  0  0
 12 13  1  0  0  0
 12 34  1  0  0  0
 12 35  1  0  0  0
 13 14  1  0  0  0
 13 36  1  0  0  0
 13 37  1  0  0  0
 14 38  1  0  0  0
 14 39  1  0  0  0
 15 20  2  0  0  0
 15 16  1  0  0  0
 16 17  1  0  0  0
 16 18  1  0  0  0
 18 19  2  0  0  0
 18 40  1  0  0  0
 19 20  1  0  0  0
 19 21  1  0  0  0
 21 22  2  0  0  0
 21 23  1  0  0  0
M  CHG  1  23  -1
M  END
> <i_i_glide_confnum>
88

> <i_i_glide_lignum>
1643

> <i_i_glide_posenum>
100

> <i_i_glide_rotatable_bonds>
5

> <i_m_Source_File_Index>
3927

> <b_m_subgroup_collapsed>
0

> <r_i_docking_score>
-5.28244

> <r_i_glide_ecoul>
-1.91387

> <r_i_glide_eff_state_penalty>
0

> <r_i_glide_einternal>
4.55676

> <r_i_glide_emodel>
-48.5115

> <r_i_glide_energy>
-36.303

> <r_i_glide_erotb>
0.859625

> <r_i_glide_esite>
-0.0443823

> <r_i_glide_evdw>
-34.3892

> <r_i_glide_gscore>
-5.28244

> <r_i_glide_hbond>
0

> <r_i_glide_ligand_efficiency>
-0.251545

> <r_i_glide_ligand_efficiency_ln>
-1.30607

> <r_i_glide_ligand_efficiency_sa>
-0.693993

> <r_i_glide_lipo>
-1.83636

> <r_i_glide_metal>
0

> <r_i_glide_rewards>
-2.25479

> <s_i_glide_gridfile>
wee1_glide-grid

> <s_m_Source_File>
wee1_decoys_glide_SP.sdf

> <s_m_Source_Path>
/Users/zhangxujun/Desktop

> <s_m_entry_id>
4202

> <s_m_entry_name>
wee1_decoys_glide_SP.3927

> <s_m_subgroup_title>
wee1_decoys_glide_SP

> <s_m_subgroupid>
wee1_decoys_glide_SP


$$$$
