ZINC66185281_3653
                    3D
 Schrodinger Suite 2024-2.
 50 51  0  0  1  0            999 V2000
   -6.0616   50.8961   26.8239 C   0  0  0  0  0  0
   -4.6176   51.3055   26.5519 C   0  0  0  0  0  0
   -4.3372   51.9554   25.3449 C   0  0  0  0  0  0
   -3.0258   52.2705   24.9870 C   0  0  0  0  0  0
   -1.9653   51.9206   25.8302 C   0  0  0  0  0  0
   -2.2411   51.2959   27.0480 C   0  0  0  0  0  0
   -3.5533   50.9936   27.4259 C   0  0  0  0  0  0
   -3.6957   50.3300   28.6572 N   0  0  0  0  0  0
   -4.4932   50.6876   29.6827 C   0  0  0  0  0  0
   -5.2600   51.6550   29.6842 O   0  0  0  0  0  0
   -4.3887   49.8176   30.9289 C   0  0  0  0  0  0
   -0.6195   52.2306   25.5571 N   0  0  0  0  0  0
    0.1262   52.2597   24.3993 C   0  0  0  0  0  0
   -0.3705   51.6997   22.9094 S   0  0  0  0  0  0
    1.3990   52.7681   24.4683 N   0  0  0  0  0  0
    2.0442   53.3930   25.4892 C   0  0  0  0  0  0
    1.5136   53.6776   26.5673 O   0  0  0  0  0  0
    3.5035   53.7429   25.2520 C   0  0  0  0  0  0
    3.9600   54.0969   23.9696 C   0  0  0  0  0  0
    5.2972   54.4345   23.7555 C   0  0  0  0  0  0
    6.1953   54.4382   24.8157 C   0  0  0  0  0  0
    5.7646   54.0853   26.0899 C   0  0  0  0  0  0
    4.4238   53.7294   26.3251 C   0  0  0  0  0  0
    3.9607   53.2947   27.5538 O   0  0  0  0  0  0
    4.7260   53.3600   28.7465 C   0  0  0  0  0  0
    4.9467   54.8223   29.1577 C   0  0  0  0  0  0
    3.8863   52.5895   29.7779 C   0  0  0  0  0  0
    5.9048   54.8964   22.0107 Br  0  0  0  0  0  0
   -6.6194   50.7682   25.8938 H   0  0  0  0  0  0
   -6.1030   49.9335   27.3366 H   0  0  0  0  0  0
   -6.5734   51.6432   27.4321 H   0  0  0  0  0  0
   -5.1385   52.2120   24.6679 H   0  0  0  0  0  0
   -2.8488   52.7918   24.0586 H   0  0  0  0  0  0
   -1.4261   51.0306   27.7086 H   0  0  0  0  0  0
   -3.0052   49.6026   28.8392 H   0  0  0  0  0  0
   -4.2800   48.7652   30.6574 H   0  0  0  0  0  0
   -5.2774   49.9245   31.5543 H   0  0  0  0  0  0
   -3.5164   50.1054   31.5213 H   0  0  0  0  0  0
   -0.0851   52.4155   26.3951 H   0  0  0  0  0  0
    1.9481   52.6308   23.6335 H   0  0  0  0  0  0
    3.2860   54.1249   23.1230 H   0  0  0  0  0  0
    7.2303   54.6904   24.6409 H   0  0  0  0  0  0
    6.4980   54.0506   26.8795 H   0  0  0  0  0  0
    5.6813   52.8465   28.6185 H   0  0  0  0  0  0
    5.5058   54.8985   30.0845 H   0  0  0  0  0  0
    5.5315   55.3555   28.4138 H   0  0  0  0  0  0
    3.9979   55.3459   29.2822 H   0  0  0  0  0  0
    4.3046   52.6240   30.7821 H   0  0  0  0  0  0
    2.8759   52.9939   29.8378 H   0  0  0  0  0  0
    3.7984   51.5428   29.4915 H   0  0  0  0  0  0
  1  2  1  0  0  0
  1 29  1  0  0  0
  1 30  1  0  0  0
  1 31  1  0  0  0
  2  7  2  0  0  0
  2  3  1  0  0  0
  3  4  2  0  0  0
  3 32  1  0  0  0
  4  5  1  0  0  0
  4 33  1  0  0  0
  5  6  2  0  0  0
  5 12  1  0  0  0
  6  7  1  0  0  0
  6 34  1  0  0  0
  7  8  1  0  0  0
  8  9  1  0  0  0
  8 35  1  0  0  0
  9 10  2  0  0  0
  9 11  1  0  0  0
 11 36  1  0  0  0
 11 37  1  0  0  0
 11 38  1  0  0  0
 12 13  1  0  0  0
 12 39  1  0  0  0
 13 14  2  0  0  0
 13 15  1  0  0  0
 15 16  1  0  0  0
 15 40  1  0  0  0
 16 17  2  0  0  0
 16 18  1  0  0  0
 18 23  2  0  0  0
 18 19  1  0  0  0
 19 20  2  0  0  0
 19 41  1  0  0  0
 20 21  1  0  0  0
 20 28  1  0  0  0
 21 22  2  0  0  0
 21 42  1  0  0  0
 22 23  1  0  0  0
 22 43  1  0  0  0
 23 24  1  0  0  0
 24 25  1  0  0  0
 25 26  1  0  0  0
 25 27  1  0  0  0
 25 44  1  0  0  0
 26 45  1  0  0  0
 26 46  1  0  0  0
 26 47  1  0  0  0
 27 48  1  0  0  0
 27 49  1  0  0  0
 27 50  1  0  0  0
M  END
> <i_i_glide_confnum>
18

> <i_i_glide_lignum>
3654

> <i_i_glide_posenum>
229

> <i_i_glide_rotatable_bonds>
9

> <i_m_Source_File_Index>
4713

> <b_m_subgroup_collapsed>
0

> <r_i_docking_score>
-5.19767

> <r_i_glide_ecoul>
-4.86271

> <r_i_glide_eff_state_penalty>
0

> <r_i_glide_einternal>
7.40298

> <r_i_glide_emodel>
-54.2308

> <r_i_glide_energy>
-42.7328

> <r_i_glide_erotb>
0.654371

> <r_i_glide_esite>
-0.174486

> <r_i_glide_evdw>
-37.8701

> <r_i_glide_gscore>
-5.19767

> <r_i_glide_hbond>
-0.16

> <r_i_glide_ligand_efficiency>
-0.185631

> <r_i_glide_ligand_efficiency_ln>
-1.19977

> <r_i_glide_ligand_efficiency_sa>
-0.563685

> <r_i_glide_lipo>
-2.26347

> <r_i_glide_metal>
0

> <r_i_glide_rewards>
-0.631176

> <s_i_glide_gridfile>
wee1_glide-grid

> <s_m_Source_File>
wee1_decoys_glide_SP.sdf

> <s_m_Source_Path>
/Users/zhangxujun/Desktop

> <s_m_entry_id>
4988

> <s_m_entry_name>
wee1_decoys_glide_SP.4713

> <s_m_subgroup_title>
wee1_decoys_glide_SP

> <s_m_subgroupid>
wee1_decoys_glide_SP


$$$$
