ZINC33658260_3429
                    3D
 Schrodinger Suite 2024-2.
 71 76  0  0  1  0            999 V2000
   -0.1377   49.6423   25.5641 C   0  0  0  0  0  0
   -0.4455   48.5546   24.7511 C   0  0  0  0  0  0
   -0.5740   48.7384   23.3764 C   0  0  0  0  0  0
   -0.3825   49.9925   22.8006 C   0  0  0  0  0  0
   -0.0783   51.0828   23.6115 C   0  0  0  0  0  0
    0.0463   50.9081   24.9956 C   0  0  0  0  0  0
    0.2731   52.1165   25.8896 C   0  0  0  0  0  0
    1.6454   52.6153   25.8786 N   0  0  0  0  0  0
    2.1473   53.5616   25.0653 C   0  0  0  0  0  0
    1.4817   54.0968   24.1797 O   0  0  0  0  0  0
    3.6036   53.9350   25.2778 C   0  0  0  0  0  0
    4.3739   54.2005   24.1326 C   0  0  0  0  0  0
    5.7463   54.4924   24.2151 C   0  0  0  0  0  0
    6.3485   54.5123   25.4683 C   0  0  0  0  0  0
    5.5982   54.2848   26.6154 C   0  0  0  0  0  0
    4.2241   54.0159   26.5536 C   0  0  0  0  0  0
    3.5405   53.8455   27.7721 N   0  0  0  0  0  0
    4.0898   53.2392   28.9826 C   0  0  0  0  0  0
    2.9125   53.0258   29.9214 C   0  0  0  0  0  0
    2.0856   54.2777   29.6823 C   0  0  0  0  0  0
    2.3883   54.6351   28.2239 C   0  0  0  0  0  0
    6.5946   54.7696   23.1194 N   0  0  0  0  0  0
    6.2764   54.9242   21.8181 C   0  0  0  0  0  0
    5.1525   54.7966   21.3346 O   0  0  0  0  0  0
    7.3525   55.2976   21.1033 N   0  0  0  0  0  0
    7.3910   55.7148   19.6919 C   0  0  0  0  0  0
    6.5501   57.0058   19.4229 C   0  0  0  0  0  0
    6.6562   57.4679   17.9465 C   0  0  2  0  0  0
    6.1336   56.3356   17.0267 C   0  0  0  0  0  0
    6.9854   55.0563   17.2354 C   0  0  2  0  0  0
    6.8857   54.6037   18.7153 C   0  0  0  0  0  0
    8.4648   55.3617   16.8972 C   0  0  0  0  0  0
    8.9861   56.4905   17.8179 C   0  0  1  0  0  0
    8.1359   57.7688   17.6068 C   0  0  0  0  0  0
    8.8677   56.0266   19.2928 C   0  0  0  0  0  0
   -0.9001   47.6894   22.5897 F   0  0  0  0  0  0
   -0.0713   49.4900   26.6336 H   0  0  0  0  0  0
   -0.5969   47.5778   25.1916 H   0  0  0  0  0  0
   -0.4827   50.1141   21.7326 H   0  0  0  0  0  0
    0.0535   52.0585   23.1668 H   0  0  0  0  0  0
   -0.4282   52.8967   25.5804 H   0  0  0  0  0  0
    0.0059   51.8700   26.9208 H   0  0  0  0  0  0
    2.2784   52.2124   26.5532 H   0  0  0  0  0  0
    3.8871   54.1477   23.1720 H   0  0  0  0  0  0
    7.4015   54.7201   25.5593 H   0  0  0  0  0  0
    6.1078   54.3417   27.5673 H   0  0  0  0  0  0
    4.5646   52.2966   28.7155 H   0  0  0  0  0  0
    4.8887   53.8523   29.3998 H   0  0  0  0  0  0
    2.3713   52.1172   29.6460 H   0  0  0  0  0  0
    3.2278   52.8985   30.9556 H   0  0  0  0  0  0
    2.4085   55.0867   30.3365 H   0  0  0  0  0  0
    1.0252   54.0962   29.8524 H   0  0  0  0  0  0
    2.6558   55.6905   28.1795 H   0  0  0  0  0  0
    1.5049   54.5167   27.5927 H   0  0  0  0  0  0
    7.5691   54.8960   23.3566 H   0  0  0  0  0  0
    8.2473   55.2983   21.5723 H   0  0  0  0  0  0
    5.5045   56.8224   19.6621 H   0  0  0  0  0  0
    6.8575   57.8186   20.0797 H   0  0  0  0  0  0
    6.0548   58.3681   17.7980 H   0  0  0  0  0  0
    5.0835   56.1287   17.2408 H   0  0  0  0  0  0
    6.1768   56.6513   15.9835 H   0  0  0  0  0  0
    6.6164   54.2589   16.5865 H   0  0  0  0  0  0
    7.4658   53.6977   18.8663 H   0  0  0  0  0  0
    5.8503   54.3328   18.9278 H   0  0  0  0  0  0
    9.0724   54.4613   17.0190 H   0  0  0  0  0  0
    8.5583   55.6539   15.8514 H   0  0  0  0  0  0
   10.0326   56.7027   17.5878 H   0  0  0  0  0  0
    8.2258   58.1212   16.5772 H   0  0  0  0  0  0
    8.5067   58.5776   18.2378 H   0  0  0  0  0  0
    9.2844   56.7960   19.9451 H   0  0  0  0  0  0
    9.4973   55.1492   19.4532 H   0  0  0  0  0  0
  1  6  2  0  0  0
  1  2  1  0  0  0
  1 37  1  0  0  0
  2  3  2  0  0  0
  2 38  1  0  0  0
  3  4  1  0  0  0
  3 36  1  0  0  0
  4  5  2  0  0  0
  4 39  1  0  0  0
  5  6  1  0  0  0
  5 40  1  0  0  0
  6  7  1  0  0  0
  7  8  1  0  0  0
  7 41  1  0  0  0
  7 42  1  0  0  0
  8  9  1  0  0  0
  8 43  1  0  0  0
  9 10  2  0  0  0
  9 11  1  0  0  0
 11 16  2  0  0  0
 11 12  1  0  0  0
 12 13  2  0  0  0
 12 44  1  0  0  0
 13 14  1  0  0  0
 13 22  1  0  0  0
 14 15  2  0  0  0
 14 45  1  0  0  0
 15 16  1  0  0  0
 15 46  1  0  0  0
 16 17  1  0  0  0
 17 21  1  0  0  0
 17 18  1  0  0  0
 18 19  1  0  0  0
 18 47  1  0  0  0
 18 48  1  0  0  0
 19 20  1  0  0  0
 19 49  1  0  0  0
 19 50  1  0  0  0
 20 21  1  0  0  0
 20 51  1  0  0  0
 20 52  1  0  0  0
 21 53  1  0  0  0
 21 54  1  0  0  0
 22 23  1  0  0  0
 22 55  1  0  0  0
 23 24  2  0  0  0
 23 25  1  0  0  0
 25 26  1  0  0  0
 25 56  1  0  0  0
 26 31  1  0  0  0
 26 35  1  0  0  0
 26 27  1  0  0  0
 27 28  1  0  0  0
 27 57  1  0  0  0
 27 58  1  0  0  0
 28 34  1  0  0  0
 28 29  1  0  0  0
 28 59  1  0  0  0
 29 30  1  0  0  0
 29 60  1  0  0  0
 29 61  1  0  0  0
 30 31  1  0  0  0
 30 32  1  0  0  0
 30 62  1  0  0  0
 31 63  1  0  0  0
 31 64  1  0  0  0
 32 33  1  0  0  0
 32 65  1  0  0  0
 32 66  1  0  0  0
 33 34  1  0  0  0
 33 35  1  0  0  0
 33 67  1  0  0  0
 34 68  1  0  0  0
 34 69  1  0  0  0
 35 70  1  0  0  0
 35 71  1  0  0  0
M  END
> <i_i_glide_confnum>
277

> <i_i_glide_lignum>
3430

> <i_i_glide_posenum>
171

> <i_i_glide_rotatable_bonds>
9

> <i_m_Source_File_Index>
2510

> <b_m_subgroup_collapsed>
0

> <r_i_docking_score>
-5.93912

> <r_i_glide_ecoul>
-0.710907

> <r_i_glide_eff_state_penalty>
0

> <r_i_glide_einternal>
7.32448

> <r_i_glide_emodel>
-67.4987

> <r_i_glide_energy>
-51.9504

> <r_i_glide_erotb>
0.591866

> <r_i_glide_esite>
-0.00127686

> <r_i_glide_evdw>
-51.2395

> <r_i_glide_gscore>
-5.93912

> <r_i_glide_hbond>
-0.237244

> <r_i_glide_ligand_efficiency>
-0.164976

> <r_i_glide_ligand_efficiency_ln>
-1.29576

> <r_i_glide_ligand_efficiency_sa>
-0.544737

> <r_i_glide_lipo>
-2.62116

> <r_i_glide_metal>
0

> <r_i_glide_rewards>
-1.0027

> <s_i_glide_gridfile>
wee1_glide-grid

> <s_m_Source_File>
wee1_decoys_glide_SP.sdf

> <s_m_Source_Path>
/Users/zhangxujun/Desktop

> <s_m_entry_id>
2785

> <s_m_entry_name>
wee1_decoys_glide_SP.2510

> <s_m_subgroup_title>
wee1_decoys_glide_SP

> <s_m_subgroupid>
wee1_decoys_glide_SP


$$$$
