ZINC39668957_385
                    3D
 Schrodinger Suite 2024-2.
 68 72  0  0  1  0            999 V2000
   -2.6071   46.8250   23.1429 C   0  0  0  0  0  0
   -2.4141   46.9890   24.5108 C   0  0  0  0  0  0
   -1.4627   47.8945   24.9704 C   0  0  0  0  0  0
   -0.7016   48.6646   24.0800 C   0  0  0  0  0  0
   -0.8921   48.4883   22.6954 C   0  0  0  0  0  0
   -1.8426   47.5655   22.2442 C   0  0  0  0  0  0
   -0.0477   49.2898   21.7165 C   0  0  0  0  0  0
    1.3068   49.6458   22.3469 C   0  0  0  0  0  0
    1.0510   50.3624   23.5479 O   0  0  0  0  0  0
    0.3547   49.6565   24.5895 C   0  0  1  0  0  0
    1.1049   49.0754   25.1291 H   0  0  0  0  0  0
   -0.2539   50.6988   25.5536 C   0  0  0  0  0  0
    0.7046   51.7416   25.9106 N   0  0  0  0  0  0
    0.4685   52.7609   26.7514 C   0  0  0  0  0  0
   -0.6342   52.8966   27.2817 O   0  0  0  0  0  0
    1.5772   53.8086   27.0819 C   0  0  2  0  0  0
    1.1056   54.7836   27.0303 H   0  0  0  0  0  0
    2.6659   53.7722   25.9792 C   0  0  0  0  0  0
    3.9147   54.1504   26.6319 N   0  0  0  0  0  0
    3.7323   54.2598   28.0836 C   0  0  0  0  0  0
    2.3415   53.6740   28.4259 C   0  0  0  0  0  0
    2.5674   52.2138   28.8902 C   0  0  0  0  0  0
    1.2978   51.5500   29.4603 C   0  0  0  0  0  0
    0.7799   52.3730   30.6618 N   0  3  0  0  0  0
    0.4903   53.8367   30.2658 C   0  0  0  0  0  0
    1.7576   54.4573   29.6391 C   0  0  0  0  0  0
    5.1075   54.4866   26.0517 C   0  0  0  0  0  0
    6.0549   54.8338   26.7660 O   0  0  0  0  0  0
    5.3292   54.5078   24.5353 C   0  0  0  0  0  0
    6.4596   55.1824   24.0412 C   0  0  0  0  0  0
    6.7045   55.2945   22.6750 C   0  0  0  0  0  0
    5.8259   54.7194   21.7499 C   0  0  0  0  0  0
    4.7302   54.0070   22.2227 C   0  0  0  0  0  0
    4.4863   53.8959   23.5882 C   0  0  0  0  0  0
    5.9598   54.7940   20.3773 O   0  0  0  0  0  0
    6.9140   55.6774   19.7945 C   0  0  0  0  0  0
    6.7534   55.6269   18.4739 F   0  0  0  0  0  0
    8.1639   55.2990   20.0682 F   0  0  0  0  0  0
    6.7046   56.9387   20.1809 F   0  0  0  0  0  0
   -3.3486   46.1306   22.7767 H   0  0  0  0  0  0
   -3.0006   46.4264   25.2214 H   0  0  0  0  0  0
   -1.3178   47.9967   26.0384 H   0  0  0  0  0  0
   -1.9962   47.4287   21.1836 H   0  0  0  0  0  0
   -0.5780   50.2092   21.4674 H   0  0  0  0  0  0
    0.0996   48.7430   20.7843 H   0  0  0  0  0  0
    1.8988   50.2658   21.6730 H   0  0  0  0  0  0
    1.8904   48.7465   22.5498 H   0  0  0  0  0  0
   -0.6167   50.2068   26.4594 H   0  0  0  0  0  0
   -1.1217   51.1628   25.0806 H   0  0  0  0  0  0
    1.5776   51.7017   25.4083 H   0  0  0  0  0  0
    2.3937   54.4452   25.1640 H   0  0  0  0  0  0
    2.8623   52.7500   25.6596 H   0  0  0  0  0  0
    4.5445   53.8726   28.7024 H   0  0  0  0  0  0
    3.6980   55.3313   28.2816 H   0  0  0  0  0  0
    2.9815   51.6229   28.0775 H   0  0  0  0  0  0
    3.3366   52.1839   29.6641 H   0  0  0  0  0  0
    0.4316   51.4367   28.8272 H   0  0  0  0  0  0
    1.5044   50.5237   29.6817 H   0  0  0  0  0  0
   -0.0665   51.9528   31.0347 H   0  0  0  0  0  0
   -0.3595   53.8190   29.5837 H   0  0  0  0  0  0
    0.1873   54.3458   31.1827 H   0  0  0  0  0  0
    2.5136   54.5242   30.4195 H   0  0  0  0  0  0
    1.5679   55.4953   29.3593 H   0  0  0  0  0  0
    7.1624   55.6575   24.7108 H   0  0  0  0  0  0
    7.5848   55.8343   22.3613 H   0  0  0  0  0  0
    4.0583   53.5382   21.5179 H   0  0  0  0  0  0
    3.6342   53.2967   23.8423 H   0  0  0  0  0  0
    1.4532   52.3545   31.4154 H   0  0  0  0  0  0
  1  6  2  0  0  0
  1  2  1  0  0  0
  1 40  1  0  0  0
  2  3  2  0  0  0
  2 41  1  0  0  0
  3  4  1  0  0  0
  3 42  1  0  0  0
  4 10  1  0  0  0
  4  5  2  0  0  0
  5  6  1  0  0  0
  5  7  1  0  0  0
  6 43  1  0  0  0
  7  8  1  0  0  0
  7 44  1  0  0  0
  7 45  1  0  0  0
  8  9  1  0  0  0
  8 46  1  0  0  0
  8 47  1  0  0  0
  9 10  1  0  0  0
 10 11  1  0  0  0
 10 12  1  0  0  0
 12 13  1  0  0  0
 12 48  1  0  0  0
 12 49  1  0  0  0
 13 14  1  0  0  0
 13 50  1  0  0  0
 14 15  2  0  0  0
 14 16  1  0  0  0
 16 17  1  0  0  0
 16 21  1  0  0  0
 16 18  1  0  0  0
 18 19  1  0  0  0
 18 51  1  0  0  0
 18 52  1  0  0  0
 19 20  1  0  0  0
 19 27  1  0  0  0
 20 21  1  0  0  0
 20 53  1  0  0  0
 20 54  1  0  0  0
 21 26  1  0  0  0
 21 22  1  0  0  0
 22 23  1  0  0  0
 22 55  1  0  0  0
 22 56  1  0  0  0
 23 24  1  0  0  0
 23 57  1  0  0  0
 23 58  1  0  0  0
 24 25  1  0  0  0
 24 59  1  0  0  0
 24 68  1  0  0  0
 25 26  1  0  0  0
 25 60  1  0  0  0
 25 61  1  0  0  0
 26 62  1  0  0  0
 26 63  1  0  0  0
 27 28  2  0  0  0
 27 29  1  0  0  0
 29 34  2  0  0  0
 29 30  1  0  0  0
 30 31  2  0  0  0
 30 64  1  0  0  0
 31 32  1  0  0  0
 31 65  1  0  0  0
 32 33  2  0  0  0
 32 35  1  0  0  0
 33 34  1  0  0  0
 33 66  1  0  0  0
 34 67  1  0  0  0
 35 36  1  0  0  0
 36 37  1  0  0  0
 36 38  1  0  0  0
 36 39  1  0  0  0
M  CHG  1  24   1
M  END
> <i_i_glide_confnum>
414

> <i_i_glide_lignum>
386

> <i_i_glide_posenum>
174

> <i_i_glide_rotatable_bonds>
8

> <i_m_Source_File_Index>
5220

> <b_m_subgroup_collapsed>
0

> <r_i_docking_score>
-5.42673

> <r_i_glide_ecoul>
0.159024

> <r_i_glide_eff_state_penalty>
0

> <r_i_glide_einternal>
7.93511

> <r_i_glide_emodel>
-46.9496

> <r_i_glide_energy>
-34.6537

> <r_i_glide_erotb>
0.458305

> <r_i_glide_esite>
-0.101237

> <r_i_glide_evdw>
-34.8128

> <r_i_glide_gscore>
-5.42673

> <r_i_glide_hbond>
0

> <r_i_glide_ligand_efficiency>
-0.146669

> <r_i_glide_ligand_efficiency_ln>
-1.17693

> <r_i_glide_ligand_efficiency_sa>
-0.488732

> <r_i_glide_lipo>
-3.05142

> <r_i_glide_metal>
0

> <r_i_glide_rewards>
-1.0156

> <s_i_glide_gridfile>
wee1_glide-grid

> <s_m_Source_File>
wee1_decoys_glide_SP.sdf

> <s_m_Source_Path>
/Users/zhangxujun/Desktop

> <s_m_entry_id>
5495

> <s_m_entry_name>
wee1_decoys_glide_SP.5220

> <s_m_subgroup_title>
wee1_decoys_glide_SP

> <s_m_subgroupid>
wee1_decoys_glide_SP


$$$$
