ZINC04173456_2303
                    3D
 Schrodinger Suite 2024-2.
 58 62  0  0  1  0            999 V2000
    5.5767   54.7449   28.9572 C   0  0  0  0  0  0
    4.4179   54.2693   28.2196 N   0  0  0  0  0  0
    4.2508   54.1372   26.8550 C   0  0  0  0  0  0
    2.9307   53.6944   26.7485 C   0  0  0  0  0  0
    2.4401   53.5214   28.0498 C   0  0  0  0  0  0
    3.3473   53.8817   28.9288 N   0  0  0  0  0  0
    1.0771   53.0332   28.5100 C   0  0  0  0  0  0
    0.3529   54.0372   29.0060 F   0  0  0  0  0  0
    0.3870   52.4976   27.5015 F   0  0  0  0  0  0
    1.1900   52.1015   29.4595 F   0  0  0  0  0  0
    5.2066   54.5032   25.8268 C   0  0  0  0  0  0
    6.2254   55.1443   26.0879 O   0  0  0  0  0  0
    4.8357   54.0968   24.5937 N   0  0  0  0  0  0
    5.4208   54.3631   23.3435 C   0  0  0  0  0  0
    6.6557   55.0038   23.1612 C   0  0  0  0  0  0
    7.1023   55.2971   21.8793 C   0  0  0  0  0  0
    6.3393   54.9300   20.7683 C   0  0  0  0  0  0
    5.1336   54.2492   20.9430 C   0  0  0  0  0  0
    4.6761   53.9729   22.2277 C   0  0  0  0  0  0
    6.9598   55.2961   19.1233 S   0  0  0  0  0  0
    8.2368   55.9948   19.3012 O   0  0  0  0  0  0
    6.8895   54.0463   18.3618 O   0  0  0  0  0  0
    5.8412   56.4782   18.4323 N   0  0  0  0  0  0
    4.8765   56.1799   17.3380 C   0  0  0  0  0  0
    5.6432   55.8838   16.0182 C   0  0  0  0  0  0
    4.6141   55.6627   14.8756 C   0  0  1  0  0  0
    3.6844   54.4722   15.2428 C   0  0  0  0  0  0
    2.9140   54.7832   16.5572 C   0  0  1  0  0  0
    3.9328   55.0006   17.7061 C   0  0  0  0  0  0
    2.0661   56.0692   16.3671 C   0  0  0  0  0  0
    2.9974   57.2592   16.0130 C   0  0  2  0  0  0
    3.7581   56.9464   14.6969 C   0  0  0  0  0  0
    4.0256   57.4644   17.1552 C   0  0  0  0  0  0
    5.9042   55.6955   28.5379 H   0  0  0  0  0  0
    6.3847   54.0181   28.8707 H   0  0  0  0  0  0
    5.3391   54.8973   30.0100 H   0  0  0  0  0  0
    2.3797   53.4967   25.8407 H   0  0  0  0  0  0
    3.9845   53.5629   24.5529 H   0  0  0  0  0  0
    7.2806   55.3025   23.9869 H   0  0  0  0  0  0
    8.0530   55.7986   21.7632 H   0  0  0  0  0  0
    4.5538   53.9224   20.0950 H   0  0  0  0  0  0
    3.7296   53.4648   22.3421 H   0  0  0  0  0  0
    6.2360   57.4199   18.3805 H   0  0  0  0  0  0
    6.3125   56.7093   15.7675 H   0  0  0  0  0  0
    6.2736   55.0003   16.1167 H   0  0  0  0  0  0
    5.1411   55.4437   13.9454 H   0  0  0  0  0  0
    4.2713   53.5590   15.3583 H   0  0  0  0  0  0
    2.9819   54.2778   14.4314 H   0  0  0  0  0  0
    2.2602   53.9454   16.8052 H   0  0  0  0  0  0
    4.4868   54.0746   17.8547 H   0  0  0  0  0  0
    3.4054   55.2088   18.6369 H   0  0  0  0  0  0
    1.3266   55.9194   15.5792 H   0  0  0  0  0  0
    1.4988   56.2844   17.2734 H   0  0  0  0  0  0
    2.4037   58.1662   15.8904 H   0  0  0  0  0  0
    4.3925   57.7897   14.4175 H   0  0  0  0  0  0
    3.0506   56.8167   13.8766 H   0  0  0  0  0  0
    3.5056   57.6960   18.0806 H   0  0  0  0  0  0
    4.6567   58.3283   16.9348 H   0  0  0  0  0  0
  1  2  1  0  0  0
  1 34  1  0  0  0
  1 35  1  0  0  0
  1 36  1  0  0  0
  2  6  1  0  0  0
  2  3  1  0  0  0
  3  4  2  0  0  0
  3 11  1  0  0  0
  4  5  1  0  0  0
  4 37  1  0  0  0
  5  6  2  0  0  0
  5  7  1  0  0  0
  7  8  1  0  0  0
  7  9  1  0  0  0
  7 10  1  0  0  0
 11 12  2  0  0  0
 11 13  1  0  0  0
 13 14  1  0  0  0
 13 38  1  0  0  0
 14 19  2  0  0  0
 14 15  1  0  0  0
 15 16  2  0  0  0
 15 39  1  0  0  0
 16 17  1  0  0  0
 16 40  1  0  0  0
 17 18  2  0  0  0
 17 20  1  0  0  0
 18 19  1  0  0  0
 18 41  1  0  0  0
 19 42  1  0  0  0
 20 21  2  0  0  0
 20 22  2  0  0  0
 20 23  1  0  0  0
 23 24  1  0  0  0
 23 43  1  0  0  0
 24 29  1  0  0  0
 24 33  1  0  0  0
 24 25  1  0  0  0
 25 26  1  0  0  0
 25 44  1  0  0  0
 25 45  1  0  0  0
 26 32  1  0  0  0
 26 27  1  0  0  0
 26 46  1  0  0  0
 27 28  1  0  0  0
 27 47  1  0  0  0
 27 48  1  0  0  0
 28 29  1  0  0  0
 28 30  1  0  0  0
 28 49  1  0  0  0
 29 50  1  0  0  0
 29 51  1  0  0  0
 30 31  1  0  0  0
 30 52  1  0  0  0
 30 53  1  0  0  0
 31 32  1  0  0  0
 31 33  1  0  0  0
 31 54  1  0  0  0
 32 55  1  0  0  0
 32 56  1  0  0  0
 33 57  1  0  0  0
 33 58  1  0  0  0
M  END
> <i_i_glide_confnum>
62

> <i_i_glide_lignum>
2304

> <i_i_glide_posenum>
230

> <i_i_glide_rotatable_bonds>
7

> <i_m_Source_File_Index>
2595

> <b_m_subgroup_collapsed>
0

> <r_i_docking_score>
-4.63966

> <r_i_glide_ecoul>
-2.68382

> <r_i_glide_eff_state_penalty>
0

> <r_i_glide_einternal>
2.83768

> <r_i_glide_emodel>
-52.6256

> <r_i_glide_energy>
-42.541

> <r_i_glide_erotb>
0.522987

> <r_i_glide_esite>
-0.00237559

> <r_i_glide_evdw>
-39.8572

> <r_i_glide_gscore>
-4.63966

> <r_i_glide_hbond>
0

> <r_i_glide_ligand_efficiency>
-0.140596

> <r_i_glide_ligand_efficiency_ln>
-1.03184

> <r_i_glide_ligand_efficiency_sa>
-0.450966

> <r_i_glide_lipo>
-1.85073

> <r_i_glide_metal>
0

> <r_i_glide_rewards>
-0.914113

> <s_i_glide_gridfile>
wee1_glide-grid

> <s_m_Source_File>
wee1_decoys_glide_SP.sdf

> <s_m_Source_Path>
/Users/zhangxujun/Desktop

> <s_m_entry_id>
2870

> <s_m_entry_name>
wee1_decoys_glide_SP.2595

> <s_m_subgroup_title>
wee1_decoys_glide_SP

> <s_m_subgroupid>
wee1_decoys_glide_SP


$$$$
