ZINC48837294_1853
                    3D
 Schrodinger Suite 2024-2.
 36 37  0  0  1  0            999 V2000
    6.1026   54.6231   27.2627 C   0  0  0  0  0  0
    5.2925   54.1332   28.2804 C   0  0  0  0  0  0
    4.0013   53.6364   28.0251 C   0  0  0  0  0  0
    3.5200   53.6693   26.6844 C   0  0  0  0  0  0
    4.3537   54.1757   25.6732 C   0  0  0  0  0  0
    5.6274   54.6418   25.9596 C   0  0  0  0  0  0
    6.7044   55.2967   24.5446 Br  0  0  0  0  0  0
    2.2319   53.1601   26.3911 N   0  0  0  0  0  0
    1.4918   53.2013   25.2559 C   0  0  0  0  0  0
    1.8129   53.8293   24.2452 O   0  0  0  0  0  0
    0.2864   52.5716   25.3526 N   0  0  0  0  0  0
   -0.7255   52.7384   24.2846 C   0  0  0  0  0  0
   -0.6314   51.5350   23.3175 C   0  0  0  0  0  0
   -0.7661   50.1929   24.0635 C   0  0  0  0  0  0
    0.2129   50.1405   25.2519 C   0  0  1  0  0  0
    1.2323   50.0741   24.8672 H   0  0  0  0  0  0
    0.0661   51.3673   26.1791 C   0  0  0  0  0  0
   -0.0954   48.8967   26.0817 N   0  3  0  0  0  0
    3.2087   53.0845   29.1870 C   0  0  0  0  0  0
    2.3044   52.2484   28.9504 O   0  0  0  0  0  0
    3.5042   53.4838   30.3390 O   0  5  0  0  0  0
    7.0925   54.9883   27.4931 H   0  0  0  0  0  0
    5.6946   54.1354   29.2817 H   0  0  0  0  0  0
    4.0589   54.2000   24.6377 H   0  0  0  0  0  0
    1.8236   52.6828   27.1879 H   0  0  0  0  0  0
   -1.6997   52.7450   24.7755 H   0  0  0  0  0  0
   -0.6628   53.7155   23.8028 H   0  0  0  0  0  0
   -1.4078   51.6157   22.5559 H   0  0  0  0  0  0
    0.3160   51.5750   22.7760 H   0  0  0  0  0  0
   -1.7895   50.1183   24.4375 H   0  0  0  0  0  0
   -0.6451   49.3306   23.4057 H   0  0  0  0  0  0
    0.6402   51.3265   27.1067 H   0  0  0  0  0  0
   -0.9546   51.4193   26.5622 H   0  0  0  0  0  0
   -0.9262   48.9827   26.6626 H   0  0  0  0  0  0
   -0.2008   48.0786   25.5011 H   0  0  0  0  0  0
    0.6575   48.6987   26.7257 H   0  0  0  0  0  0
  1  6  2  0  0  0
  1  2  1  0  0  0
  1 22  1  0  0  0
  2  3  2  0  0  0
  2 23  1  0  0  0
  3  4  1  0  0  0
  3 19  1  0  0  0
  4  5  2  0  0  0
  4  8  1  0  0  0
  5  6  1  0  0  0
  5 24  1  0  0  0
  6  7  1  0  0  0
  8  9  1  0  0  0
  8 25  1  0  0  0
  9 10  2  0  0  0
  9 11  1  0  0  0
 11 17  1  0  0  0
 11 12  1  0  0  0
 12 13  1  0  0  0
 12 26  1  0  0  0
 12 27  1  0  0  0
 13 14  1  0  0  0
 13 28  1  0  0  0
 13 29  1  0  0  0
 14 15  1  0  0  0
 14 30  1  0  0  0
 14 31  1  0  0  0
 15 16  1  0  0  0
 15 17  1  0  0  0
 15 18  1  0  0  0
 17 32  1  0  0  0
 17 33  1  0  0  0
 18 34  1  0  0  0
 18 35  1  0  0  0
 18 36  1  0  0  0
 19 20  2  0  0  0
 19 21  1  0  0  0
M  CHG  2  18   1  21  -1
M  END
> <i_i_glide_confnum>
15

> <i_i_glide_lignum>
1854

> <i_i_glide_posenum>
299

> <i_i_glide_rotatable_bonds>
4

> <i_m_Source_File_Index>
692

> <b_m_subgroup_collapsed>
0

> <r_i_docking_score>
-6.50425

> <r_i_glide_ecoul>
-8.50261

> <r_i_glide_eff_state_penalty>
0

> <r_i_glide_einternal>
2.54274

> <r_i_glide_emodel>
-59.8556

> <r_i_glide_energy>
-39.4432

> <r_i_glide_erotb>
0.485752

> <r_i_glide_esite>
-0.1

> <r_i_glide_evdw>
-30.9406

> <r_i_glide_gscore>
-6.50425

> <r_i_glide_hbond>
-0.300115

> <r_i_glide_ligand_efficiency>
-0.325212

> <r_i_glide_ligand_efficiency_ln>
-1.6278

> <r_i_glide_ligand_efficiency_sa>
-0.882762

> <r_i_glide_lipo>
-1.94327

> <r_i_glide_metal>
0

> <r_i_glide_rewards>
-1.8242

> <s_i_glide_gridfile>
wee1_glide-grid

> <s_m_Source_File>
wee1_decoys_glide_SP.sdf

> <s_m_Source_Path>
/Users/zhangxujun/Desktop

> <s_m_entry_id>
967

> <s_m_entry_name>
wee1_decoys_glide_SP.692

> <s_m_subgroup_title>
wee1_decoys_glide_SP

> <s_m_subgroupid>
wee1_decoys_glide_SP


$$$$
