ZINC66092410_2890
                    3D
 Schrodinger Suite 2024-2.
 68 71  0  0  1  0            999 V2000
    0.5036   51.9964   26.6545 C   0  0  0  0  0  0
    1.4125   53.0569   27.2956 C   0  0  1  0  0  0
    0.8608   53.9987   27.2973 H   0  0  0  0  0  0
    1.6970   52.7218   28.7681 C   0  0  0  0  0  0
    2.9761   52.3683   29.2242 C   0  0  0  0  0  0
    3.1920   52.0965   30.5688 C   0  0  0  0  0  0
    2.1148   52.1156   31.4498 C   0  0  0  0  0  0
    0.8464   52.4965   31.0220 C   0  0  0  0  0  0
    0.6401   52.8020   29.6822 C   0  0  0  0  0  0
    2.5648   53.2967   26.4191 N   0  0  0  0  0  0
    3.5261   54.2218   26.5954 C   0  0  0  0  0  0
    3.6186   54.8957   27.6194 O   0  0  0  0  0  0
    4.5257   54.3770   25.4734 C   0  0  0  0  0  0
    5.7784   54.9577   25.7177 C   0  0  0  0  0  0
    6.7043   55.1134   24.6854 C   0  0  0  0  0  0
    6.4014   54.6772   23.3966 C   0  0  0  0  0  0
    5.1551   54.0968   23.1369 C   0  0  0  0  0  0
    4.2253   53.9615   24.1674 C   0  0  0  0  0  0
    4.7802   53.5999   21.8888 N   0  0  0  0  0  0
    4.9879   54.1522   20.6776 C   0  0  0  0  0  0
    5.6596   55.1704   20.4951 O   0  0  0  0  0  0
    4.2651   53.4927   19.4796 C   0  0  0  0  0  0
    3.9096   52.0966   19.6609 N   0  0  0  0  0  0
    2.8529   51.5577   20.4116 C   0  0  0  0  0  0
    2.0286   52.3341   21.2309 C   0  0  0  0  0  0
    1.0574   51.7279   22.0220 C   0  0  0  0  0  0
    0.8878   50.3374   21.9955 C   0  0  0  0  0  0
    1.7181   49.5661   21.1726 C   0  0  0  0  0  0
    2.6748   50.1782   20.3675 C   0  0  0  0  0  0
   -0.1117   49.6964   22.9369 C   0  0  0  0  0  0
   -0.1303   50.1326   24.0891 O   0  0  0  0  0  0
   -0.9477   48.6946   22.5017 N   0  0  0  0  0  0
   -1.2324   48.5644   21.0563 C   0  0  0  0  0  0
   -1.7536   47.9311   23.4134 C   0  0  0  0  0  0
   -1.2894   47.5811   24.6960 C   0  0  0  0  0  0
   -2.0955   46.8773   25.5851 C   0  0  0  0  0  0
   -3.3767   46.4970   25.2035 C   0  0  0  0  0  0
   -3.8530   46.8085   23.9350 C   0  0  0  0  0  0
   -3.0478   47.5173   23.0469 C   0  0  0  0  0  0
   -0.4308   51.8759   27.2030 H   0  0  0  0  0  0
    0.2363   52.2663   25.6321 H   0  0  0  0  0  0
    0.9882   51.0186   26.6227 H   0  0  0  0  0  0
    3.8119   52.3007   28.5433 H   0  0  0  0  0  0
    4.1801   51.8332   30.9187 H   0  0  0  0  0  0
    2.2694   51.8550   32.4816 H   0  0  0  0  0  0
    0.0182   52.5232   31.7178 H   0  0  0  0  0  0
   -0.3510   53.0868   29.3558 H   0  0  0  0  0  0
    2.5530   52.8000   25.5429 H   0  0  0  0  0  0
    6.0435   55.2945   26.7111 H   0  0  0  0  0  0
    7.6611   55.5710   24.8773 H   0  0  0  0  0  0
    7.1350   54.7867   22.6114 H   0  0  0  0  0  0
    3.2646   53.5228   23.9396 H   0  0  0  0  0  0
    4.1587   52.8039   21.8897 H   0  0  0  0  0  0
    3.3922   54.1075   19.2590 H   0  0  0  0  0  0
    4.9022   53.6211   18.6049 H   0  0  0  0  0  0
    4.3721   51.4425   19.0165 H   0  0  0  0  0  0
    2.1461   53.4058   21.2822 H   0  0  0  0  0  0
    0.4434   52.3460   22.6624 H   0  0  0  0  0  0
    1.6488   48.4889   21.1627 H   0  0  0  0  0  0
    3.2991   49.5696   19.7288 H   0  0  0  0  0  0
   -1.7750   47.6459   20.8284 H   0  0  0  0  0  0
   -1.8381   49.4055   20.7152 H   0  0  0  0  0  0
   -0.3430   48.5201   20.4313 H   0  0  0  0  0  0
   -0.2986   47.8517   25.0302 H   0  0  0  0  0  0
   -1.7232   46.6457   26.5744 H   0  0  0  0  0  0
   -4.0064   45.9703   25.9069 H   0  0  0  0  0  0
   -4.8544   46.5222   23.6481 H   0  0  0  0  0  0
   -3.4712   47.7739   22.0880 H   0  0  0  0  0  0
  1  2  1  0  0  0
  1 40  1  0  0  0
  1 41  1  0  0  0
  1 42  1  0  0  0
  2  3  1  0  0  0
  2  4  1  0  0  0
  2 10  1  0  0  0
  4  9  2  0  0  0
  4  5  1  0  0  0
  5  6  2  0  0  0
  5 43  1  0  0  0
  6  7  1  0  0  0
  6 44  1  0  0  0
  7  8  2  0  0  0
  7 45  1  0  0  0
  8  9  1  0  0  0
  8 46  1  0  0  0
  9 47  1  0  0  0
 10 11  1  0  0  0
 10 48  1  0  0  0
 11 12  2  0  0  0
 11 13  1  0  0  0
 13 18  2  0  0  0
 13 14  1  0  0  0
 14 15  2  0  0  0
 14 49  1  0  0  0
 15 16  1  0  0  0
 15 50  1  0  0  0
 16 17  2  0  0  0
 16 51  1  0  0  0
 17 18  1  0  0  0
 17 19  1  0  0  0
 18 52  1  0  0  0
 19 20  1  0  0  0
 19 53  1  0  0  0
 20 21  2  0  0  0
 20 22  1  0  0  0
 22 23  1  0  0  0
 22 54  1  0  0  0
 22 55  1  0  0  0
 23 24  1  0  0  0
 23 56  1  0  0  0
 24 29  2  0  0  0
 24 25  1  0  0  0
 25 26  2  0  0  0
 25 57  1  0  0  0
 26 27  1  0  0  0
 26 58  1  0  0  0
 27 28  2  0  0  0
 27 30  1  0  0  0
 28 29  1  0  0  0
 28 59  1  0  0  0
 29 60  1  0  0  0
 30 31  2  0  0  0
 30 32  1  0  0  0
 32 33  1  0  0  0
 32 34  1  0  0  0
 33 61  1  0  0  0
 33 62  1  0  0  0
 33 63  1  0  0  0
 34 39  2  0  0  0
 34 35  1  0  0  0
 35 36  2  0  0  0
 35 64  1  0  0  0
 36 37  1  0  0  0
 36 65  1  0  0  0
 37 38  2  0  0  0
 37 66  1  0  0  0
 38 39  1  0  0  0
 38 67  1  0  0  0
 39 68  1  0  0  0
M  END
> <i_i_glide_confnum>
170

> <i_i_glide_lignum>
2891

> <i_i_glide_posenum>
218

> <i_i_glide_rotatable_bonds>
12

> <i_m_Source_File_Index>
835

> <b_m_subgroup_collapsed>
0

> <r_i_docking_score>
-5.71744

> <r_i_glide_ecoul>
-7.27365

> <r_i_glide_eff_state_penalty>
0

> <r_i_glide_einternal>
5.29128

> <r_i_glide_emodel>
-77.0785

> <r_i_glide_energy>
-57.5718

> <r_i_glide_erotb>
0.876999

> <r_i_glide_esite>
-0.0757398

> <r_i_glide_evdw>
-50.2982

> <r_i_glide_gscore>
-5.71744

> <r_i_glide_hbond>
-0.16

> <r_i_glide_ligand_efficiency>
-0.150459

> <r_i_glide_ligand_efficiency_ln>
-1.23285

> <r_i_glide_ligand_efficiency_sa>
-0.505839

> <r_i_glide_lipo>
-2.6445

> <r_i_glide_metal>
0

> <r_i_glide_rewards>
-0.108248

> <s_i_glide_gridfile>
wee1_glide-grid

> <s_m_Source_File>
wee1_decoys_glide_SP.sdf

> <s_m_Source_Path>
/Users/zhangxujun/Desktop

> <s_m_entry_id>
1110

> <s_m_entry_name>
wee1_decoys_glide_SP.835

> <s_m_subgroup_title>
wee1_decoys_glide_SP

> <s_m_subgroupid>
wee1_decoys_glide_SP


$$$$
