ZINC38901585_4849
                    3D
 Schrodinger Suite 2024-2.
 66 69  0  0  1  0            999 V2000
    4.4842   54.5300   18.5210 C   0  0  0  0  0  0
    5.5355   54.9295   19.5494 C   0  0  0  0  0  0
    6.6797   55.6055   19.1128 C   0  0  0  0  0  0
    7.6668   55.9863   20.0194 C   0  0  0  0  0  0
    7.5165   55.6959   21.3726 C   0  0  0  0  0  0
    6.3884   55.0114   21.8184 C   0  0  0  0  0  0
    5.3876   54.6297   20.9181 C   0  0  0  0  0  0
    4.1595   53.9030   21.4514 C   0  0  0  0  0  0
    4.3013   52.0994   21.2805 S   0  0  0  0  0  0
    2.6567   51.7276   20.6021 C   0  0  0  0  0  0
    2.2741   50.2379   20.5562 C   0  0  0  0  0  0
    2.1560   49.5607   21.9341 C   0  0  0  0  0  0
    1.1962   50.2179   22.8179 N   0  0  0  0  0  0
   -0.0316   49.7635   23.1157 C   0  0  0  0  0  0
   -0.4956   48.7215   22.6496 O   0  0  0  0  0  0
   -0.8436   50.6290   24.1035 C   0  0  1  0  0  0
   -0.6677   51.6582   23.7811 H   0  0  0  0  0  0
   -2.3589   50.2950   24.0439 C   0  0  0  0  0  0
   -3.1164   51.1444   25.0857 C   0  0  0  0  0  0
   -2.5499   50.9614   26.5085 C   0  0  0  0  0  0
   -1.0430   51.3295   26.4995 N   0  3  2  0  0  0
   -0.2774   50.3956   25.5249 C   0  0  0  0  0  0
   -0.4792   51.1805   27.9361 C   0  0  0  0  0  0
    0.8674   51.8636   28.1179 C   0  0  0  0  0  0
    1.5538   52.6016   27.2837 N   0  0  0  0  0  0
    2.6521   52.8705   27.9743 C   0  0  0  0  0  0
    2.6804   52.3906   29.2038 N   0  0  0  0  0  0
    1.4783   51.6989   29.3141 O   0  0  0  0  0  0
    3.8206   53.6164   27.3823 C   0  0  0  0  0  0
    5.0228   53.7424   28.0950 C   0  0  0  0  0  0
    6.1228   54.3790   27.5262 C   0  0  0  0  0  0
    6.0309   54.8956   26.2385 C   0  0  0  0  0  0
    4.8413   54.7966   25.5237 C   0  0  0  0  0  0
    3.7413   54.1581   26.0910 C   0  0  0  0  0  0
    7.1017   55.5040   25.6802 F   0  0  0  0  0  0
    3.5184   54.9799   18.7559 H   0  0  0  0  0  0
    4.7565   54.8326   17.5099 H   0  0  0  0  0  0
    4.3544   53.4478   18.5197 H   0  0  0  0  0  0
    6.8113   55.8359   18.0654 H   0  0  0  0  0  0
    8.5519   56.4993   19.6714 H   0  0  0  0  0  0
    8.2861   55.9855   22.0744 H   0  0  0  0  0  0
    6.3017   54.7754   22.8682 H   0  0  0  0  0  0
    3.9864   54.1557   22.4976 H   0  0  0  0  0  0
    3.2747   54.2636   20.9326 H   0  0  0  0  0  0
    1.9164   52.2726   21.1884 H   0  0  0  0  0  0
    2.6030   52.1445   19.5968 H   0  0  0  0  0  0
    1.3286   50.1273   20.0251 H   0  0  0  0  0  0
    3.0081   49.7016   19.9531 H   0  0  0  0  0  0
    1.9550   48.4969   21.8163 H   0  0  0  0  0  0
    3.1043   49.6285   22.4577 H   0  0  0  0  0  0
    1.5158   51.0692   23.2561 H   0  0  0  0  0  0
   -2.7824   50.5256   23.0648 H   0  0  0  0  0  0
   -2.5452   49.2533   24.3170 H   0  0  0  0  0  0
   -3.0793   52.1997   24.8076 H   0  0  0  0  0  0
   -4.1743   50.8723   25.0834 H   0  0  0  0  0  0
   -3.0488   51.6400   27.2033 H   0  0  0  0  0  0
   -2.6410   49.9340   26.8756 H   0  0  0  0  0  0
   -0.4294   49.3722   25.8863 H   0  0  0  0  0  0
    0.7783   50.6640   25.5909 H   0  0  0  0  0  0
   -1.2253   51.5859   28.6205 H   0  0  0  0  0  0
   -0.4331   50.1036   28.0817 H   0  0  0  0  0  0
    5.1202   53.3331   29.0899 H   0  0  0  0  0  0
    7.0440   54.4734   28.0823 H   0  0  0  0  0  0
    4.7729   55.2145   24.5318 H   0  0  0  0  0  0
    2.8306   54.0791   25.5145 H   0  0  0  0  0  0
   -0.9339   52.2928   26.2094 H   0  0  0  0  0  0
  1  2  1  0  0  0
  1 36  1  0  0  0
  1 37  1  0  0  0
  1 38  1  0  0  0
  2  7  2  0  0  0
  2  3  1  0  0  0
  3  4  2  0  0  0
  3 39  1  0  0  0
  4  5  1  0  0  0
  4 40  1  0  0  0
  5  6  2  0  0  0
  5 41  1  0  0  0
  6  7  1  0  0  0
  6 42  1  0  0  0
  7  8  1  0  0  0
  8  9  1  0  0  0
  8 43  1  0  0  0
  8 44  1  0  0  0
  9 10  1  0  0  0
 10 11  1  0  0  0
 10 45  1  0  0  0
 10 46  1  0  0  0
 11 12  1  0  0  0
 11 47  1  0  0  0
 11 48  1  0  0  0
 12 13  1  0  0  0
 12 49  1  0  0  0
 12 50  1  0  0  0
 13 14  1  0  0  0
 13 51  1  0  0  0
 14 15  2  0  0  0
 14 16  1  0  0  0
 16 17  1  0  0  0
 16 22  1  0  0  0
 16 18  1  0  0  0
 18 19  1  0  0  0
 18 52  1  0  0  0
 18 53  1  0  0  0
 19 20  1  0  0  0
 19 54  1  0  0  0
 19 55  1  0  0  0
 20 21  1  0  0  0
 20 56  1  0  0  0
 20 57  1  0  0  0
 21 22  1  0  0  0
 21 23  1  0  0  0
 21 66  1  0  0  0
 22 58  1  0  0  0
 22 59  1  0  0  0
 23 24  1  0  0  0
 23 60  1  0  0  0
 23 61  1  0  0  0
 24 28  1  0  0  0
 24 25  2  0  0  0
 25 26  1  0  0  0
 26 27  2  0  0  0
 26 29  1  0  0  0
 27 28  1  0  0  0
 29 34  2  0  0  0
 29 30  1  0  0  0
 30 31  2  0  0  0
 30 62  1  0  0  0
 31 32  1  0  0  0
 31 63  1  0  0  0
 32 33  2  0  0  0
 32 35  1  0  0  0
 33 34  1  0  0  0
 33 64  1  0  0  0
 34 65  1  0  0  0
M  CHG  1  21   1
M  END
> <i_i_glide_confnum>
92

> <i_i_glide_lignum>
4850

> <i_i_glide_posenum>
292

> <i_i_glide_rotatable_bonds>
11

> <i_m_Source_File_Index>
2722

> <b_m_subgroup_collapsed>
0

> <r_i_docking_score>
-5.82975

> <r_i_glide_ecoul>
-6.40995

> <r_i_glide_eff_state_penalty>
0

> <r_i_glide_einternal>
8.51943

> <r_i_glide_emodel>
-68.1471

> <r_i_glide_energy>
-52.3511

> <r_i_glide_erotb>
0.954818

> <r_i_glide_esite>
-0.064986

> <r_i_glide_evdw>
-45.9412

> <r_i_glide_gscore>
-5.82975

> <r_i_glide_hbond>
0

> <r_i_glide_ligand_efficiency>
-0.171463

> <r_i_glide_ligand_efficiency_ln>
-1.28795

> <r_i_glide_ligand_efficiency_sa>
-0.555474

> <r_i_glide_lipo>
-3.00076

> <r_i_glide_metal>
0

> <r_i_glide_rewards>
-0.46027

> <s_i_glide_gridfile>
wee1_glide-grid

> <s_m_Source_File>
wee1_decoys_glide_SP.sdf

> <s_m_Source_Path>
/Users/zhangxujun/Desktop

> <s_m_entry_id>
2997

> <s_m_entry_name>
wee1_decoys_glide_SP.2722

> <s_m_subgroup_title>
wee1_decoys_glide_SP

> <s_m_subgroupid>
wee1_decoys_glide_SP


$$$$
