ZINC01052587_4154
                    3D
 Schrodinger Suite 2024-2.
 37 39  0  0  1  0            999 V2000
    2.1249   53.2968   25.8129 C   0  0  0  0  0  0
    2.0502   53.3055   27.2125 C   0  0  0  0  0  0
    0.9121   52.7672   27.7978 C   0  0  0  0  0  0
   -0.1016   52.2429   27.0480 C   0  0  0  0  0  0
   -0.0550   52.2274   25.6579 C   0  0  0  0  0  0
    1.0794   52.7734   25.0201 C   0  0  0  0  0  0
    1.2081   52.8121   23.5592 C   0  0  0  0  0  0
    0.2852   52.4765   22.7469 N   0  0  0  0  0  0
    0.7084   52.4964   21.4658 N   0  0  0  0  0  0
   -0.0467   52.1490   20.4054 C   0  0  0  0  0  0
   -1.2642   51.9505   20.4728 O   0  0  0  0  0  0
    0.6532   52.0671   19.0250 C   0  0  0  0  0  0
    2.0362   51.6142   19.0108 N   0  0  0  0  0  0
    3.0882   52.4076   19.5019 C   0  0  0  0  0  0
    3.5361   53.5403   18.8000 C   0  0  0  0  0  0
    4.5356   54.3481   19.3441 C   0  0  0  0  0  0
    5.1036   54.0339   20.5765 C   0  0  0  0  0  0
    4.7037   52.8819   21.2511 C   0  0  0  0  0  0
    3.7079   52.0636   20.7155 C   0  0  0  0  0  0
    3.1930   50.4968   21.6804 Br  0  0  0  0  0  0
    6.4170   55.1831   21.3385 Br  0  0  0  0  0  0
    2.8019   54.0383   17.1097 Br  0  0  0  0  0  0
   -1.1032   51.8380   27.8708 O   0  0  0  0  0  0
   -0.5677   51.8998   29.1652 C   0  0  0  0  0  0
    0.5807   52.7028   29.1139 O   0  0  0  0  0  0
    3.0068   53.7153   25.3481 H   0  0  0  0  0  0
    2.8491   53.7240   27.8060 H   0  0  0  0  0  0
   -0.8772   51.8186   25.0879 H   0  0  0  0  0  0
    2.1860   53.1542   23.2190 H   0  0  0  0  0  0
    1.6873   52.7066   21.3362 H   0  0  0  0  0  0
    0.5029   53.0153   18.5087 H   0  0  0  0  0  0
    0.0506   51.3599   18.4532 H   0  0  0  0  0  0
    2.3118   51.1923   18.1323 H   0  0  0  0  0  0
    4.8597   55.2311   18.8131 H   0  0  0  0  0  0
    5.1597   52.6278   22.1964 H   0  0  0  0  0  0
   -0.2872   50.8964   29.4769 H   0  0  0  0  0  0
   -1.2946   52.2825   29.8804 H   0  0  0  0  0  0
  1  6  2  0  0  0
  1  2  1  0  0  0
  1 26  1  0  0  0
  2  3  2  0  0  0
  2 27  1  0  0  0
  3 25  1  0  0  0
  3  4  1  0  0  0
  4  5  2  0  0  0
  4 23  1  0  0  0
  5  6  1  0  0  0
  5 28  1  0  0  0
  6  7  1  0  0  0
  7  8  2  0  0  0
  7 29  1  0  0  0
  8  9  1  0  0  0
  9 10  1  0  0  0
  9 30  1  0  0  0
 10 11  2  0  0  0
 10 12  1  0  0  0
 12 13  1  0  0  0
 12 31  1  0  0  0
 12 32  1  0  0  0
 13 14  1  0  0  0
 13 33  1  0  0  0
 14 19  2  0  0  0
 14 15  1  0  0  0
 15 16  2  0  0  0
 15 22  1  0  0  0
 16 17  1  0  0  0
 16 34  1  0  0  0
 17 18  2  0  0  0
 17 21  1  0  0  0
 18 19  1  0  0  0
 18 35  1  0  0  0
 19 20  1  0  0  0
 23 24  1  0  0  0
 24 25  1  0  0  0
 24 36  1  0  0  0
 24 37  1  0  0  0
M  END
> <i_i_glide_confnum>
7

> <i_i_glide_lignum>
4155

> <i_i_glide_posenum>
337

> <i_i_glide_rotatable_bonds>
6

> <i_m_Source_File_Index>
6063

> <b_m_subgroup_collapsed>
0

> <r_i_docking_score>
-3.14998

> <r_i_glide_ecoul>
-3.26868

> <r_i_glide_eff_state_penalty>
0

> <r_i_glide_einternal>
3.4119

> <r_i_glide_emodel>
-39.7856

> <r_i_glide_energy>
-33.5849

> <r_i_glide_erotb>
0.289468

> <r_i_glide_esite>
-0.119825

> <r_i_glide_evdw>
-30.3162

> <r_i_glide_gscore>
-3.14998

> <r_i_glide_hbond>
0

> <r_i_glide_ligand_efficiency>
-0.125999

> <r_i_glide_ligand_efficiency_ln>
-0.746639

> <r_i_glide_ligand_efficiency_sa>
-0.368424

> <r_i_glide_lipo>
-1.0921

> <r_i_glide_metal>
0

> <r_i_glide_rewards>
-0.221407

> <s_i_glide_gridfile>
wee1_glide-grid

> <s_m_Source_File>
wee1_decoys_glide_SP.sdf

> <s_m_Source_Path>
/Users/zhangxujun/Desktop

> <s_m_entry_id>
6338

> <s_m_entry_name>
wee1_decoys_glide_SP.6063

> <s_m_subgroup_title>
wee1_decoys_glide_SP

> <s_m_subgroupid>
wee1_decoys_glide_SP


$$$$
