ZINC36221199_3987
                    3D
 Schrodinger Suite 2024-2.
 62 66  0  0  1  0            999 V2000
   -4.5021   44.8872   26.4817 C   0  0  0  0  0  0
   -5.2572   45.1203   25.3325 C   0  0  0  0  0  0
   -5.2195   46.3735   24.7240 C   0  0  0  0  0  0
   -4.4354   47.3975   25.2669 C   0  0  0  0  0  0
   -3.6948   47.1541   26.4307 C   0  0  0  0  0  0
   -3.7198   45.8999   27.0292 C   0  0  0  0  0  0
   -4.4473   48.7632   24.5729 C   0  0  0  0  0  0
   -3.9219   49.9102   25.3270 N   0  0  0  0  0  0
   -2.5096   50.2585   25.4536 C   0  0  2  0  0  0
   -1.9348   49.4584   25.9229 H   0  0  0  0  0  0
   -2.5749   51.4875   26.3518 C   0  0  1  0  0  0
   -2.6450   52.4023   25.7553 H   0  0  0  0  0  0
   -3.8380   51.3650   26.9753 O   0  0  0  0  0  0
   -4.6797   50.5601   26.3005 C   0  0  0  0  0  0
   -5.8739   50.4702   26.5775 O   0  0  0  0  0  0
   -1.4101   51.6992   27.3168 C   0  0  0  0  0  0
   -1.5339   51.4101   28.6800 C   0  0  0  0  0  0
   -0.4956   51.7032   29.5620 C   0  0  0  0  0  0
    0.6893   52.2652   29.0861 C   0  0  0  0  0  0
    0.8388   52.5306   27.7163 C   0  0  0  0  0  0
   -0.2108   52.2386   26.8425 C   0  0  0  0  0  0
    2.0130   53.0448   27.1443 N   0  0  0  0  0  0
    2.9415   53.8412   27.7163 C   0  0  0  0  0  0
    2.8395   54.3406   28.8386 O   0  0  0  0  0  0
    4.1638   54.0967   26.8688 C   0  0  0  0  0  0
    4.0518   54.3058   25.4828 C   0  0  0  0  0  0
    5.1891   54.4991   24.6982 C   0  0  0  0  0  0
    6.4534   54.4975   25.2837 C   0  0  0  0  0  0
    6.5759   54.3000   26.6590 C   0  0  0  0  0  0
    5.4446   54.0961   27.4477 C   0  0  0  0  0  0
    5.6147   53.8834   28.7721 F   0  0  0  0  0  0
   -1.8524   50.6468   24.1107 C   0  0  0  0  0  0
   -2.5132   51.1953   23.2241 O   0  0  0  0  0  0
   -0.5432   50.3396   24.0047 N   0  0  0  0  0  0
    0.3282   50.6438   22.9465 C   0  0  0  0  0  0
    1.3915   49.7645   22.7407 C   0  0  0  0  0  0
    2.3015   49.9966   21.7146 C   0  0  0  0  0  0
    2.1607   51.1219   20.9086 C   0  0  0  0  0  0
    1.1181   52.0210   21.1208 C   0  0  0  0  0  0
    0.1961   51.7833   22.1382 C   0  0  0  0  0  0
   -4.5253   43.9183   26.9612 H   0  0  0  0  0  0
   -5.8718   44.3334   24.9186 H   0  0  0  0  0  0
   -5.8075   46.5516   23.8351 H   0  0  0  0  0  0
   -3.0899   47.9223   26.8818 H   0  0  0  0  0  0
   -3.1395   45.7162   27.9230 H   0  0  0  0  0  0
   -3.8896   48.6717   23.6407 H   0  0  0  0  0  0
   -5.4793   48.9827   24.2940 H   0  0  0  0  0  0
   -2.4394   50.9657   29.0713 H   0  0  0  0  0  0
   -0.6145   51.4907   30.6160 H   0  0  0  0  0  0
    1.4878   52.4658   29.7856 H   0  0  0  0  0  0
   -0.1077   52.4603   25.7902 H   0  0  0  0  0  0
    2.1841   52.7767   26.1882 H   0  0  0  0  0  0
    3.0844   54.3206   24.9988 H   0  0  0  0  0  0
    5.0892   54.6475   23.6331 H   0  0  0  0  0  0
    7.3327   54.6384   24.6704 H   0  0  0  0  0  0
    7.5497   54.2856   27.1249 H   0  0  0  0  0  0
   -0.1521   49.7588   24.7320 H   0  0  0  0  0  0
    1.5054   48.8954   23.3688 H   0  0  0  0  0  0
    3.1044   49.2985   21.5395 H   0  0  0  0  0  0
    2.8696   51.3018   20.1129 H   0  0  0  0  0  0
    1.0253   52.8966   20.4946 H   0  0  0  0  0  0
   -0.6019   52.4932   22.2956 H   0  0  0  0  0  0
  1  6  2  0  0  0
  1  2  1  0  0  0
  1 41  1  0  0  0
  2  3  2  0  0  0
  2 42  1  0  0  0
  3  4  1  0  0  0
  3 43  1  0  0  0
  4  5  2  0  0  0
  4  7  1  0  0  0
  5  6  1  0  0  0
  5 44  1  0  0  0
  6 45  1  0  0  0
  7  8  1  0  0  0
  7 46  1  0  0  0
  7 47  1  0  0  0
  8 14  1  0  0  0
  8  9  1  0  0  0
  9 10  1  0  0  0
  9 11  1  0  0  0
  9 32  1  0  0  0
 11 12  1  0  0  0
 11 13  1  0  0  0
 11 16  1  0  0  0
 13 14  1  0  0  0
 14 15  2  0  0  0
 16 21  2  0  0  0
 16 17  1  0  0  0
 17 18  2  0  0  0
 17 48  1  0  0  0
 18 19  1  0  0  0
 18 49  1  0  0  0
 19 20  2  0  0  0
 19 50  1  0  0  0
 20 21  1  0  0  0
 20 22  1  0  0  0
 21 51  1  0  0  0
 22 23  1  0  0  0
 22 52  1  0  0  0
 23 24  2  0  0  0
 23 25  1  0  0  0
 25 30  2  0  0  0
 25 26  1  0  0  0
 26 27  2  0  0  0
 26 53  1  0  0  0
 27 28  1  0  0  0
 27 54  1  0  0  0
 28 29  2  0  0  0
 28 55  1  0  0  0
 29 30  1  0  0  0
 29 56  1  0  0  0
 30 31  1  0  0  0
 32 33  2  0  0  0
 32 34  1  0  0  0
 34 35  1  0  0  0
 34 57  1  0  0  0
 35 40  2  0  0  0
 35 36  1  0  0  0
 36 37  2  0  0  0
 36 58  1  0  0  0
 37 38  1  0  0  0
 37 59  1  0  0  0
 38 39  2  0  0  0
 38 60  1  0  0  0
 39 40  1  0  0  0
 39 61  1  0  0  0
 40 62  1  0  0  0
M  END
> <i_i_glide_confnum>
271

> <i_i_glide_lignum>
3988

> <i_i_glide_posenum>
368

> <i_i_glide_rotatable_bonds>
9

> <i_m_Source_File_Index>
4571

> <b_m_subgroup_collapsed>
0

> <r_i_docking_score>
-5.26822

> <r_i_glide_ecoul>
-5.38729

> <r_i_glide_eff_state_penalty>
0

> <r_i_glide_einternal>
5.24798

> <r_i_glide_emodel>
-65.438

> <r_i_glide_energy>
-50.0171

> <r_i_glide_erotb>
0.709982

> <r_i_glide_esite>
-0.0310668

> <r_i_glide_evdw>
-44.6298

> <r_i_glide_gscore>
-5.26822

> <r_i_glide_hbond>
0

> <r_i_glide_ligand_efficiency>
-0.138637

> <r_i_glide_ligand_efficiency_ln>
-1.13598

> <r_i_glide_ligand_efficiency_sa>
-0.466096

> <r_i_glide_lipo>
-2.36712

> <r_i_glide_metal>
0

> <r_i_glide_rewards>
-0.540441

> <s_i_glide_gridfile>
wee1_glide-grid

> <s_m_Source_File>
wee1_decoys_glide_SP.sdf

> <s_m_Source_Path>
/Users/zhangxujun/Desktop

> <s_m_entry_id>
4846

> <s_m_entry_name>
wee1_decoys_glide_SP.4571

> <s_m_subgroup_title>
wee1_decoys_glide_SP

> <s_m_subgroupid>
wee1_decoys_glide_SP


$$$$
