ZINC62824278_3795
                    3D
 Schrodinger Suite 2024-2.
 33 35  0  0  1  0            999 V2000
   -1.5132   51.2985   27.6436 C   0  0  0  0  0  0
   -1.2959   51.6380   28.9781 C   0  0  0  0  0  0
   -0.0570   52.1033   29.4104 C   0  0  0  0  0  0
    1.0012   52.2131   28.4864 C   0  0  0  0  0  0
    0.7686   51.8751   27.1460 C   0  0  0  0  0  0
   -0.4810   51.4316   26.7222 C   0  0  0  0  0  0
   -0.7870   50.9417   24.7133 I   0  0  0  0  0  0
    2.3964   52.5969   28.8665 C   0  0  0  0  0  0
    3.0177   52.0967   29.9029 N   0  0  0  0  0  0
    4.3043   52.6039   29.8946 N   0  0  0  0  0  0
    4.4048   53.4277   28.8816 C   0  0  0  0  0  0
    3.2207   53.4700   28.1803 N   0  0  0  0  0  0
    2.9247   54.3481   27.0592 C   0  0  0  0  0  0
    3.8006   54.0969   25.8194 C   0  0  0  0  0  0
    5.2505   54.6101   25.9305 C   0  0  0  0  0  0
    6.1167   53.9697   27.0325 C   0  0  0  0  0  0
    5.6490   54.2049   28.4816 C   0  0  0  0  0  0
    0.0865   52.4504   30.7587 N   0  0  0  0  0  0
   -2.4745   50.9153   27.3342 H   0  0  0  0  0  0
   -2.0969   51.4899   29.6818 H   0  0  0  0  0  0
    1.5651   51.9358   26.4212 H   0  0  0  0  0  0
    3.0569   55.3673   27.4144 H   0  0  0  0  0  0
    1.8676   54.2731   26.8115 H   0  0  0  0  0  0
    3.3334   54.5869   24.9639 H   0  0  0  0  0  0
    3.7980   53.0335   25.5787 H   0  0  0  0  0  0
    5.2377   55.6917   26.0679 H   0  0  0  0  0  0
    5.7444   54.4474   24.9714 H   0  0  0  0  0  0
    7.1296   54.3624   26.9341 H   0  0  0  0  0  0
    6.2045   52.8973   26.8541 H   0  0  0  0  0  0
    6.4790   53.9437   29.1398 H   0  0  0  0  0  0
    5.5000   55.2732   28.6499 H   0  0  0  0  0  0
    1.0181   52.6537   31.0863 H   0  0  0  0  0  0
   -0.6084   52.1213   31.4300 H   0  0  0  0  0  0
  1  6  2  0  0  0
  1  2  1  0  0  0
  1 19  1  0  0  0
  2  3  2  0  0  0
  2 20  1  0  0  0
  3  4  1  0  0  0
  3 18  1  0  0  0
  4  5  2  0  0  0
  4  8  1  0  0  0
  5  6  1  0  0  0
  5 21  1  0  0  0
  6  7  1  0  0  0
  8 12  1  0  0  0
  8  9  2  0  0  0
  9 10  1  0  0  0
 10 11  2  0  0  0
 11 17  1  0  0  0
 11 12  1  0  0  0
 12 13  1  0  0  0
 13 14  1  0  0  0
 13 22  1  0  0  0
 13 23  1  0  0  0
 14 15  1  0  0  0
 14 24  1  0  0  0
 14 25  1  0  0  0
 15 16  1  0  0  0
 15 26  1  0  0  0
 15 27  1  0  0  0
 16 17  1  0  0  0
 16 28  1  0  0  0
 16 29  1  0  0  0
 17 30  1  0  0  0
 17 31  1  0  0  0
 18 32  1  0  0  0
 18 33  1  0  0  0
M  END
> <i_i_glide_confnum>
2

> <i_i_glide_lignum>
3796

> <i_i_glide_posenum>
10

> <i_i_glide_rotatable_bonds>
1

> <i_m_Source_File_Index>
64

> <b_m_subgroup_collapsed>
0

> <r_i_docking_score>
-5.63862

> <r_i_glide_ecoul>
-3.93992

> <r_i_glide_eff_state_penalty>
0

> <r_i_glide_einternal>
0.65716

> <r_i_glide_emodel>
-46.386

> <r_i_glide_energy>
-34.5415

> <r_i_glide_erotb>
0.152298

> <r_i_glide_esite>
-0.0803767

> <r_i_glide_evdw>
-30.6016

> <r_i_glide_gscore>
-5.63862

> <r_i_glide_hbond>
-0.16

> <r_i_glide_ligand_efficiency>
-0.313257

> <r_i_glide_ligand_efficiency_ln>
-1.44938

> <r_i_glide_ligand_efficiency_sa>
-0.820965

> <r_i_glide_lipo>
-1.44835

> <r_i_glide_metal>
0

> <r_i_glide_rewards>
-1.98112

> <s_i_glide_gridfile>
wee1_glide-grid

> <s_m_Source_File>
wee1_decoys_glide_SP.sdf

> <s_m_Source_Path>
/Users/zhangxujun/Desktop

> <s_m_entry_id>
339

> <s_m_entry_name>
wee1_decoys_glide_SP.64

> <s_m_subgroup_title>
wee1_decoys_glide_SP

> <s_m_subgroupid>
wee1_decoys_glide_SP


$$$$
