ZINC01055753_1950
                    3D
 Schrodinger Suite 2024-2.
 42 45  0  0  1  0            999 V2000
   -1.9365   51.2970   27.7712 C   0  0  0  0  0  0
   -0.5735   51.7488   28.2247 C   0  0  0  0  0  0
   -0.0922   52.8422   28.9053 C   0  0  0  0  0  0
    1.2955   52.7372   28.9123 C   0  0  0  0  0  0
    1.6367   51.5842   28.3656 N   0  0  0  0  0  0
    0.4765   50.9591   27.9050 O   0  0  0  0  0  0
    2.1263   53.6998   29.3423 N   0  5  0  0  0  0
    3.6816   53.6855   29.1498 S   0  0  0  0  0  0
    4.3062   52.4011   29.4864 O   0  0  0  0  0  0
    4.3127   54.8955   29.6815 O   0  0  0  0  0  0
    3.9224   53.8761   27.3655 C   0  0  0  0  0  0
    2.8764   53.9774   26.4404 C   0  0  0  0  0  0
    3.1471   54.0979   25.0824 C   0  0  0  0  0  0
    4.4636   54.1452   24.6310 C   0  0  0  0  0  0
    5.5163   54.0973   25.5585 C   0  0  0  0  0  0
    5.2419   53.9490   26.9151 C   0  0  0  0  0  0
    4.6169   54.2481   23.2374 N   0  0  0  0  0  0
    5.7421   54.3028   22.4969 C   0  0  0  0  0  0
    6.8851   54.1865   22.9347 O   0  0  0  0  0  0
    5.5048   54.5389   21.0891 C   0  0  0  0  0  0
    4.3841   54.0975   20.3901 C   0  0  0  0  0  0
    4.3941   54.4377   18.6861 S   0  0  0  0  0  0
    5.9909   55.1403   18.8352 C   0  0  0  0  0  0
    6.4632   55.1302   20.1868 C   0  0  0  0  0  0
    7.7432   55.6763   20.4309 C   0  0  0  0  0  0
    8.5133   56.1577   19.3756 C   0  0  0  0  0  0
    8.0267   56.1532   18.0755 C   0  0  0  0  0  0
    6.7621   55.6540   17.7835 C   0  0  0  0  0  0
   -2.6717   52.0964   27.7715 H   0  0  0  0  0  0
   -1.9025   50.8972   26.7589 H   0  0  0  0  0  0
   -2.3222   50.5020   28.4100 H   0  0  0  0  0  0
   -0.6535   53.6729   29.2946 H   0  0  0  0  0  0
    1.8427   53.9659   26.7443 H   0  0  0  0  0  0
    2.3209   54.1540   24.3904 H   0  0  0  0  0  0
    6.5515   54.1385   25.2590 H   0  0  0  0  0  0
    6.0552   53.8873   27.6251 H   0  0  0  0  0  0
    3.7550   54.3373   22.7250 H   0  0  0  0  0  0
    3.5209   53.5777   20.7831 H   0  0  0  0  0  0
    8.1519   55.6955   21.4299 H   0  0  0  0  0  0
    9.5035   56.5496   19.5717 H   0  0  0  0  0  0
    8.6443   56.5425   17.2778 H   0  0  0  0  0  0
    6.3926   55.6514   16.7681 H   0  0  0  0  0  0
  1  2  1  0  0  0
  1 29  1  0  0  0
  1 30  1  0  0  0
  1 31  1  0  0  0
  2  6  1  0  0  0
  2  3  2  0  0  0
  3  4  1  0  0  0
  3 32  1  0  0  0
  4  5  2  0  0  0
  4  7  1  0  0  0
  5  6  1  0  0  0
  7  8  1  0  0  0
  8  9  2  0  0  0
  8 10  2  0  0  0
  8 11  1  0  0  0
 11 16  2  0  0  0
 11 12  1  0  0  0
 12 13  2  0  0  0
 12 33  1  0  0  0
 13 14  1  0  0  0
 13 34  1  0  0  0
 14 15  2  0  0  0
 14 17  1  0  0  0
 15 16  1  0  0  0
 15 35  1  0  0  0
 16 36  1  0  0  0
 17 18  1  0  0  0
 17 37  1  0  0  0
 18 19  2  0  0  0
 18 20  1  0  0  0
 20 24  1  0  0  0
 20 21  2  0  0  0
 21 22  1  0  0  0
 21 38  1  0  0  0
 22 23  1  0  0  0
 23 28  2  0  0  0
 23 24  1  0  0  0
 24 25  2  0  0  0
 25 26  1  0  0  0
 25 39  1  0  0  0
 26 27  2  0  0  0
 26 40  1  0  0  0
 27 28  1  0  0  0
 27 41  1  0  0  0
 28 42  1  0  0  0
M  CHG  1   7  -1
M  END
> <i_i_glide_confnum>
9

> <i_i_glide_lignum>
1951

> <i_i_glide_posenum>
119

> <i_i_glide_rotatable_bonds>
6

> <i_m_Source_File_Index>
2464

> <b_m_subgroup_collapsed>
0

> <r_i_docking_score>
-3.07652

> <r_i_glide_ecoul>
-3.63274

> <r_i_glide_eff_state_penalty>
0

> <r_i_glide_einternal>
1.54545

> <r_i_glide_emodel>
-48.4448

> <r_i_glide_energy>
-45.9347

> <r_i_glide_erotb>
0.695453

> <r_i_glide_esite>
-0.0502571

> <r_i_glide_evdw>
-42.302

> <r_i_glide_gscore>
-3.07652

> <r_i_glide_hbond>
0

> <r_i_glide_ligand_efficiency>
-0.109876

> <r_i_glide_ligand_efficiency_ln>
-0.710152

> <r_i_glide_ligand_efficiency_sa>
-0.333648

> <r_i_glide_lipo>
-2.3591

> <r_i_glide_metal>
0

> <r_i_glide_rewards>
1.2974

> <s_i_glide_gridfile>
wee1_glide-grid

> <s_m_Source_File>
wee1_decoys_glide_SP.sdf

> <s_m_Source_Path>
/Users/zhangxujun/Desktop

> <s_m_entry_id>
2739

> <s_m_entry_name>
wee1_decoys_glide_SP.2464

> <s_m_subgroup_title>
wee1_decoys_glide_SP

> <s_m_subgroupid>
wee1_decoys_glide_SP


$$$$
