ZINC20885304_3928
                    3D
 Schrodinger Suite 2024-2.
 37 39  0  0  1  0            999 V2000
    2.6998   53.5421   27.4897 C   0  0  0  0  0  0
    1.9017   53.0566   28.5234 C   0  0  0  0  0  0
    2.4882   52.6804   29.7291 C   0  0  0  0  0  0
    3.8627   52.7912   29.9131 C   0  0  0  0  0  0
    4.6601   53.2797   28.8817 C   0  0  0  0  0  0
    4.0835   53.6522   27.6661 C   0  0  0  0  0  0
    4.9694   54.1191   26.5648 C   0  0  0  0  0  0
    6.2845   54.5638   26.5151 C   0  0  0  0  0  0
    6.5758   54.7977   25.1712 C   0  0  0  0  0  0
    5.4391   54.4814   24.4429 C   0  0  0  0  0  0
    4.4613   54.0967   25.3031 O   0  0  0  0  0  0
    5.1114   54.4967   23.0290 C   0  0  0  0  0  0
    6.0046   54.7818   22.1735 N   0  0  0  0  0  0
    5.5114   54.8966   20.9285 N   0  0  0  0  0  0
    6.2813   55.2458   19.8798 C   0  0  0  0  0  0
    7.5143   55.2974   19.8903 O   0  0  0  0  0  0
    5.5064   55.6341   18.6525 C   0  0  0  0  0  0
    5.5571   56.9343   18.1176 C   0  0  0  0  0  0
    4.7617   57.2202   16.9949 C   0  0  0  0  0  0
    3.9404   56.2184   16.4511 C   0  0  0  0  0  0
    3.9520   54.9494   17.0451 C   0  0  0  0  0  0
    4.7214   54.6608   18.1218 N   0  0  0  0  0  0
    2.9641   53.6707   16.4292 Cl  0  0  0  0  0  0
    2.9274   56.5373   15.0764 Cl  0  0  0  0  0  0
    4.7830   58.4967   16.4245 N   0  0  0  0  0  0
    6.5562   58.1713   18.8315 Cl  0  0  0  0  0  0
    1.7211   52.2010   30.7325 F   0  0  0  0  0  0
    2.2424   53.8205   26.5511 H   0  0  0  0  0  0
    0.8339   52.9617   28.3909 H   0  0  0  0  0  0
    4.3045   52.4936   30.8520 H   0  0  0  0  0  0
    5.7288   53.3499   29.0195 H   0  0  0  0  0  0
    6.9502   54.6919   27.3567 H   0  0  0  0  0  0
    7.5048   55.1473   24.7497 H   0  0  0  0  0  0
    4.0688   54.2680   22.8123 H   0  0  0  0  0  0
    4.5112   54.7952   20.8334 H   0  0  0  0  0  0
    5.3742   59.1823   16.8815 H   0  0  0  0  0  0
    3.9031   58.8506   16.0770 H   0  0  0  0  0  0
  1  6  2  0  0  0
  1  2  1  0  0  0
  1 28  1  0  0  0
  2  3  2  0  0  0
  2 29  1  0  0  0
  3  4  1  0  0  0
  3 27  1  0  0  0
  4  5  2  0  0  0
  4 30  1  0  0  0
  5  6  1  0  0  0
  5 31  1  0  0  0
  6  7  1  0  0  0
  7 11  1  0  0  0
  7  8  2  0  0  0
  8  9  1  0  0  0
  8 32  1  0  0  0
  9 10  2  0  0  0
  9 33  1  0  0  0
 10 11  1  0  0  0
 10 12  1  0  0  0
 12 13  2  0  0  0
 12 34  1  0  0  0
 13 14  1  0  0  0
 14 15  1  0  0  0
 14 35  1  0  0  0
 15 16  2  0  0  0
 15 17  1  0  0  0
 17 22  2  0  0  0
 17 18  1  0  0  0
 18 19  2  0  0  0
 18 26  1  0  0  0
 19 20  1  0  0  0
 19 25  1  0  0  0
 20 21  2  0  0  0
 20 24  1  0  0  0
 21 22  1  0  0  0
 21 23  1  0  0  0
 25 36  1  0  0  0
 25 37  1  0  0  0
M  END
> <i_i_glide_confnum>
30

> <i_i_glide_lignum>
3929

> <i_i_glide_posenum>
243

> <i_i_glide_rotatable_bonds>
5

> <i_m_Source_File_Index>
2315

> <b_m_subgroup_collapsed>
0

> <r_i_docking_score>
-5.26888

> <r_i_glide_ecoul>
-2.29754

> <r_i_glide_eff_state_penalty>
0

> <r_i_glide_einternal>
5.77781

> <r_i_glide_emodel>
-52.5759

> <r_i_glide_energy>
-40.9366

> <r_i_glide_erotb>
0.542892

> <r_i_glide_esite>
-0.122702

> <r_i_glide_evdw>
-38.639

> <r_i_glide_gscore>
-5.26888

> <r_i_glide_hbond>
0

> <r_i_glide_ligand_efficiency>
-0.195144

> <r_i_glide_ligand_efficiency_ln>
-1.22651

> <r_i_glide_ligand_efficiency_sa>
-0.585431

> <r_i_glide_lipo>
-2.49952

> <r_i_glide_metal>
0

> <r_i_glide_rewards>
-0.912961

> <s_i_glide_gridfile>
wee1_glide-grid

> <s_m_Source_File>
wee1_decoys_glide_SP.sdf

> <s_m_Source_Path>
/Users/zhangxujun/Desktop

> <s_m_entry_id>
2590

> <s_m_entry_name>
wee1_decoys_glide_SP.2315

> <s_m_subgroup_title>
wee1_decoys_glide_SP

> <s_m_subgroupid>
wee1_decoys_glide_SP


$$$$
