ZINC16572736_3416
                    3D
 Schrodinger Suite 2024-2.
 55 57  0  0  1  0            999 V2000
    5.3412   56.3993   17.9695 C   0  0  0  0  0  0
    4.2283   55.6864   17.1821 C   0  0  0  0  0  0
    4.2140   54.1343   17.2252 C   0  0  1  0  0  0
    3.4605   53.8730   16.4795 H   0  0  0  0  0  0
    5.5078   53.5001   16.6622 C   0  0  0  0  0  0
    3.6430   53.5274   18.5543 C   0  0  2  0  0  0
    2.7041   54.0474   18.7407 H   0  0  0  0  0  0
    4.5611   53.7381   19.7854 C   0  0  0  0  0  0
    5.7861   53.6966   19.6684 O   0  0  0  0  0  0
    3.9045   53.9358   20.9479 N   0  0  0  0  0  0
    4.4736   54.0514   22.2060 C   0  0  0  0  0  0
    5.7502   54.1086   22.5166 N   0  0  0  0  0  0
    5.9595   54.1833   23.8867 N   0  0  0  0  0  0
    4.8424   54.1801   24.5815 C   0  0  0  0  0  0
    3.4121   54.0966   23.5780 S   0  0  0  0  0  0
    4.7776   54.2282   26.0793 C   0  0  0  0  0  0
    5.9500   54.0963   26.8378 C   0  0  0  0  0  0
    5.9082   54.1555   28.2296 C   0  0  0  0  0  0
    4.6965   54.3658   28.8829 C   0  0  0  0  0  0
    3.5216   54.4930   28.1460 C   0  0  0  0  0  0
    3.5615   54.4099   26.7542 C   0  0  0  0  0  0
    1.8680   54.8016   29.0374 Br  0  0  0  0  0  0
    3.3418   52.0970   18.4119 N   0  0  0  0  0  0
    2.3070   51.4651   18.9857 C   0  0  0  0  0  0
    1.4821   52.0273   19.7085 O   0  0  0  0  0  0
    2.3043   50.1628   18.6435 N   0  0  0  0  0  0
    1.4312   49.1336   19.0411 C   0  0  0  0  0  0
    1.5676   47.9236   18.3579 C   0  0  0  0  0  0
    0.7500   46.8416   18.6731 C   0  0  0  0  0  0
   -0.2068   46.9633   19.6814 C   0  0  0  0  0  0
   -0.3448   48.1664   20.3735 C   0  0  0  0  0  0
    0.4737   49.2487   20.0612 C   0  0  0  0  0  0
   -1.1019   45.7898   20.0338 C   0  0  0  0  0  0
    5.4645   57.4224   17.6130 H   0  0  0  0  0  0
    5.1050   56.4572   19.0320 H   0  0  0  0  0  0
    6.3061   55.9039   17.8671 H   0  0  0  0  0  0
    4.2885   56.0072   16.1411 H   0  0  0  0  0  0
    3.2661   56.0574   17.5384 H   0  0  0  0  0  0
    6.3883   53.7068   17.2670 H   0  0  0  0  0  0
    5.4150   52.4172   16.5841 H   0  0  0  0  0  0
    5.7154   53.8766   15.6607 H   0  0  0  0  0  0
    2.8931   53.9483   20.8991 H   0  0  0  0  0  0
    6.9022   53.9404   26.3521 H   0  0  0  0  0  0
    6.8191   54.0612   28.8034 H   0  0  0  0  0  0
    4.6725   54.4362   29.9598 H   0  0  0  0  0  0
    2.6360   54.4964   26.2070 H   0  0  0  0  0  0
    4.1165   51.5211   18.0825 H   0  0  0  0  0  0
    3.0159   49.8761   17.9768 H   0  0  0  0  0  0
    2.3068   47.8209   17.5749 H   0  0  0  0  0  0
    0.8657   45.9142   18.1317 H   0  0  0  0  0  0
   -1.0797   48.2642   21.1590 H   0  0  0  0  0  0
    0.3490   50.1577   20.6271 H   0  0  0  0  0  0
   -2.1485   46.0942   19.9934 H   0  0  0  0  0  0
   -0.8967   45.4517   21.0502 H   0  0  0  0  0  0
   -0.9698   44.9509   19.3498 H   0  0  0  0  0  0
  1  2  1  0  0  0
  1 34  1  0  0  0
  1 35  1  0  0  0
  1 36  1  0  0  0
  2  3  1  0  0  0
  2 37  1  0  0  0
  2 38  1  0  0  0
  3  4  1  0  0  0
  3  5  1  0  0  0
  3  6  1  0  0  0
  5 39  1  0  0  0
  5 40  1  0  0  0
  5 41  1  0  0  0
  6  7  1  0  0  0
  6  8  1  0  0  0
  6 23  1  0  0  0
  8  9  2  0  0  0
  8 10  1  0  0  0
 10 11  1  0  0  0
 10 42  1  0  0  0
 11 15  1  0  0  0
 11 12  2  0  0  0
 12 13  1  0  0  0
 13 14  2  0  0  0
 14 15  1  0  0  0
 14 16  1  0  0  0
 16 21  2  0  0  0
 16 17  1  0  0  0
 17 18  2  0  0  0
 17 43  1  0  0  0
 18 19  1  0  0  0
 18 44  1  0  0  0
 19 20  2  0  0  0
 19 45  1  0  0  0
 20 21  1  0  0  0
 20 22  1  0  0  0
 21 46  1  0  0  0
 23 24  1  0  0  0
 23 47  1  0  0  0
 24 25  2  0  0  0
 24 26  1  0  0  0
 26 27  1  0  0  0
 26 48  1  0  0  0
 27 32  2  0  0  0
 27 28  1  0  0  0
 28 29  2  0  0  0
 28 49  1  0  0  0
 29 30  1  0  0  0
 29 50  1  0  0  0
 30 31  2  0  0  0
 30 33  1  0  0  0
 31 32  1  0  0  0
 31 51  1  0  0  0
 32 52  1  0  0  0
 33 53  1  0  0  0
 33 54  1  0  0  0
 33 55  1  0  0  0
M  END
> <i_i_glide_confnum>
31

> <i_i_glide_lignum>
3417

> <i_i_glide_posenum>
228

> <i_i_glide_rotatable_bonds>
10

> <i_m_Source_File_Index>
3566

> <b_m_subgroup_collapsed>
0

> <r_i_docking_score>
-5.9826

> <r_i_glide_ecoul>
-8.10599

> <r_i_glide_eff_state_penalty>
0

> <r_i_glide_einternal>
8.99619

> <r_i_glide_emodel>
-62.954

> <r_i_glide_energy>
-48.56

> <r_i_glide_erotb>
0.728499

> <r_i_glide_esite>
-0.266783

> <r_i_glide_evdw>
-40.454

> <r_i_glide_gscore>
-5.9826

> <r_i_glide_hbond>
-0.466695

> <r_i_glide_ligand_efficiency>
-0.192987

> <r_i_glide_ligand_efficiency_ln>
-1.34926

> <r_i_glide_ligand_efficiency_sa>
-0.606246

> <r_i_glide_lipo>
-2.63478

> <r_i_glide_metal>
0

> <r_i_glide_rewards>
-0.104249

> <s_i_glide_gridfile>
wee1_glide-grid

> <s_m_Source_File>
wee1_decoys_glide_SP.sdf

> <s_m_Source_Path>
/Users/zhangxujun/Desktop

> <s_m_entry_id>
3841

> <s_m_entry_name>
wee1_decoys_glide_SP.3566

> <s_m_subgroup_title>
wee1_decoys_glide_SP

> <s_m_subgroupid>
wee1_decoys_glide_SP


$$$$
