ZINC40709637_3442
                    3D
 Schrodinger Suite 2024-2.
 52 55  0  0  1  0            999 V2000
    6.3061   54.2715   27.5872 C   0  0  0  0  0  0
    6.0246   54.7729   26.3199 C   0  0  0  0  0  0
    4.7948   54.4964   25.7296 C   0  0  0  0  0  0
    3.8396   53.7161   26.3914 C   0  0  0  0  0  0
    4.1448   53.2115   27.6620 C   0  0  0  0  0  0
    5.3695   53.4923   28.2587 C   0  0  0  0  0  0
    2.5047   53.5135   25.6521 C   0  0  0  0  0  0
    1.4083   52.6821   26.2119 N   0  0  0  0  0  0
    0.9870   52.5572   27.6316 C   0  0  0  0  0  0
    1.0217   53.7436   28.6116 C   0  0  0  0  0  0
    0.5042   53.5108   29.8914 C   0  0  0  0  0  0
    0.5397   54.5054   30.8646 C   0  0  0  0  0  0
    1.1044   55.7439   30.5624 C   0  0  0  0  0  0
    1.6165   55.9968   29.2978 C   0  0  0  0  0  0
    1.5701   55.0000   28.3303 C   0  0  0  0  0  0
    0.5794   52.0315   25.2367 C   0  0  0  0  0  0
    0.0329   50.7261   25.3997 C   0  0  0  0  0  0
   -0.7744   50.2089   24.3615 C   0  0  0  0  0  0
   -1.0208   50.9194   23.2305 N   0  0  0  0  0  0
   -0.4377   52.1344   23.1393 C   0  0  0  0  0  0
    0.3418   52.7194   24.0785 N   0  0  0  0  0  0
   -1.3365   48.9210   24.4784 N   0  0  0  0  0  0
   -2.0424   48.1179   23.5702 C   0  0  0  0  0  0
   -3.1411   47.4045   24.0579 C   0  0  0  0  0  0
   -3.8247   46.5066   23.2377 C   0  0  0  0  0  0
   -3.3961   46.2936   21.9284 C   0  0  0  0  0  0
   -2.2901   46.9849   21.4374 C   0  0  0  0  0  0
   -1.6055   47.8870   22.2535 C   0  0  0  0  0  0
   -0.5024   48.4961   21.7592 F   0  0  0  0  0  0
   -4.3044   45.0405   20.8210 Br  0  0  0  0  0  0
    0.3253   49.9247   26.5120 N   0  0  0  0  0  0
    7.2532   54.4919   28.0581 H   0  0  0  0  0  0
    6.7482   55.3796   25.7984 H   0  0  0  0  0  0
    4.5819   54.8977   24.7492 H   0  0  0  0  0  0
    3.4611   52.5860   28.2044 H   0  0  0  0  0  0
    5.5884   53.0997   29.2397 H   0  0  0  0  0  0
    2.0962   54.4889   25.3878 H   0  0  0  0  0  0
    2.7936   53.0826   24.6914 H   0  0  0  0  0  0
   -0.0532   52.2262   27.6535 H   0  0  0  0  0  0
    1.5468   51.7384   28.0813 H   0  0  0  0  0  0
    0.0760   52.5498   30.1424 H   0  0  0  0  0  0
    0.1408   54.3124   31.8507 H   0  0  0  0  0  0
    1.1406   56.5168   31.3173 H   0  0  0  0  0  0
    2.0513   56.9588   29.0686 H   0  0  0  0  0  0
    1.9933   55.2325   27.3763 H   0  0  0  0  0  0
   -0.6020   52.6821   22.2247 H   0  0  0  0  0  0
   -1.2402   48.5191   25.3995 H   0  0  0  0  0  0
   -3.4701   47.5484   25.0782 H   0  0  0  0  0  0
   -4.6823   45.9726   23.6194 H   0  0  0  0  0  0
   -1.9490   46.8114   20.4274 H   0  0  0  0  0  0
   -0.2992   49.1707   26.7837 H   0  0  0  0  0  0
    0.9382   50.3047   27.2177 H   0  0  0  0  0  0
  1  6  2  0  0  0
  1  2  1  0  0  0
  1 32  1  0  0  0
  2  3  2  0  0  0
  2 33  1  0  0  0
  3  4  1  0  0  0
  3 34  1  0  0  0
  4  5  2  0  0  0
  4  7  1  0  0  0
  5  6  1  0  0  0
  5 35  1  0  0  0
  6 36  1  0  0  0
  7  8  1  0  0  0
  7 37  1  0  0  0
  7 38  1  0  0  0
  8  9  1  0  0  0
  8 16  1  0  0  0
  9 10  1  0  0  0
  9 39  1  0  0  0
  9 40  1  0  0  0
 10 15  2  0  0  0
 10 11  1  0  0  0
 11 12  2  0  0  0
 11 41  1  0  0  0
 12 13  1  0  0  0
 12 42  1  0  0  0
 13 14  2  0  0  0
 13 43  1  0  0  0
 14 15  1  0  0  0
 14 44  1  0  0  0
 15 45  1  0  0  0
 16 21  2  0  0  0
 16 17  1  0  0  0
 17 18  2  0  0  0
 17 31  1  0  0  0
 18 19  1  0  0  0
 18 22  1  0  0  0
 19 20  2  0  0  0
 20 21  1  0  0  0
 20 46  1  0  0  0
 22 23  1  0  0  0
 22 47  1  0  0  0
 23 28  2  0  0  0
 23 24  1  0  0  0
 24 25  2  0  0  0
 24 48  1  0  0  0
 25 26  1  0  0  0
 25 49  1  0  0  0
 26 27  2  0  0  0
 26 30  1  0  0  0
 27 28  1  0  0  0
 27 50  1  0  0  0
 28 29  1  0  0  0
 31 51  1  0  0  0
 31 52  1  0  0  0
M  END
> <i_i_glide_confnum>
96

> <i_i_glide_lignum>
3443

> <i_i_glide_posenum>
318

> <i_i_glide_rotatable_bonds>
7

> <i_m_Source_File_Index>
974

> <b_m_subgroup_collapsed>
0

> <r_i_docking_score>
-5.82875

> <r_i_glide_ecoul>
-1.99362

> <r_i_glide_eff_state_penalty>
0

> <r_i_glide_einternal>
8.6288

> <r_i_glide_emodel>
-51.7775

> <r_i_glide_energy>
-40.9229

> <r_i_glide_erotb>
0.619886

> <r_i_glide_esite>
-0.108335

> <r_i_glide_evdw>
-38.9293

> <r_i_glide_gscore>
-5.82875

> <r_i_glide_hbond>
-0.108782

> <r_i_glide_ligand_efficiency>
-0.188024

> <r_i_glide_ligand_efficiency_ln>
-1.31456

> <r_i_glide_ligand_efficiency_sa>
-0.590656

> <r_i_glide_lipo>
-3.5204

> <r_i_glide_metal>
0

> <r_i_glide_rewards>
-0.465614

> <s_i_glide_gridfile>
wee1_glide-grid

> <s_m_Source_File>
wee1_decoys_glide_SP.sdf

> <s_m_Source_Path>
/Users/zhangxujun/Desktop

> <s_m_entry_id>
1249

> <s_m_entry_name>
wee1_decoys_glide_SP.974

> <s_m_subgroup_title>
wee1_decoys_glide_SP

> <s_m_subgroupid>
wee1_decoys_glide_SP


$$$$
