ZINC35768267_4990
                    3D
 Schrodinger Suite 2024-2.
 65 68  0  0  1  0            999 V2000
    7.1044   55.2924   25.7590 C   0  0  0  0  0  0
    5.7031   54.7568   25.6018 C   0  0  0  0  0  0
    4.9305   54.4908   26.7289 C   0  0  0  0  0  0
    3.6507   53.9652   26.5893 C   0  0  0  0  0  0
    3.1263   53.6955   25.3135 C   0  0  0  0  0  0
    3.8959   53.9998   24.1729 C   0  0  0  0  0  0
    5.1892   54.5050   24.3317 C   0  0  0  0  0  0
    3.3713   53.7726   22.7587 C   0  0  0  0  0  0
    1.8823   53.0725   25.0998 N   0  0  0  0  0  0
    0.9710   52.5916   25.9738 C   0  0  0  0  0  0
    1.0813   52.6411   27.2004 O   0  0  0  0  0  0
   -0.1405   52.1176   25.3590 N   0  0  0  0  0  0
   -0.0583   51.2645   24.1451 C   0  0  0  0  0  0
   -0.4024   49.8025   24.5381 C   0  0  0  0  0  0
   -1.7708   49.7283   25.2390 C   0  0  0  0  0  0
   -1.7552   50.6414   26.4824 C   0  0  0  0  0  0
   -1.4173   52.0978   26.1055 C   0  0  0  0  0  0
   -2.0797   48.2833   25.6817 N   0  3  0  0  0  0
   -3.6116   48.1071   25.6730 C   0  0  1  0  0  0
   -3.9789   48.6634   26.5391 H   0  0  0  0  0  0
   -4.0907   48.6920   24.3347 C   0  0  0  0  0  0
   -3.1217   50.1791   24.0997 S   0  0  0  0  0  0
   -4.0810   46.6524   25.7964 C   0  0  0  0  0  0
   -3.2966   45.7084   25.6816 O   0  0  0  0  0  0
   -5.4051   46.5125   25.9810 N   0  0  0  0  0  0
   -6.1189   45.2500   26.0961 C   0  0  0  0  0  0
   -6.1389   44.7123   27.5343 C   0  0  0  0  0  0
   -6.9801   43.4519   27.6818 C   0  0  0  0  0  0
   -8.2453   43.5279   28.2783 C   0  0  0  0  0  0
   -9.0029   42.3716   28.4775 C   0  0  0  0  0  0
   -8.5122   41.1367   28.0599 C   0  0  0  0  0  0
   -7.2672   41.0577   27.4395 C   0  0  0  0  0  0
   -6.4948   42.2057   27.2524 C   0  0  0  0  0  0
   -4.9415   42.0707   26.4944 Cl  0  0  0  0  0  0
   -9.4406   39.7043   28.3109 Cl  0  0  0  0  0  0
    7.7542   54.8807   24.9863 H   0  0  0  0  0  0
    7.1042   56.3787   25.6823 H   0  0  0  0  0  0
    7.5032   54.9903   26.7289 H   0  0  0  0  0  0
    5.3226   54.6804   27.7187 H   0  0  0  0  0  0
    3.1046   53.7615   27.4954 H   0  0  0  0  0  0
    5.7944   54.7134   23.4612 H   0  0  0  0  0  0
    4.0665   54.1221   21.9937 H   0  0  0  0  0  0
    3.1793   52.7122   22.5886 H   0  0  0  0  0  0
    2.4309   54.3066   22.6136 H   0  0  0  0  0  0
    1.6424   52.9779   24.1260 H   0  0  0  0  0  0
    0.8972   51.3321   23.6209 H   0  0  0  0  0  0
   -0.8014   51.6448   23.4446 H   0  0  0  0  0  0
    0.3852   49.4051   25.1828 H   0  0  0  0  0  0
   -0.3948   49.1774   23.6438 H   0  0  0  0  0  0
   -2.7156   50.6183   27.0014 H   0  0  0  0  0  0
   -1.0238   50.2887   27.2149 H   0  0  0  0  0  0
   -1.4182   52.7729   26.9635 H   0  0  0  0  0  0
   -2.1784   52.4886   25.4319 H   0  0  0  0  0  0
   -1.6960   48.1023   26.6151 H   0  0  0  0  0  0
   -3.8949   48.0345   23.4823 H   0  0  0  0  0  0
   -5.1508   48.9556   24.3344 H   0  0  0  0  0  0
   -5.9676   47.3461   26.0589 H   0  0  0  0  0  0
   -5.7444   44.5002   25.3975 H   0  0  0  0  0  0
   -7.1470   45.3972   25.7612 H   0  0  0  0  0  0
   -6.5114   45.4838   28.2112 H   0  0  0  0  0  0
   -5.1213   44.5065   27.8697 H   0  0  0  0  0  0
   -8.6380   44.4758   28.6176 H   0  0  0  0  0  0
   -9.9652   42.4270   28.9700 H   0  0  0  0  0  0
   -6.8956   40.0948   27.1252 H   0  0  0  0  0  0
   -1.6470   47.6255   25.0514 H   0  0  0  0  0  0
  1  2  1  0  0  0
  1 36  1  0  0  0
  1 37  1  0  0  0
  1 38  1  0  0  0
  2  7  2  0  0  0
  2  3  1  0  0  0
  3  4  2  0  0  0
  3 39  1  0  0  0
  4  5  1  0  0  0
  4 40  1  0  0  0
  5  6  2  0  0  0
  5  9  1  0  0  0
  6  7  1  0  0  0
  6  8  1  0  0  0
  7 41  1  0  0  0
  8 42  1  0  0  0
  8 43  1  0  0  0
  8 44  1  0  0  0
  9 10  1  0  0  0
  9 45  1  0  0  0
 10 11  2  0  0  0
 10 12  1  0  0  0
 12 17  1  0  0  0
 12 13  1  0  0  0
 13 14  1  0  0  0
 13 46  1  0  0  0
 13 47  1  0  0  0
 14 15  1  0  0  0
 14 48  1  0  0  0
 14 49  1  0  0  0
 15 22  1  0  0  0
 15 16  1  0  0  0
 15 18  1  0  0  0
 16 17  1  0  0  0
 16 50  1  0  0  0
 16 51  1  0  0  0
 17 52  1  0  0  0
 17 53  1  0  0  0
 18 19  1  0  0  0
 18 54  1  0  0  0
 18 65  1  0  0  0
 19 20  1  0  0  0
 19 21  1  0  0  0
 19 23  1  0  0  0
 21 22  1  0  0  0
 21 55  1  0  0  0
 21 56  1  0  0  0
 23 24  2  0  0  0
 23 25  1  0  0  0
 25 26  1  0  0  0
 25 57  1  0  0  0
 26 27  1  0  0  0
 26 58  1  0  0  0
 26 59  1  0  0  0
 27 28  1  0  0  0
 27 60  1  0  0  0
 27 61  1  0  0  0
 28 33  2  0  0  0
 28 29  1  0  0  0
 29 30  2  0  0  0
 29 62  1  0  0  0
 30 31  1  0  0  0
 30 63  1  0  0  0
 31 32  2  0  0  0
 31 35  1  0  0  0
 32 33  1  0  0  0
 32 64  1  0  0  0
 33 34  1  0  0  0
M  CHG  1  18   1
M  END
> <i_i_glide_confnum>
117

> <i_i_glide_lignum>
4991

> <i_i_glide_posenum>
160

> <i_i_glide_rotatable_bonds>
8

> <i_m_Source_File_Index>
4772

> <b_m_subgroup_collapsed>
0

> <r_i_docking_score>
-5.09161

> <r_i_glide_ecoul>
-7.28091

> <r_i_glide_eff_state_penalty>
0

> <r_i_glide_einternal>
3.98984

> <r_i_glide_emodel>
-58.7694

> <r_i_glide_energy>
-45.3416

> <r_i_glide_erotb>
0.527257

> <r_i_glide_esite>
-0.150719

> <r_i_glide_evdw>
-38.0607

> <r_i_glide_gscore>
-5.09161

> <r_i_glide_hbond>
-0.36

> <r_i_glide_ligand_efficiency>
-0.149753

> <r_i_glide_ligand_efficiency_ln>
-1.12488

> <r_i_glide_ligand_efficiency_sa>
-0.485142

> <r_i_glide_lipo>
-1.882

> <r_i_glide_metal>
0

> <r_i_glide_rewards>
-0.23097

> <s_i_glide_gridfile>
wee1_glide-grid

> <s_m_Source_File>
wee1_decoys_glide_SP.sdf

> <s_m_Source_Path>
/Users/zhangxujun/Desktop

> <s_m_entry_id>
5047

> <s_m_entry_name>
wee1_decoys_glide_SP.4772

> <s_m_subgroup_title>
wee1_decoys_glide_SP

> <s_m_subgroupid>
wee1_decoys_glide_SP


$$$$
