ZINC36014002_325
                    3D
 Schrodinger Suite 2024-2.
 75 77  0  0  1  0            999 V2000
   -2.4356   48.3532   25.5815 C   0  0  0  0  0  0
   -2.8350   49.2968   24.4269 C   0  0  0  0  0  0
   -1.7327   49.5273   23.4475 N   0  0  0  0  0  0
   -0.8815   50.6399   23.4409 C   0  0  0  0  0  0
    0.2193   50.6821   22.6247 C   0  0  0  0  0  0
    0.4651   49.5707   21.5802 C   0  0  1  0  0  0
    1.4252   49.0855   21.7780 H   0  0  0  0  0  0
   -0.5192   48.4967   21.7615 N   0  0  0  0  0  0
   -1.6058   48.4816   22.5595 C   0  0  0  0  0  0
   -2.4000   47.5549   22.3841 O   0  0  0  0  0  0
    0.5138   50.0550   20.1259 C   0  0  0  0  0  0
   -0.6501   50.5293   19.5079 C   0  0  0  0  0  0
   -0.6058   51.0000   18.1988 C   0  0  0  0  0  0
    0.6039   51.0018   17.5078 C   0  0  0  0  0  0
    1.7667   50.5337   18.1162 C   0  0  0  0  0  0
    1.7241   50.0620   19.4242 C   0  0  0  0  0  0
    0.6605   51.5885   15.8854 Cl  0  0  0  0  0  0
    1.2471   51.7561   22.5547 C   0  0  0  0  0  0
    2.3999   51.5222   22.1804 O   0  0  0  0  0  0
    0.8286   52.9920   22.8761 O   0  0  0  0  0  0
    1.7049   54.1134   22.8167 C   0  0  0  0  0  0
    2.5408   54.2278   24.0902 C   0  0  0  0  0  0
   -1.2962   51.7496   24.4421 C   0  0  0  0  0  0
   -1.0039   51.3871   25.9178 N   0  3  2  0  0  0
   -1.9115   52.1557   26.9108 C   0  0  0  0  0  0
   -1.8475   51.5812   28.3392 C   0  0  0  0  0  0
   -0.6858   52.0902   29.2316 C   0  0  0  0  0  0
    0.6609   52.0430   28.6273 N   0  0  0  0  0  0
    0.8628   50.9897   27.6187 C   0  0  0  0  0  0
    0.5182   51.4283   26.1931 C   0  0  0  0  0  0
    1.5461   53.0594   28.8485 C   0  0  0  0  0  0
    1.2455   54.0767   29.4762 O   0  0  0  0  0  0
    2.8347   52.7847   28.5366 N   0  0  0  0  0  0
    3.9896   53.7008   28.5106 C   0  0  0  0  0  0
    3.8157   54.7268   27.3834 C   0  0  0  0  0  0
    5.2633   52.8959   28.1975 C   0  0  0  0  0  0
    4.2106   54.4291   29.8540 C   0  0  0  0  0  0
   -3.2199   48.3069   26.3364 H   0  0  0  0  0  0
   -2.2859   47.3325   25.2276 H   0  0  0  0  0  0
   -1.5178   48.6655   26.0798 H   0  0  0  0  0  0
   -3.2428   50.2107   24.8465 H   0  0  0  0  0  0
   -3.6981   48.8550   23.9240 H   0  0  0  0  0  0
   -0.4715   47.7290   21.1085 H   0  0  0  0  0  0
   -1.5877   50.5374   20.0448 H   0  0  0  0  0  0
   -1.5039   51.3645   17.7229 H   0  0  0  0  0  0
    2.7038   50.5321   17.5788 H   0  0  0  0  0  0
    2.6379   49.7131   19.8849 H   0  0  0  0  0  0
    2.3451   54.0668   21.9339 H   0  0  0  0  0  0
    1.1040   55.0140   22.7139 H   0  0  0  0  0  0
    3.2005   55.0930   24.0415 H   0  0  0  0  0  0
    1.8954   54.3467   24.9601 H   0  0  0  0  0  0
    3.1622   53.3449   24.2392 H   0  0  0  0  0  0
   -2.3664   51.9305   24.3454 H   0  0  0  0  0  0
   -0.8668   52.7370   24.3310 H   0  0  0  0  0  0
   -2.9222   52.0087   26.5238 H   0  0  0  0  0  0
   -1.6574   53.2146   26.8499 H   0  0  0  0  0  0
   -1.8028   50.4970   28.2728 H   0  0  0  0  0  0
   -2.7964   51.7309   28.8533 H   0  0  0  0  0  0
   -0.6662   51.4131   30.0880 H   0  0  0  0  0  0
   -0.9060   53.0929   29.5977 H   0  0  0  0  0  0
    1.9041   50.6715   27.6342 H   0  0  0  0  0  0
    0.3058   50.0969   27.8770 H   0  0  0  0  0  0
    0.8744   52.4297   25.9483 H   0  0  0  0  0  0
    0.9474   50.7255   25.4770 H   0  0  0  0  0  0
    3.0407   51.8514   28.2183 H   0  0  0  0  0  0
    4.7088   55.3386   27.2827 H   0  0  0  0  0  0
    2.9540   55.3738   27.5486 H   0  0  0  0  0  0
    3.6789   54.2272   26.4290 H   0  0  0  0  0  0
    5.3874   52.0574   28.8797 H   0  0  0  0  0  0
    5.2422   52.4968   27.1837 H   0  0  0  0  0  0
    6.1630   53.5091   28.2705 H   0  0  0  0  0  0
    4.2929   53.7236   30.6808 H   0  0  0  0  0  0
    5.1281   55.0186   29.8377 H   0  0  0  0  0  0
    3.4020   55.1241   30.0757 H   0  0  0  0  0  0
   -1.2868   50.4199   26.0255 H   0  0  0  0  0  0
  1  2  1  0  0  0
  1 38  1  0  0  0
  1 39  1  0  0  0
  1 40  1  0  0  0
  2  3  1  0  0  0
  2 41  1  0  0  0
  2 42  1  0  0  0
  3  9  1  0  0  0
  3  4  1  0  0  0
  4  5  2  0  0  0
  4 23  1  0  0  0
  5  6  1  0  0  0
  5 18  1  0  0  0
  6  7  1  0  0  0
  6  8  1  0  0  0
  6 11  1  0  0  0
  8  9  1  0  0  0
  8 43  1  0  0  0
  9 10  2  0  0  0
 11 16  2  0  0  0
 11 12  1  0  0  0
 12 13  2  0  0  0
 12 44  1  0  0  0
 13 14  1  0  0  0
 13 45  1  0  0  0
 14 15  2  0  0  0
 14 17  1  0  0  0
 15 16  1  0  0  0
 15 46  1  0  0  0
 16 47  1  0  0  0
 18 19  2  0  0  0
 18 20  1  0  0  0
 20 21  1  0  0  0
 21 22  1  0  0  0
 21 48  1  0  0  0
 21 49  1  0  0  0
 22 50  1  0  0  0
 22 51  1  0  0  0
 22 52  1  0  0  0
 23 24  1  0  0  0
 23 53  1  0  0  0
 23 54  1  0  0  0
 24 30  1  0  0  0
 24 25  1  0  0  0
 24 75  1  0  0  0
 25 26  1  0  0  0
 25 55  1  0  0  0
 25 56  1  0  0  0
 26 27  1  0  0  0
 26 57  1  0  0  0
 26 58  1  0  0  0
 27 28  1  0  0  0
 27 59  1  0  0  0
 27 60  1  0  0  0
 28 29  1  0  0  0
 28 31  1  0  0  0
 29 30  1  0  0  0
 29 61  1  0  0  0
 29 62  1  0  0  0
 30 63  1  0  0  0
 30 64  1  0  0  0
 31 32  2  0  0  0
 31 33  1  0  0  0
 33 34  1  0  0  0
 33 65  1  0  0  0
 34 35  1  0  0  0
 34 36  1  0  0  0
 34 37  1  0  0  0
 35 66  1  0  0  0
 35 67  1  0  0  0
 35 68  1  0  0  0
 36 69  1  0  0  0
 36 70  1  0  0  0
 36 71  1  0  0  0
 37 72  1  0  0  0
 37 73  1  0  0  0
 37 74  1  0  0  0
M  CHG  1  24   1
M  END
> <i_i_glide_confnum>
302

> <i_i_glide_lignum>
326

> <i_i_glide_posenum>
234

> <i_i_glide_rotatable_bonds>
10

> <i_m_Source_File_Index>
3630

> <b_m_subgroup_collapsed>
0

> <r_i_docking_score>
-3.19533

> <r_i_glide_ecoul>
-1.96414

> <r_i_glide_eff_state_penalty>
0

> <r_i_glide_einternal>
6.11413

> <r_i_glide_emodel>
-44.7993

> <r_i_glide_energy>
-37.4863

> <r_i_glide_erotb>
0.529938

> <r_i_glide_esite>
-0.0305276

> <r_i_glide_evdw>
-35.5222

> <r_i_glide_gscore>
-3.19533

> <r_i_glide_hbond>
0

> <r_i_glide_ligand_efficiency>
-0.0887593

> <r_i_glide_ligand_efficiency_ln>
-0.697136

> <r_i_glide_ligand_efficiency_sa>
-0.293077

> <r_i_glide_lipo>
-1.14498

> <r_i_glide_metal>
0

> <r_i_glide_rewards>
-0.479038

> <s_i_glide_gridfile>
wee1_glide-grid

> <s_m_Source_File>
wee1_decoys_glide_SP.sdf

> <s_m_Source_Path>
/Users/zhangxujun/Desktop

> <s_m_entry_id>
3905

> <s_m_entry_name>
wee1_decoys_glide_SP.3630

> <s_m_subgroup_title>
wee1_decoys_glide_SP

> <s_m_subgroupid>
wee1_decoys_glide_SP


$$$$
