ZINC67524482_1464
                    3D
 Schrodinger Suite 2024-2.
 42 44  0  0  1  0            999 V2000
   -0.0710   51.8998   25.5324 C   0  0  0  0  0  0
    0.5619   51.7561   24.1604 C   0  0  0  0  0  0
    0.8376   50.4920   23.6404 C   0  0  0  0  0  0
    1.4374   50.3689   22.3898 C   0  0  0  0  0  0
    1.7661   51.5054   21.6323 C   0  0  0  0  0  0
    1.4815   52.7707   22.1760 C   0  0  0  0  0  0
    0.8835   52.8959   23.4265 C   0  0  0  0  0  0
    2.5403   51.3713   20.2911 C   0  0  2  0  0  0
    3.9681   51.8281   20.5071 C   0  0  0  0  0  0
    4.7648   51.3064   21.2815 O   0  0  0  0  0  0
    4.1508   52.9154   19.7253 N   0  0  0  0  0  0
    3.1041   53.1584   18.8991 C   0  0  0  0  0  0
    3.0113   54.0249   18.0320 O   0  0  0  0  0  0
    2.1401   52.3055   19.2714 N   0  0  0  0  0  0
    5.3394   53.8099   19.7397 C   0  0  0  0  0  0
    5.6843   54.4970   21.0907 C   0  0  0  0  0  0
    6.5462   55.3760   21.0606 O   0  0  0  0  0  0
    5.0817   54.0966   22.2340 N   0  0  0  0  0  0
    5.4623   54.4337   23.5261 C   0  0  0  0  0  0
    6.6131   54.9292   23.9227 N   0  0  0  0  0  0
    6.6997   55.0226   25.3060 N   0  0  0  0  0  0
    5.6186   54.6078   25.9274 C   0  0  0  0  0  0
    4.3634   54.0968   24.8263 S   0  0  0  0  0  0
    5.5212   54.5111   27.4356 C   0  0  0  0  0  0
    6.0235   53.3613   27.8849 F   0  0  0  0  0  0
    4.2650   54.6180   27.8697 F   0  0  0  0  0  0
    2.5756   49.9424   19.6821 C   0  0  0  0  0  0
   -0.2245   50.9362   26.0208 H   0  0  0  0  0  0
    0.5651   52.5077   26.1767 H   0  0  0  0  0  0
   -1.0335   52.4055   25.4534 H   0  0  0  0  0  0
    0.6058   49.6020   24.2088 H   0  0  0  0  0  0
    1.6618   49.3739   22.0375 H   0  0  0  0  0  0
    1.7540   53.6758   21.6572 H   0  0  0  0  0  0
    0.6866   53.8790   23.8299 H   0  0  0  0  0  0
    1.4242   52.0255   18.6189 H   0  0  0  0  0  0
    5.1994   54.6138   19.0150 H   0  0  0  0  0  0
    6.2076   53.2459   19.3980 H   0  0  0  0  0  0
    4.3131   53.4479   22.1562 H   0  0  0  0  0  0
    6.0888   55.2970   27.9355 H   0  0  0  0  0  0
    3.1037   49.2363   20.3220 H   0  0  0  0  0  0
    1.5694   49.5542   19.5228 H   0  0  0  0  0  0
    3.0838   49.9177   18.7150 H   0  0  0  0  0  0
  1  2  1  0  0  0
  1 28  1  0  0  0
  1 29  1  0  0  0
  1 30  1  0  0  0
  2  7  2  0  0  0
  2  3  1  0  0  0
  3  4  2  0  0  0
  3 31  1  0  0  0
  4  5  1  0  0  0
  4 32  1  0  0  0
  5  6  2  0  0  0
  5  8  1  0  0  0
  6  7  1  0  0  0
  6 33  1  0  0  0
  7 34  1  0  0  0
  8 14  1  0  0  0
  8  9  1  0  0  0
  8 27  1  0  0  0
  9 10  2  0  0  0
  9 11  1  0  0  0
 11 12  1  0  0  0
 11 15  1  0  0  0
 12 13  2  0  0  0
 12 14  1  0  0  0
 14 35  1  0  0  0
 15 16  1  0  0  0
 15 36  1  0  0  0
 15 37  1  0  0  0
 16 17  2  0  0  0
 16 18  1  0  0  0
 18 19  1  0  0  0
 18 38  1  0  0  0
 19 23  1  0  0  0
 19 20  2  0  0  0
 20 21  1  0  0  0
 21 22  2  0  0  0
 22 23  1  0  0  0
 22 24  1  0  0  0
 24 25  1  0  0  0
 24 26  1  0  0  0
 24 39  1  0  0  0
 27 40  1  0  0  0
 27 41  1  0  0  0
 27 42  1  0  0  0
M  END
> <i_i_glide_confnum>
21

> <i_i_glide_lignum>
1465

> <i_i_glide_posenum>
117

> <i_i_glide_rotatable_bonds>
6

> <i_m_Source_File_Index>
2482

> <b_m_subgroup_collapsed>
0

> <r_i_docking_score>
-5.29242

> <r_i_glide_ecoul>
-3.90319

> <r_i_glide_eff_state_penalty>
0

> <r_i_glide_einternal>
8.6947

> <r_i_glide_emodel>
-51.8221

> <r_i_glide_energy>
-40.9281

> <r_i_glide_erotb>
0.625422

> <r_i_glide_esite>
-0.121688

> <r_i_glide_evdw>
-37.0249

> <r_i_glide_gscore>
-5.29242

> <r_i_glide_hbond>
0

> <r_i_glide_ligand_efficiency>
-0.196016

> <r_i_glide_ligand_efficiency_ln>
-1.23199

> <r_i_glide_ligand_efficiency_sa>
-0.588047

> <r_i_glide_lipo>
-1.60556

> <r_i_glide_metal>
0

> <r_i_glide_rewards>
-1.75387

> <s_i_glide_gridfile>
wee1_glide-grid

> <s_m_Source_File>
wee1_decoys_glide_SP.sdf

> <s_m_Source_Path>
/Users/zhangxujun/Desktop

> <s_m_entry_id>
2757

> <s_m_entry_name>
wee1_decoys_glide_SP.2482

> <s_m_subgroup_title>
wee1_decoys_glide_SP

> <s_m_subgroupid>
wee1_decoys_glide_SP


$$$$
