ZINC39678226_2210
                    3D
 Schrodinger Suite 2024-2.
 76 79  0  0  1  0            999 V2000
   -4.1151   45.1676   26.0773 C   0  0  0  0  0  0
   -3.6907   46.6263   25.8585 C   0  0  0  0  0  0
   -2.6208   46.8477   24.7550 C   0  0  0  0  0  0
   -2.3285   48.3512   24.4070 C   0  0  1  0  0  0
   -3.2941   48.7686   24.1186 H   0  0  0  0  0  0
   -1.8923   49.1208   25.6810 C   0  0  0  0  0  0
   -1.4619   48.5352   23.1050 C   0  0  0  0  0  0
   -1.4658   47.6072   22.2909 O   0  0  0  0  0  0
   -0.7577   49.6705   22.8156 N   0  0  0  0  0  0
   -0.6788   50.8671   23.6428 C   0  0  0  0  0  0
    0.1070   51.9204   22.8309 C   0  0  2  0  0  0
   -0.6020   52.6674   22.4752 H   0  0  0  0  0  0
    0.7668   51.1492   21.6372 C   0  0  0  0  0  0
   -0.0994   49.8699   21.5193 C   0  0  0  0  0  0
    0.7766   52.0137   20.3496 C   0  0  0  0  0  0
    1.2425   51.2244   19.1117 C   0  0  0  0  0  0
    2.7045   50.8010   19.3522 N   0  3  0  0  0  0
    2.9355   50.0566   20.6868 C   0  0  0  0  0  0
    2.2654   50.7841   21.8718 C   0  0  0  0  0  0
    1.0915   52.6418   23.8025 C   0  0  0  0  0  0
    1.5039   52.0963   24.8257 O   0  0  0  0  0  0
    1.4524   53.8966   23.4979 N   0  0  0  0  0  0
    2.4736   54.6415   24.2466 C   0  0  0  0  0  0
    3.9276   54.3728   23.8270 C   0  0  0  0  0  0
    4.1579   54.0966   22.4672 C   0  0  0  0  0  0
    5.4452   53.9854   21.9615 C   0  0  0  0  0  0
    6.5268   54.1585   22.8117 C   0  0  0  0  0  0
    6.3226   54.4116   24.1504 C   0  0  0  0  0  0
    5.0375   54.4967   24.7103 C   0  0  0  0  0  0
    4.9349   54.7368   26.0847 N   0  0  0  0  0  0
    6.0617   55.2967   26.8562 C   0  0  0  0  0  0
    7.0682   54.2521   27.3510 C   0  0  0  0  0  0
    6.3514   53.3258   28.3096 C   0  0  0  0  0  0
    5.0518   52.8131   27.6839 C   0  0  0  0  0  0
    4.1715   53.8809   27.0144 C   0  0  0  0  0  0
   -4.9190   45.1187   26.8116 H   0  0  0  0  0  0
   -3.2969   44.5698   26.4818 H   0  0  0  0  0  0
   -4.4955   44.7123   25.1622 H   0  0  0  0  0  0
   -4.5762   47.2207   25.6271 H   0  0  0  0  0  0
   -3.3241   46.9837   26.8203 H   0  0  0  0  0  0
   -1.6917   46.3580   25.0498 H   0  0  0  0  0  0
   -2.9665   46.3261   23.8614 H   0  0  0  0  0  0
   -1.9949   50.1977   25.6126 H   0  0  0  0  0  0
   -2.5499   48.8995   26.5088 H   0  0  0  0  0  0
   -0.8762   48.8715   25.9921 H   0  0  0  0  0  0
   -1.6774   51.2569   23.8408 H   0  0  0  0  0  0
   -0.1521   50.5545   24.5434 H   0  0  0  0  0  0
    0.4232   49.0053   21.1090 H   0  0  0  0  0  0
   -0.9174   50.0798   20.8284 H   0  0  0  0  0  0
   -0.2355   52.3623   20.1401 H   0  0  0  0  0  0
    1.3751   52.9126   20.4887 H   0  0  0  0  0  0
    0.6725   50.3137   18.9237 H   0  0  0  0  0  0
    1.2518   51.8347   18.2057 H   0  0  0  0  0  0
    3.0484   50.2386   18.5778 H   0  0  0  0  0  0
    2.6040   49.0263   20.5457 H   0  0  0  0  0  0
    4.0133   50.0967   20.8089 H   0  0  0  0  0  0
    2.8637   51.6679   22.0898 H   0  0  0  0  0  0
    2.3535   50.1585   22.7630 H   0  0  0  0  0  0
    1.1346   54.3065   22.6321 H   0  0  0  0  0  0
    2.2965   55.6967   24.0817 H   0  0  0  0  0  0
    2.3000   54.4965   25.3060 H   0  0  0  0  0  0
    3.3354   54.0207   21.7714 H   0  0  0  0  0  0
    5.6009   53.7953   20.9091 H   0  0  0  0  0  0
    7.5439   54.1014   22.4550 H   0  0  0  0  0  0
    7.2179   54.5592   24.7257 H   0  0  0  0  0  0
    6.5623   56.0968   26.3197 H   0  0  0  0  0  0
    5.6315   55.6967   27.7668 H   0  0  0  0  0  0
    7.4962   53.6529   26.5508 H   0  0  0  0  0  0
    7.9045   54.7389   27.8466 H   0  0  0  0  0  0
    6.1536   53.8366   29.2529 H   0  0  0  0  0  0
    7.0227   52.4968   28.4816 H   0  0  0  0  0  0
    4.4709   52.2621   28.4262 H   0  0  0  0  0  0
    5.3087   52.1017   26.9131 H   0  0  0  0  0  0
    3.6991   54.5111   27.7699 H   0  0  0  0  0  0
    3.3698   53.3457   26.5141 H   0  0  0  0  0  0
    3.2875   51.6263   19.3406 H   0  0  0  0  0  0
  1  2  1  0  0  0
  1 36  1  0  0  0
  1 37  1  0  0  0
  1 38  1  0  0  0
  2  3  1  0  0  0
  2 39  1  0  0  0
  2 40  1  0  0  0
  3  4  1  0  0  0
  3 41  1  0  0  0
  3 42  1  0  0  0
  4  5  1  0  0  0
  4  6  1  0  0  0
  4  7  1  0  0  0
  6 43  1  0  0  0
  6 44  1  0  0  0
  6 45  1  0  0  0
  7  8  2  0  0  0
  7  9  1  0  0  0
  9 14  1  0  0  0
  9 10  1  0  0  0
 10 11  1  0  0  0
 10 46  1  0  0  0
 10 47  1  0  0  0
 11 12  1  0  0  0
 11 13  1  0  0  0
 11 20  1  0  0  0
 13 19  1  0  0  0
 13 14  1  0  0  0
 13 15  1  0  0  0
 14 48  1  0  0  0
 14 49  1  0  0  0
 15 16  1  0  0  0
 15 50  1  0  0  0
 15 51  1  0  0  0
 16 17  1  0  0  0
 16 52  1  0  0  0
 16 53  1  0  0  0
 17 18  1  0  0  0
 17 54  1  0  0  0
 17 76  1  0  0  0
 18 19  1  0  0  0
 18 55  1  0  0  0
 18 56  1  0  0  0
 19 57  1  0  0  0
 19 58  1  0  0  0
 20 21  2  0  0  0
 20 22  1  0  0  0
 22 23  1  0  0  0
 22 59  1  0  0  0
 23 24  1  0  0  0
 23 60  1  0  0  0
 23 61  1  0  0  0
 24 29  2  0  0  0
 24 25  1  0  0  0
 25 26  2  0  0  0
 25 62  1  0  0  0
 26 27  1  0  0  0
 26 63  1  0  0  0
 27 28  2  0  0  0
 27 64  1  0  0  0
 28 29  1  0  0  0
 28 65  1  0  0  0
 29 30  1  0  0  0
 30 35  1  0  0  0
 30 31  1  0  0  0
 31 32  1  0  0  0
 31 66  1  0  0  0
 31 67  1  0  0  0
 32 33  1  0  0  0
 32 68  1  0  0  0
 32 69  1  0  0  0
 33 34  1  0  0  0
 33 70  1  0  0  0
 33 71  1  0  0  0
 34 35  1  0  0  0
 34 72  1  0  0  0
 34 73  1  0  0  0
 35 74  1  0  0  0
 35 75  1  0  0  0
M  CHG  1  17   1
M  END
> <i_i_glide_confnum>
400

> <i_i_glide_lignum>
2211

> <i_i_glide_posenum>
397

> <i_i_glide_rotatable_bonds>
9

> <i_m_Source_File_Index>
222

> <b_m_subgroup_collapsed>
0

> <r_i_docking_score>
-4.92418

> <r_i_glide_ecoul>
-2.26613

> <r_i_glide_eff_state_penalty>
0

> <r_i_glide_einternal>
8.80509

> <r_i_glide_emodel>
-36.0694

> <r_i_glide_energy>
-32.2821

> <r_i_glide_erotb>
0.774129

> <r_i_glide_esite>
-0.0870283

> <r_i_glide_evdw>
-30.016

> <r_i_glide_gscore>
-4.92418

> <r_i_glide_hbond>
-0.0133604

> <r_i_glide_ligand_efficiency>
-0.149218

> <r_i_glide_ligand_efficiency_ln>
-1.09511

> <r_i_glide_ligand_efficiency_sa>
-0.478621

> <r_i_glide_lipo>
-2.83776

> <r_i_glide_metal>
0

> <r_i_glide_rewards>
-0.919441

> <s_i_glide_gridfile>
wee1_glide-grid

> <s_m_Source_File>
wee1_decoys_glide_SP.sdf

> <s_m_Source_Path>
/Users/zhangxujun/Desktop

> <s_m_entry_id>
497

> <s_m_entry_name>
wee1_decoys_glide_SP.222

> <s_m_subgroup_title>
wee1_decoys_glide_SP

> <s_m_subgroupid>
wee1_decoys_glide_SP


$$$$
