ZINC66644340_1404
                    3D
 Schrodinger Suite 2024-2.
 56 58  0  0  1  0            999 V2000
    5.8436   53.6833   28.3802 C   0  0  0  0  0  0
    4.4246   53.6149   28.3814 O   0  0  0  0  0  0
    3.7603   52.7566   29.1906 C   0  0  0  0  0  0
    4.3040   52.0964   30.0785 O   0  0  0  0  0  0
    2.3873   52.7172   28.8948 N   0  0  0  0  0  0
    1.4659   51.9083   29.6989 C   0  0  0  0  0  0
    0.1368   52.6407   29.6060 C   0  0  0  0  0  0
    0.1562   53.1922   28.1898 C   0  0  0  0  0  0
    1.6409   53.5231   27.8917 C   0  0  2  0  0  0
    1.8068   54.5741   28.1376 H   0  0  0  0  0  0
    2.0319   53.2970   26.4058 C   0  0  0  0  0  0
    1.3958   52.4964   25.7204 O   0  0  0  0  0  0
    3.0715   54.0362   25.9663 N   0  0  0  0  0  0
    3.6461   54.0685   24.6857 C   0  0  0  0  0  0
    2.9376   53.7916   23.5064 C   0  0  0  0  0  0
    3.5792   53.8846   22.2728 C   0  0  0  0  0  0
    4.9218   54.2638   22.2102 C   0  0  0  0  0  0
    5.6403   54.4964   23.3889 C   0  0  0  0  0  0
    4.9950   54.4229   24.6180 C   0  0  0  0  0  0
    5.5025   54.4081   20.9424 N   0  0  0  0  0  0
    6.3493   55.3866   20.5572 C   0  0  0  0  0  0
    6.7066   56.3221   21.2783 O   0  0  0  0  0  0
    6.6484   55.3561   19.2430 N   0  0  0  0  0  0
    7.9888   54.9160   18.8367 C   0  0  0  0  0  0
    8.0440   53.9426   17.6354 C   0  0  0  0  0  0
    6.9097   52.8992   17.5273 C   0  0  0  0  0  0
    5.6013   53.4297   16.9029 C   0  0  0  0  0  0
    4.8160   54.4572   17.7416 C   0  0  0  0  0  0
    5.6448   55.6683   18.2157 C   0  0  0  0  0  0
    6.1798   54.2873   27.5398 H   0  0  0  0  0  0
    6.2950   52.6948   28.2814 H   0  0  0  0  0  0
    6.2190   54.1610   29.2821 H   0  0  0  0  0  0
    1.3936   50.9010   29.2765 H   0  0  0  0  0  0
    1.7676   51.8061   30.7429 H   0  0  0  0  0  0
   -0.7248   52.0030   29.8149 H   0  0  0  0  0  0
    0.1244   53.4650   30.3208 H   0  0  0  0  0  0
   -0.2309   52.4163   27.5265 H   0  0  0  0  0  0
   -0.4937   54.0596   28.0822 H   0  0  0  0  0  0
    3.5629   54.5619   26.6727 H   0  0  0  0  0  0
    1.8907   53.5297   23.5267 H   0  0  0  0  0  0
    3.0165   53.6945   21.3695 H   0  0  0  0  0  0
    6.6846   54.7736   23.3542 H   0  0  0  0  0  0
    5.5561   54.6371   25.5130 H   0  0  0  0  0  0
    5.1726   53.7791   20.2260 H   0  0  0  0  0  0
    8.5243   55.8115   18.5183 H   0  0  0  0  0  0
    8.5411   54.4967   19.6803 H   0  0  0  0  0  0
    8.0661   54.5240   16.7128 H   0  0  0  0  0  0
    9.0101   53.4354   17.6580 H   0  0  0  0  0  0
    7.2623   52.0663   16.9157 H   0  0  0  0  0  0
    6.7041   52.4675   18.5062 H   0  0  0  0  0  0
    4.9460   52.5785   16.7016 H   0  0  0  0  0  0
    5.8252   53.8597   15.9242 H   0  0  0  0  0  0
    4.3330   53.9613   18.5835 H   0  0  0  0  0  0
    3.9957   54.8285   17.1245 H   0  0  0  0  0  0
    4.9521   56.4025   18.6309 H   0  0  0  0  0  0
    6.1224   56.2173   17.4048 H   0  0  0  0  0  0
  1  2  1  0  0  0
  1 30  1  0  0  0
  1 31  1  0  0  0
  1 32  1  0  0  0
  2  3  1  0  0  0
  3  4  2  0  0  0
  3  5  1  0  0  0
  5  9  1  0  0  0
  5  6  1  0  0  0
  6  7  1  0  0  0
  6 33  1  0  0  0
  6 34  1  0  0  0
  7  8  1  0  0  0
  7 35  1  0  0  0
  7 36  1  0  0  0
  8  9  1  0  0  0
  8 37  1  0  0  0
  8 38  1  0  0  0
  9 10  1  0  0  0
  9 11  1  0  0  0
 11 12  2  0  0  0
 11 13  1  0  0  0
 13 14  1  0  0  0
 13 39  1  0  0  0
 14 19  2  0  0  0
 14 15  1  0  0  0
 15 16  2  0  0  0
 15 40  1  0  0  0
 16 17  1  0  0  0
 16 41  1  0  0  0
 17 18  2  0  0  0
 17 20  1  0  0  0
 18 19  1  0  0  0
 18 42  1  0  0  0
 19 43  1  0  0  0
 20 21  1  0  0  0
 20 44  1  0  0  0
 21 22  2  0  0  0
 21 23  1  0  0  0
 23 29  1  0  0  0
 23 24  1  0  0  0
 24 25  1  0  0  0
 24 45  1  0  0  0
 24 46  1  0  0  0
 25 26  1  0  0  0
 25 47  1  0  0  0
 25 48  1  0  0  0
 26 27  1  0  0  0
 26 49  1  0  0  0
 26 50  1  0  0  0
 27 28  1  0  0  0
 27 51  1  0  0  0
 27 52  1  0  0  0
 28 29  1  0  0  0
 28 53  1  0  0  0
 28 54  1  0  0  0
 29 55  1  0  0  0
 29 56  1  0  0  0
M  END
> <i_i_glide_confnum>
252

> <i_i_glide_lignum>
1405

> <i_i_glide_posenum>
218

> <i_i_glide_rotatable_bonds>
8

> <i_m_Source_File_Index>
464

> <b_m_subgroup_collapsed>
0

> <r_i_docking_score>
-5.92446

> <r_i_glide_ecoul>
-5.34825

> <r_i_glide_eff_state_penalty>
0

> <r_i_glide_einternal>
18.7584

> <r_i_glide_emodel>
-54.6403

> <r_i_glide_energy>
-47.6698

> <r_i_glide_erotb>
0.903831

> <r_i_glide_esite>
0

> <r_i_glide_evdw>
-42.3215

> <r_i_glide_gscore>
-5.92446

> <r_i_glide_hbond>
-0.0990527

> <r_i_glide_ligand_efficiency>
-0.211588

> <r_i_glide_ligand_efficiency_ln>
-1.36754

> <r_i_glide_ligand_efficiency_sa>
-0.642506

> <r_i_glide_lipo>
-2.17101

> <r_i_glide_metal>
0

> <r_i_glide_rewards>
-1.63992

> <s_i_glide_gridfile>
wee1_glide-grid

> <s_m_Source_File>
wee1_decoys_glide_SP.sdf

> <s_m_Source_Path>
/Users/zhangxujun/Desktop

> <s_m_entry_id>
739

> <s_m_entry_name>
wee1_decoys_glide_SP.464

> <s_m_subgroup_title>
wee1_decoys_glide_SP

> <s_m_subgroupid>
wee1_decoys_glide_SP


$$$$
