ZINC34681179_271
                    3D
 Schrodinger Suite 2024-2.
 60 63  0  0  1  0            999 V2000
    8.9659   56.7674   13.7475 C   0  0  0  0  0  0
    8.3028   57.3164   14.9972 C   0  0  0  0  0  0
    8.2079   58.6967   15.1929 C   0  0  0  0  0  0
    7.6066   59.2010   16.3448 C   0  0  0  0  0  0
    7.1081   58.3301   17.3140 C   0  0  0  0  0  0
    7.2077   56.9417   17.1313 C   0  0  0  0  0  0
    7.7970   56.4441   15.9652 C   0  0  0  0  0  0
    6.6850   56.0051   18.0370 N   0  0  0  0  0  0
    6.6068   56.1180   19.3755 C   0  0  0  0  0  0
    7.0977   57.0316   20.0406 O   0  0  0  0  0  0
    5.9109   55.0958   19.9039 N   0  0  0  0  0  0
    5.7131   54.8559   21.2715 C   0  0  0  0  0  0
    4.4837   54.3285   21.6751 C   0  0  0  0  0  0
    4.2452   54.0953   23.0308 C   0  0  0  0  0  0
    5.2455   54.3531   23.9882 C   0  0  0  0  0  0
    6.4370   54.8139   23.5328 N   0  3  0  0  0  0
    6.7043   55.0813   22.2390 C   0  0  0  0  0  0
    5.0367   54.1762   25.4084 N   0  0  0  0  0  0
    6.1862   53.7734   26.2431 C   0  0  0  0  0  0
    6.3574   54.6450   27.4885 C   0  0  0  0  0  0
    5.4743   54.2445   28.6888 C   0  0  0  0  0  0
    4.0411   53.9478   28.4489 N   0  0  0  0  0  0
    3.3664   54.5809   27.2990 C   0  0  0  0  0  0
    3.6665   53.9687   25.9139 C   0  0  0  0  0  0
    3.3799   53.2177   29.4003 C   0  0  0  0  0  0
    3.9043   52.9176   30.4767 O   0  0  0  0  0  0
    1.9551   52.7485   29.1915 C   0  0  0  0  0  0
    1.5440   52.1354   27.9993 C   0  0  0  0  0  0
    0.2558   51.6220   27.8721 C   0  0  0  0  0  0
   -0.6241   51.6968   28.9463 C   0  0  0  0  0  0
   -0.2265   52.2887   30.1409 C   0  0  0  0  0  0
    1.0544   52.8149   30.2632 C   0  0  0  0  0  0
    9.7524   57.4365   13.3970 H   0  0  0  0  0  0
    9.4419   55.8066   13.9476 H   0  0  0  0  0  0
    8.2347   56.6369   12.9494 H   0  0  0  0  0  0
    8.5872   59.3816   14.4492 H   0  0  0  0  0  0
    7.5069   60.2681   16.4822 H   0  0  0  0  0  0
    6.6243   58.7477   18.1852 H   0  0  0  0  0  0
    7.8691   55.3772   15.8086 H   0  0  0  0  0  0
    6.4334   55.1162   17.6336 H   0  0  0  0  0  0
    5.3572   54.5410   19.2679 H   0  0  0  0  0  0
    3.7034   54.1274   20.9526 H   0  0  0  0  0  0
    3.2813   53.6947   23.3033 H   0  0  0  0  0  0
    7.6969   55.4586   22.0281 H   0  0  0  0  0  0
    7.1008   53.7460   25.6526 H   0  0  0  0  0  0
    6.0007   52.7428   26.5485 H   0  0  0  0  0  0
    6.2277   55.6968   27.2407 H   0  0  0  0  0  0
    7.3945   54.5707   27.8169 H   0  0  0  0  0  0
    5.5298   55.0546   29.4174 H   0  0  0  0  0  0
    5.9361   53.3638   29.1394 H   0  0  0  0  0  0
    2.2856   54.6080   27.4471 H   0  0  0  0  0  0
    3.6430   55.6352   27.2733 H   0  0  0  0  0  0
    3.5510   52.8926   25.9368 H   0  0  0  0  0  0
    2.9296   54.3602   25.2163 H   0  0  0  0  0  0
    2.2230   52.0022   27.1782 H   0  0  0  0  0  0
   -0.0496   51.1291   26.9605 H   0  0  0  0  0  0
   -1.6092   51.2576   28.8649 H   0  0  0  0  0  0
   -0.8949   52.3137   30.9881 H   0  0  0  0  0  0
    1.3458   53.2454   31.2118 H   0  0  0  0  0  0
    7.1706   54.9892   24.2044 H   0  0  0  0  0  0
  1  2  1  0  0  0
  1 33  1  0  0  0
  1 34  1  0  0  0
  1 35  1  0  0  0
  2  7  2  0  0  0
  2  3  1  0  0  0
  3  4  2  0  0  0
  3 36  1  0  0  0
  4  5  1  0  0  0
  4 37  1  0  0  0
  5  6  2  0  0  0
  5 38  1  0  0  0
  6  7  1  0  0  0
  6  8  1  0  0  0
  7 39  1  0  0  0
  8  9  1  0  0  0
  8 40  1  0  0  0
  9 10  2  0  0  0
  9 11  1  0  0  0
 11 12  1  0  0  0
 11 41  1  0  0  0
 12 17  2  0  0  0
 12 13  1  0  0  0
 13 14  2  0  0  0
 13 42  1  0  0  0
 14 15  1  0  0  0
 14 43  1  0  0  0
 15 16  2  0  0  0
 15 18  1  0  0  0
 16 17  1  0  0  0
 16 60  1  0  0  0
 17 44  1  0  0  0
 18 24  1  0  0  0
 18 19  1  0  0  0
 19 20  1  0  0  0
 19 45  1  0  0  0
 19 46  1  0  0  0
 20 21  1  0  0  0
 20 47  1  0  0  0
 20 48  1  0  0  0
 21 22  1  0  0  0
 21 49  1  0  0  0
 21 50  1  0  0  0
 22 23  1  0  0  0
 22 25  1  0  0  0
 23 24  1  0  0  0
 23 51  1  0  0  0
 23 52  1  0  0  0
 24 53  1  0  0  0
 24 54  1  0  0  0
 25 26  2  0  0  0
 25 27  1  0  0  0
 27 32  2  0  0  0
 27 28  1  0  0  0
 28 29  2  0  0  0
 28 55  1  0  0  0
 29 30  1  0  0  0
 29 56  1  0  0  0
 30 31  2  0  0  0
 30 57  1  0  0  0
 31 32  1  0  0  0
 31 58  1  0  0  0
 32 59  1  0  0  0
M  CHG  1  16   1
M  END
> <i_i_glide_confnum>
339

> <i_i_glide_lignum>
272

> <i_i_glide_posenum>
303

> <i_i_glide_rotatable_bonds>
7

> <i_m_Source_File_Index>
2268

> <b_m_subgroup_collapsed>
0

> <r_i_docking_score>
-6.94312

> <r_i_glide_ecoul>
-9.93034

> <r_i_glide_eff_state_penalty>
0

> <r_i_glide_einternal>
6.87419

> <r_i_glide_emodel>
-66.8252

> <r_i_glide_energy>
-49.7983

> <r_i_glide_erotb>
0.750871

> <r_i_glide_esite>
0

> <r_i_glide_evdw>
-39.8679

> <r_i_glide_gscore>
-6.94312

> <r_i_glide_hbond>
-0.463094

> <r_i_glide_ligand_efficiency>
-0.216972

> <r_i_glide_ligand_efficiency_ln>
-1.55475

> <r_i_glide_ligand_efficiency_sa>
-0.688844

> <r_i_glide_lipo>
-2.46311

> <r_i_glide_metal>
0

> <r_i_glide_rewards>
-1.28483

> <s_i_glide_gridfile>
wee1_glide-grid

> <s_m_Source_File>
wee1_decoys_glide_SP.sdf

> <s_m_Source_Path>
/Users/zhangxujun/Desktop

> <s_m_entry_id>
2543

> <s_m_entry_name>
wee1_decoys_glide_SP.2268

> <s_m_subgroup_title>
wee1_decoys_glide_SP

> <s_m_subgroupid>
wee1_decoys_glide_SP


$$$$
