ZINC35303144_4946
                    3D
 Schrodinger Suite 2024-2.
 61 65  0  0  1  0            999 V2000
    3.8914   57.2714   17.4342 C   0  0  0  0  0  0
    5.4081   57.3442   17.6451 C   0  0  0  0  0  0
    6.1674   56.0443   17.2655 C   0  0  2  0  0  0
    7.2253   56.2892   17.3707 H   0  0  0  0  0  0
    5.9541   55.7469   15.7598 C   0  0  0  0  0  0
    5.8553   54.8142   18.2033 C   0  0  2  0  0  0
    4.7765   54.6538   18.1761 H   0  0  0  0  0  0
    6.2450   55.0896   19.6838 C   0  0  0  0  0  0
    7.2027   55.8252   19.9449 O   0  0  0  0  0  0
    5.4787   54.4644   20.6102 N   0  0  0  0  0  0
    5.6489   54.5279   21.9887 C   0  0  0  0  0  0
    6.7139   54.9221   22.6462 N   0  0  0  0  0  0
    6.5443   54.8960   24.0234 N   0  0  0  0  0  0
    5.3488   54.4957   24.3872 C   0  0  0  0  0  0
    4.3230   54.0957   23.0223 S   0  0  0  0  0  0
    4.8980   54.3704   25.8155 C   0  0  0  0  0  0
    5.8410   54.4689   26.8637 C   0  0  0  0  0  0
    5.4588   54.3784   28.2079 C   0  0  0  0  0  0
    4.1094   54.1804   28.4797 C   0  0  0  0  0  0
    3.1874   54.0797   27.4779 C   0  0  0  0  0  0
    3.5405   54.1665   26.1375 C   0  0  0  0  0  0
    1.9501   53.9387   28.0174 O   0  0  0  0  0  0
    2.1503   53.7494   29.3932 C   0  0  0  0  0  0
    3.4813   54.0980   29.6822 O   0  0  0  0  0  0
    6.4173   53.5369   17.7347 N   0  0  0  0  0  0
    7.6606   53.2927   17.2912 C   0  0  0  0  0  0
    8.5976   54.0902   17.3481 O   0  0  0  0  0  0
    7.7028   52.0931   16.7017 N   0  0  0  0  0  0
    8.6974   51.6537   15.8186 C   0  0  0  0  0  0
   10.0093   51.4833   16.2637 C   0  0  0  0  0  0
   10.9951   50.9889   15.4171 C   0  0  0  0  0  0
   10.6946   50.6598   14.0999 C   0  0  0  0  0  0
    9.3804   50.8200   13.6016 C   0  0  0  0  0  0
    8.3545   51.3184   14.4678 C   0  0  0  0  0  0
    7.0357   51.4523   13.9383 C   0  0  0  0  0  0
    6.7584   51.1130   12.6169 C   0  0  0  0  0  0
    7.7644   50.6413   11.7833 C   0  0  0  0  0  0
    9.0640   50.4965   12.2604 C   0  0  0  0  0  0
    3.4209   58.2260   17.6716 H   0  0  0  0  0  0
    3.6279   57.0512   16.4000 H   0  0  0  0  0  0
    3.4403   56.5085   18.0691 H   0  0  0  0  0  0
    5.6042   57.6174   18.6812 H   0  0  0  0  0  0
    5.8012   58.1785   17.0601 H   0  0  0  0  0  0
    4.9469   55.3744   15.5611 H   0  0  0  0  0  0
    6.1047   56.6415   15.1567 H   0  0  0  0  0  0
    6.6527   55.0022   15.3775 H   0  0  0  0  0  0
    4.6878   53.9337   20.2811 H   0  0  0  0  0  0
    6.8860   54.6213   26.6404 H   0  0  0  0  0  0
    6.1910   54.4771   28.9970 H   0  0  0  0  0  0
    2.7829   54.0993   25.3699 H   0  0  0  0  0  0
    1.9878   52.6963   29.6292 H   0  0  0  0  0  0
    1.4557   54.3736   29.9617 H   0  0  0  0  0  0
    5.7897   52.7479   17.8037 H   0  0  0  0  0  0
    6.8485   51.5572   16.6981 H   0  0  0  0  0  0
   10.2694   51.7282   17.2809 H   0  0  0  0  0  0
   12.0017   50.8597   15.7848 H   0  0  0  0  0  0
   11.4646   50.2706   13.4459 H   0  0  0  0  0  0
    6.2365   51.8144   14.5689 H   0  0  0  0  0  0
    5.7540   51.2160   12.2372 H   0  0  0  0  0  0
    7.5379   50.3903   10.7588 H   0  0  0  0  0  0
    9.8443   50.1232   11.6126 H   0  0  0  0  0  0
  1  2  1  0  0  0
  1 39  1  0  0  0
  1 40  1  0  0  0
  1 41  1  0  0  0
  2  3  1  0  0  0
  2 42  1  0  0  0
  2 43  1  0  0  0
  3  4  1  0  0  0
  3  5  1  0  0  0
  3  6  1  0  0  0
  5 44  1  0  0  0
  5 45  1  0  0  0
  5 46  1  0  0  0
  6  7  1  0  0  0
  6  8  1  0  0  0
  6 25  1  0  0  0
  8  9  2  0  0  0
  8 10  1  0  0  0
 10 11  1  0  0  0
 10 47  1  0  0  0
 11 15  1  0  0  0
 11 12  2  0  0  0
 12 13  1  0  0  0
 13 14  2  0  0  0
 14 15  1  0  0  0
 14 16  1  0  0  0
 16 21  2  0  0  0
 16 17  1  0  0  0
 17 18  2  0  0  0
 17 48  1  0  0  0
 18 19  1  0  0  0
 18 49  1  0  0  0
 19 24  1  0  0  0
 19 20  2  0  0  0
 20 21  1  0  0  0
 20 22  1  0  0  0
 21 50  1  0  0  0
 22 23  1  0  0  0
 23 24  1  0  0  0
 23 51  1  0  0  0
 23 52  1  0  0  0
 25 26  1  0  0  0
 25 53  1  0  0  0
 26 27  2  0  0  0
 26 28  1  0  0  0
 28 29  1  0  0  0
 28 54  1  0  0  0
 29 34  2  0  0  0
 29 30  1  0  0  0
 30 31  2  0  0  0
 30 55  1  0  0  0
 31 32  1  0  0  0
 31 56  1  0  0  0
 32 33  2  0  0  0
 32 57  1  0  0  0
 33 38  1  0  0  0
 33 34  1  0  0  0
 34 35  1  0  0  0
 35 36  2  0  0  0
 35 58  1  0  0  0
 36 37  1  0  0  0
 36 59  1  0  0  0
 37 38  2  0  0  0
 37 60  1  0  0  0
 38 61  1  0  0  0
M  END
> <i_i_glide_confnum>
56

> <i_i_glide_lignum>
4947

> <i_i_glide_posenum>
335

> <i_i_glide_rotatable_bonds>
10

> <i_m_Source_File_Index>
3650

> <b_m_subgroup_collapsed>
0

> <r_i_docking_score>
-5.54146

> <r_i_glide_ecoul>
-4.47658

> <r_i_glide_eff_state_penalty>
0

> <r_i_glide_einternal>
10.5087

> <r_i_glide_emodel>
-65.7463

> <r_i_glide_energy>
-52.1833

> <r_i_glide_erotb>
0.644856

> <r_i_glide_esite>
-0.0744729

> <r_i_glide_evdw>
-47.7067

> <r_i_glide_gscore>
-5.54146

> <r_i_glide_hbond>
-0.235014

> <r_i_glide_ligand_efficiency>
-0.15393

> <r_i_glide_ligand_efficiency_ln>
-1.209

> <r_i_glide_ligand_efficiency_sa>
-0.508264

> <r_i_glide_lipo>
-2.45364

> <r_i_glide_metal>
0

> <r_i_glide_rewards>
-0.366374

> <s_i_glide_gridfile>
wee1_glide-grid

> <s_m_Source_File>
wee1_decoys_glide_SP.sdf

> <s_m_Source_Path>
/Users/zhangxujun/Desktop

> <s_m_entry_id>
3925

> <s_m_entry_name>
wee1_decoys_glide_SP.3650

> <s_m_subgroup_title>
wee1_decoys_glide_SP

> <s_m_subgroupid>
wee1_decoys_glide_SP


$$$$
