ZINC02411007_2390
                    3D
 Schrodinger Suite 2024-2.
 45 49  0  0  1  0            999 V2000
    1.3389   50.4002   19.2334 C   0  0  0  0  0  0
    1.0433   50.2496   20.5869 C   0  0  0  0  0  0
    1.7189   50.9975   21.5510 C   0  0  0  0  0  0
    2.7164   51.9177   21.1523 C   0  0  0  0  0  0
    3.0140   52.0779   19.7682 C   0  0  0  0  0  0
    2.3115   51.3058   18.8137 C   0  0  0  0  0  0
    3.9814   52.9529   19.3765 N   0  0  0  0  0  0
    4.6604   53.6456   20.2963 C   0  0  0  0  0  0
    5.7270   54.5842   20.1989 C   0  0  0  0  0  0
    6.0717   54.8969   21.5035 C   0  0  0  0  0  0
    5.2530   54.2406   22.4299 N   0  0  0  0  0  0
    4.3643   53.4684   21.6696 C   0  0  0  0  0  0
    3.4047   52.6319   22.0818 N   0  0  0  0  0  0
    5.4541   54.3867   23.8098 N   0  0  0  0  0  0
    4.5103   54.1103   24.6190 C   0  0  0  0  0  0
    4.6852   54.1707   26.0681 C   0  0  0  0  0  0
    3.6979   53.9651   27.0286 C   0  0  0  0  0  0
    4.1692   54.0769   28.3412 C   0  0  0  0  0  0
    5.5237   54.3645   28.3982 C   0  0  0  0  0  0
    6.2286   54.4970   26.8192 S   0  0  0  0  0  0
    7.1045   55.6962   21.9130 N   0  0  0  0  0  0
    6.5516   55.1528   18.6872 S   0  0  0  0  0  0
    7.6223   56.0664   19.1058 O   0  0  0  0  0  0
    6.8412   53.9497   17.9021 O   0  0  0  0  0  0
    5.3359   56.1052   17.7736 C   0  0  0  0  0  0
    5.4887   57.4876   17.6211 C   0  0  0  0  0  0
    4.5538   58.2099   16.8818 C   0  0  0  0  0  0
    3.4601   57.5549   16.3181 C   0  0  0  0  0  0
    3.3111   56.1767   16.4619 C   0  0  0  0  0  0
    4.2581   55.4495   17.1764 C   0  0  0  0  0  0
    2.2832   58.4540   15.4356 Cl  0  0  0  0  0  0
    0.8181   49.8022   18.5000 H   0  0  0  0  0  0
    0.2899   49.5404   20.8950 H   0  0  0  0  0  0
    1.4944   50.8708   22.6012 H   0  0  0  0  0  0
    2.5587   51.4011   17.7655 H   0  0  0  0  0  0
    3.5076   53.8140   24.3248 H   0  0  0  0  0  0
    2.6680   53.7381   26.7910 H   0  0  0  0  0  0
    3.5452   53.9511   29.2138 H   0  0  0  0  0  0
    6.1368   54.5038   29.2787 H   0  0  0  0  0  0
    7.7522   56.0553   21.2205 H   0  0  0  0  0  0
    7.4159   55.6974   22.8751 H   0  0  0  0  0  0
    6.3285   58.0035   18.0629 H   0  0  0  0  0  0
    4.6683   59.2810   16.7611 H   0  0  0  0  0  0
    2.4683   55.6729   16.0123 H   0  0  0  0  0  0
    4.1562   54.3783   17.2555 H   0  0  0  0  0  0
  1  6  2  0  0  0
  1  2  1  0  0  0
  1 32  1  0  0  0
  2  3  2  0  0  0
  2 33  1  0  0  0
  3  4  1  0  0  0
  3 34  1  0  0  0
  4 13  2  0  0  0
  4  5  1  0  0  0
  5  6  1  0  0  0
  5  7  2  0  0  0
  6 35  1  0  0  0
  7  8  1  0  0  0
  8 12  2  0  0  0
  8  9  1  0  0  0
  9 10  2  0  0  0
  9 22  1  0  0  0
 10 11  1  0  0  0
 10 21  1  0  0  0
 11 12  1  0  0  0
 11 14  1  0  0  0
 12 13  1  0  0  0
 14 15  2  0  0  0
 15 16  1  0  0  0
 15 36  1  0  0  0
 16 20  1  0  0  0
 16 17  2  0  0  0
 17 18  1  0  0  0
 17 37  1  0  0  0
 18 19  2  0  0  0
 18 38  1  0  0  0
 19 20  1  0  0  0
 19 39  1  0  0  0
 21 40  1  0  0  0
 21 41  1  0  0  0
 22 23  2  0  0  0
 22 24  2  0  0  0
 22 25  1  0  0  0
 25 30  2  0  0  0
 25 26  1  0  0  0
 26 27  2  0  0  0
 26 42  1  0  0  0
 27 28  1  0  0  0
 27 43  1  0  0  0
 28 29  2  0  0  0
 28 31  1  0  0  0
 29 30  1  0  0  0
 29 44  1  0  0  0
 30 45  1  0  0  0
M  END
> <i_i_glide_confnum>
3

> <i_i_glide_lignum>
2391

> <i_i_glide_posenum>
234

> <i_i_glide_rotatable_bonds>
4

> <i_m_Source_File_Index>
5674

> <b_m_subgroup_collapsed>
0

> <r_i_docking_score>
-4.96143

> <r_i_glide_ecoul>
-1.43307

> <r_i_glide_eff_state_penalty>
0

> <r_i_glide_einternal>
1.90675

> <r_i_glide_emodel>
-59.0886

> <r_i_glide_energy>
-46.2336

> <r_i_glide_erotb>
0.368733

> <r_i_glide_esite>
-0.00448342

> <r_i_glide_evdw>
-44.8005

> <r_i_glide_gscore>
-4.96143

> <r_i_glide_hbond>
0

> <r_i_glide_ligand_efficiency>
-0.160046

> <r_i_glide_ligand_efficiency_ln>
-1.11895

> <r_i_glide_ligand_efficiency_sa>
-0.502765

> <r_i_glide_lipo>
-1.79921

> <r_i_glide_metal>
0

> <r_i_glide_rewards>
-1.07148

> <s_i_glide_gridfile>
wee1_glide-grid

> <s_m_Source_File>
wee1_decoys_glide_SP.sdf

> <s_m_Source_Path>
/Users/zhangxujun/Desktop

> <s_m_entry_id>
5949

> <s_m_entry_name>
wee1_decoys_glide_SP.5674

> <s_m_subgroup_title>
wee1_decoys_glide_SP

> <s_m_subgroupid>
wee1_decoys_glide_SP


$$$$
