ZINC38547662_5102
                    3D
 Schrodinger Suite 2024-2.
 58 61  0  0  1  0            999 V2000
   -1.3485   47.9316   21.4569 C   0  0  0  0  0  0
   -1.6817   47.6982   22.9174 C   0  0  0  0  0  0
   -2.6662   46.7999   23.3399 C   0  0  0  0  0  0
   -2.9527   46.6919   24.7045 C   0  0  0  0  0  0
   -2.2542   47.4811   25.6207 C   0  0  0  0  0  0
   -1.2940   48.3902   25.1650 C   0  0  0  0  0  0
   -1.0368   48.4386   23.8400 N   0  3  0  0  0  0
   -0.6753   49.2924   26.0816 N   0  0  0  0  0  0
    0.1354   50.4758   25.7141 C   0  0  2  0  0  0
    1.0882   50.0104   25.4557 H   0  0  0  0  0  0
    0.3962   51.4504   26.8768 C   0  0  0  0  0  0
   -0.2816   51.3590   28.0998 C   0  0  0  0  0  0
   -0.0629   52.2999   29.1020 C   0  0  0  0  0  0
    0.8303   53.3527   28.9052 C   0  0  0  0  0  0
    1.5216   53.4390   27.6878 C   0  0  0  0  0  0
    1.3049   52.4964   26.6873 C   0  0  0  0  0  0
    0.9637   54.2516   29.9485 O   0  0  0  0  0  0
    1.8608   55.3542   29.8332 C   0  0  0  0  0  0
    3.1242   54.9520   29.6815 F   0  0  0  0  0  0
    1.5045   56.2164   28.8808 F   0  0  0  0  0  0
   -0.4129   51.2337   24.4980 C   0  0  0  0  0  0
    0.2744   51.3796   23.2713 C   0  0  0  0  0  0
   -0.4740   52.0430   22.2930 C   0  0  0  0  0  0
   -2.0370   52.4945   22.9009 S   0  0  0  0  0  0
   -1.6909   51.7858   24.4442 C   0  0  0  0  0  0
   -2.5966   51.7214   25.4922 N   0  0  0  0  0  0
   -3.8258   52.2600   25.6080 C   0  0  0  0  0  0
   -4.3701   53.0071   24.7940 O   0  0  0  0  0  0
   -4.4875   51.8620   26.8263 C   0  0  0  0  0  0
   -5.7820   52.0915   27.2808 C   0  0  0  0  0  0
   -5.8999   51.4503   28.5180 C   0  0  0  0  0  0
   -4.6687   50.8684   28.7774 C   0  0  0  0  0  0
   -3.8138   51.1209   27.7557 O   0  0  0  0  0  0
   -0.0789   52.3742   20.8719 C   0  0  0  0  0  0
    1.6944   50.9039   23.0474 C   0  0  0  0  0  0
   -1.8479   47.2070   20.8122 H   0  0  0  0  0  0
   -1.6723   48.9285   21.1529 H   0  0  0  0  0  0
   -0.2752   47.8579   21.2791 H   0  0  0  0  0  0
   -3.2189   46.2141   22.6192 H   0  0  0  0  0  0
   -3.7324   46.0323   25.0541 H   0  0  0  0  0  0
   -2.4957   47.4161   26.6724 H   0  0  0  0  0  0
   -0.9042   49.1463   27.0681 H   0  0  0  0  0  0
   -0.9978   50.5720   28.2849 H   0  0  0  0  0  0
   -0.5969   52.2155   30.0385 H   0  0  0  0  0  0
    2.2230   54.2354   27.4909 H   0  0  0  0  0  0
    1.8400   52.5920   25.7547 H   0  0  0  0  0  0
    1.8361   55.9223   30.7636 H   0  0  0  0  0  0
   -2.2752   51.1992   26.2948 H   0  0  0  0  0  0
   -6.5549   52.6439   26.7659 H   0  0  0  0  0  0
   -6.7799   51.4098   29.1449 H   0  0  0  0  0  0
   -4.2714   50.2722   29.5885 H   0  0  0  0  0  0
    0.5432   51.5975   20.4283 H   0  0  0  0  0  0
   -0.9406   52.4943   20.2159 H   0  0  0  0  0  0
    0.5022   53.2961   20.8326 H   0  0  0  0  0  0
    2.3079   51.1457   23.9131 H   0  0  0  0  0  0
    1.7560   49.8234   22.9218 H   0  0  0  0  0  0
    2.1838   51.3817   22.1974 H   0  0  0  0  0  0
   -0.3579   49.1148   23.5244 H   0  0  0  0  0  0
  1  2  1  0  0  0
  1 36  1  0  0  0
  1 37  1  0  0  0
  1 38  1  0  0  0
  2  7  2  0  0  0
  2  3  1  0  0  0
  3  4  2  0  0  0
  3 39  1  0  0  0
  4  5  1  0  0  0
  4 40  1  0  0  0
  5  6  2  0  0  0
  5 41  1  0  0  0
  6  7  1  0  0  0
  6  8  1  0  0  0
  7 58  1  0  0  0
  8  9  1  0  0  0
  8 42  1  0  0  0
  9 10  1  0  0  0
  9 11  1  0  0  0
  9 21  1  0  0  0
 11 16  2  0  0  0
 11 12  1  0  0  0
 12 13  2  0  0  0
 12 43  1  0  0  0
 13 14  1  0  0  0
 13 44  1  0  0  0
 14 15  2  0  0  0
 14 17  1  0  0  0
 15 16  1  0  0  0
 15 45  1  0  0  0
 16 46  1  0  0  0
 17 18  1  0  0  0
 18 19  1  0  0  0
 18 20  1  0  0  0
 18 47  1  0  0  0
 21 25  2  0  0  0
 21 22  1  0  0  0
 22 23  2  0  0  0
 22 35  1  0  0  0
 23 24  1  0  0  0
 23 34  1  0  0  0
 24 25  1  0  0  0
 25 26  1  0  0  0
 26 27  1  0  0  0
 26 48  1  0  0  0
 27 28  2  0  0  0
 27 29  1  0  0  0
 29 33  1  0  0  0
 29 30  2  0  0  0
 30 31  1  0  0  0
 30 49  1  0  0  0
 31 32  2  0  0  0
 31 50  1  0  0  0
 32 33  1  0  0  0
 32 51  1  0  0  0
 34 52  1  0  0  0
 34 53  1  0  0  0
 34 54  1  0  0  0
 35 55  1  0  0  0
 35 56  1  0  0  0
 35 57  1  0  0  0
M  CHG  1   7   1
M  END
> <i_i_glide_confnum>
215

> <i_i_glide_lignum>
5103

> <i_i_glide_posenum>
90

> <i_i_glide_rotatable_bonds>
9

> <i_m_Source_File_Index>
705

> <b_m_subgroup_collapsed>
0

> <r_i_docking_score>
-3.49851

> <r_i_glide_ecoul>
-3.77747

> <r_i_glide_eff_state_penalty>
0

> <r_i_glide_einternal>
5.51926

> <r_i_glide_emodel>
-45.4479

> <r_i_glide_energy>
-37.7829

> <r_i_glide_erotb>
0.692012

> <r_i_glide_esite>
-0.131613

> <r_i_glide_evdw>
-34.0054

> <r_i_glide_gscore>
-3.49851

> <r_i_glide_hbond>
-0.2

> <r_i_glide_ligand_efficiency>
-0.102897

> <r_i_glide_ligand_efficiency_ln>
-0.77292

> <r_i_glide_ligand_efficiency_sa>
-0.333348

> <r_i_glide_lipo>
-0.986059

> <r_i_glide_metal>
0

> <r_i_glide_rewards>
-0.60596

> <s_i_glide_gridfile>
wee1_glide-grid

> <s_m_Source_File>
wee1_decoys_glide_SP.sdf

> <s_m_Source_Path>
/Users/zhangxujun/Desktop

> <s_m_entry_id>
980

> <s_m_entry_name>
wee1_decoys_glide_SP.705

> <s_m_subgroup_title>
wee1_decoys_glide_SP

> <s_m_subgroupid>
wee1_decoys_glide_SP


$$$$
