ZINC39945692_606
                    3D
 Schrodinger Suite 2024-2.
 56 60  0  0  1  0            999 V2000
   -2.1280   50.2725   24.2400 C   0  0  0  0  0  0
   -1.8959   50.0970   25.7563 C   0  0  2  0  0  0
   -2.0084   49.0339   25.9757 H   0  0  0  0  0  0
   -2.9590   50.8400   26.5989 C   0  0  0  0  0  0
   -3.4282   51.9067   26.1950 O   0  0  0  0  0  0
   -3.2957   50.2657   27.7725 N   0  0  0  0  0  0
   -4.3086   50.6555   28.6707 C   0  0  0  0  0  0
   -4.1668   50.2524   30.0000 C   0  0  0  0  0  0
   -5.1340   50.5701   30.9528 C   0  0  0  0  0  0
   -6.2635   51.2959   30.5795 C   0  0  0  0  0  0
   -6.4226   51.7015   29.2541 C   0  0  0  0  0  0
   -5.4560   51.3748   28.2993 C   0  0  0  0  0  0
   -7.8126   52.6180   28.7988 Cl  0  0  0  0  0  0
   -0.1825   50.4922   26.2480 S   0  0  0  0  0  0
   -0.0815   52.3008   26.1414 C   0  0  2  0  0  0
   -1.0173   52.7259   26.5049 H   0  0  0  0  0  0
    0.1943   52.8050   24.8090 N   0  0  0  0  0  0
    1.5131   53.2170   24.7130 N   0  0  0  0  0  0
    1.9501   53.3225   25.8916 C   0  0  0  0  0  0
    1.0446   52.8959   26.8523 N   0  0  0  0  0  0
    0.8794   53.1911   28.2286 C   0  0  0  0  0  0
    0.4395   52.2032   29.1201 C   0  0  0  0  0  0
    0.2452   52.4952   30.4654 C   0  0  0  0  0  0
    0.5070   53.7727   30.9354 C   0  0  0  0  0  0
    0.9358   54.7747   30.0690 C   0  0  0  0  0  0
    1.1040   54.4864   28.7155 C   0  0  0  0  0  0
    0.3043   54.0963   32.6149 Cl  0  0  0  0  0  0
    3.3117   53.7673   26.1618 C   0  0  0  0  0  0
    4.2614   54.0788   25.2433 C   0  0  0  0  0  0
    4.2684   54.0990   23.7627 C   0  0  0  0  0  0
    5.3937   54.3733   23.0736 C   0  0  0  0  0  0
    6.5971   54.6743   23.8288 C   0  0  0  0  0  0
    6.6087   54.6655   25.1861 C   0  0  0  0  0  0
    5.4631   54.3429   25.9119 C   0  0  0  0  0  0
    5.3289   54.2177   27.2087 N   0  3  0  0  0  0
    3.9512   53.8358   27.5366 C   0  0  0  0  0  0
   -3.1319   49.9572   23.9510 H   0  0  0  0  0  0
   -2.0061   51.3098   23.9281 H   0  0  0  0  0  0
   -1.4258   49.6668   23.6641 H   0  0  0  0  0  0
   -2.7016   49.4896   28.0814 H   0  0  0  0  0  0
   -3.2958   49.6972   30.3085 H   0  0  0  0  0  0
   -4.9975   50.2620   31.9799 H   0  0  0  0  0  0
   -7.0155   51.5368   31.3172 H   0  0  0  0  0  0
   -5.6116   51.6854   27.2781 H   0  0  0  0  0  0
    0.0270   52.1489   24.0603 H   0  0  0  0  0  0
    0.2437   51.1969   28.7898 H   0  0  0  0  0  0
   -0.1048   51.7305   31.1472 H   0  0  0  0  0  0
    1.1166   55.7740   30.4381 H   0  0  0  0  0  0
    1.3966   55.2774   28.0406 H   0  0  0  0  0  0
    3.3832   53.9032   23.1751 H   0  0  0  0  0  0
    5.3975   54.3922   21.9932 H   0  0  0  0  0  0
    7.5045   54.9206   23.2939 H   0  0  0  0  0  0
    7.5152   54.8970   25.7033 H   0  0  0  0  0  0
    3.5630   54.6157   28.1863 H   0  0  0  0  0  0
    3.9742   52.8780   28.0582 H   0  0  0  0  0  0
    6.0654   54.3501   27.8976 H   0  0  0  0  0  0
  1  2  1  0  0  0
  1 37  1  0  0  0
  1 38  1  0  0  0
  1 39  1  0  0  0
  2  3  1  0  0  0
  2  4  1  0  0  0
  2 14  1  0  0  0
  4  5  2  0  0  0
  4  6  1  0  0  0
  6  7  1  0  0  0
  6 40  1  0  0  0
  7 12  2  0  0  0
  7  8  1  0  0  0
  8  9  2  0  0  0
  8 41  1  0  0  0
  9 10  1  0  0  0
  9 42  1  0  0  0
 10 11  2  0  0  0
 10 43  1  0  0  0
 11 12  1  0  0  0
 11 13  1  0  0  0
 12 44  1  0  0  0
 14 15  1  0  0  0
 15 16  1  0  0  0
 15 20  1  0  0  0
 15 17  1  0  0  0
 17 18  1  0  0  0
 17 45  1  0  0  0
 18 19  2  0  0  0
 19 20  1  0  0  0
 19 28  1  0  0  0
 20 21  1  0  0  0
 21 26  2  0  0  0
 21 22  1  0  0  0
 22 23  2  0  0  0
 22 46  1  0  0  0
 23 24  1  0  0  0
 23 47  1  0  0  0
 24 25  2  0  0  0
 24 27  1  0  0  0
 25 26  1  0  0  0
 25 48  1  0  0  0
 26 49  1  0  0  0
 28 36  1  0  0  0
 28 29  2  0  0  0
 29 34  1  0  0  0
 29 30  1  0  0  0
 30 31  2  0  0  0
 30 50  1  0  0  0
 31 32  1  0  0  0
 31 51  1  0  0  0
 32 33  2  0  0  0
 32 52  1  0  0  0
 33 34  1  0  0  0
 33 53  1  0  0  0
 34 35  2  0  0  0
 35 36  1  0  0  0
 35 56  1  0  0  0
 36 54  1  0  0  0
 36 55  1  0  0  0
M  CHG  1  35   1
M  END
> <i_i_glide_confnum>
54

> <i_i_glide_lignum>
607

> <i_i_glide_posenum>
351

> <i_i_glide_rotatable_bonds>
7

> <i_m_Source_File_Index>
3083

> <b_m_subgroup_collapsed>
0

> <r_i_docking_score>
-6.37038

> <r_i_glide_ecoul>
-6.14014

> <r_i_glide_eff_state_penalty>
0

> <r_i_glide_einternal>
11.9465

> <r_i_glide_emodel>
-68.0924

> <r_i_glide_energy>
-51.4495

> <r_i_glide_erotb>
0.470066

> <r_i_glide_esite>
-0.154222

> <r_i_glide_evdw>
-45.3093

> <r_i_glide_gscore>
-6.37038

> <r_i_glide_hbond>
-0.16

> <r_i_glide_ligand_efficiency>
-0.187364

> <r_i_glide_ligand_efficiency_ln>
-1.4074

> <r_i_glide_ligand_efficiency_sa>
-0.606987

> <r_i_glide_lipo>
-2.91281

> <r_i_glide_metal>
0

> <r_i_glide_rewards>
-0.426933

> <s_i_glide_gridfile>
wee1_glide-grid

> <s_m_Source_File>
wee1_decoys_glide_SP.sdf

> <s_m_Source_Path>
/Users/zhangxujun/Desktop

> <s_m_entry_id>
3358

> <s_m_entry_name>
wee1_decoys_glide_SP.3083

> <s_m_subgroup_title>
wee1_decoys_glide_SP

> <s_m_subgroupid>
wee1_decoys_glide_SP


$$$$
