ZINC00995183_4413
                    3D
 Schrodinger Suite 2024-2.
 52 55  0  0  1  0            999 V2000
   -4.9961   51.1678   25.2097 C   0  0  0  0  0  0
   -3.9825   50.0569   25.5537 C   0  0  0  0  0  0
   -2.6469   50.5141   26.1945 C   0  0  2  0  0  0
   -2.0961   49.5950   26.4050 H   0  0  0  0  0  0
   -2.8488   51.3018   27.5020 C   0  0  0  0  0  0
   -1.5237   51.4619   28.2725 C   0  0  0  0  0  0
   -0.4013   51.9571   27.3432 C   0  0  0  0  0  0
   -0.5676   51.8804   25.9465 C   0  0  0  0  0  0
    0.7775   52.5047   25.0847 S   0  0  0  0  0  0
    1.6008   52.9117   26.5693 C   0  0  0  0  0  0
    0.8571   52.5389   27.7157 C   0  0  0  0  0  0
    1.3319   52.7860   29.0834 C   0  0  0  0  0  0
    2.3170   53.4759   29.3331 O   0  0  0  0  0  0
    0.6514   52.2229   30.0818 N   0  0  0  0  0  0
    2.8907   53.4508   26.5421 N   0  0  0  0  0  0
    3.5010   54.0957   25.5208 C   0  0  0  0  0  0
    2.9285   54.4965   24.5086 O   0  0  0  0  0  0
    4.9261   54.2876   25.6908 C   0  0  0  0  0  0
    5.6336   54.3884   26.8870 C   0  0  0  0  0  0
    6.9337   54.6361   26.6161 O   0  0  0  0  0  0
    7.0940   54.7126   25.2395 N   0  0  0  0  0  0
    5.9160   54.4972   24.6909 C   0  0  0  0  0  0
    5.8329   54.4959   23.1799 C   0  0  0  0  0  0
    4.9168   53.6865   22.4965 C   0  0  0  0  0  0
    4.8159   53.7314   21.1084 C   0  0  0  0  0  0
    5.6585   54.5685   20.3848 C   0  0  0  0  0  0
    6.6137   55.3414   21.0369 C   0  0  0  0  0  0
    6.7046   55.2967   22.4251 C   0  0  0  0  0  0
    5.2925   54.2813   28.3533 C   0  0  0  0  0  0
   -1.8039   51.3658   25.2177 C   0  0  0  0  0  0
   -5.9022   50.7420   24.7756 H   0  0  0  0  0  0
   -4.5970   51.8779   24.4859 H   0  0  0  0  0  0
   -5.2990   51.7269   26.0963 H   0  0  0  0  0  0
   -4.4659   49.3462   26.2244 H   0  0  0  0  0  0
   -3.7636   49.4881   24.6486 H   0  0  0  0  0  0
   -3.3430   52.2536   27.3077 H   0  0  0  0  0  0
   -3.5406   50.7594   28.1469 H   0  0  0  0  0  0
   -1.6989   52.0992   29.1317 H   0  0  0  0  0  0
   -1.2295   50.5003   28.6775 H   0  0  0  0  0  0
   -0.1330   51.6175   29.8894 H   0  0  0  0  0  0
    0.9159   52.4043   31.0381 H   0  0  0  0  0  0
    3.3750   53.4265   27.4268 H   0  0  0  0  0  0
    4.2637   53.0160   23.0331 H   0  0  0  0  0  0
    4.0881   53.1184   20.5967 H   0  0  0  0  0  0
    5.5837   54.6003   19.3080 H   0  0  0  0  0  0
    7.2800   55.9742   20.4681 H   0  0  0  0  0  0
    7.4502   55.9069   22.9138 H   0  0  0  0  0  0
    4.4934   54.9686   28.6344 H   0  0  0  0  0  0
    4.9686   53.2718   28.6124 H   0  0  0  0  0  0
    6.1488   54.5043   28.9902 H   0  0  0  0  0  0
   -1.5304   50.7793   24.3393 H   0  0  0  0  0  0
   -2.3746   52.2227   24.8604 H   0  0  0  0  0  0
  1  2  1  0  0  0
  1 31  1  0  0  0
  1 32  1  0  0  0
  1 33  1  0  0  0
  2  3  1  0  0  0
  2 34  1  0  0  0
  2 35  1  0  0  0
  3  4  1  0  0  0
  3 30  1  0  0  0
  3  5  1  0  0  0
  5  6  1  0  0  0
  5 36  1  0  0  0
  5 37  1  0  0  0
  6  7  1  0  0  0
  6 38  1  0  0  0
  6 39  1  0  0  0
  7 11  1  0  0  0
  7  8  2  0  0  0
  8  9  1  0  0  0
  8 30  1  0  0  0
  9 10  1  0  0  0
 10 11  2  0  0  0
 10 15  1  0  0  0
 11 12  1  0  0  0
 12 13  2  0  0  0
 12 14  1  0  0  0
 14 40  1  0  0  0
 14 41  1  0  0  0
 15 16  1  0  0  0
 15 42  1  0  0  0
 16 17  2  0  0  0
 16 18  1  0  0  0
 18 22  1  0  0  0
 18 19  2  0  0  0
 19 20  1  0  0  0
 19 29  1  0  0  0
 20 21  1  0  0  0
 21 22  2  0  0  0
 22 23  1  0  0  0
 23 28  2  0  0  0
 23 24  1  0  0  0
 24 25  2  0  0  0
 24 43  1  0  0  0
 25 26  1  0  0  0
 25 44  1  0  0  0
 26 27  2  0  0  0
 26 45  1  0  0  0
 27 28  1  0  0  0
 27 46  1  0  0  0
 28 47  1  0  0  0
 29 48  1  0  0  0
 29 49  1  0  0  0
 29 50  1  0  0  0
 30 51  1  0  0  0
 30 52  1  0  0  0
M  END
> <i_i_glide_confnum>
5

> <i_i_glide_lignum>
4414

> <i_i_glide_posenum>
81

> <i_i_glide_rotatable_bonds>
6

> <i_m_Source_File_Index>
5402

> <b_m_subgroup_collapsed>
0

> <r_i_docking_score>
-6.11694

> <r_i_glide_ecoul>
-3.84903

> <r_i_glide_eff_state_penalty>
0

> <r_i_glide_einternal>
6.29872

> <r_i_glide_emodel>
-61.4917

> <r_i_glide_energy>
-47.0361

> <r_i_glide_erotb>
0.469703

> <r_i_glide_esite>
-0.0108967

> <r_i_glide_evdw>
-43.1871

> <r_i_glide_gscore>
-6.11694

> <r_i_glide_hbond>
0

> <r_i_glide_ligand_efficiency>
-0.210929

> <r_i_glide_ligand_efficiency_ln>
-1.40062

> <r_i_glide_ligand_efficiency_sa>
-0.648041

> <r_i_glide_lipo>
-2.59877

> <r_i_glide_metal>
0

> <r_i_glide_rewards>
-1.24027

> <s_i_glide_gridfile>
wee1_glide-grid

> <s_m_Source_File>
wee1_decoys_glide_SP.sdf

> <s_m_Source_Path>
/Users/zhangxujun/Desktop

> <s_m_entry_id>
5677

> <s_m_entry_name>
wee1_decoys_glide_SP.5402

> <s_m_subgroup_title>
wee1_decoys_glide_SP

> <s_m_subgroupid>
wee1_decoys_glide_SP


$$$$
