ZINC62918982_1666
                    3D
 Schrodinger Suite 2024-2.
 38 39  0  0  1  0            999 V2000
    1.9297   49.2917   21.6483 C   0  0  0  0  0  0
    1.3762   49.7114   23.0164 C   0  0  0  0  0  0
    0.2091   50.7269   22.9109 C   0  0  0  0  0  0
   -0.2946   51.4313   24.2280 C   0  0  1  0  0  0
   -0.4112   50.4410   25.4096 C   0  0  0  0  0  0
   -0.2244   51.2525   26.6903 C   0  0  0  0  0  0
    0.7042   52.3059   26.2574 N   0  0  0  0  0  0
    0.7921   52.3815   24.7868 C   0  0  0  0  0  0
    1.6657   52.8962   27.0212 C   0  0  0  0  0  0
    2.5533   53.5970   26.5277 O   0  0  0  0  0  0
    1.6846   52.6634   28.4536 C   0  0  0  0  0  0
    2.8000   52.6229   29.3105 C   0  0  0  0  0  0
    2.5273   52.4967   30.5966 N   0  0  0  0  0  0
    1.2443   52.4966   30.8365 C   0  0  0  0  0  0
    0.2358   52.6262   29.4400 S   0  0  0  0  0  0
    0.7044   52.3924   32.0828 N   0  0  0  0  0  0
    4.2785   52.6752   28.9731 C   0  0  0  0  0  0
   -1.6295   52.1920   23.9124 C   0  0  0  0  0  0
   -2.3755   52.4967   24.8702 O   0  0  0  0  0  0
   -1.8892   52.4967   22.7242 O   0  5  0  0  0  0
    2.7049   48.5339   21.7603 H   0  0  0  0  0  0
    2.3696   50.1385   21.1217 H   0  0  0  0  0  0
    1.1481   48.8730   21.0149 H   0  0  0  0  0  0
    1.0396   48.8106   23.5299 H   0  0  0  0  0  0
    2.1942   50.1121   23.6142 H   0  0  0  0  0  0
    0.4943   51.4998   22.1935 H   0  0  0  0  0  0
   -0.6221   50.1927   22.4451 H   0  0  0  0  0  0
   -1.3422   49.8714   25.4168 H   0  0  0  0  0  0
    0.3856   49.6996   25.4023 H   0  0  0  0  0  0
   -1.1992   51.6722   26.9395 H   0  0  0  0  0  0
    0.1783   50.5824   27.4522 H   0  0  0  0  0  0
    1.7752   52.0218   24.4829 H   0  0  0  0  0  0
    0.6744   53.4050   24.4252 H   0  0  0  0  0  0
    1.2928   52.3608   32.9070 H   0  0  0  0  0  0
   -0.2671   52.1010   32.2641 H   0  0  0  0  0  0
    4.7104   53.6476   29.2138 H   0  0  0  0  0  0
    4.8522   51.9206   29.5120 H   0  0  0  0  0  0
    4.4711   52.4998   27.9147 H   0  0  0  0  0  0
  1  2  1  0  0  0
  1 21  1  0  0  0
  1 22  1  0  0  0
  1 23  1  0  0  0
  2  3  1  0  0  0
  2 24  1  0  0  0
  2 25  1  0  0  0
  3  4  1  0  0  0
  3 26  1  0  0  0
  3 27  1  0  0  0
  4  8  1  0  0  0
  4  5  1  0  0  0
  4 18  1  0  0  0
  5  6  1  0  0  0
  5 28  1  0  0  0
  5 29  1  0  0  0
  6  7  1  0  0  0
  6 30  1  0  0  0
  6 31  1  0  0  0
  7  8  1  0  0  0
  7  9  1  0  0  0
  8 32  1  0  0  0
  8 33  1  0  0  0
  9 10  2  0  0  0
  9 11  1  0  0  0
 11 15  1  0  0  0
 11 12  2  0  0  0
 12 13  1  0  0  0
 12 17  1  0  0  0
 13 14  2  0  0  0
 14 15  1  0  0  0
 14 16  1  0  0  0
 16 34  1  0  0  0
 16 35  1  0  0  0
 17 36  1  0  0  0
 17 37  1  0  0  0
 17 38  1  0  0  0
 18 19  2  0  0  0
 18 20  1  0  0  0
M  CHG  1  20  -1
M  END
> <i_i_glide_confnum>
27

> <i_i_glide_lignum>
1667

> <i_i_glide_posenum>
121

> <i_i_glide_rotatable_bonds>
5

> <i_m_Source_File_Index>
2393

> <b_m_subgroup_collapsed>
0

> <r_i_docking_score>
-5.46488

> <r_i_glide_ecoul>
-9.16077

> <r_i_glide_eff_state_penalty>
0

> <r_i_glide_einternal>
6.38774

> <r_i_glide_emodel>
-46.9705

> <r_i_glide_energy>
-37.0589

> <r_i_glide_erotb>
0.625694

> <r_i_glide_esite>
-0.1

> <r_i_glide_evdw>
-27.8982

> <r_i_glide_gscore>
-5.46488

> <r_i_glide_hbond>
-0.484548

> <r_i_glide_ligand_efficiency>
-0.273244

> <r_i_glide_ligand_efficiency_ln>
-1.36768

> <r_i_glide_ligand_efficiency_sa>
-0.741698

> <r_i_glide_lipo>
-0.983643

> <r_i_glide_metal>
0

> <r_i_glide_rewards>
-1.75336

> <s_i_glide_gridfile>
wee1_glide-grid

> <s_m_Source_File>
wee1_decoys_glide_SP.sdf

> <s_m_Source_Path>
/Users/zhangxujun/Desktop

> <s_m_entry_id>
2668

> <s_m_entry_name>
wee1_decoys_glide_SP.2393

> <s_m_subgroup_title>
wee1_decoys_glide_SP

> <s_m_subgroupid>
wee1_decoys_glide_SP


$$$$
