ZINC09346182_1139
                    3D
 Schrodinger Suite 2024-2.
 59 64  0  0  1  0            999 V2000
   -6.4900   53.5505   24.8540 C   0  0  0  0  0  0
   -5.1829   52.7982   25.0267 C   0  0  0  0  0  0
   -4.3814   53.0366   26.1413 C   0  0  0  0  0  0
   -3.1968   52.3252   26.3147 C   0  0  0  0  0  0
   -2.7912   51.3954   25.3564 C   0  0  0  0  0  0
   -3.5938   51.1665   24.2319 C   0  0  0  0  0  0
   -4.7963   51.8488   24.0817 C   0  0  0  0  0  0
   -1.4851   50.6211   25.5507 C   0  0  2  0  0  0
   -1.2025   50.6610   26.6001 H   0  0  0  0  0  0
   -0.3381   51.1330   24.6532 C   0  0  0  0  0  0
    0.2511   50.3408   23.7197 C   0  0  0  0  0  0
    1.2697   50.8863   22.8032 C   0  0  0  0  0  0
    2.0330   50.1001   21.9262 C   0  0  0  0  0  0
    2.9421   50.7013   21.0528 C   0  0  0  0  0  0
    3.1180   52.0846   21.0605 C   0  0  0  0  0  0
    2.3756   52.8748   21.9367 C   0  0  0  0  0  0
    1.4593   52.2751   22.7990 C   0  0  0  0  0  0
    0.6843   53.1189   23.5733 O   0  0  0  0  0  0
    0.1568   52.5876   24.8102 C   0  0  2  0  0  0
   -0.7122   53.2142   25.0097 H   0  0  0  0  0  0
    1.1044   52.8191   26.0035 C   0  0  0  0  0  0
    0.6619   52.5743   27.3109 C   0  0  0  0  0  0
    1.5188   52.7328   28.3947 C   0  0  0  0  0  0
    2.8208   53.1726   28.1832 C   0  0  0  0  0  0
    3.2626   53.4705   26.8943 C   0  0  0  0  0  0
    2.4069   53.2967   25.8105 C   0  0  0  0  0  0
    3.9044   53.3415   29.5673 S   0  0  0  0  0  0
    4.7866   54.8967   29.2890 C   0  0  0  0  0  0
   -0.1324   49.0116   23.6101 N   0  3  0  0  0  0
   -1.0474   48.4468   24.4042 C   0  0  0  0  0  0
   -1.6738   49.1965   25.2823 N   0  0  0  0  0  0
   -2.3790   48.3766   26.0817 N   0  0  0  0  0  0
   -2.2080   47.1269   25.4502 C   0  0  0  0  0  0
   -1.4272   47.1783   24.4370 N   0  0  0  0  0  0
   -3.0850   45.6967   26.0817 S   0  0  0  0  0  0
   -3.2214   46.0967   27.8507 C   0  0  0  0  0  0
   -7.2541   52.8967   24.4311 H   0  0  0  0  0  0
   -6.3600   54.3966   24.1781 H   0  0  0  0  0  0
   -6.8776   53.9089   25.8083 H   0  0  0  0  0  0
   -4.6825   53.7624   26.8817 H   0  0  0  0  0  0
   -2.5966   52.4967   27.1944 H   0  0  0  0  0  0
   -3.2988   50.4461   23.4826 H   0  0  0  0  0  0
   -5.4256   51.6464   23.2283 H   0  0  0  0  0  0
    1.9251   49.0261   21.8980 H   0  0  0  0  0  0
    3.5044   50.0967   20.3557 H   0  0  0  0  0  0
    3.8147   52.5431   20.3730 H   0  0  0  0  0  0
    2.4869   53.9493   21.9248 H   0  0  0  0  0  0
   -0.3482   52.2647   27.5117 H   0  0  0  0  0  0
    1.1687   52.5194   29.3944 H   0  0  0  0  0  0
    4.2737   53.8022   26.7165 H   0  0  0  0  0  0
    2.7803   53.5168   24.8222 H   0  0  0  0  0  0
    5.5044   55.0916   30.0817 H   0  0  0  0  0  0
    5.3332   54.8955   28.3471 H   0  0  0  0  0  0
    4.0507   55.6967   29.2817 H   0  0  0  0  0  0
   -3.8170   45.3334   28.3487 H   0  0  0  0  0  0
   -2.2360   46.0967   28.3183 H   0  0  0  0  0  0
   -3.6956   47.0627   28.0244 H   0  0  0  0  0  0
    0.3312   48.4285   22.9317 H   0  0  0  0  0  0
   -2.0956   48.4753   27.0814 H   0  0  0  0  0  0
  1  2  1  0  0  0
  1 37  1  0  0  0
  1 38  1  0  0  0
  1 39  1  0  0  0
  2  7  2  0  0  0
  2  3  1  0  0  0
  3  4  2  0  0  0
  3 40  1  0  0  0
  4  5  1  0  0  0
  4 41  1  0  0  0
  5  6  2  0  0  0
  5  8  1  0  0  0
  6  7  1  0  0  0
  6 42  1  0  0  0
  7 43  1  0  0  0
  8  9  1  0  0  0
  8 31  1  0  0  0
  8 10  1  0  0  0
 10 19  1  0  0  0
 10 11  2  0  0  0
 11 12  1  0  0  0
 11 29  1  0  0  0
 12 17  2  0  0  0
 12 13  1  0  0  0
 13 14  2  0  0  0
 13 44  1  0  0  0
 14 15  1  0  0  0
 14 45  1  0  0  0
 15 16  2  0  0  0
 15 46  1  0  0  0
 16 17  1  0  0  0
 16 47  1  0  0  0
 17 18  1  0  0  0
 18 19  1  0  0  0
 19 20  1  0  0  0
 19 21  1  0  0  0
 21 26  2  0  0  0
 21 22  1  0  0  0
 22 23  2  0  0  0
 22 48  1  0  0  0
 23 24  1  0  0  0
 23 49  1  0  0  0
 24 25  2  0  0  0
 24 27  1  0  0  0
 25 26  1  0  0  0
 25 50  1  0  0  0
 26 51  1  0  0  0
 27 28  1  0  0  0
 28 52  1  0  0  0
 28 53  1  0  0  0
 28 54  1  0  0  0
 29 30  2  0  0  0
 29 58  1  0  0  0
 30 34  1  0  0  0
 30 31  1  0  0  0
 31 32  1  0  0  0
 32 33  1  0  0  0
 32 59  1  0  0  0
 33 34  2  0  0  0
 33 35  1  0  0  0
 35 36  1  0  0  0
 36 55  1  0  0  0
 36 56  1  0  0  0
 36 57  1  0  0  0
M  CHG  1  29   1
M  END
> <i_i_glide_confnum>
2

> <i_i_glide_lignum>
1140

> <i_i_glide_posenum>
29

> <i_i_glide_rotatable_bonds>
4

> <i_m_Source_File_Index>
1591

> <b_m_subgroup_collapsed>
0

> <r_i_docking_score>
-5.92053

> <r_i_glide_ecoul>
-13.367

> <r_i_glide_eff_state_penalty>
0

> <r_i_glide_einternal>
6.14965

> <r_i_glide_emodel>
-63.1344

> <r_i_glide_energy>
-45.0309

> <r_i_glide_erotb>
0.172283

> <r_i_glide_esite>
-0.322043

> <r_i_glide_evdw>
-31.6639

> <r_i_glide_gscore>
-5.92053

> <r_i_glide_hbond>
-0.122832

> <r_i_glide_ligand_efficiency>
-0.174133

> <r_i_glide_ligand_efficiency_ln>
-1.30801

> <r_i_glide_ligand_efficiency_sa>
-0.564124

> <r_i_glide_lipo>
-1.96182

> <r_i_glide_metal>
0

> <r_i_glide_rewards>
-0.0978709

> <s_i_glide_gridfile>
wee1_glide-grid

> <s_m_Source_File>
wee1_decoys_glide_SP.sdf

> <s_m_Source_Path>
/Users/zhangxujun/Desktop

> <s_m_entry_id>
1866

> <s_m_entry_name>
wee1_decoys_glide_SP.1591

> <s_m_subgroup_title>
wee1_decoys_glide_SP

> <s_m_subgroupid>
wee1_decoys_glide_SP


$$$$
