ZINC44173492_6122
                    3D
 Schrodinger Suite 2024-2.
 67 71  0  0  1  0            999 V2000
    1.2727   58.0288   15.5482 C   0  0  0  0  0  0
    2.6481   57.3140   15.7052 C   0  0  0  0  0  0
    3.3199   57.3303   14.3093 C   0  0  0  0  0  0
    3.4700   58.2314   16.6573 C   0  0  0  0  0  0
    2.5716   55.8889   16.2026 N   0  0  0  0  0  0
    3.6903   55.1850   16.5946 C   0  0  0  0  0  0
    4.8515   55.5672   16.7328 O   0  0  0  0  0  0
    3.2475   53.7414   16.6559 C   0  0  1  0  0  0
    3.4075   53.3471   15.6457 H   0  0  0  0  0  0
    3.7420   52.6657   17.6225 C   0  0  2  0  0  0
    4.5893   52.1034   17.2244 H   0  0  0  0  0  0
    2.5521   51.6748   17.4913 N   0  3  0  0  0  0
    1.2835   52.4335   16.9438 C   0  0  1  0  0  0
    1.8424   53.8798   17.0406 C   0  0  2  0  0  0
    1.7001   54.1865   18.0817 H   0  0  0  0  0  0
    1.4313   55.1124   16.2576 C   0  0  0  0  0  0
    0.2860   55.3573   15.8820 O   0  0  0  0  0  0
    0.9598   51.9418   15.4988 C   0  0  0  0  0  0
   -0.1954   52.4097   14.8531 C   0  0  0  0  0  0
   -0.5122   52.0017   13.5610 C   0  0  0  0  0  0
    0.3271   51.1158   12.8936 C   0  0  0  0  0  0
    1.4796   50.6398   13.5082 C   0  0  0  0  0  0
    1.7966   51.0499   14.8003 C   0  0  0  0  0  0
    0.1105   52.0674   17.9263 C   0  0  0  0  0  0
    0.1862   51.0302   18.6283 O   0  0  0  0  0  0
   -0.8571   52.8601   17.9864 O   0  5  0  0  0  0
    4.0226   53.0560   19.0859 C   0  0  0  0  0  0
    3.1697   52.7060   20.1423 C   0  0  0  0  0  0
    3.4952   53.0404   21.4521 C   0  0  0  0  0  0
    4.6743   53.7392   21.7328 C   0  0  0  0  0  0
    5.5047   54.1174   20.6759 C   0  0  0  0  0  0
    5.1925   53.7630   19.3677 C   0  0  0  0  0  0
    5.0943   54.0560   23.1128 C   0  0  0  0  0  0
    4.3319   53.9667   24.2217 C   0  0  0  0  0  0
    4.7686   54.1883   25.6148 C   0  0  0  0  0  0
    3.7965   54.1909   26.6210 C   0  0  0  0  0  0
    4.1613   54.3474   27.9543 C   0  0  0  0  0  0
    5.5048   54.4961   28.2837 C   0  0  0  0  0  0
    6.4830   54.4961   27.2943 C   0  0  0  0  0  0
    6.1182   54.3505   25.9603 C   0  0  0  0  0  0
    0.7090   58.0356   16.4815 H   0  0  0  0  0  0
    1.3895   59.0721   15.2522 H   0  0  0  0  0  0
    0.6496   57.5705   14.7801 H   0  0  0  0  0  0
    4.3353   56.9344   14.3424 H   0  0  0  0  0  0
    2.7618   56.7272   13.5927 H   0  0  0  0  0  0
    3.3878   58.3424   13.9044 H   0  0  0  0  0  0
    4.5344   57.9951   16.6710 H   0  0  0  0  0  0
    3.4134   59.2811   16.3639 H   0  0  0  0  0  0
    3.1058   58.1687   17.6816 H   0  0  0  0  0  0
    2.8085   50.8901   16.9006 H   0  0  0  0  0  0
   -0.8616   53.0991   15.3526 H   0  0  0  0  0  0
   -1.4058   52.3721   13.0800 H   0  0  0  0  0  0
    0.0848   50.7983   11.8892 H   0  0  0  0  0  0
    2.1294   49.9522   12.9862 H   0  0  0  0  0  0
    2.7048   50.6507   15.2272 H   0  0  0  0  0  0
    2.2473   52.1721   19.9810 H   0  0  0  0  0  0
    2.8254   52.7295   22.2383 H   0  0  0  0  0  0
    6.4175   54.6631   20.8637 H   0  0  0  0  0  0
    5.8728   54.0304   18.5720 H   0  0  0  0  0  0
    6.1261   54.3560   23.2159 H   0  0  0  0  0  0
    3.2977   53.6796   24.1123 H   0  0  0  0  0  0
    2.7523   54.0617   26.3757 H   0  0  0  0  0  0
    3.4084   54.3471   28.7288 H   0  0  0  0  0  0
    5.7986   54.6186   29.3148 H   0  0  0  0  0  0
    7.5207   54.6122   27.5711 H   0  0  0  0  0  0
    6.8964   54.3362   25.2126 H   0  0  0  0  0  0
    2.3380   51.2529   18.3857 H   0  0  0  0  0  0
  1  2  1  0  0  0
  1 41  1  0  0  0
  1 42  1  0  0  0
  1 43  1  0  0  0
  2  3  1  0  0  0
  2  4  1  0  0  0
  2  5  1  0  0  0
  3 44  1  0  0  0
  3 45  1  0  0  0
  3 46  1  0  0  0
  4 47  1  0  0  0
  4 48  1  0  0  0
  4 49  1  0  0  0
  5 16  1  0  0  0
  5  6  1  0  0  0
  6  7  2  0  0  0
  6  8  1  0  0  0
  8  9  1  0  0  0
  8 14  1  0  0  0
  8 10  1  0  0  0
 10 11  1  0  0  0
 10 12  1  0  0  0
 10 27  1  0  0  0
 12 13  1  0  0  0
 12 50  1  0  0  0
 12 67  1  0  0  0
 13 14  1  0  0  0
 13 18  1  0  0  0
 13 24  1  0  0  0
 14 15  1  0  0  0
 14 16  1  0  0  0
 16 17  2  0  0  0
 18 23  2  0  0  0
 18 19  1  0  0  0
 19 20  2  0  0  0
 19 51  1  0  0  0
 20 21  1  0  0  0
 20 52  1  0  0  0
 21 22  2  0  0  0
 21 53  1  0  0  0
 22 23  1  0  0  0
 22 54  1  0  0  0
 23 55  1  0  0  0
 24 25  2  0  0  0
 24 26  1  0  0  0
 27 32  2  0  0  0
 27 28  1  0  0  0
 28 29  2  0  0  0
 28 56  1  0  0  0
 29 30  1  0  0  0
 29 57  1  0  0  0
 30 31  2  0  0  0
 30 33  1  0  0  0
 31 32  1  0  0  0
 31 58  1  0  0  0
 32 59  1  0  0  0
 33 34  2  0  0  0
 33 60  1  0  0  0
 34 35  1  0  0  0
 34 61  1  0  0  0
 35 40  2  0  0  0
 35 36  1  0  0  0
 36 37  2  0  0  0
 36 62  1  0  0  0
 37 38  1  0  0  0
 37 63  1  0  0  0
 38 39  2  0  0  0
 38 64  1  0  0  0
 39 40  1  0  0  0
 39 65  1  0  0  0
 40 66  1  0  0  0
M  CHG  2  12   1  26  -1
M  END
> <i_i_glide_confnum>
9

> <i_i_glide_lignum>
6123

> <i_i_glide_posenum>
340

> <i_i_glide_rotatable_bonds>
6

> <i_m_Source_File_Index>
4630

> <b_m_subgroup_collapsed>
0

> <r_i_docking_score>
-4.62454

> <r_i_glide_ecoul>
-3.7602

> <r_i_glide_eff_state_penalty>
0

> <r_i_glide_einternal>
2.21197

> <r_i_glide_emodel>
-47.1504

> <r_i_glide_energy>
-35.7054

> <r_i_glide_erotb>
0.333256

> <r_i_glide_esite>
-0.0954741

> <r_i_glide_evdw>
-31.9452

> <r_i_glide_gscore>
-4.62454

> <r_i_glide_hbond>
-0.110294

> <r_i_glide_ligand_efficiency>
-0.124988

> <r_i_glide_ligand_efficiency_ln>
-1.00296

> <r_i_glide_ligand_efficiency_sa>
-0.416487

> <r_i_glide_lipo>
-2.40641

> <r_i_glide_metal>
0

> <r_i_glide_rewards>
-0.184331

> <s_i_glide_gridfile>
wee1_glide-grid

> <s_m_Source_File>
wee1_decoys_glide_SP.sdf

> <s_m_Source_Path>
/Users/zhangxujun/Desktop

> <s_m_entry_id>
4905

> <s_m_entry_name>
wee1_decoys_glide_SP.4630

> <s_m_subgroup_title>
wee1_decoys_glide_SP

> <s_m_subgroupid>
wee1_decoys_glide_SP


$$$$
