ZINC22537468_2428
                    3D
 Schrodinger Suite 2024-2.
 56 60  0  0  1  0            999 V2000
    2.4871   54.4169   14.4380 C   0  0  0  0  0  0
    2.8568   54.0810   15.8644 C   0  0  0  0  0  0
    2.5827   52.8980   16.3959 N   0  0  0  0  0  0
    3.0483   53.0314   17.6096 C   0  0  0  0  0  0
    3.6673   54.2484   17.7596 N   0  0  0  0  0  0
    3.5031   54.9405   16.6258 N   0  0  0  0  0  0
    4.3371   54.7575   18.9649 C   0  0  1  0  0  0
    3.7612   55.6312   19.2694 H   0  0  0  0  0  0
    4.2196   53.6859   20.0855 C   0  0  0  0  0  0
    3.6533   52.4612   19.8527 C   0  0  0  0  0  0
    3.1043   52.1094   18.6302 N   0  0  0  0  0  0
    3.5803   51.2937   20.8347 C   0  0  0  0  0  0
    4.6988   54.0980   21.3988 C   0  0  0  0  0  0
    5.7979   54.6279   21.5609 O   0  0  0  0  0  0
    3.8012   53.8957   22.3866 N   0  0  0  0  0  0
    3.9147   54.0926   23.7746 C   0  0  0  0  0  0
    2.7358   53.9338   24.5031 C   0  0  0  0  0  0
    2.7454   54.0598   25.8880 C   0  0  0  0  0  0
    3.9360   54.3474   26.5682 C   0  0  0  0  0  0
    5.1128   54.5104   25.8377 C   0  0  0  0  0  0
    5.1111   54.3834   24.4497 C   0  0  0  0  0  0
    4.0178   54.4976   27.9402 O   0  0  0  0  0  0
    2.9277   54.2599   28.7449 C   0  0  0  0  0  0
    2.5337   52.9487   29.0264 C   0  0  0  0  0  0
    1.4220   52.7166   29.8322 C   0  0  0  0  0  0
    0.7144   53.7972   30.3579 C   0  0  0  0  0  0
    1.1072   55.1072   30.0833 C   0  0  0  0  0  0
    2.2204   55.3383   29.2795 C   0  0  0  0  0  0
    5.7442   55.2873   18.6524 C   0  0  0  0  0  0
    5.9680   56.6651   18.5581 C   0  0  0  0  0  0
    7.2456   57.1495   18.2924 C   0  0  0  0  0  0
    8.2998   56.2569   18.1188 C   0  0  0  0  0  0
    8.0853   54.8828   18.1998 C   0  0  0  0  0  0
    6.8053   54.3965   18.4584 C   0  0  0  0  0  0
    9.5391   56.7315   17.8621 F   0  0  0  0  0  0
    2.2077   53.5463   13.8437 H   0  0  0  0  0  0
    1.7160   55.1854   14.3818 H   0  0  0  0  0  0
    3.3439   54.8555   13.9253 H   0  0  0  0  0  0
    2.9644   51.1312   18.4179 H   0  0  0  0  0  0
    2.5661   51.1772   21.2157 H   0  0  0  0  0  0
    3.8640   50.3643   20.3399 H   0  0  0  0  0  0
    4.2565   51.4011   21.6801 H   0  0  0  0  0  0
    2.9022   53.5638   22.0735 H   0  0  0  0  0  0
    1.8047   53.7072   24.0026 H   0  0  0  0  0  0
    1.8178   53.9339   26.4239 H   0  0  0  0  0  0
    6.0343   54.7284   26.3563 H   0  0  0  0  0  0
    6.0485   54.4946   23.9283 H   0  0  0  0  0  0
    3.0865   52.1195   28.6075 H   0  0  0  0  0  0
    1.1042   51.7062   30.0456 H   0  0  0  0  0  0
   -0.1437   53.6125   30.9889 H   0  0  0  0  0  0
    0.5574   55.9399   30.4983 H   0  0  0  0  0  0
    2.5318   56.3507   29.0642 H   0  0  0  0  0  0
    5.1556   57.3642   18.6877 H   0  0  0  0  0  0
    7.4176   58.2132   18.2139 H   0  0  0  0  0  0
    8.9094   54.1990   18.0597 H   0  0  0  0  0  0
    6.6382   53.3298   18.5155 H   0  0  0  0  0  0
  1  2  1  0  0  0
  1 36  1  0  0  0
  1 37  1  0  0  0
  1 38  1  0  0  0
  2  6  2  0  0  0
  2  3  1  0  0  0
  3  4  2  0  0  0
  4 11  1  0  0  0
  4  5  1  0  0  0
  5  6  1  0  0  0
  5  7  1  0  0  0
  7  8  1  0  0  0
  7  9  1  0  0  0
  7 29  1  0  0  0
  9 10  2  0  0  0
  9 13  1  0  0  0
 10 11  1  0  0  0
 10 12  1  0  0  0
 11 39  1  0  0  0
 12 40  1  0  0  0
 12 41  1  0  0  0
 12 42  1  0  0  0
 13 14  2  0  0  0
 13 15  1  0  0  0
 15 16  1  0  0  0
 15 43  1  0  0  0
 16 21  2  0  0  0
 16 17  1  0  0  0
 17 18  2  0  0  0
 17 44  1  0  0  0
 18 19  1  0  0  0
 18 45  1  0  0  0
 19 20  2  0  0  0
 19 22  1  0  0  0
 20 21  1  0  0  0
 20 46  1  0  0  0
 21 47  1  0  0  0
 22 23  1  0  0  0
 23 28  2  0  0  0
 23 24  1  0  0  0
 24 25  2  0  0  0
 24 48  1  0  0  0
 25 26  1  0  0  0
 25 49  1  0  0  0
 26 27  2  0  0  0
 26 50  1  0  0  0
 27 28  1  0  0  0
 27 51  1  0  0  0
 28 52  1  0  0  0
 29 34  2  0  0  0
 29 30  1  0  0  0
 30 31  2  0  0  0
 30 53  1  0  0  0
 31 32  1  0  0  0
 31 54  1  0  0  0
 32 33  2  0  0  0
 32 35  1  0  0  0
 33 34  1  0  0  0
 33 55  1  0  0  0
 34 56  1  0  0  0
M  END
> <i_i_glide_confnum>
39

> <i_i_glide_lignum>
2429

> <i_i_glide_posenum>
392

> <i_i_glide_rotatable_bonds>
6

> <i_m_Source_File_Index>
2113

> <b_m_subgroup_collapsed>
0

> <r_i_docking_score>
-5.43418

> <r_i_glide_ecoul>
-1.01458

> <r_i_glide_eff_state_penalty>
0

> <r_i_glide_einternal>
6.23739

> <r_i_glide_emodel>
-59.3267

> <r_i_glide_energy>
-46.2949

> <r_i_glide_erotb>
0.580996

> <r_i_glide_esite>
-0.125509

> <r_i_glide_evdw>
-45.2803

> <r_i_glide_gscore>
-5.43418

> <r_i_glide_hbond>
0

> <r_i_glide_ligand_efficiency>
-0.159829

> <r_i_glide_ligand_efficiency_ln>
-1.20056

> <r_i_glide_ligand_efficiency_sa>
-0.517783

> <r_i_glide_lipo>
-3.01701

> <r_i_glide_metal>
0

> <r_i_glide_rewards>
-0.456454

> <s_i_glide_gridfile>
wee1_glide-grid

> <s_m_Source_File>
wee1_decoys_glide_SP.sdf

> <s_m_Source_Path>
/Users/zhangxujun/Desktop

> <s_m_entry_id>
2388

> <s_m_entry_name>
wee1_decoys_glide_SP.2113

> <s_m_subgroup_title>
wee1_decoys_glide_SP

> <s_m_subgroupid>
wee1_decoys_glide_SP


$$$$
