ZINC08684877_1924
                    3D
 Schrodinger Suite 2024-2.
 35 36  0  0  1  0            999 V2000
    6.7043   54.0967   28.0810 C   0  0  0  0  0  0
    5.8807   54.1529   26.8154 C   0  0  0  0  0  0
    6.2928   54.3920   25.5207 C   0  0  0  0  0  0
    5.2089   54.3191   24.6425 C   0  0  0  0  0  0
    4.1044   54.0149   25.4478 C   0  0  0  0  0  0
    4.5093   53.9601   26.7807 N   0  0  0  0  0  0
    3.6749   53.7194   27.9039 C   0  0  0  0  0  0
    2.5326   54.4986   28.1034 C   0  0  0  0  0  0
    1.6949   54.2507   29.1875 C   0  0  0  0  0  0
    2.0095   53.2268   30.0775 C   0  0  0  0  0  0
    3.1699   52.4741   29.9112 C   0  0  0  0  0  0
    3.9975   52.7143   28.8204 C   0  0  0  0  0  0
    0.9644   52.8968   31.4092 Cl  0  0  0  0  0  0
    2.6696   53.7079   25.0338 C   0  0  0  0  0  0
    5.2401   54.4960   23.1926 C   0  0  0  0  0  0
    6.3036   54.8554   22.5980 N   0  0  0  0  0  0
    6.1068   55.0703   21.2788 N   0  0  0  0  0  0
    7.0722   55.5100   20.4237 C   0  0  0  0  0  0
    6.7186   55.8106   18.8391 S   0  0  0  0  0  0
    8.3306   55.6957   20.8862 N   0  0  0  0  0  0
    7.6795   54.5538   27.9366 H   0  0  0  0  0  0
    6.2313   54.6079   28.9154 H   0  0  0  0  0  0
    6.9000   53.0726   28.3884 H   0  0  0  0  0  0
    7.3122   54.5764   25.2193 H   0  0  0  0  0  0
    2.2961   55.2982   27.4226 H   0  0  0  0  0  0
    0.8063   54.8451   29.3335 H   0  0  0  0  0  0
    3.4252   51.7009   30.6176 H   0  0  0  0  0  0
    4.8772   52.1066   28.6839 H   0  0  0  0  0  0
    2.5606   53.5943   23.9550 H   0  0  0  0  0  0
    2.3135   52.7748   25.4797 H   0  0  0  0  0  0
    1.9715   54.4957   25.3214 H   0  0  0  0  0  0
    4.2823   54.3161   22.7090 H   0  0  0  0  0  0
    5.1704   54.9143   20.9348 H   0  0  0  0  0  0
    8.5310   55.5487   21.8678 H   0  0  0  0  0  0
    9.0703   55.9431   20.2419 H   0  0  0  0  0  0
  1  2  1  0  0  0
  1 21  1  0  0  0
  1 22  1  0  0  0
  1 23  1  0  0  0
  2  6  1  0  0  0
  2  3  2  0  0  0
  3  4  1  0  0  0
  3 24  1  0  0  0
  4  5  2  0  0  0
  4 15  1  0  0  0
  5  6  1  0  0  0
  5 14  1  0  0  0
  6  7  1  0  0  0
  7 12  2  0  0  0
  7  8  1  0  0  0
  8  9  2  0  0  0
  8 25  1  0  0  0
  9 10  1  0  0  0
  9 26  1  0  0  0
 10 11  2  0  0  0
 10 13  1  0  0  0
 11 12  1  0  0  0
 11 27  1  0  0  0
 12 28  1  0  0  0
 14 29  1  0  0  0
 14 30  1  0  0  0
 14 31  1  0  0  0
 15 16  2  0  0  0
 15 32  1  0  0  0
 16 17  1  0  0  0
 17 18  1  0  0  0
 17 33  1  0  0  0
 18 19  2  0  0  0
 18 20  1  0  0  0
 20 34  1  0  0  0
 20 35  1  0  0  0
M  END
> <i_i_glide_confnum>
10

> <i_i_glide_lignum>
1925

> <i_i_glide_posenum>
367

> <i_i_glide_rotatable_bonds>
4

> <i_m_Source_File_Index>
542

> <b_m_subgroup_collapsed>
0

> <r_i_docking_score>
-6.65357

> <r_i_glide_ecoul>
-0.294193

> <r_i_glide_eff_state_penalty>
0

> <r_i_glide_einternal>
5.88626

> <r_i_glide_emodel>
-53.5505

> <r_i_glide_energy>
-39.6006

> <r_i_glide_erotb>
0.588864

> <r_i_glide_esite>
0

> <r_i_glide_evdw>
-39.3064

> <r_i_glide_gscore>
-6.65357

> <r_i_glide_hbond>
-0.209144

> <r_i_glide_ligand_efficiency>
-0.332678

> <r_i_glide_ligand_efficiency_ln>
-1.66517

> <r_i_glide_ligand_efficiency_sa>
-0.903028

> <r_i_glide_lipo>
-2.83301

> <r_i_glide_metal>
0

> <r_i_glide_rewards>
-2.19083

> <s_i_glide_gridfile>
wee1_glide-grid

> <s_m_Source_File>
wee1_decoys_glide_SP.sdf

> <s_m_Source_Path>
/Users/zhangxujun/Desktop

> <s_m_entry_id>
817

> <s_m_entry_name>
wee1_decoys_glide_SP.542

> <s_m_subgroup_title>
wee1_decoys_glide_SP

> <s_m_subgroupid>
wee1_decoys_glide_SP


$$$$
