ZINC02235176_2642
                    3D
 Schrodinger Suite 2024-2.
 49 53  0  0  1  0            999 V2000
   -0.4363   52.1068   24.6605 C   0  0  0  0  0  0
   -0.5808   51.9495   23.2837 C   0  0  0  0  0  0
    0.4382   52.3331   22.4133 C   0  0  0  0  0  0
    1.6292   52.8930   22.9308 C   0  0  0  0  0  0
    1.7790   53.0580   24.3389 C   0  0  0  0  0  0
    0.7273   52.6554   25.1965 C   0  0  0  0  0  0
    2.9343   53.5790   24.8436 N   0  0  0  0  0  0
    3.9434   53.8935   24.0229 C   0  0  0  0  0  0
    5.2848   54.3695   24.2480 C   0  0  0  0  0  0
    5.8422   54.4976   22.9691 C   0  0  0  0  0  0
    4.9118   54.1647   21.9807 N   0  0  0  0  0  0
    3.7625   53.7329   22.6263 C   0  0  0  0  0  0
    2.6311   53.2635   22.0915 N   0  0  0  0  0  0
    5.1046   54.2336   20.5705 C   0  0  0  0  0  0
    4.6763   53.1901   19.7396 C   0  0  0  0  0  0
    4.8245   53.2970   18.3587 C   0  0  0  0  0  0
    5.3890   54.4416   17.8043 C   0  0  0  0  0  0
    5.8040   55.4888   18.6200 C   0  0  0  0  0  0
    5.6583   55.3875   19.9993 C   0  0  0  0  0  0
    5.5315   54.5420   16.4636 F   0  0  0  0  0  0
    7.1043   54.8983   22.6123 N   0  0  0  0  0  0
    5.9518   54.6559   25.5312 C   0  0  0  0  0  0
    7.0986   55.1069   25.6086 O   0  0  0  0  0  0
    5.1678   54.3709   26.6045 O   0  0  0  0  0  0
    5.6424   54.6349   27.9277 C   0  0  0  0  0  0
    4.6509   54.2567   29.0563 C   0  0  2  0  0  0
    5.1039   54.4948   30.0166 H   0  0  0  0  0  0
    4.1270   52.8224   29.0636 C   0  0  0  0  0  0
    2.8137   52.8825   28.3152 C   0  0  0  0  0  0
    2.4485   54.3695   28.2750 C   0  0  0  0  0  0
    3.4577   55.0347   29.0300 O   0  0  0  0  0  0
   -1.2338   51.7992   25.3207 H   0  0  0  0  0  0
   -1.4888   51.5167   22.8886 H   0  0  0  0  0  0
    0.3303   52.2082   21.3453 H   0  0  0  0  0  0
    0.8270   52.7698   26.2652 H   0  0  0  0  0  0
    4.2379   52.2901   20.1492 H   0  0  0  0  0  0
    4.5056   52.4937   17.7124 H   0  0  0  0  0  0
    6.2237   56.3806   18.1788 H   0  0  0  0  0  0
    5.9511   56.2258   20.6140 H   0  0  0  0  0  0
    7.8207   55.0975   23.3030 H   0  0  0  0  0  0
    7.4064   54.9028   21.6485 H   0  0  0  0  0  0
    5.8718   55.6964   28.0129 H   0  0  0  0  0  0
    6.5925   54.1294   28.1055 H   0  0  0  0  0  0
    3.9569   52.5158   30.0959 H   0  0  0  0  0  0
    4.8467   52.1025   28.6699 H   0  0  0  0  0  0
    2.0417   52.2841   28.8015 H   0  0  0  0  0  0
    2.9437   52.4948   27.3060 H   0  0  0  0  0  0
    1.4669   54.5653   28.7076 H   0  0  0  0  0  0
    2.4509   54.7587   27.2576 H   0  0  0  0  0  0
  1  6  2  0  0  0
  1  2  1  0  0  0
  1 32  1  0  0  0
  2  3  2  0  0  0
  2 33  1  0  0  0
  3  4  1  0  0  0
  3 34  1  0  0  0
  4 13  2  0  0  0
  4  5  1  0  0  0
  5  6  1  0  0  0
  5  7  2  0  0  0
  6 35  1  0  0  0
  7  8  1  0  0  0
  8 12  2  0  0  0
  8  9  1  0  0  0
  9 10  2  0  0  0
  9 22  1  0  0  0
 10 11  1  0  0  0
 10 21  1  0  0  0
 11 12  1  0  0  0
 11 14  1  0  0  0
 12 13  1  0  0  0
 14 19  2  0  0  0
 14 15  1  0  0  0
 15 16  2  0  0  0
 15 36  1  0  0  0
 16 17  1  0  0  0
 16 37  1  0  0  0
 17 18  2  0  0  0
 17 20  1  0  0  0
 18 19  1  0  0  0
 18 38  1  0  0  0
 19 39  1  0  0  0
 21 40  1  0  0  0
 21 41  1  0  0  0
 22 23  2  0  0  0
 22 24  1  0  0  0
 24 25  1  0  0  0
 25 26  1  0  0  0
 25 42  1  0  0  0
 25 43  1  0  0  0
 26 27  1  0  0  0
 26 31  1  0  0  0
 26 28  1  0  0  0
 28 29  1  0  0  0
 28 44  1  0  0  0
 28 45  1  0  0  0
 29 30  1  0  0  0
 29 46  1  0  0  0
 29 47  1  0  0  0
 30 31  1  0  0  0
 30 48  1  0  0  0
 30 49  1  0  0  0
M  END
> <i_i_glide_confnum>
159

> <i_i_glide_lignum>
2643

> <i_i_glide_posenum>
38

> <i_i_glide_rotatable_bonds>
5

> <i_m_Source_File_Index>
2642

> <b_m_subgroup_collapsed>
0

> <r_i_docking_score>
-7.77157

> <r_i_glide_ecoul>
-5.54208

> <r_i_glide_eff_state_penalty>
0

> <r_i_glide_einternal>
5.73401

> <r_i_glide_emodel>
-65.3669

> <r_i_glide_energy>
-46.5596

> <r_i_glide_erotb>
0.476168

> <r_i_glide_esite>
-0.00383414

> <r_i_glide_evdw>
-41.0175

> <r_i_glide_gscore>
-7.77157

> <r_i_glide_hbond>
-0.59192

> <r_i_glide_ligand_efficiency>
-0.259052

> <r_i_glide_ligand_efficiency_ln>
-1.76578

> <r_i_glide_ligand_efficiency_sa>
-0.804936

> <r_i_glide_lipo>
-2.71692

> <r_i_glide_metal>
0

> <r_i_glide_rewards>
-2.05288

> <s_i_glide_gridfile>
wee1_glide-grid

> <s_m_Source_File>
wee1_decoys_glide_SP.sdf

> <s_m_Source_Path>
/Users/zhangxujun/Desktop

> <s_m_entry_id>
2917

> <s_m_entry_name>
wee1_decoys_glide_SP.2642

> <s_m_subgroup_title>
wee1_decoys_glide_SP

> <s_m_subgroupid>
wee1_decoys_glide_SP


$$$$
