ZINC00718366_5123
                    3D
 Schrodinger Suite 2024-2.
 59 63  0  0  1  0            999 V2000
   -5.0157   54.1277   25.8530 C   0  0  0  0  0  0
   -3.8216   53.5140   25.3865 O   0  0  0  0  0  0
   -3.9003   52.3953   24.5755 C   0  0  0  0  0  0
   -5.1177   51.8667   24.1146 C   0  0  0  0  0  0
   -5.1440   50.7574   23.2802 C   0  0  0  0  0  0
   -3.9540   50.1706   22.8721 C   0  0  0  0  0  0
   -2.7237   50.6602   23.3247 C   0  0  0  0  0  0
   -2.6960   51.7696   24.1975 C   0  0  0  0  0  0
   -1.4856   52.2457   24.6663 O   0  0  0  0  0  0
   -1.2473   52.0456   26.0660 C   0  0  0  0  0  0
    0.1562   52.4830   26.4904 C   0  0  0  0  0  0
    0.4921   52.4111   27.8454 C   0  0  0  0  0  0
    1.7512   52.8211   28.2768 C   0  0  0  0  0  0
    2.6777   53.2968   27.3524 C   0  0  0  0  0  0
    2.3600   53.3516   25.9977 C   0  0  0  0  0  0
    1.1026   52.9395   25.5659 C   0  0  0  0  0  0
    3.8961   53.7045   27.7738 F   0  0  0  0  0  0
   -1.4480   49.8994   22.9322 C   0  0  2  0  0  0
   -1.7630   49.1870   22.1667 H   0  0  0  0  0  0
   -0.9228   49.0950   24.1228 C   0  0  0  0  0  0
    0.2779   49.3779   24.6557 C   0  0  0  0  0  0
    1.1843   50.1977   24.0766 O   0  0  0  0  0  0
    0.9166   50.7757   22.8778 C   0  0  0  0  0  0
   -0.3054   50.7271   22.2848 C   0  0  0  0  0  0
   -0.5692   51.5042   21.0548 C   0  0  0  0  0  0
   -1.7048   51.6488   20.6001 O   0  0  0  0  0  0
    0.6123   52.2929   20.4556 C   0  0  0  0  0  0
    1.9964   51.6952   20.7980 C   0  0  2  0  0  0
    2.0278   50.7077   20.3306 H   0  0  0  0  0  0
    2.1426   51.4880   22.3214 C   0  0  0  0  0  0
    3.1407   52.4969   20.2055 C   0  0  0  0  0  0
    4.2648   53.1281   20.7297 C   0  0  0  0  0  0
    4.9517   53.7012   19.6587 C   0  0  0  0  0  0
    4.2217   53.3916   18.5244 C   0  0  0  0  0  0
    3.1255   52.6630   18.8567 O   0  0  0  0  0  0
    0.8072   48.8967   25.8132 N   0  0  0  0  0  0
   -1.7559   48.0788   24.6834 C   0  0  0  0  0  0
   -2.4184   47.2053   25.0545 N   0  0  0  0  0  0
   -4.7594   54.9783   26.4823 H   0  0  0  0  0  0
   -5.6247   54.4972   25.0287 H   0  0  0  0  0  0
   -5.6088   53.4378   26.4547 H   0  0  0  0  0  0
   -6.0631   52.3107   24.3858 H   0  0  0  0  0  0
   -6.0885   50.3647   22.9328 H   0  0  0  0  0  0
   -3.9976   49.3088   22.2219 H   0  0  0  0  0  0
   -1.9622   52.6113   26.6632 H   0  0  0  0  0  0
   -1.3779   50.9934   26.3264 H   0  0  0  0  0  0
   -0.2242   52.0425   28.5665 H   0  0  0  0  0  0
    2.0082   52.7742   29.3237 H   0  0  0  0  0  0
    3.0869   53.7164   25.2880 H   0  0  0  0  0  0
    0.8498   53.0092   24.5201 H   0  0  0  0  0  0
    0.5718   53.2957   20.8802 H   0  0  0  0  0  0
    0.4650   52.4103   19.3811 H   0  0  0  0  0  0
    3.0202   50.8600   22.4814 H   0  0  0  0  0  0
    2.3094   52.4141   22.8704 H   0  0  0  0  0  0
    4.5524   53.1684   21.7695 H   0  0  0  0  0  0
    5.8722   54.2646   19.7003 H   0  0  0  0  0  0
    4.3539   53.5946   17.4719 H   0  0  0  0  0  0
    0.2416   48.3216   26.4286 H   0  0  0  0  0  0
    1.8039   48.7460   25.8659 H   0  0  0  0  0  0
  1  2  1  0  0  0
  1 39  1  0  0  0
  1 40  1  0  0  0
  1 41  1  0  0  0
  2  3  1  0  0  0
  3  8  2  0  0  0
  3  4  1  0  0  0
  4  5  2  0  0  0
  4 42  1  0  0  0
  5  6  1  0  0  0
  5 43  1  0  0  0
  6  7  2  0  0  0
  6 44  1  0  0  0
  7  8  1  0  0  0
  7 18  1  0  0  0
  8  9  1  0  0  0
  9 10  1  0  0  0
 10 11  1  0  0  0
 10 45  1  0  0  0
 10 46  1  0  0  0
 11 16  2  0  0  0
 11 12  1  0  0  0
 12 13  2  0  0  0
 12 47  1  0  0  0
 13 14  1  0  0  0
 13 48  1  0  0  0
 14 15  2  0  0  0
 14 17  1  0  0  0
 15 16  1  0  0  0
 15 49  1  0  0  0
 16 50  1  0  0  0
 18 19  1  0  0  0
 18 24  1  0  0  0
 18 20  1  0  0  0
 20 21  2  0  0  0
 20 37  1  0  0  0
 21 22  1  0  0  0
 21 36  1  0  0  0
 22 23  1  0  0  0
 23 30  1  0  0  0
 23 24  2  0  0  0
 24 25  1  0  0  0
 25 26  2  0  0  0
 25 27  1  0  0  0
 27 28  1  0  0  0
 27 51  1  0  0  0
 27 52  1  0  0  0
 28 29  1  0  0  0
 28 30  1  0  0  0
 28 31  1  0  0  0
 30 53  1  0  0  0
 30 54  1  0  0  0
 31 35  1  0  0  0
 31 32  2  0  0  0
 32 33  1  0  0  0
 32 55  1  0  0  0
 33 34  2  0  0  0
 33 56  1  0  0  0
 34 35  1  0  0  0
 34 57  1  0  0  0
 36 58  1  0  0  0
 36 59  1  0  0  0
 37 38  3  0  0  0
M  END
> <i_i_glide_confnum>
114

> <i_i_glide_lignum>
5124

> <i_i_glide_posenum>
396

> <i_i_glide_rotatable_bonds>
7

> <i_m_Source_File_Index>
1912

> <b_m_subgroup_collapsed>
0

> <r_i_docking_score>
-3.72731

> <r_i_glide_ecoul>
-4.00107

> <r_i_glide_eff_state_penalty>
0

> <r_i_glide_einternal>
3.31569

> <r_i_glide_emodel>
-43.1029

> <r_i_glide_energy>
-38.2845

> <r_i_glide_erotb>
0.429339

> <r_i_glide_esite>
-0.131829

> <r_i_glide_evdw>
-34.2834

> <r_i_glide_gscore>
-3.72731

> <r_i_glide_hbond>
-0.181316

> <r_i_glide_ligand_efficiency>
-0.103536

> <r_i_glide_ligand_efficiency_ln>
-0.813197

> <r_i_glide_ligand_efficiency_sa>
-0.341869

> <r_i_glide_lipo>
-1.15076

> <r_i_glide_metal>
0

> <r_i_glide_rewards>
-0.378405

> <s_i_glide_gridfile>
wee1_glide-grid

> <s_m_Source_File>
wee1_decoys_glide_SP.sdf

> <s_m_Source_Path>
/Users/zhangxujun/Desktop

> <s_m_entry_id>
2187

> <s_m_entry_name>
wee1_decoys_glide_SP.1912

> <s_m_subgroup_title>
wee1_decoys_glide_SP

> <s_m_subgroupid>
wee1_decoys_glide_SP


$$$$
