ZINC14543948_5206
                    3D
 Schrodinger Suite 2024-2.
 61 66  0  0  1  0            999 V2000
    1.0060   48.1486   19.5377 C   0  0  0  0  0  0
    0.6753   48.9799   20.6447 O   0  0  0  0  0  0
    1.4921   50.0464   20.9795 C   0  0  0  0  0  0
    2.6084   50.3982   20.2089 C   0  0  0  0  0  0
    3.4144   51.4689   20.5487 C   0  0  0  0  0  0
    3.1255   52.2496   21.6851 C   0  0  0  0  0  0
    3.9684   53.3312   22.0372 C   0  0  0  0  0  0
    3.6992   54.0961   23.1633 C   0  0  0  0  0  0
    2.5835   53.8303   23.9435 C   0  0  0  0  0  0
    1.7340   52.7767   23.6232 C   0  0  0  0  0  0
    1.9835   51.9324   22.4943 C   0  0  0  0  0  0
    1.1701   50.7967   22.1312 C   0  0  0  0  0  0
   -0.0594   50.4075   22.9895 C   0  0  1  0  0  0
    0.0036   50.9087   23.9503 H   0  0  0  0  0  0
   -1.4131   50.8074   22.3220 C   0  0  2  0  0  0
   -1.4556   50.3225   21.3448 H   0  0  0  0  0  0
   -1.5816   52.3248   22.1480 C   0  0  0  0  0  0
   -2.4161   52.7220   23.3481 C   0  0  0  0  0  0
   -2.9844   51.6481   23.9166 C   0  0  0  0  0  0
   -2.6541   50.3925   23.1358 C   0  0  2  0  0  0
   -3.4807   50.1706   22.4589 H   0  0  0  0  0  0
   -2.4502   49.1459   23.9913 C   0  0  0  0  0  0
   -3.5143   48.5934   24.7195 C   0  0  0  0  0  0
   -3.3362   47.4553   25.5107 C   0  0  0  0  0  0
   -2.0811   46.8634   25.5944 C   0  0  0  0  0  0
   -1.0248   47.3789   24.8540 C   0  0  0  0  0  0
   -1.2044   48.4944   24.0422 C   0  0  0  0  0  0
   -0.0763   48.9993   23.3777 N   0  0  0  0  0  0
   -4.6937   46.7396   26.4238 S   0  0  0  0  0  0
   -5.9530   47.1642   25.8013 O   0  0  0  0  0  0
   -4.3879   45.3116   26.5674 O   0  0  0  0  0  0
   -4.5941   47.4404   28.0529 N   0  0  0  0  0  0
   -4.9613   48.7462   28.4224 C   0  0  0  0  0  0
   -5.6406   49.6357   27.5808 C   0  0  0  0  0  0
   -5.9796   50.9088   28.0342 C   0  0  0  0  0  0
   -5.6400   51.2966   29.3262 C   0  0  0  0  0  0
   -4.9540   50.4279   30.1689 C   0  0  0  0  0  0
   -4.6181   49.1564   29.7136 C   0  0  0  0  0  0
    0.2740   47.3449   19.4607 H   0  0  0  0  0  0
    0.9849   48.7062   18.6006 H   0  0  0  0  0  0
    1.9880   47.6890   19.6600 H   0  0  0  0  0  0
    2.8781   49.8439   19.3211 H   0  0  0  0  0  0
    4.2711   51.7069   19.9312 H   0  0  0  0  0  0
    4.8338   53.5536   21.4289 H   0  0  0  0  0  0
    4.3667   54.8966   23.4371 H   0  0  0  0  0  0
    2.3784   54.4432   24.8093 H   0  0  0  0  0  0
    0.8843   52.6284   24.2681 H   0  0  0  0  0  0
   -0.6367   52.8676   22.1268 H   0  0  0  0  0  0
   -2.0944   52.5477   21.2128 H   0  0  0  0  0  0
   -2.5196   53.7484   23.6705 H   0  0  0  0  0  0
   -3.6559   51.6476   24.7636 H   0  0  0  0  0  0
   -4.4871   49.0585   24.6680 H   0  0  0  0  0  0
   -1.9119   46.0090   26.2363 H   0  0  0  0  0  0
   -0.0556   46.9035   24.8836 H   0  0  0  0  0  0
    0.8388   48.6217   23.5880 H   0  0  0  0  0  0
   -3.9891   46.9506   28.6965 H   0  0  0  0  0  0
   -5.9212   49.3729   26.5758 H   0  0  0  0  0  0
   -6.5075   51.5901   27.3823 H   0  0  0  0  0  0
   -5.9094   52.2820   29.6743 H   0  0  0  0  0  0
   -4.6743   50.7296   31.1687 H   0  0  0  0  0  0
   -4.0837   48.4903   30.3735 H   0  0  0  0  0  0
  1  2  1  0  0  0
  1 39  1  0  0  0
  1 40  1  0  0  0
  1 41  1  0  0  0
  2  3  1  0  0  0
  3 12  2  0  0  0
  3  4  1  0  0  0
  4  5  2  0  0  0
  4 42  1  0  0  0
  5  6  1  0  0  0
  5 43  1  0  0  0
  6 11  2  0  0  0
  6  7  1  0  0  0
  7  8  2  0  0  0
  7 44  1  0  0  0
  8  9  1  0  0  0
  8 45  1  0  0  0
  9 10  2  0  0  0
  9 46  1  0  0  0
 10 11  1  0  0  0
 10 47  1  0  0  0
 11 12  1  0  0  0
 12 13  1  0  0  0
 13 14  1  0  0  0
 13 28  1  0  0  0
 13 15  1  0  0  0
 15 16  1  0  0  0
 15 20  1  0  0  0
 15 17  1  0  0  0
 17 18  1  0  0  0
 17 48  1  0  0  0
 17 49  1  0  0  0
 18 19  2  0  0  0
 18 50  1  0  0  0
 19 20  1  0  0  0
 19 51  1  0  0  0
 20 21  1  0  0  0
 20 22  1  0  0  0
 22 27  2  0  0  0
 22 23  1  0  0  0
 23 24  2  0  0  0
 23 52  1  0  0  0
 24 25  1  0  0  0
 24 29  1  0  0  0
 25 26  2  0  0  0
 25 53  1  0  0  0
 26 27  1  0  0  0
 26 54  1  0  0  0
 27 28  1  0  0  0
 28 55  1  0  0  0
 29 30  2  0  0  0
 29 31  2  0  0  0
 29 32  1  0  0  0
 32 33  1  0  0  0
 32 56  1  0  0  0
 33 38  2  0  0  0
 33 34  1  0  0  0
 34 35  2  0  0  0
 34 57  1  0  0  0
 35 36  1  0  0  0
 35 58  1  0  0  0
 36 37  2  0  0  0
 36 59  1  0  0  0
 37 38  1  0  0  0
 37 60  1  0  0  0
 38 61  1  0  0  0
M  END
> <i_i_glide_confnum>
22

> <i_i_glide_lignum>
5207

> <i_i_glide_posenum>
374

> <i_i_glide_rotatable_bonds>
5

> <i_m_Source_File_Index>
4014

> <b_m_subgroup_collapsed>
0

> <r_i_docking_score>
-2.94815

> <r_i_glide_ecoul>
-1.1534

> <r_i_glide_eff_state_penalty>
0

> <r_i_glide_einternal>
0.611369

> <r_i_glide_emodel>
-43.2738

> <r_i_glide_energy>
-35.9092

> <r_i_glide_erotb>
0.34856

> <r_i_glide_esite>
-0.18288

> <r_i_glide_evdw>
-34.7558

> <r_i_glide_gscore>
-2.94815

> <r_i_glide_hbond>
0

> <r_i_glide_ligand_efficiency>
-0.084233

> <r_i_glide_ligand_efficiency_ln>
-0.647185

> <r_i_glide_ligand_efficiency_sa>
-0.275532

> <r_i_glide_lipo>
-1.09813

> <r_i_glide_metal>
0

> <r_i_glide_rewards>
-0.104907

> <s_i_glide_gridfile>
wee1_glide-grid

> <s_m_Source_File>
wee1_decoys_glide_SP.sdf

> <s_m_Source_Path>
/Users/zhangxujun/Desktop

> <s_m_entry_id>
4289

> <s_m_entry_name>
wee1_decoys_glide_SP.4014

> <s_m_subgroup_title>
wee1_decoys_glide_SP

> <s_m_subgroupid>
wee1_decoys_glide_SP


$$$$
