ZINC19909371_2354
                    3D
 Schrodinger Suite 2024-2.
 51 53  0  0  1  0            999 V2000
   -4.6098   43.2996   20.7370 C   0  0  0  0  0  0
   -3.9903   44.4206   21.5528 C   0  0  0  0  0  0
   -4.7516   45.0921   22.5092 C   0  0  0  0  0  0
   -4.1804   46.1191   23.2562 C   0  0  0  0  0  0
   -2.8395   46.4822   23.0628 C   0  0  0  0  0  0
   -2.0956   45.8184   22.0817 C   0  0  0  0  0  0
   -2.6648   44.7945   21.3280 C   0  0  0  0  0  0
   -2.1913   47.5184   23.8730 C   0  0  0  0  0  0
   -2.8310   48.4115   24.5155 N   0  0  0  0  0  0
   -2.0253   49.1759   25.2813 N   0  0  0  0  0  0
   -2.4548   50.2516   25.9747 C   0  0  0  0  0  0
   -3.6056   50.6962   25.9244 O   0  0  0  0  0  0
   -1.4222   50.8967   26.8723 C   0  0  0  0  0  0
   -0.0507   50.7884   26.6018 C   0  0  0  0  0  0
    0.8785   51.3078   27.4939 C   0  0  0  0  0  0
    0.4580   51.9768   28.6491 C   0  0  0  0  0  0
   -0.8955   52.0947   28.9171 C   0  0  0  0  0  0
   -1.8316   51.5641   28.0313 C   0  0  0  0  0  0
    1.3323   52.4894   29.6201 N   0  0  0  0  0  0
    2.5511   53.0405   29.4738 C   0  0  0  0  0  0
    3.2102   53.2968   30.4810 O   0  0  0  0  0  0
    2.9427   53.2891   28.2011 N   0  0  0  0  0  0
    4.2150   53.6200   27.7093 C   0  0  0  0  0  0
    5.3762   53.5223   28.4817 C   0  0  0  0  0  0
    6.6144   53.8560   27.9515 C   0  0  0  0  0  0
    6.7049   54.2406   26.6206 C   0  0  0  0  0  0
    5.5776   54.2647   25.8009 C   0  0  0  0  0  0
    4.3219   53.9845   26.3612 C   0  0  0  0  0  0
    5.7680   54.5656   24.3184 C   0  0  0  0  0  0
    4.6200   54.4968   23.6417 F   0  0  0  0  0  0
    6.3043   55.7774   24.1899 F   0  0  0  0  0  0
    6.6178   53.6962   23.7759 F   0  0  0  0  0  0
   -5.6879   43.4308   20.6432 H   0  0  0  0  0  0
   -4.2066   43.2930   19.7229 H   0  0  0  0  0  0
   -4.4096   42.3321   21.2011 H   0  0  0  0  0  0
   -5.7844   44.8218   22.6779 H   0  0  0  0  0  0
   -4.7844   46.6228   23.9988 H   0  0  0  0  0  0
   -1.0675   46.0931   21.8934 H   0  0  0  0  0  0
   -2.0760   44.2965   20.5727 H   0  0  0  0  0  0
   -1.1033   47.4533   23.8807 H   0  0  0  0  0  0
   -1.0710   48.8600   25.3667 H   0  0  0  0  0  0
    0.3143   50.2730   25.7252 H   0  0  0  0  0  0
    1.9215   51.1586   27.2878 H   0  0  0  0  0  0
   -1.2361   52.5665   29.8267 H   0  0  0  0  0  0
   -2.8813   51.6357   28.2785 H   0  0  0  0  0  0
    0.9604   52.5097   30.5587 H   0  0  0  0  0  0
    2.2242   53.1962   27.5001 H   0  0  0  0  0  0
    5.3280   53.1577   29.4882 H   0  0  0  0  0  0
    7.5009   53.8030   28.5665 H   0  0  0  0  0  0
    7.6658   54.4965   26.2076 H   0  0  0  0  0  0
    3.4356   54.0128   25.7418 H   0  0  0  0  0  0
  1  2  1  0  0  0
  1 33  1  0  0  0
  1 34  1  0  0  0
  1 35  1  0  0  0
  2  7  2  0  0  0
  2  3  1  0  0  0
  3  4  2  0  0  0
  3 36  1  0  0  0
  4  5  1  0  0  0
  4 37  1  0  0  0
  5  6  2  0  0  0
  5  8  1  0  0  0
  6  7  1  0  0  0
  6 38  1  0  0  0
  7 39  1  0  0  0
  8  9  2  0  0  0
  8 40  1  0  0  0
  9 10  1  0  0  0
 10 11  1  0  0  0
 10 41  1  0  0  0
 11 12  2  0  0  0
 11 13  1  0  0  0
 13 18  2  0  0  0
 13 14  1  0  0  0
 14 15  2  0  0  0
 14 42  1  0  0  0
 15 16  1  0  0  0
 15 43  1  0  0  0
 16 17  2  0  0  0
 16 19  1  0  0  0
 17 18  1  0  0  0
 17 44  1  0  0  0
 18 45  1  0  0  0
 19 20  1  0  0  0
 19 46  1  0  0  0
 20 21  2  0  0  0
 20 22  1  0  0  0
 22 23  1  0  0  0
 22 47  1  0  0  0
 23 28  2  0  0  0
 23 24  1  0  0  0
 24 25  2  0  0  0
 24 48  1  0  0  0
 25 26  1  0  0  0
 25 49  1  0  0  0
 26 27  2  0  0  0
 26 50  1  0  0  0
 27 28  1  0  0  0
 27 29  1  0  0  0
 28 51  1  0  0  0
 29 30  1  0  0  0
 29 31  1  0  0  0
 29 32  1  0  0  0
M  END
> <i_i_glide_confnum>
269

> <i_i_glide_lignum>
2355

> <i_i_glide_posenum>
268

> <i_i_glide_rotatable_bonds>
9

> <i_m_Source_File_Index>
3467

> <b_m_subgroup_collapsed>
0

> <r_i_docking_score>
-4.89118

> <r_i_glide_ecoul>
-4.54687

> <r_i_glide_eff_state_penalty>
0

> <r_i_glide_einternal>
11.4713

> <r_i_glide_emodel>
-46.2334

> <r_i_glide_energy>
-38.7301

> <r_i_glide_erotb>
0.823496

> <r_i_glide_esite>
-0.159043

> <r_i_glide_evdw>
-34.1833

> <r_i_glide_gscore>
-4.89118

> <r_i_glide_hbond>
-0.32

> <r_i_glide_ligand_efficiency>
-0.152849

> <r_i_glide_ligand_efficiency_ln>
-1.09527

> <r_i_glide_ligand_efficiency_sa>
-0.485266

> <r_i_glide_lipo>
-2.02413

> <r_i_glide_metal>
0

> <r_i_glide_rewards>
-0.820307

> <s_i_glide_gridfile>
wee1_glide-grid

> <s_m_Source_File>
wee1_decoys_glide_SP.sdf

> <s_m_Source_Path>
/Users/zhangxujun/Desktop

> <s_m_entry_id>
3742

> <s_m_entry_name>
wee1_decoys_glide_SP.3467

> <s_m_subgroup_title>
wee1_decoys_glide_SP

> <s_m_subgroupid>
wee1_decoys_glide_SP


$$$$
