ZINC20876398_5236
                    3D
 Schrodinger Suite 2024-2.
 46 48  0  0  1  0            999 V2000
    7.0860   54.5752   24.4296 C   0  0  0  0  0  0
    5.7316   54.4669   24.8408 O   0  0  0  0  0  0
    4.7685   54.1025   23.9167 C   0  0  0  0  0  0
    5.0494   53.7603   22.5806 C   0  0  0  0  0  0
    4.0235   53.4255   21.6890 C   0  0  0  0  0  0
    2.7042   53.4174   22.1489 C   0  0  0  0  0  0
    2.4099   53.7484   23.4715 C   0  0  0  0  0  0
    3.4363   54.0992   24.3550 C   0  0  0  0  0  0
    3.1256   54.4443   25.6542 O   0  0  0  0  0  0
    3.1278   53.3411   26.5549 C   0  0  0  0  0  0
    2.3027   53.6158   27.8089 C   0  0  0  0  0  0
    1.5910   52.5700   28.4081 C   0  0  0  0  0  0
    0.8470   52.7938   29.5654 C   0  0  0  0  0  0
    0.8091   54.0632   30.1418 C   0  0  0  0  0  0
    1.5157   55.1182   29.5482 C   0  0  0  0  0  0
    2.2602   54.8873   28.3883 C   0  0  0  0  0  0
    1.5034   56.7089   30.2304 Cl  0  0  0  0  0  0
   -0.0925   54.2886   31.5980 Cl  0  0  0  0  0  0
    0.6008   53.6968   24.0694 Br  0  0  0  0  0  0
    4.3493   53.1021   20.2332 C   0  0  0  0  0  0
    3.9033   51.6971   19.7913 N   0  3  0  0  0  0
    2.5317   51.6271   19.1043 C   0  0  0  0  0  0
    1.9381   50.2951   19.4780 C   0  0  0  0  0  0
    1.8856   49.0540   18.8602 C   0  0  0  0  0  0
    1.1936   48.2019   19.7221 C   0  0  0  0  0  0
    0.8600   48.9610   20.8311 C   0  0  0  0  0  0
    1.3175   50.2299   20.6832 O   0  0  0  0  0  0
    7.6788   54.8961   25.2809 H   0  0  0  0  0  0
    7.4861   53.6197   24.0890 H   0  0  0  0  0  0
    7.2040   55.3194   23.6404 H   0  0  0  0  0  0
    6.0661   53.7696   22.2189 H   0  0  0  0  0  0
    1.8937   53.1673   21.4820 H   0  0  0  0  0  0
    2.6759   52.4921   26.0527 H   0  0  0  0  0  0
    4.1480   53.0748   26.8342 H   0  0  0  0  0  0
    1.6107   51.5777   27.9800 H   0  0  0  0  0  0
    0.2992   51.9780   30.0192 H   0  0  0  0  0  0
    2.8111   55.6966   27.9375 H   0  0  0  0  0  0
    5.4261   53.0940   20.0555 H   0  0  0  0  0  0
    3.8938   53.8159   19.5412 H   0  0  0  0  0  0
    3.8730   51.1110   20.6112 H   0  0  0  0  0  0
    2.7642   51.7182   18.0405 H   0  0  0  0  0  0
    1.9325   52.4816   19.4172 H   0  0  0  0  0  0
    2.3032   48.8054   17.8916 H   0  0  0  0  0  0
    0.9678   47.1584   19.5548 H   0  0  0  0  0  0
    0.3319   48.7512   21.7495 H   0  0  0  0  0  0
    4.5773   51.2676   19.1411 H   0  0  0  0  0  0
  1  2  1  0  0  0
  1 28  1  0  0  0
  1 29  1  0  0  0
  1 30  1  0  0  0
  2  3  1  0  0  0
  3  8  2  0  0  0
  3  4  1  0  0  0
  4  5  2  0  0  0
  4 31  1  0  0  0
  5  6  1  0  0  0
  5 20  1  0  0  0
  6  7  2  0  0  0
  6 32  1  0  0  0
  7  8  1  0  0  0
  7 19  1  0  0  0
  8  9  1  0  0  0
  9 10  1  0  0  0
 10 11  1  0  0  0
 10 33  1  0  0  0
 10 34  1  0  0  0
 11 16  2  0  0  0
 11 12  1  0  0  0
 12 13  2  0  0  0
 12 35  1  0  0  0
 13 14  1  0  0  0
 13 36  1  0  0  0
 14 15  2  0  0  0
 14 18  1  0  0  0
 15 16  1  0  0  0
 15 17  1  0  0  0
 16 37  1  0  0  0
 20 21  1  0  0  0
 20 38  1  0  0  0
 20 39  1  0  0  0
 21 22  1  0  0  0
 21 40  1  0  0  0
 21 46  1  0  0  0
 22 23  1  0  0  0
 22 41  1  0  0  0
 22 42  1  0  0  0
 23 27  1  0  0  0
 23 24  2  0  0  0
 24 25  1  0  0  0
 24 43  1  0  0  0
 25 26  2  0  0  0
 25 44  1  0  0  0
 26 27  1  0  0  0
 26 45  1  0  0  0
M  CHG  1  21   1
M  END
> <i_i_glide_confnum>
133

> <i_i_glide_lignum>
5237

> <i_i_glide_posenum>
360

> <i_i_glide_rotatable_bonds>
8

> <i_m_Source_File_Index>
1230

> <b_m_subgroup_collapsed>
0

> <r_i_docking_score>
-5.88544

> <r_i_glide_ecoul>
-4.52999

> <r_i_glide_eff_state_penalty>
0

> <r_i_glide_einternal>
4.86753

> <r_i_glide_emodel>
-62.8362

> <r_i_glide_energy>
-45.933

> <r_i_glide_erotb>
0.5441

> <r_i_glide_esite>
-0.0901396

> <r_i_glide_evdw>
-41.403

> <r_i_glide_gscore>
-5.88544

> <r_i_glide_hbond>
-0.2

> <r_i_glide_ligand_efficiency>
-0.217979

> <r_i_glide_ligand_efficiency_ln>
-1.37003

> <r_i_glide_ligand_efficiency_sa>
-0.653938

> <r_i_glide_lipo>
-3.20007

> <r_i_glide_metal>
0

> <r_i_glide_rewards>
-0.189688

> <s_i_glide_gridfile>
wee1_glide-grid

> <s_m_Source_File>
wee1_decoys_glide_SP.sdf

> <s_m_Source_Path>
/Users/zhangxujun/Desktop

> <s_m_entry_id>
1505

> <s_m_entry_name>
wee1_decoys_glide_SP.1230

> <s_m_subgroup_title>
wee1_decoys_glide_SP

> <s_m_subgroupid>
wee1_decoys_glide_SP


$$$$
