ZINC39980223_4094
                    3D
 Schrodinger Suite 2024-2.
 47 50  0  0  1  0            999 V2000
    7.2352   55.9924   17.9001 C   0  0  0  0  0  0
    8.2105   56.2377   18.9651 C   0  0  0  0  0  0
    7.9123   55.9038   20.2432 C   0  0  0  0  0  0
    6.6540   55.2967   20.6172 C   0  0  0  0  0  0
    6.3672   54.9797   21.8289 N   0  0  0  0  0  0
    5.1759   54.3459   22.2088 C   0  0  0  0  0  0
    4.8378   54.0967   23.4139 N   0  0  0  0  0  0
    5.9541   54.5772   24.6918 S   0  0  0  0  0  0
    7.1044   53.6967   24.8820 O   0  0  0  0  0  0
    6.1943   56.0094   24.8971 O   0  0  0  0  0  0
    4.9263   54.1805   26.1182 C   0  0  0  0  0  0
    3.5423   54.3824   26.0968 C   0  0  0  0  0  0
    2.7777   54.0807   27.2225 C   0  0  0  0  0  0
    3.3967   53.5842   28.3681 C   0  0  0  0  0  0
    4.7744   53.3911   28.3982 C   0  0  0  0  0  0
    5.5401   53.6967   27.2790 C   0  0  0  0  0  0
    2.3579   53.1683   29.9081 Br  0  0  0  0  0  0
    4.1676   53.9333   21.0807 C   0  0  1  0  0  0
    3.2508   54.4839   21.2818 H   0  0  0  0  0  0
    4.5592   54.4196   19.7135 N   0  3  0  0  0  0
    5.7038   55.0325   19.4453 C   0  0  0  0  0  0
    6.0297   55.4101   18.1412 C   0  0  0  0  0  0
    3.8528   52.5004   21.0652 N   0  0  0  0  0  0
    2.8559   51.8868   21.8439 C   0  0  0  0  0  0
    2.7041   50.5087   21.7023 C   0  0  0  0  0  0
    1.7873   49.8138   22.4840 C   0  0  0  0  0  0
    0.9904   50.4981   23.4095 C   0  0  0  0  0  0
    1.1108   51.8882   23.5215 C   0  0  0  0  0  0
    2.0426   52.5782   22.7499 C   0  0  0  0  0  0
   -0.0415   49.7683   24.2276 C   0  0  0  0  0  0
   -1.1015   50.2983   24.5543 O   0  0  0  0  0  0
    0.3044   48.4969   24.5783 O   0  0  0  0  0  0
    7.4838   56.2826   16.8881 H   0  0  0  0  0  0
    9.1731   56.6729   18.7295 H   0  0  0  0  0  0
    8.6595   56.0872   21.0051 H   0  0  0  0  0  0
    3.0577   54.7761   25.2161 H   0  0  0  0  0  0
    1.7084   54.2315   27.2091 H   0  0  0  0  0  0
    5.2519   53.0001   29.2819 H   0  0  0  0  0  0
    6.6096   53.5452   27.3182 H   0  0  0  0  0  0
    5.3313   55.2362   17.3332 H   0  0  0  0  0  0
    4.3131   51.9267   20.3690 H   0  0  0  0  0  0
    3.3104   49.9625   20.9943 H   0  0  0  0  0  0
    1.7020   48.7458   22.3469 H   0  0  0  0  0  0
    0.4902   52.4416   24.2136 H   0  0  0  0  0  0
    2.1225   53.6456   22.8774 H   0  0  0  0  0  0
    1.2479   48.3289   24.4772 H   0  0  0  0  0  0
    3.9173   54.2284   18.9490 H   0  0  0  0  0  0
  1 22  2  0  0  0
  1  2  1  0  0  0
  1 33  1  0  0  0
  2  3  2  0  0  0
  2 34  1  0  0  0
  3  4  1  0  0  0
  3 35  1  0  0  0
  4 21  1  0  0  0
  4  5  2  0  0  0
  5  6  1  0  0  0
  6  7  2  0  0  0
  6 18  1  0  0  0
  7  8  1  0  0  0
  8  9  2  0  0  0
  8 10  2  0  0  0
  8 11  1  0  0  0
 11 16  2  0  0  0
 11 12  1  0  0  0
 12 13  2  0  0  0
 12 36  1  0  0  0
 13 14  1  0  0  0
 13 37  1  0  0  0
 14 15  2  0  0  0
 14 17  1  0  0  0
 15 16  1  0  0  0
 15 38  1  0  0  0
 16 39  1  0  0  0
 18 19  1  0  0  0
 18 20  1  0  0  0
 18 23  1  0  0  0
 20 21  2  0  0  0
 20 47  1  0  0  0
 21 22  1  0  0  0
 22 40  1  0  0  0
 23 24  1  0  0  0
 23 41  1  0  0  0
 24 29  2  0  0  0
 24 25  1  0  0  0
 25 26  2  0  0  0
 25 42  1  0  0  0
 26 27  1  0  0  0
 26 43  1  0  0  0
 27 28  2  0  0  0
 27 30  1  0  0  0
 28 29  1  0  0  0
 28 44  1  0  0  0
 29 45  1  0  0  0
 30 31  2  0  0  0
 30 32  1  0  0  0
 32 46  1  0  0  0
M  CHG  1  20   1
M  END
> <i_i_glide_confnum>
27

> <i_i_glide_lignum>
4095

> <i_i_glide_posenum>
64

> <i_i_glide_rotatable_bonds>
6

> <i_m_Source_File_Index>
5447

> <b_m_subgroup_collapsed>
0

> <r_i_docking_score>
-6.04628

> <r_i_glide_ecoul>
-7.41653

> <r_i_glide_eff_state_penalty>
0

> <r_i_glide_einternal>
11.3994

> <r_i_glide_emodel>
-67.2565

> <r_i_glide_energy>
-54.3713

> <r_i_glide_erotb>
0.326252

> <r_i_glide_esite>
-0.00429392

> <r_i_glide_evdw>
-46.9547

> <r_i_glide_gscore>
-6.04628

> <r_i_glide_hbond>
0

> <r_i_glide_ligand_efficiency>
-0.195041

> <r_i_glide_ligand_efficiency_ln>
-1.36362

> <r_i_glide_ligand_efficiency_sa>
-0.612699

> <r_i_glide_lipo>
-2.58504

> <r_i_glide_metal>
0

> <r_i_glide_rewards>
-0.32298

> <s_i_glide_gridfile>
wee1_glide-grid

> <s_m_Source_File>
wee1_decoys_glide_SP.sdf

> <s_m_Source_Path>
/Users/zhangxujun/Desktop

> <s_m_entry_id>
5722

> <s_m_entry_name>
wee1_decoys_glide_SP.5447

> <s_m_subgroup_title>
wee1_decoys_glide_SP

> <s_m_subgroupid>
wee1_decoys_glide_SP


$$$$
