ZINC01886585_5771
                    3D
 Schrodinger Suite 2024-2.
 74 77  0  0  1  0            999 V2000
    0.3158   54.1615   30.1675 C   0  0  0  0  0  0
    0.3801   52.6332   30.0370 C   0  0  0  0  0  0
   -0.3744   52.1760   28.9185 O   0  0  0  0  0  0
    0.1116   52.3014   27.6305 C   0  0  0  0  0  0
    1.3545   52.8434   27.2880 C   0  0  0  0  0  0
    1.7560   52.8771   25.9566 C   0  0  0  0  0  0
    0.9229   52.3852   24.9357 C   0  0  0  0  0  0
   -0.3303   51.8422   25.2585 C   0  0  0  0  0  0
   -0.7066   51.8137   26.6143 C   0  0  0  0  0  0
   -1.1667   51.2441   24.1597 C   0  0  0  0  0  0
   -0.5240   50.8475   23.0178 C   0  0  0  0  0  0
    1.0491   50.9203   22.9068 C   0  0  0  0  0  0
    1.4414   52.1976   23.6263 N   0  0  0  0  0  0
    1.9063   53.3261   22.9990 C   0  0  0  0  0  0
    1.5044   54.4589   23.2823 O   0  0  0  0  0  0
    3.0621   53.2274   21.9826 C   0  0  0  0  0  0
    4.1308   54.3420   22.0816 C   0  0  0  0  0  0
    4.9707   54.2521   23.3730 C   0  0  0  0  0  0
    5.0345   54.3300   20.8359 C   0  0  0  0  0  0
    1.4981   50.7659   21.4123 C   0  0  0  0  0  0
    1.6005   49.6967   23.6767 C   0  0  0  0  0  0
   -1.3809   50.1144   21.6082 S   0  0  0  0  0  0
   -3.0933   50.4206   21.9299 C   0  0  0  0  0  0
   -3.5277   50.8983   23.1111 C   0  0  0  0  0  0
   -2.7115   51.2032   24.3590 C   0  0  1  0  0  0
   -3.1915   49.8797   25.5046 S   0  0  0  0  0  0
   -4.5855   50.7646   26.1584 C   0  0  0  0  0  0
   -4.6756   52.0931   25.9301 C   0  0  0  0  0  0
   -3.3450   52.7966   24.9769 S   0  0  0  0  0  0
   -5.7532   52.9242   26.4813 C   0  0  0  0  0  0
   -5.7894   54.1484   26.3249 O   0  0  0  0  0  0
   -6.6886   52.2236   27.1793 O   0  0  0  0  0  0
   -7.7383   52.8680   27.8919 C   0  0  0  0  0  0
   -7.2620   53.2967   29.2871 C   0  0  0  0  0  0
   -4.0441   50.0953   20.8385 C   0  0  0  0  0  0
   -3.6716   49.6689   19.7423 O   0  0  0  0  0  0
   -5.3558   50.3056   21.1369 O   0  0  0  0  0  0
   -6.3779   50.0534   20.1810 C   0  0  0  0  0  0
   -7.7157   50.5631   20.7286 C   0  0  0  0  0  0
    0.7030   54.4904   31.1318 H   0  0  0  0  0  0
   -0.7158   54.4970   30.0879 H   0  0  0  0  0  0
    0.8843   54.6682   29.3887 H   0  0  0  0  0  0
    1.4088   52.2688   30.0116 H   0  0  0  0  0  0
   -0.0699   52.1856   30.9248 H   0  0  0  0  0  0
    2.0364   53.2110   28.0378 H   0  0  0  0  0  0
    2.7440   53.2453   25.7220 H   0  0  0  0  0  0
   -1.6431   51.3912   26.9331 H   0  0  0  0  0  0
    3.5977   52.2909   22.1134 H   0  0  0  0  0  0
    2.6357   53.2297   20.9790 H   0  0  0  0  0  0
    3.6122   55.2969   22.0816 H   0  0  0  0  0  0
    5.4862   53.2945   23.4488 H   0  0  0  0  0  0
    5.7327   55.0315   23.4096 H   0  0  0  0  0  0
    4.3507   54.3667   24.2613 H   0  0  0  0  0  0
    5.5083   53.3572   20.7011 H   0  0  0  0  0  0
    4.4576   54.5395   19.9339 H   0  0  0  0  0  0
    5.8197   55.0830   20.9024 H   0  0  0  0  0  0
    1.1756   49.8192   20.9809 H   0  0  0  0  0  0
    1.1093   51.5577   20.7725 H   0  0  0  0  0  0
    2.5768   50.7105   21.2956 H   0  0  0  0  0  0
    1.2805   48.7626   23.2158 H   0  0  0  0  0  0
    2.6915   49.6965   23.6811 H   0  0  0  0  0  0
    1.2750   49.6576   24.7165 H   0  0  0  0  0  0
   -4.5934   51.0233   23.2451 H   0  0  0  0  0  0
   -5.2919   50.1907   26.7430 H   0  0  0  0  0  0
   -8.1341   53.7193   27.3343 H   0  0  0  0  0  0
   -8.5575   52.1551   27.9937 H   0  0  0  0  0  0
   -8.0899   53.6957   29.8716 H   0  0  0  0  0  0
   -6.8458   52.4528   29.8382 H   0  0  0  0  0  0
   -6.4965   54.0705   29.2196 H   0  0  0  0  0  0
   -6.1498   50.5569   19.2392 H   0  0  0  0  0  0
   -6.4342   48.9834   19.9750 H   0  0  0  0  0  0
   -8.5233   50.3491   20.0314 H   0  0  0  0  0  0
   -7.9637   50.0900   21.6787 H   0  0  0  0  0  0
   -7.6954   51.6424   20.8861 H   0  0  0  0  0  0
  1  2  1  0  0  0
  1 40  1  0  0  0
  1 41  1  0  0  0
  1 42  1  0  0  0
  2  3  1  0  0  0
  2 43  1  0  0  0
  2 44  1  0  0  0
  3  4  1  0  0  0
  4  9  2  0  0  0
  4  5  1  0  0  0
  5  6  2  0  0  0
  5 45  1  0  0  0
  6  7  1  0  0  0
  6 46  1  0  0  0
  7 13  1  0  0  0
  7  8  2  0  0  0
  8  9  1  0  0  0
  8 10  1  0  0  0
  9 47  1  0  0  0
 10 25  1  0  0  0
 10 11  2  0  0  0
 11 12  1  0  0  0
 11 22  1  0  0  0
 12 13  1  0  0  0
 12 20  1  0  0  0
 12 21  1  0  0  0
 13 14  1  0  0  0
 14 15  2  0  0  0
 14 16  1  0  0  0
 16 17  1  0  0  0
 16 48  1  0  0  0
 16 49  1  0  0  0
 17 18  1  0  0  0
 17 19  1  0  0  0
 17 50  1  0  0  0
 18 51  1  0  0  0
 18 52  1  0  0  0
 18 53  1  0  0  0
 19 54  1  0  0  0
 19 55  1  0  0  0
 19 56  1  0  0  0
 20 57  1  0  0  0
 20 58  1  0  0  0
 20 59  1  0  0  0
 21 60  1  0  0  0
 21 61  1  0  0  0
 21 62  1  0  0  0
 22 23  1  0  0  0
 23 24  2  0  0  0
 23 35  1  0  0  0
 24 25  1  0  0  0
 24 63  1  0  0  0
 25 29  1  0  0  0
 25 26  1  0  0  0
 26 27  1  0  0  0
 27 28  2  0  0  0
 27 64  1  0  0  0
 28 29  1  0  0  0
 28 30  1  0  0  0
 30 31  2  0  0  0
 30 32  1  0  0  0
 32 33  1  0  0  0
 33 34  1  0  0  0
 33 65  1  0  0  0
 33 66  1  0  0  0
 34 67  1  0  0  0
 34 68  1  0  0  0
 34 69  1  0  0  0
 35 36  2  0  0  0
 35 37  1  0  0  0
 37 38  1  0  0  0
 38 39  1  0  0  0
 38 70  1  0  0  0
 38 71  1  0  0  0
 39 72  1  0  0  0
 39 73  1  0  0  0
 39 74  1  0  0  0
M  END
> <i_i_glide_confnum>
33

> <i_i_glide_lignum>
5772

> <i_i_glide_posenum>
93

> <i_i_glide_rotatable_bonds>
11

> <i_m_Source_File_Index>
2705

> <b_m_subgroup_collapsed>
0

> <r_i_docking_score>
-3.20993

> <r_i_glide_ecoul>
-2.57011

> <r_i_glide_eff_state_penalty>
0

> <r_i_glide_einternal>
8.41532

> <r_i_glide_emodel>
-45.3085

> <r_i_glide_energy>
-43.9399

> <r_i_glide_erotb>
0.313406

> <r_i_glide_esite>
-0.000218141

> <r_i_glide_evdw>
-41.3698

> <r_i_glide_gscore>
-3.20993

> <r_i_glide_hbond>
-0.0924364

> <r_i_glide_ligand_efficiency>
-0.082306

> <r_i_glide_ligand_efficiency_ln>
-0.688301

> <r_i_glide_ligand_efficiency_sa>
-0.279117

> <r_i_glide_lipo>
-1.39313

> <r_i_glide_metal>
0

> <r_i_glide_rewards>
0.416452

> <s_i_glide_gridfile>
wee1_glide-grid

> <s_m_Source_File>
wee1_decoys_glide_SP.sdf

> <s_m_Source_Path>
/Users/zhangxujun/Desktop

> <s_m_entry_id>
2980

> <s_m_entry_name>
wee1_decoys_glide_SP.2705

> <s_m_subgroup_title>
wee1_decoys_glide_SP

> <s_m_subgroupid>
wee1_decoys_glide_SP


$$$$
