ZINC08414412_5178
                    3D
 Schrodinger Suite 2024-2.
 58 61  0  0  1  0            999 V2000
    5.4685   54.7595   25.7937 C   0  0  0  0  0  0
    6.4695   54.5202   24.8575 C   0  0  0  0  0  0
    6.1341   54.0505   23.5915 C   0  0  0  0  0  0
    4.7974   53.8118   23.2528 C   0  0  0  0  0  0
    3.7955   54.0965   24.1924 C   0  0  0  0  0  0
    4.1319   54.5514   25.4648 C   0  0  0  0  0  0
    4.5058   53.2869   21.8962 C   0  0  0  0  0  0
    3.4589   52.5401   21.4445 C   0  0  0  0  0  0
    3.3191   52.2234   20.0068 C   0  0  0  0  0  0
    2.8390   51.1307   19.6903 O   0  0  0  0  0  0
    3.6772   53.1323   19.0410 N   0  0  0  0  0  0
    3.9045   54.5675   19.2819 C   0  0  0  0  0  0
    5.2834   54.9260   18.7027 C   0  0  0  0  0  0
    5.2617   54.7706   17.1661 C   0  0  0  0  0  0
    4.8663   53.2897   16.8899 C   0  0  0  0  0  0
    3.5704   52.7884   17.6024 C   0  0  0  0  0  0
    4.3331   55.8478   16.5357 C   0  0  0  0  0  0
    3.2065   55.5183   15.7646 C   0  0  0  0  0  0
    2.3651   56.5138   15.2728 C   0  0  0  0  0  0
    2.6421   57.8515   15.5381 C   0  0  0  0  0  0
    3.7687   58.2039   16.2727 C   0  0  0  0  0  0
    4.6113   57.2076   16.7587 C   0  0  0  0  0  0
    1.4776   59.2071   14.8824 Br  0  0  0  0  0  0
    6.5579   55.0134   16.6543 O   0  0  0  0  0  0
    2.5595   51.9905   22.3345 N   0  0  0  0  0  0
    1.2063   52.0013   22.2846 C   0  0  0  0  0  0
    0.5390   52.4968   21.3755 O   0  0  0  0  0  0
    0.5191   51.3657   23.4684 C   0  0  0  0  0  0
   -0.6408   51.9501   23.9945 C   0  0  0  0  0  0
   -1.2904   51.3693   25.0818 C   0  0  0  0  0  0
   -0.7925   50.1937   25.6387 C   0  0  0  0  0  0
    0.3485   49.5928   25.1166 C   0  0  0  0  0  0
    1.0073   50.1783   24.0369 C   0  0  0  0  0  0
    5.7289   55.1152   26.7800 H   0  0  0  0  0  0
    7.5042   54.6884   25.1095 H   0  0  0  0  0  0
    6.9258   53.8581   22.8813 H   0  0  0  0  0  0
    2.7504   53.9741   23.9518 H   0  0  0  0  0  0
    3.3578   54.7528   26.1902 H   0  0  0  0  0  0
    5.2526   53.5928   21.1790 H   0  0  0  0  0  0
    3.1297   55.1025   18.7301 H   0  0  0  0  0  0
    3.7440   54.8968   20.3040 H   0  0  0  0  0  0
    5.4911   55.9594   18.9772 H   0  0  0  0  0  0
    6.0892   54.3474   19.1566 H   0  0  0  0  0  0
    5.6902   52.6294   17.1710 H   0  0  0  0  0  0
    4.7507   53.1258   15.8186 H   0  0  0  0  0  0
    3.5148   51.7081   17.4454 H   0  0  0  0  0  0
    2.6759   53.2629   17.2036 H   0  0  0  0  0  0
    2.9610   54.4967   15.5272 H   0  0  0  0  0  0
    1.4965   56.2488   14.6893 H   0  0  0  0  0  0
    3.9871   59.2463   16.4661 H   0  0  0  0  0  0
    5.4840   57.5015   17.3232 H   0  0  0  0  0  0
    6.6757   54.4723   15.8703 H   0  0  0  0  0  0
    2.9310   51.8115   23.2532 H   0  0  0  0  0  0
   -1.0414   52.8591   23.5688 H   0  0  0  0  0  0
   -2.1798   51.8251   25.4902 H   0  0  0  0  0  0
   -1.2953   49.7368   26.4810 H   0  0  0  0  0  0
    0.7236   48.6762   25.5520 H   0  0  0  0  0  0
    1.8890   49.6896   23.6443 H   0  0  0  0  0  0
  1  6  2  0  0  0
  1  2  1  0  0  0
  1 34  1  0  0  0
  2  3  2  0  0  0
  2 35  1  0  0  0
  3  4  1  0  0  0
  3 36  1  0  0  0
  4  5  2  0  0  0
  4  7  1  0  0  0
  5  6  1  0  0  0
  5 37  1  0  0  0
  6 38  1  0  0  0
  7  8  2  0  0  0
  7 39  1  0  0  0
  8  9  1  0  0  0
  8 25  1  0  0  0
  9 10  2  0  0  0
  9 11  1  0  0  0
 11 16  1  0  0  0
 11 12  1  0  0  0
 12 13  1  0  0  0
 12 40  1  0  0  0
 12 41  1  0  0  0
 13 14  1  0  0  0
 13 42  1  0  0  0
 13 43  1  0  0  0
 14 15  1  0  0  0
 14 17  1  0  0  0
 14 24  1  0  0  0
 15 16  1  0  0  0
 15 44  1  0  0  0
 15 45  1  0  0  0
 16 46  1  0  0  0
 16 47  1  0  0  0
 17 22  2  0  0  0
 17 18  1  0  0  0
 18 19  2  0  0  0
 18 48  1  0  0  0
 19 20  1  0  0  0
 19 49  1  0  0  0
 20 21  2  0  0  0
 20 23  1  0  0  0
 21 22  1  0  0  0
 21 50  1  0  0  0
 22 51  1  0  0  0
 24 52  1  0  0  0
 25 26  1  0  0  0
 25 53  1  0  0  0
 26 27  2  0  0  0
 26 28  1  0  0  0
 28 33  2  0  0  0
 28 29  1  0  0  0
 29 30  2  0  0  0
 29 54  1  0  0  0
 30 31  1  0  0  0
 30 55  1  0  0  0
 31 32  2  0  0  0
 31 56  1  0  0  0
 32 33  1  0  0  0
 32 57  1  0  0  0
 33 58  1  0  0  0
M  END
> <i_i_glide_confnum>
219

> <i_i_glide_lignum>
5179

> <i_i_glide_posenum>
372

> <i_i_glide_rotatable_bonds>
8

> <i_m_Source_File_Index>
2602

> <b_m_subgroup_collapsed>
0

> <r_i_docking_score>
-3.78343

> <r_i_glide_ecoul>
-0.679039

> <r_i_glide_eff_state_penalty>
0

> <r_i_glide_einternal>
8.83541

> <r_i_glide_emodel>
-44.3476

> <r_i_glide_energy>
-37.1513

> <r_i_glide_erotb>
0.400363

> <r_i_glide_esite>
-0.0642628

> <r_i_glide_evdw>
-36.4722

> <r_i_glide_gscore>
-3.78343

> <r_i_glide_hbond>
0

> <r_i_glide_ligand_efficiency>
-0.114649

> <r_i_glide_ligand_efficiency_ln>
-0.841414

> <r_i_glide_ligand_efficiency_sa>
-0.367741

> <r_i_glide_lipo>
-2.05049

> <r_i_glide_metal>
0

> <r_i_glide_rewards>
-0.143573

> <s_i_glide_gridfile>
wee1_glide-grid

> <s_m_Source_File>
wee1_decoys_glide_SP.sdf

> <s_m_Source_Path>
/Users/zhangxujun/Desktop

> <s_m_entry_id>
2877

> <s_m_entry_name>
wee1_decoys_glide_SP.2602

> <s_m_subgroup_title>
wee1_decoys_glide_SP

> <s_m_subgroupid>
wee1_decoys_glide_SP


$$$$
