ZINC08833107_4518
                    3D
 Schrodinger Suite 2024-2.
 64 69  0  0  1  0            999 V2000
    0.3261   54.6374   31.0488 C   0  0  0  0  0  0
    1.1032   55.7901   30.8740 C   0  0  0  0  0  0
    1.9046   55.9624   29.7473 C   0  0  0  0  0  0
    1.8996   54.9216   28.8189 C   0  0  0  0  0  0
    1.1044   53.7580   28.9514 C   0  0  0  0  0  0
    0.3083   53.6140   30.0967 C   0  0  0  0  0  0
    1.3572   53.0004   27.7675 C   0  0  0  0  0  0
    2.2907   53.7291   27.0330 C   0  0  0  0  0  0
    2.6393   54.8824   27.6816 O   0  0  0  0  0  0
    2.8320   53.5059   25.7248 C   0  0  0  0  0  0
    2.2178   52.8269   24.9030 O   0  0  0  0  0  0
    4.0037   54.1487   25.5286 N   0  0  0  0  0  0
    4.7476   54.3158   24.3547 C   0  0  0  0  0  0
    5.9504   55.0130   24.4717 C   0  0  0  0  0  0
    6.7043   55.2959   23.3335 C   0  0  0  0  0  0
    6.2859   54.8642   22.0762 C   0  0  0  0  0  0
    5.0903   54.1399   21.9518 C   0  0  0  0  0  0
    4.3311   53.8765   23.0902 C   0  0  0  0  0  0
    4.5290   53.6169   20.7764 N   0  0  0  0  0  0
    4.7943   53.6514   19.4347 C   0  0  0  0  0  0
    6.0105   54.4962   18.6746 S   0  0  0  0  0  0
    3.9720   52.8969   18.6360 N   0  0  0  0  0  0
    2.8760   52.1512   18.9424 C   0  0  0  0  0  0
    2.3595   52.1023   20.0639 O   0  0  0  0  0  0
    2.2690   51.3479   17.7758 C   0  0  0  0  0  0
    1.3977   50.0856   18.1014 C   0  0  0  0  0  0
    0.0658   50.4444   18.8490 C   0  0  0  0  0  0
   -0.7851   49.1734   19.1210 C   0  0  2  0  0  0
    0.0290   48.1931   20.0049 C   0  0  0  0  0  0
    1.3335   47.7904   19.2700 C   0  0  2  0  0  0
    2.1804   49.0596   18.9904 C   0  0  0  0  0  0
    0.9809   47.1078   17.9239 C   0  0  0  0  0  0
    0.1676   48.0908   17.0406 C   0  0  1  0  0  0
   -1.1383   48.4892   17.7759 C   0  0  0  0  0  0
    1.0111   49.3654   16.7689 C   0  0  0  0  0  0
   -0.2606   54.5236   31.9496 H   0  0  0  0  0  0
    1.1049   56.5560   31.6386 H   0  0  0  0  0  0
    2.5113   56.8474   29.6121 H   0  0  0  0  0  0
   -0.3009   52.7325   30.2453 H   0  0  0  0  0  0
    0.9156   52.0608   27.4666 H   0  0  0  0  0  0
    4.3648   54.6318   26.3355 H   0  0  0  0  0  0
    6.2897   55.3714   25.4329 H   0  0  0  0  0  0
    7.6057   55.8808   23.4218 H   0  0  0  0  0  0
    6.9090   55.1039   21.2304 H   0  0  0  0  0  0
    3.4037   53.3409   22.9669 H   0  0  0  0  0  0
    3.6944   53.0806   20.9827 H   0  0  0  0  0  0
    4.2697   52.8317   17.6762 H   0  0  0  0  0  0
    3.0977   51.0482   17.1316 H   0  0  0  0  0  0
    1.6720   52.0454   17.1888 H   0  0  0  0  0  0
   -0.5115   51.1584   18.2583 H   0  0  0  0  0  0
    0.2510   50.9357   19.8038 H   0  0  0  0  0  0
   -1.7019   49.4507   19.6422 H   0  0  0  0  0  0
   -0.5658   47.3076   20.2330 H   0  0  0  0  0  0
    0.2617   48.6566   20.9637 H   0  0  0  0  0  0
    1.9067   47.1026   19.8938 H   0  0  0  0  0  0
    2.4859   49.5070   19.9379 H   0  0  0  0  0  0
    3.1028   48.7661   18.4857 H   0  0  0  0  0  0
    0.4113   46.1934   18.1004 H   0  0  0  0  0  0
    1.8933   46.8013   17.4077 H   0  0  0  0  0  0
   -0.0786   47.6091   16.0936 H   0  0  0  0  0  0
   -1.7327   49.1610   17.1530 H   0  0  0  0  0  0
   -1.7578   47.6070   17.9525 H   0  0  0  0  0  0
    1.9048   49.0908   16.2075 H   0  0  0  0  0  0
    0.4573   50.0479   16.1218 H   0  0  0  0  0  0
  1  6  2  0  0  0
  1  2  1  0  0  0
  1 36  1  0  0  0
  2  3  2  0  0  0
  2 37  1  0  0  0
  3  4  1  0  0  0
  3 38  1  0  0  0
  4  9  1  0  0  0
  4  5  2  0  0  0
  5  6  1  0  0  0
  5  7  1  0  0  0
  6 39  1  0  0  0
  7  8  2  0  0  0
  7 40  1  0  0  0
  8  9  1  0  0  0
  8 10  1  0  0  0
 10 11  2  0  0  0
 10 12  1  0  0  0
 12 13  1  0  0  0
 12 41  1  0  0  0
 13 18  2  0  0  0
 13 14  1  0  0  0
 14 15  2  0  0  0
 14 42  1  0  0  0
 15 16  1  0  0  0
 15 43  1  0  0  0
 16 17  2  0  0  0
 16 44  1  0  0  0
 17 18  1  0  0  0
 17 19  1  0  0  0
 18 45  1  0  0  0
 19 20  1  0  0  0
 19 46  1  0  0  0
 20 21  2  0  0  0
 20 22  1  0  0  0
 22 23  1  0  0  0
 22 47  1  0  0  0
 23 24  2  0  0  0
 23 25  1  0  0  0
 25 26  1  0  0  0
 25 48  1  0  0  0
 25 49  1  0  0  0
 26 31  1  0  0  0
 26 35  1  0  0  0
 26 27  1  0  0  0
 27 28  1  0  0  0
 27 50  1  0  0  0
 27 51  1  0  0  0
 28 34  1  0  0  0
 28 29  1  0  0  0
 28 52  1  0  0  0
 29 30  1  0  0  0
 29 53  1  0  0  0
 29 54  1  0  0  0
 30 31  1  0  0  0
 30 32  1  0  0  0
 30 55  1  0  0  0
 31 56  1  0  0  0
 31 57  1  0  0  0
 32 33  1  0  0  0
 32 58  1  0  0  0
 32 59  1  0  0  0
 33 34  1  0  0  0
 33 35  1  0  0  0
 33 60  1  0  0  0
 34 61  1  0  0  0
 34 62  1  0  0  0
 35 63  1  0  0  0
 35 64  1  0  0  0
M  END
> <i_i_glide_confnum>
143

> <i_i_glide_lignum>
4519

> <i_i_glide_posenum>
291

> <i_i_glide_rotatable_bonds>
9

> <i_m_Source_File_Index>
3128

> <b_m_subgroup_collapsed>
0

> <r_i_docking_score>
-5.40162

> <r_i_glide_ecoul>
-2.52363

> <r_i_glide_eff_state_penalty>
0

> <r_i_glide_einternal>
8.71703

> <r_i_glide_emodel>
-55.05

> <r_i_glide_energy>
-44.0033

> <r_i_glide_erotb>
0.684049

> <r_i_glide_esite>
-0.149229

> <r_i_glide_evdw>
-41.4797

> <r_i_glide_gscore>
-5.40162

> <r_i_glide_hbond>
0

> <r_i_glide_ligand_efficiency>
-0.154332

> <r_i_glide_ligand_efficiency_ln>
-1.18577

> <r_i_glide_ligand_efficiency_sa>
-0.50483

> <r_i_glide_lipo>
-3.09837

> <r_i_glide_metal>
0

> <r_i_glide_rewards>
-0.385535

> <s_i_glide_gridfile>
wee1_glide-grid

> <s_m_Source_File>
wee1_decoys_glide_SP.sdf

> <s_m_Source_Path>
/Users/zhangxujun/Desktop

> <s_m_entry_id>
3403

> <s_m_entry_name>
wee1_decoys_glide_SP.3128

> <s_m_subgroup_title>
wee1_decoys_glide_SP

> <s_m_subgroupid>
wee1_decoys_glide_SP


$$$$
