ZINC09704406_1373
                    3D
 Schrodinger Suite 2024-2.
 45 47  0  0  1  0            999 V2000
   -0.6751   49.1189   23.0702 C   0  0  0  0  0  0
   -1.2144   50.0506   24.1668 C   0  0  0  0  0  0
   -0.1742   50.8562   24.7155 O   0  0  0  0  0  0
    0.1570   52.0121   24.0435 C   0  0  0  0  0  0
   -0.3966   52.4967   23.0531 O   0  0  0  0  0  0
    1.2272   52.4967   24.6926 N   0  0  0  0  0  0
    1.9440   53.6137   24.4460 C   0  0  0  0  0  0
    1.7012   54.4565   23.5790 O   0  0  0  0  0  0
    3.1115   53.7246   25.3043 C   0  0  0  0  0  0
    3.0944   53.4837   26.7112 C   0  0  0  0  0  0
    4.3538   53.6802   27.3047 C   0  0  0  0  0  0
    5.5163   54.3062   26.1946 S   0  0  0  0  0  0
    4.3909   54.1639   24.8881 C   0  0  0  0  0  0
    4.9299   54.4967   23.6551 N   0  0  0  0  0  0
    4.7110   53.8869   22.4710 C   0  0  0  0  0  0
    4.0013   52.8968   22.2925 O   0  0  0  0  0  0
    5.4165   54.4968   21.3709 C   0  0  0  0  0  0
    5.3922   54.2382   20.0137 C   0  0  0  0  0  0
    6.3027   55.1401   19.4711 C   0  0  0  0  0  0
    6.8706   55.8985   20.3807 N   0  0  0  0  0  0
    6.3217   55.4916   21.5985 O   0  0  0  0  0  0
    4.6837   53.4184   28.7696 C   0  0  0  0  0  0
    3.5774   52.5081   29.3555 C   0  0  2  0  0  0
    3.6365   51.5245   28.8877 H   0  0  0  0  0  0
    2.2071   53.1447   29.0627 C   0  0  0  0  0  0
    1.8773   53.0623   27.5579 C   0  0  0  0  0  0
    3.8020   52.2794   30.8564 C   0  0  0  0  0  0
   -1.4596   48.4575   22.7042 H   0  0  0  0  0  0
    0.1363   48.4973   23.4506 H   0  0  0  0  0  0
   -0.2938   49.6846   22.2196 H   0  0  0  0  0  0
   -2.0447   50.6561   23.7982 H   0  0  0  0  0  0
   -1.6181   49.4429   24.9777 H   0  0  0  0  0  0
    1.5420   51.9250   25.4579 H   0  0  0  0  0  0
    5.7103   55.1366   23.6715 H   0  0  0  0  0  0
    4.7967   53.4998   19.4940 H   0  0  0  0  0  0
    6.5509   55.2368   18.4240 H   0  0  0  0  0  0
    5.6602   52.9431   28.8697 H   0  0  0  0  0  0
    4.7286   54.3642   29.3120 H   0  0  0  0  0  0
    1.4304   52.6025   29.6051 H   0  0  0  0  0  0
    2.1518   54.1604   29.4587 H   0  0  0  0  0  0
    1.0082   53.6844   27.3418 H   0  0  0  0  0  0
    1.5947   52.0350   27.3241 H   0  0  0  0  0  0
    3.9223   53.2264   31.3736 H   0  0  0  0  0  0
    2.9721   51.7432   31.3187 H   0  0  0  0  0  0
    4.7045   51.6966   31.0351 H   0  0  0  0  0  0
  1  2  1  0  0  0
  1 28  1  0  0  0
  1 29  1  0  0  0
  1 30  1  0  0  0
  2  3  1  0  0  0
  2 31  1  0  0  0
  2 32  1  0  0  0
  3  4  1  0  0  0
  4  5  2  0  0  0
  4  6  1  0  0  0
  6  7  1  0  0  0
  6 33  1  0  0  0
  7  8  2  0  0  0
  7  9  1  0  0  0
  9 13  2  0  0  0
  9 10  1  0  0  0
 10 26  1  0  0  0
 10 11  2  0  0  0
 11 12  1  0  0  0
 11 22  1  0  0  0
 12 13  1  0  0  0
 13 14  1  0  0  0
 14 15  1  0  0  0
 14 34  1  0  0  0
 15 16  2  0  0  0
 15 17  1  0  0  0
 17 21  1  0  0  0
 17 18  2  0  0  0
 18 19  1  0  0  0
 18 35  1  0  0  0
 19 20  2  0  0  0
 19 36  1  0  0  0
 20 21  1  0  0  0
 22 23  1  0  0  0
 22 37  1  0  0  0
 22 38  1  0  0  0
 23 24  1  0  0  0
 23 25  1  0  0  0
 23 27  1  0  0  0
 25 26  1  0  0  0
 25 39  1  0  0  0
 25 40  1  0  0  0
 26 41  1  0  0  0
 26 42  1  0  0  0
 27 43  1  0  0  0
 27 44  1  0  0  0
 27 45  1  0  0  0
M  END
> <i_i_glide_confnum>
28

> <i_i_glide_lignum>
1374

> <i_i_glide_posenum>
155

> <i_i_glide_rotatable_bonds>
8

> <i_m_Source_File_Index>
3526

> <b_m_subgroup_collapsed>
0

> <r_i_docking_score>
-5.22336

> <r_i_glide_ecoul>
-0.873694

> <r_i_glide_eff_state_penalty>
0

> <r_i_glide_einternal>
9.38316

> <r_i_glide_emodel>
-54.1068

> <r_i_glide_energy>
-43.8296

> <r_i_glide_erotb>
0.951803

> <r_i_glide_esite>
0

> <r_i_glide_evdw>
-42.9559

> <r_i_glide_gscore>
-5.22336

> <r_i_glide_hbond>
0

> <r_i_glide_ligand_efficiency>
-0.200899

> <r_i_glide_ligand_efficiency_ln>
-1.22669

> <r_i_glide_ligand_efficiency_sa>
-0.595161

> <r_i_glide_lipo>
-2.27335

> <r_i_glide_metal>
0

> <r_i_glide_rewards>
-1.62297

> <s_i_glide_gridfile>
wee1_glide-grid

> <s_m_Source_File>
wee1_decoys_glide_SP.sdf

> <s_m_Source_Path>
/Users/zhangxujun/Desktop

> <s_m_entry_id>
3801

> <s_m_entry_name>
wee1_decoys_glide_SP.3526

> <s_m_subgroup_title>
wee1_decoys_glide_SP

> <s_m_subgroupid>
wee1_decoys_glide_SP


$$$$
