ZINC33779184_3227
                    3D
 Schrodinger Suite 2024-2.
 49 53  0  0  1  0            999 V2000
    8.1228   57.0181   17.5776 C   0  0  0  0  0  0
    6.7664   57.2438   17.7976 C   0  0  0  0  0  0
    6.1551   56.7156   18.9315 C   0  0  0  0  0  0
    6.8965   55.9706   19.8532 C   0  0  0  0  0  0
    8.2607   55.7480   19.6183 C   0  0  0  0  0  0
    8.8719   56.2694   18.4817 C   0  0  0  0  0  0
    6.2262   55.4799   21.0734 C   0  0  0  0  0  0
    6.8459   55.2448   22.2453 C   0  0  0  0  0  0
    6.2765   54.7851   23.4961 C   0  0  0  0  0  0
    4.9867   54.4967   23.6740 N   0  0  0  0  0  0
    4.9245   54.2753   24.9593 C   0  0  0  0  0  0
    6.1411   54.3544   25.5178 N   0  0  0  0  0  0
    7.0235   54.6752   24.5793 N   0  0  0  0  0  0
    6.2815   54.0967   26.8817 C   0  0  0  0  0  0
    7.3497   54.1305   27.4878 O   0  0  0  0  0  0
    4.9580   53.7650   27.3814 C   0  0  0  0  0  0
    4.8320   53.3776   28.6687 C   0  0  0  0  0  0
    3.6347   52.9717   29.3697 C   0  0  0  0  0  0
    3.3527   52.6525   30.6920 C   0  0  0  0  0  0
    1.9948   52.3177   30.7548 C   0  0  0  0  0  0
    1.5080   52.3887   29.4556 C   0  0  0  0  0  0
    2.5070   52.8057   28.6447 O   0  0  0  0  0  0
    0.2181   52.0790   28.7833 C   0  0  0  0  0  0
    0.1408   52.1092   27.3854 C   0  0  0  0  0  0
   -1.0239   51.7206   26.7373 C   0  0  0  0  0  0
   -2.1192   51.2967   27.4863 C   0  0  0  0  0  0
   -2.0626   51.2967   28.8815 C   0  0  0  0  0  0
   -0.8956   51.6967   29.5309 C   0  0  0  0  0  0
   -3.5732   50.7045   26.6402 S   0  0  0  0  0  0
   -4.7165   50.8805   27.5416 O   0  0  0  0  0  0
   -3.5774   51.2844   25.2929 O   0  0  0  0  0  0
   -3.2956   48.9940   26.4817 N   0  0  0  0  0  0
    3.6867   53.9258   26.1083 S   0  0  0  0  0  0
    8.5971   57.4278   16.6979 H   0  0  0  0  0  0
    6.1919   57.8304   17.0947 H   0  0  0  0  0  0
    5.1044   56.9028   19.0957 H   0  0  0  0  0  0
    8.8610   55.1738   20.3083 H   0  0  0  0  0  0
    9.9246   56.0966   18.3087 H   0  0  0  0  0  0
    5.1630   55.2967   20.9978 H   0  0  0  0  0  0
    7.9044   55.4280   22.3115 H   0  0  0  0  0  0
    5.7162   53.3478   29.2817 H   0  0  0  0  0  0
    4.0510   52.6630   31.5172 H   0  0  0  0  0  0
    1.4388   52.0228   31.6344 H   0  0  0  0  0  0
    0.9921   52.3993   26.7869 H   0  0  0  0  0  0
   -1.0591   51.7182   25.6571 H   0  0  0  0  0  0
   -2.8983   50.9358   29.4649 H   0  0  0  0  0  0
   -0.8557   51.6534   30.6114 H   0  0  0  0  0  0
   -2.4529   48.7451   27.0344 H   0  0  0  0  0  0
   -4.0241   48.4816   26.9804 H   0  0  0  0  0  0
  1  6  2  0  0  0
  1  2  1  0  0  0
  1 34  1  0  0  0
  2  3  2  0  0  0
  2 35  1  0  0  0
  3  4  1  0  0  0
  3 36  1  0  0  0
  4  5  2  0  0  0
  4  7  1  0  0  0
  5  6  1  0  0  0
  5 37  1  0  0  0
  6 38  1  0  0  0
  7  8  2  0  0  0
  7 39  1  0  0  0
  8  9  1  0  0  0
  8 40  1  0  0  0
  9 13  2  0  0  0
  9 10  1  0  0  0
 10 11  2  0  0  0
 11 33  1  0  0  0
 11 12  1  0  0  0
 12 13  1  0  0  0
 12 14  1  0  0  0
 14 15  2  0  0  0
 14 16  1  0  0  0
 16 17  2  0  0  0
 16 33  1  0  0  0
 17 18  1  0  0  0
 17 41  1  0  0  0
 18 22  1  0  0  0
 18 19  2  0  0  0
 19 20  1  0  0  0
 19 42  1  0  0  0
 20 21  2  0  0  0
 20 43  1  0  0  0
 21 22  1  0  0  0
 21 23  1  0  0  0
 23 28  2  0  0  0
 23 24  1  0  0  0
 24 25  2  0  0  0
 24 44  1  0  0  0
 25 26  1  0  0  0
 25 45  1  0  0  0
 26 27  2  0  0  0
 26 29  1  0  0  0
 27 28  1  0  0  0
 27 46  1  0  0  0
 28 47  1  0  0  0
 29 30  2  0  0  0
 29 31  2  0  0  0
 29 32  1  0  0  0
 32 48  1  0  0  0
 32 49  1  0  0  0
M  END
> <i_i_glide_confnum>
12

> <i_i_glide_lignum>
3228

> <i_i_glide_posenum>
1

> <i_i_glide_rotatable_bonds>
5

> <i_m_Source_File_Index>
4589

> <b_m_subgroup_collapsed>
0

> <r_i_docking_score>
-7.31467

> <r_i_glide_ecoul>
-8.83026

> <r_i_glide_eff_state_penalty>
0

> <r_i_glide_einternal>
0.946679

> <r_i_glide_emodel>
-78.9972

> <r_i_glide_energy>
-54.9318

> <r_i_glide_erotb>
0.35671

> <r_i_glide_esite>
-0.172903

> <r_i_glide_evdw>
-46.1015

> <r_i_glide_gscore>
-7.31467

> <r_i_glide_hbond>
-0.252051

> <r_i_glide_ligand_efficiency>
-0.221657

> <r_i_glide_ligand_efficiency_ln>
-1.62674

> <r_i_glide_ligand_efficiency_sa>
-0.710971

> <r_i_glide_lipo>
-2.15119

> <r_i_glide_metal>
0

> <r_i_glide_rewards>
-1.46562

> <s_i_glide_gridfile>
wee1_glide-grid

> <s_m_Source_File>
wee1_decoys_glide_SP.sdf

> <s_m_Source_Path>
/Users/zhangxujun/Desktop

> <s_m_entry_id>
4864

> <s_m_entry_name>
wee1_decoys_glide_SP.4589

> <s_m_subgroup_title>
wee1_decoys_glide_SP

> <s_m_subgroupid>
wee1_decoys_glide_SP


$$$$
