ZINC13466333_44
                    3D
 Schrodinger Suite 2024-2.
 41 42  0  0  1  0            999 V2000
    9.7753   57.2684   17.9305 C   0  0  0  0  0  0
    8.2660   58.3819   18.0819 S   0  0  1  0  0  0
    7.4644   57.6965   19.2156 N   0  0  0  0  0  0
    6.6024   56.2304   18.8106 S   0  0  0  0  0  0
    7.2185   55.3397   17.8233 O   0  0  0  0  0  0
    5.1445   56.3475   18.7221 O   0  0  0  0  0  0
    6.9640   55.4785   20.3408 N   0  0  0  0  0  0
    6.0264   54.8975   21.2095 C   0  0  0  0  0  0
    4.9363   54.4957   20.8145 O   0  0  0  0  0  0
    6.4654   54.8486   22.4839 N   0  0  0  0  0  0
    5.7548   54.4974   23.6504 C   0  0  0  0  0  0
    6.4513   54.6096   24.8568 C   0  0  0  0  0  0
    5.7997   54.4085   26.0728 C   0  0  0  0  0  0
    4.4398   54.0969   26.0916 C   0  0  0  0  0  0
    3.7259   53.9641   24.8941 C   0  0  0  0  0  0
    4.3942   54.1462   23.6804 C   0  0  0  0  0  0
    2.2329   53.6372   24.8764 C   0  0  0  0  0  0
    1.7000   53.6967   26.0978 F   0  0  0  0  0  0
    2.0438   52.4094   24.4001 F   0  0  0  0  0  0
    1.5872   54.4950   24.0831 F   0  0  0  0  0  0
    8.7275   59.7697   18.1858 O   0  0  0  0  0  0
    7.2962   58.2428   16.5704 C   0  0  0  0  0  0
    5.9304   58.5301   16.6041 C   0  0  0  0  0  0
    5.1788   58.4974   15.4330 C   0  0  0  0  0  0
    5.8033   58.1995   14.2246 C   0  0  0  0  0  0
    7.1728   57.9458   14.1757 C   0  0  0  0  0  0
    7.9251   57.9856   15.3482 C   0  0  0  0  0  0
    9.4768   56.2508   17.6967 H   0  0  0  0  0  0
   10.4265   57.6607   17.1538 H   0  0  0  0  0  0
   10.2977   57.2957   18.8838 H   0  0  0  0  0  0
    7.8366   55.8479   20.7257 H   0  0  0  0  0  0
    7.4055   55.1761   22.6455 H   0  0  0  0  0  0
    7.5001   54.8748   24.8597 H   0  0  0  0  0  0
    6.3395   54.5030   27.0023 H   0  0  0  0  0  0
    3.9493   53.9476   27.0443 H   0  0  0  0  0  0
    3.8114   54.0517   22.7789 H   0  0  0  0  0  0
    5.4531   58.7960   17.5371 H   0  0  0  0  0  0
    4.1237   58.7265   15.4657 H   0  0  0  0  0  0
    5.2213   58.1793   13.3147 H   0  0  0  0  0  0
    7.6507   57.7345   13.2308 H   0  0  0  0  0  0
    8.9882   57.8043   15.2942 H   0  0  0  0  0  0
  1  2  1  0  0  0
  1 28  1  0  0  0
  1 29  1  0  0  0
  1 30  1  0  0  0
  2  3  2  0  0  0
  2 21  2  0  0  0
  2 22  1  0  0  0
  3  4  1  0  0  0
  4  5  2  0  0  0
  4  6  2  0  0  0
  4  7  1  0  0  0
  7  8  1  0  0  0
  7 31  1  0  0  0
  8  9  2  0  0  0
  8 10  1  0  0  0
 10 11  1  0  0  0
 10 32  1  0  0  0
 11 16  2  0  0  0
 11 12  1  0  0  0
 12 13  2  0  0  0
 12 33  1  0  0  0
 13 14  1  0  0  0
 13 34  1  0  0  0
 14 15  2  0  0  0
 14 35  1  0  0  0
 15 16  1  0  0  0
 15 17  1  0  0  0
 16 36  1  0  0  0
 17 18  1  0  0  0
 17 19  1  0  0  0
 17 20  1  0  0  0
 22 27  2  0  0  0
 22 23  1  0  0  0
 23 24  2  0  0  0
 23 37  1  0  0  0
 24 25  1  0  0  0
 24 38  1  0  0  0
 25 26  2  0  0  0
 25 39  1  0  0  0
 26 27  1  0  0  0
 26 40  1  0  0  0
 27 41  1  0  0  0
M  END
> <i_i_glide_confnum>
6

> <i_i_glide_lignum>
45

> <i_i_glide_posenum>
56

> <i_i_glide_rotatable_bonds>
7

> <i_m_Source_File_Index>
5130

> <b_m_subgroup_collapsed>
0

> <r_i_docking_score>
-5.73018

> <r_i_glide_ecoul>
-9.57668

> <r_i_glide_eff_state_penalty>
0

> <r_i_glide_einternal>
3.65866

> <r_i_glide_emodel>
-54.6402

> <r_i_glide_energy>
-39.2064

> <r_i_glide_erotb>
0.557493

> <r_i_glide_esite>
-0.0139519

> <r_i_glide_evdw>
-29.6297

> <r_i_glide_gscore>
-5.73018

> <r_i_glide_hbond>
-0.166735

> <r_i_glide_ligand_efficiency>
-0.212229

> <r_i_glide_ligand_efficiency_ln>
-1.33389

> <r_i_glide_ligand_efficiency_sa>
-0.636687

> <r_i_glide_lipo>
-1.80736

> <r_i_glide_metal>
0

> <r_i_glide_rewards>
-1.38164

> <s_i_glide_gridfile>
wee1_glide-grid

> <s_m_Source_File>
wee1_decoys_glide_SP.sdf

> <s_m_Source_Path>
/Users/zhangxujun/Desktop

> <s_m_entry_id>
5405

> <s_m_entry_name>
wee1_decoys_glide_SP.5130

> <s_m_subgroup_title>
wee1_decoys_glide_SP

> <s_m_subgroupid>
wee1_decoys_glide_SP


$$$$
