ZINC09404700_4012
                    3D
 Schrodinger Suite 2024-2.
 60 64  0  0  1  0            999 V2000
    0.6025   49.2972   24.6327 C   0  0  0  0  0  0
   -0.5111   49.2621   25.6816 C   0  0  2  0  0  0
   -0.4910   48.2474   26.0820 H   0  0  0  0  0  0
   -1.9322   49.5265   25.1369 C   0  0  0  0  0  0
   -2.1760   50.9682   24.9121 N   0  0  0  0  0  0
   -1.8057   51.8430   26.0495 C   0  0  0  0  0  0
   -0.3628   51.5557   26.5217 C   0  0  2  0  0  0
    0.3602   51.8685   25.7704 H   0  0  0  0  0  0
   -0.2034   50.1575   26.7577 O   0  0  0  0  0  0
   -0.0287   52.2925   27.8217 C   0  0  0  0  0  0
   -2.2937   51.6269   23.2660 S   0  0  0  0  0  0
   -2.8884   50.6086   22.3921 O   0  0  0  0  0  0
   -2.8653   52.9755   23.3567 O   0  0  0  0  0  0
   -0.6040   51.8533   22.7263 C   0  0  0  0  0  0
   -0.0171   51.0049   21.7823 C   0  0  0  0  0  0
    1.3104   51.2056   21.4017 C   0  0  0  0  0  0
    2.0465   52.2660   21.9457 C   0  0  0  0  0  0
    1.4409   53.1055   22.8922 C   0  0  0  0  0  0
    0.1282   52.8966   23.2830 C   0  0  0  0  0  0
    3.4748   52.5063   21.5224 C   0  0  0  0  0  0
    4.2439   51.5734   21.2816 O   0  0  0  0  0  0
    3.8063   53.8071   21.4486 N   0  0  0  0  0  0
    5.0885   54.3159   21.2717 C   0  0  0  0  0  0
    5.4994   54.5564   19.9565 C   0  0  0  0  0  0
    6.7104   55.1940   19.7055 C   0  0  0  0  0  0
    7.5103   55.5971   20.7694 C   0  0  0  0  0  0
    7.1045   55.3454   22.0791 C   0  0  0  0  0  0
    5.8972   54.6905   22.3704 C   0  0  0  0  0  0
    5.5235   54.4967   23.8309 C   0  0  0  0  0  0
    4.3039   54.3597   24.2850 N   0  0  0  0  0  0
    4.2608   54.2502   25.6415 C   0  0  0  0  0  0
    3.0929   54.0965   26.4023 C   0  0  0  0  0  0
    3.2090   54.0308   27.7928 C   0  0  0  0  0  0
    4.4523   54.0973   28.4205 C   0  0  0  0  0  0
    5.6294   54.2378   27.6862 C   0  0  0  0  0  0
    5.5168   54.3157   26.2916 C   0  0  0  0  0  0
    6.7571   54.4972   25.0760 S   0  0  0  0  0  0
    0.3646   48.6834   23.7643 H   0  0  0  0  0  0
    1.5043   48.8968   25.0824 H   0  0  0  0  0  0
    0.8476   50.2980   24.2953 H   0  0  0  0  0  0
   -2.1079   48.9777   24.2120 H   0  0  0  0  0  0
   -2.6757   49.1982   25.8645 H   0  0  0  0  0  0
   -1.9227   52.8864   25.7571 H   0  0  0  0  0  0
   -2.5198   51.6376   26.8480 H   0  0  0  0  0  0
   -0.0807   53.3732   27.6940 H   0  0  0  0  0  0
   -0.7184   52.0119   28.6190 H   0  0  0  0  0  0
    0.9761   52.0368   28.1572 H   0  0  0  0  0  0
   -0.5778   50.1873   21.3523 H   0  0  0  0  0  0
    1.7602   50.5423   20.6749 H   0  0  0  0  0  0
    1.9712   53.9339   23.3351 H   0  0  0  0  0  0
   -0.3217   53.5573   24.0105 H   0  0  0  0  0  0
    3.0708   54.4839   21.5862 H   0  0  0  0  0  0
    4.8695   54.2685   19.1263 H   0  0  0  0  0  0
    7.0227   55.3813   18.6883 H   0  0  0  0  0  0
    8.4508   56.0958   20.5814 H   0  0  0  0  0  0
    7.7483   55.6950   22.8701 H   0  0  0  0  0  0
    2.1256   54.0432   25.9276 H   0  0  0  0  0  0
    2.3211   53.9307   28.3993 H   0  0  0  0  0  0
    4.5057   54.0416   29.4978 H   0  0  0  0  0  0
    6.5906   54.2943   28.1791 H   0  0  0  0  0  0
  1  2  1  0  0  0
  1 38  1  0  0  0
  1 39  1  0  0  0
  1 40  1  0  0  0
  2  3  1  0  0  0
  2  9  1  0  0  0
  2  4  1  0  0  0
  4  5  1  0  0  0
  4 41  1  0  0  0
  4 42  1  0  0  0
  5  6  1  0  0  0
  5 11  1  0  0  0
  6  7  1  0  0  0
  6 43  1  0  0  0
  6 44  1  0  0  0
  7  8  1  0  0  0
  7  9  1  0  0  0
  7 10  1  0  0  0
 10 45  1  0  0  0
 10 46  1  0  0  0
 10 47  1  0  0  0
 11 12  2  0  0  0
 11 13  2  0  0  0
 11 14  1  0  0  0
 14 19  2  0  0  0
 14 15  1  0  0  0
 15 16  2  0  0  0
 15 48  1  0  0  0
 16 17  1  0  0  0
 16 49  1  0  0  0
 17 18  2  0  0  0
 17 20  1  0  0  0
 18 19  1  0  0  0
 18 50  1  0  0  0
 19 51  1  0  0  0
 20 21  2  0  0  0
 20 22  1  0  0  0
 22 23  1  0  0  0
 22 52  1  0  0  0
 23 28  2  0  0  0
 23 24  1  0  0  0
 24 25  2  0  0  0
 24 53  1  0  0  0
 25 26  1  0  0  0
 25 54  1  0  0  0
 26 27  2  0  0  0
 26 55  1  0  0  0
 27 28  1  0  0  0
 27 56  1  0  0  0
 28 29  1  0  0  0
 29 37  1  0  0  0
 29 30  2  0  0  0
 30 31  1  0  0  0
 31 36  2  0  0  0
 31 32  1  0  0  0
 32 33  2  0  0  0
 32 57  1  0  0  0
 33 34  1  0  0  0
 33 58  1  0  0  0
 34 35  2  0  0  0
 34 59  1  0  0  0
 35 36  1  0  0  0
 35 60  1  0  0  0
 36 37  1  0  0  0
M  END
> <i_i_glide_confnum>
202

> <i_i_glide_lignum>
4013

> <i_i_glide_posenum>
171

> <i_i_glide_rotatable_bonds>
6

> <i_m_Source_File_Index>
3861

> <b_m_subgroup_collapsed>
0

> <r_i_docking_score>
-5.96065

> <r_i_glide_ecoul>
-4.71071

> <r_i_glide_eff_state_penalty>
0

> <r_i_glide_einternal>
10.0531

> <r_i_glide_emodel>
-70.7514

> <r_i_glide_energy>
-56.0609

> <r_i_glide_erotb>
0.476581

> <r_i_glide_esite>
-0.0117347

> <r_i_glide_evdw>
-51.3502

> <r_i_glide_gscore>
-5.96065

> <r_i_glide_hbond>
-0.0443648

> <r_i_glide_ligand_efficiency>
-0.170304

> <r_i_glide_ligand_efficiency_ln>
-1.3085

> <r_i_glide_ligand_efficiency_sa>
-0.557077

> <r_i_glide_lipo>
-3.14986

> <r_i_glide_metal>
0

> <r_i_glide_rewards>
0.0428418

> <s_i_glide_gridfile>
wee1_glide-grid

> <s_m_Source_File>
wee1_decoys_glide_SP.sdf

> <s_m_Source_Path>
/Users/zhangxujun/Desktop

> <s_m_entry_id>
4136

> <s_m_entry_name>
wee1_decoys_glide_SP.3861

> <s_m_subgroup_title>
wee1_decoys_glide_SP

> <s_m_subgroupid>
wee1_decoys_glide_SP


$$$$
