ZINC31382302_4885
                    3D
 Schrodinger Suite 2024-2.
 64 65  0  0  1  0            999 V2000
    3.4661   52.6347   17.2212 C   0  0  0  0  0  0
    2.7589   52.7815   18.5771 C   0  0  0  0  0  0
    3.4666   51.9254   19.6644 N   0  3  0  0  0  0
    4.8702   52.4304   20.0965 C   0  0  0  0  0  0
    4.8459   53.7429   20.8962 C   0  0  0  0  0  0
    2.5333   51.4355   20.8175 C   0  0  1  0  0  0
    3.2409   51.0449   21.5530 H   0  0  0  0  0  0
    1.7302   52.6209   21.4344 C   0  0  0  0  0  0
    1.4255   52.4334   22.8531 N   0  0  0  0  0  0
    1.6783   53.3041   23.8464 C   0  0  0  0  0  0
    2.2889   54.3628   23.6824 O   0  0  0  0  0  0
    1.1503   52.8941   25.2026 C   0  0  0  0  0  0
   -0.1444   52.3518   25.2977 C   0  0  0  0  0  0
   -0.6825   51.9755   26.5275 C   0  0  0  0  0  0
    0.0850   52.1007   27.6841 C   0  0  0  0  0  0
    1.3651   52.6469   27.6126 C   0  0  0  0  0  0
    1.9039   53.0635   26.3889 C   0  0  0  0  0  0
    3.3121   53.6553   26.4023 C   0  0  0  0  0  0
   -2.3603   51.3582   26.6160 S   0  0  0  0  0  0
   -2.7346   51.3047   28.0324 O   0  0  0  0  0  0
   -3.1687   52.1256   25.6619 O   0  0  0  0  0  0
   -2.2858   49.6682   26.0818 N   0  0  0  0  0  0
   -2.1569   49.1930   24.7689 C   0  0  0  0  0  0
   -1.7073   47.8784   24.6247 C   0  0  0  0  0  0
   -1.6287   47.2974   23.3618 C   0  0  0  0  0  0
   -1.9856   48.0366   22.2372 C   0  0  0  0  0  0
   -2.4195   49.3526   22.3656 C   0  0  0  0  0  0
   -2.5098   49.9319   23.6293 C   0  0  0  0  0  0
   -1.9028   47.4738   21.0099 F   0  0  0  0  0  0
    1.6160   50.2523   20.3469 C   0  0  0  0  0  0
    2.1961   49.3475   19.2374 C   0  0  0  0  0  0
    1.1993   49.3678   21.5408 C   0  0  0  0  0  0
    2.9259   53.1844   16.4497 H   0  0  0  0  0  0
    3.5043   51.5913   16.9031 H   0  0  0  0  0  0
    4.4837   53.0194   17.2342 H   0  0  0  0  0  0
    2.7139   53.8134   18.9245 H   0  0  0  0  0  0
    1.7411   52.3949   18.5043 H   0  0  0  0  0  0
    5.3063   51.6125   20.6714 H   0  0  0  0  0  0
    5.4499   52.5128   19.1763 H   0  0  0  0  0  0
    5.8626   54.0994   21.0697 H   0  0  0  0  0  0
    4.3142   54.5390   20.3760 H   0  0  0  0  0  0
    4.3962   53.6117   21.8789 H   0  0  0  0  0  0
    2.2487   53.5647   21.2794 H   0  0  0  0  0  0
    0.7798   52.7518   20.9152 H   0  0  0  0  0  0
    0.9108   51.6011   23.0938 H   0  0  0  0  0  0
   -0.7594   52.2473   24.4133 H   0  0  0  0  0  0
   -0.3123   51.7997   28.6423 H   0  0  0  0  0  0
    1.9365   52.7533   28.5230 H   0  0  0  0  0  0
    3.8475   53.4294   27.3285 H   0  0  0  0  0  0
    3.9188   53.2497   25.5908 H   0  0  0  0  0  0
    3.2707   54.7383   26.2738 H   0  0  0  0  0  0
   -2.0920   49.0127   26.8363 H   0  0  0  0  0  0
   -1.4296   47.3003   25.4971 H   0  0  0  0  0  0
   -1.2962   46.2782   23.2446 H   0  0  0  0  0  0
   -2.6998   49.9124   21.4843 H   0  0  0  0  0  0
   -2.8802   50.9409   23.6930 H   0  0  0  0  0  0
    0.6985   50.6716   19.9307 H   0  0  0  0  0  0
    3.1054   48.8465   19.5601 H   0  0  0  0  0  0
    1.4875   48.5659   18.9594 H   0  0  0  0  0  0
    2.4192   49.8938   18.3215 H   0  0  0  0  0  0
    2.0671   48.9380   22.0453 H   0  0  0  0  0  0
    0.6220   49.9137   22.2850 H   0  0  0  0  0  0
    0.5799   48.5345   21.2133 H   0  0  0  0  0  0
    3.7037   51.0714   19.1634 H   0  0  0  0  0  0
  1  2  1  0  0  0
  1 33  1  0  0  0
  1 34  1  0  0  0
  1 35  1  0  0  0
  2  3  1  0  0  0
  2 36  1  0  0  0
  2 37  1  0  0  0
  3  4  1  0  0  0
  3  6  1  0  0  0
  3 64  1  0  0  0
  4  5  1  0  0  0
  4 38  1  0  0  0
  4 39  1  0  0  0
  5 40  1  0  0  0
  5 41  1  0  0  0
  5 42  1  0  0  0
  6  7  1  0  0  0
  6  8  1  0  0  0
  6 30  1  0  0  0
  8  9  1  0  0  0
  8 43  1  0  0  0
  8 44  1  0  0  0
  9 10  1  0  0  0
  9 45  1  0  0  0
 10 11  2  0  0  0
 10 12  1  0  0  0
 12 17  2  0  0  0
 12 13  1  0  0  0
 13 14  2  0  0  0
 13 46  1  0  0  0
 14 15  1  0  0  0
 14 19  1  0  0  0
 15 16  2  0  0  0
 15 47  1  0  0  0
 16 17  1  0  0  0
 16 48  1  0  0  0
 17 18  1  0  0  0
 18 49  1  0  0  0
 18 50  1  0  0  0
 18 51  1  0  0  0
 19 20  2  0  0  0
 19 21  2  0  0  0
 19 22  1  0  0  0
 22 23  1  0  0  0
 22 52  1  0  0  0
 23 28  2  0  0  0
 23 24  1  0  0  0
 24 25  2  0  0  0
 24 53  1  0  0  0
 25 26  1  0  0  0
 25 54  1  0  0  0
 26 27  2  0  0  0
 26 29  1  0  0  0
 27 28  1  0  0  0
 27 55  1  0  0  0
 28 56  1  0  0  0
 30 31  1  0  0  0
 30 32  1  0  0  0
 30 57  1  0  0  0
 31 58  1  0  0  0
 31 59  1  0  0  0
 31 60  1  0  0  0
 32 61  1  0  0  0
 32 62  1  0  0  0
 32 63  1  0  0  0
M  CHG  1   3   1
M  END
> <i_i_glide_confnum>
104

> <i_i_glide_lignum>
4886

> <i_i_glide_posenum>
41

> <i_i_glide_rotatable_bonds>
11

> <i_m_Source_File_Index>
726

> <b_m_subgroup_collapsed>
0

> <r_i_docking_score>
-3.74799

> <r_i_glide_ecoul>
-5.94922

> <r_i_glide_eff_state_penalty>
0

> <r_i_glide_einternal>
4.4842

> <r_i_glide_emodel>
-46.662

> <r_i_glide_energy>
-38.1922

> <r_i_glide_erotb>
0.790032

> <r_i_glide_esite>
-0.305499

> <r_i_glide_evdw>
-32.2429

> <r_i_glide_gscore>
-3.74799

> <r_i_glide_hbond>
-0.285713

> <r_i_glide_ligand_efficiency>
-0.120903

> <r_i_glide_ligand_efficiency_ln>
-0.845286

> <r_i_glide_ligand_efficiency_sa>
-0.379802

> <r_i_glide_lipo>
-0.85514

> <r_i_glide_metal>
0

> <r_i_glide_rewards>
-0.587138

> <s_i_glide_gridfile>
wee1_glide-grid

> <s_m_Source_File>
wee1_decoys_glide_SP.sdf

> <s_m_Source_Path>
/Users/zhangxujun/Desktop

> <s_m_entry_id>
1001

> <s_m_entry_name>
wee1_decoys_glide_SP.726

> <s_m_subgroup_title>
wee1_decoys_glide_SP

> <s_m_subgroupid>
wee1_decoys_glide_SP


$$$$
