ZINC20154247_1221
                    3D
 Schrodinger Suite 2024-2.
 43 45  0  0  1  0            999 V2000
    5.8036   54.4062   25.1631 C   0  0  0  0  0  0
    5.4105   54.0954   23.8574 C   0  0  0  0  0  0
    4.0830   53.7665   23.5363 C   0  0  0  0  0  0
    3.1343   53.7909   24.5918 C   0  0  0  0  0  0
    3.5515   54.0903   25.8943 C   0  0  0  0  0  0
    4.8815   54.3830   26.2091 C   0  0  0  0  0  0
    5.3541   54.7303   27.4946 N   0  0  0  0  0  0
    4.7890   54.6631   28.7269 C   0  0  0  0  0  0
    5.2981   55.2325   29.6800 O   0  0  0  0  0  0
    3.5770   53.8425   28.9917 C   0  0  0  0  0  0
    2.3239   54.4169   29.0656 C   0  0  0  0  0  0
    1.2498   53.5449   29.1681 C   0  0  0  0  0  0
    1.3267   52.1777   29.3131 C   0  0  0  0  0  0
    2.5733   51.6378   29.2844 C   0  0  0  0  0  0
    3.6613   52.4683   29.1765 C   0  0  0  0  0  0
    5.1043   51.6968   29.2699 Cl  0  0  0  0  0  0
   -0.4955   54.0966   28.4812 I   0  0  0  0  0  0
    1.6837   53.5877   24.3734 N   0  3  0  0  0  0
    1.1488   54.1170   23.4081 O   0  0  0  0  0  0
    1.0694   52.9434   25.2186 O   0  5  0  0  0  0
    3.7997   53.3775   22.2315 N   0  0  0  0  0  0
    4.3515   54.0824   21.0588 C   0  0  0  0  0  0
    4.9303   53.1572   19.9701 C   0  0  0  0  0  0
    3.8928   52.0969   19.5754 N   0  3  0  0  0  0
    3.4147   51.3209   20.8076 C   0  0  0  0  0  0
    2.8556   52.3016   21.8544 C   0  0  0  0  0  0
    6.8420   54.6282   25.3437 H   0  0  0  0  0  0
    6.1732   54.0681   23.0944 H   0  0  0  0  0  0
    2.7864   54.1221   26.6501 H   0  0  0  0  0  0
    6.2744   55.1372   27.5096 H   0  0  0  0  0  0
    2.1707   55.4670   28.8809 H   0  0  0  0  0  0
    0.4546   51.5424   29.3101 H   0  0  0  0  0  0
    2.6833   50.5717   29.2547 H   0  0  0  0  0  0
    3.5042   54.6356   20.6480 H   0  0  0  0  0  0
    5.0763   54.8403   21.3480 H   0  0  0  0  0  0
    5.8064   52.6045   20.2987 H   0  0  0  0  0  0
    5.1608   53.6896   19.0446 H   0  0  0  0  0  0
    4.2949   51.4480   18.8947 H   0  0  0  0  0  0
    4.2780   50.7734   21.1904 H   0  0  0  0  0  0
    2.6652   50.6099   20.4480 H   0  0  0  0  0  0
    2.5273   51.7417   22.7371 H   0  0  0  0  0  0
    1.9643   52.7927   21.4535 H   0  0  0  0  0  0
    3.1062   52.5481   19.1336 H   0  0  0  0  0  0
  1  6  2  0  0  0
  1  2  1  0  0  0
  1 27  1  0  0  0
  2  3  2  0  0  0
  2 28  1  0  0  0
  3  4  1  0  0  0
  3 21  1  0  0  0
  4  5  2  0  0  0
  4 18  1  0  0  0
  5  6  1  0  0  0
  5 29  1  0  0  0
  6  7  1  0  0  0
  7  8  1  0  0  0
  7 30  1  0  0  0
  8  9  2  0  0  0
  8 10  1  0  0  0
 10 15  2  0  0  0
 10 11  1  0  0  0
 11 12  2  0  0  0
 11 31  1  0  0  0
 12 13  1  0  0  0
 12 17  1  0  0  0
 13 14  2  0  0  0
 13 32  1  0  0  0
 14 15  1  0  0  0
 14 33  1  0  0  0
 15 16  1  0  0  0
 18 19  2  0  0  0
 18 20  1  0  0  0
 21 26  1  0  0  0
 21 22  1  0  0  0
 22 23  1  0  0  0
 22 34  1  0  0  0
 22 35  1  0  0  0
 23 24  1  0  0  0
 23 36  1  0  0  0
 23 37  1  0  0  0
 24 25  1  0  0  0
 24 38  1  0  0  0
 24 43  1  0  0  0
 25 26  1  0  0  0
 25 39  1  0  0  0
 25 40  1  0  0  0
 26 41  1  0  0  0
 26 42  1  0  0  0
M  CHG  3  18   1  20  -1  24   1
M  END
> <i_i_glide_confnum>
51

> <i_i_glide_lignum>
1222

> <i_i_glide_posenum>
2

> <i_i_glide_rotatable_bonds>
5

> <i_m_Source_File_Index>
4303

> <b_m_subgroup_collapsed>
0

> <r_i_docking_score>
-2.93799

> <r_i_glide_ecoul>
-0.903408

> <r_i_glide_eff_state_penalty>
0

> <r_i_glide_einternal>
10.9664

> <r_i_glide_emodel>
-13.3651

> <r_i_glide_energy>
-17.6772

> <r_i_glide_erotb>
0.341916

> <r_i_glide_esite>
-0.0784696

> <r_i_glide_evdw>
-16.7738

> <r_i_glide_gscore>
-2.93799

> <r_i_glide_hbond>
-0.2

> <r_i_glide_ligand_efficiency>
-0.113

> <r_i_glide_ligand_efficiency_ln>
-0.689978

> <r_i_glide_ligand_efficiency_sa>
-0.334761

> <r_i_glide_lipo>
-2.70147

> <r_i_glide_metal>
0

> <r_i_glide_rewards>
0.674228

> <s_i_glide_gridfile>
wee1_glide-grid

> <s_m_Source_File>
wee1_decoys_glide_SP.sdf

> <s_m_Source_Path>
/Users/zhangxujun/Desktop

> <s_m_entry_id>
4578

> <s_m_entry_name>
wee1_decoys_glide_SP.4303

> <s_m_subgroup_title>
wee1_decoys_glide_SP

> <s_m_subgroupid>
wee1_decoys_glide_SP


$$$$
