ZINC38893362_1096
                    3D
 Schrodinger Suite 2024-2.
 77 81  0  0  1  0            999 V2000
    7.0768   55.4628   23.0491 C   0  0  0  0  0  0
    6.9026   55.2024   24.4440 O   0  0  0  0  0  0
    5.7124   54.6747   24.9218 C   0  0  0  0  0  0
    4.5692   54.4966   24.1304 C   0  0  0  0  0  0
    3.3751   54.0542   24.6904 C   0  0  0  0  0  0
    3.3010   53.6969   26.0387 C   0  0  0  0  0  0
    4.4538   53.8360   26.8237 C   0  0  0  0  0  0
    5.6601   54.3227   26.2801 C   0  0  0  0  0  0
    6.8264   54.4679   27.0108 O   0  0  0  0  0  0
    6.8831   53.9636   28.3401 C   0  0  0  0  0  0
    2.0137   53.1653   26.6081 C   0  0  0  0  0  0
    1.1051   52.5713   25.8505 N   0  0  0  0  0  0
    0.1619   52.2790   26.7073 C   0  0  0  0  0  0
    0.4601   52.6616   27.9736 O   0  0  0  0  0  0
    1.7213   53.2478   27.8910 N   0  0  0  0  0  0
   -1.1819   51.6008   26.4720 C   0  0  0  0  0  0
   -1.0451   50.2882   25.6504 N   0  3  1  0  0  0
   -2.3272   49.4300   25.8137 C   0  0  0  0  0  0
   -2.0950   48.0611   25.1403 C   0  0  0  0  0  0
   -1.7092   48.1916   23.6481 C   0  0  0  0  0  0
   -0.4875   49.1415   23.5172 C   0  0  2  0  0  0
    0.3485   48.6526   24.0219 H   0  0  0  0  0  0
   -0.8032   50.5279   24.1369 C   0  0  0  0  0  0
   -0.0143   49.2941   22.0421 C   0  0  0  0  0  0
   -0.8081   49.0151   21.1412 O   0  0  0  0  0  0
    1.3001   49.5437   21.7879 N   0  0  0  0  0  0
    1.8459   49.4920   20.4117 C   0  0  0  0  0  0
    2.3329   50.9010   19.9762 C   0  0  0  0  0  0
    3.1556   51.5677   20.9985 N   0  0  0  0  0  0
    2.4854   51.5914   22.2968 C   0  0  0  0  0  0
    2.1959   50.1558   22.7823 C   0  0  0  0  0  0
    3.5349   52.9213   20.5850 C   0  0  0  0  0  0
    4.6850   52.9951   19.6097 C   0  0  0  0  0  0
    5.6160   53.9675   19.6153 C   0  0  0  0  0  0
    6.7648   54.0998   18.6974 C   0  0  0  0  0  0
    6.9119   53.2968   17.5579 C   0  0  0  0  0  0
    8.0425   53.4188   16.7546 C   0  0  0  0  0  0
    9.0294   54.3442   17.0852 C   0  0  0  0  0  0
    8.8941   55.1532   18.2099 C   0  0  0  0  0  0
    7.7618   55.0318   19.0108 C   0  0  0  0  0  0
    7.9367   56.0964   22.8818 H   0  0  0  0  0  0
    7.2008   54.5408   22.4809 H   0  0  0  0  0  0
    6.3044   56.0643   22.5981 H   0  0  0  0  0  0
    4.5722   54.7552   23.0844 H   0  0  0  0  0  0
    2.5003   53.9841   24.0611 H   0  0  0  0  0  0
    4.4032   53.5538   27.8630 H   0  0  0  0  0  0
    7.8902   54.0943   28.7366 H   0  0  0  0  0  0
    6.1974   54.4965   28.9983 H   0  0  0  0  0  0
    6.6530   52.8975   28.3705 H   0  0  0  0  0  0
   -1.9048   52.2299   25.9531 H   0  0  0  0  0  0
   -1.6137   51.2915   27.4269 H   0  0  0  0  0  0
   -3.1684   49.9819   25.3882 H   0  0  0  0  0  0
   -2.4968   49.2970   26.8814 H   0  0  0  0  0  0
   -2.9962   47.4551   25.2387 H   0  0  0  0  0  0
   -1.3164   47.5229   25.6889 H   0  0  0  0  0  0
   -2.5865   48.5983   23.1386 H   0  0  0  0  0  0
   -1.4781   47.1874   23.2877 H   0  0  0  0  0  0
    0.0100   51.2373   24.0194 H   0  0  0  0  0  0
   -1.7162   50.9775   23.7394 H   0  0  0  0  0  0
    1.1394   49.0983   19.6795 H   0  0  0  0  0  0
    2.7040   48.8191   20.4152 H   0  0  0  0  0  0
    1.4421   51.5129   19.8210 H   0  0  0  0  0  0
    2.8876   50.8093   19.0415 H   0  0  0  0  0  0
    3.1044   52.0968   23.0295 H   0  0  0  0  0  0
    1.5493   52.1478   22.2163 H   0  0  0  0  0  0
    3.1161   49.5819   22.8362 H   0  0  0  0  0  0
    1.8100   50.1651   23.7982 H   0  0  0  0  0  0
    3.8422   53.4901   21.4624 H   0  0  0  0  0  0
    2.6920   53.4494   20.1532 H   0  0  0  0  0  0
    4.7106   52.2029   18.8811 H   0  0  0  0  0  0
    5.5232   54.7432   20.3632 H   0  0  0  0  0  0
    6.1676   52.5590   17.2931 H   0  0  0  0  0  0
    8.1550   52.7916   15.8832 H   0  0  0  0  0  0
    9.9103   54.4302   16.4668 H   0  0  0  0  0  0
    9.6694   55.8607   18.4669 H   0  0  0  0  0  0
    7.6753   55.6547   19.8898 H   0  0  0  0  0  0
   -0.2686   49.7781   26.0550 H   0  0  0  0  0  0
  1  2  1  0  0  0
  1 41  1  0  0  0
  1 42  1  0  0  0
  1 43  1  0  0  0
  2  3  1  0  0  0
  3  8  2  0  0  0
  3  4  1  0  0  0
  4  5  2  0  0  0
  4 44  1  0  0  0
  5  6  1  0  0  0
  5 45  1  0  0  0
  6  7  2  0  0  0
  6 11  1  0  0  0
  7  8  1  0  0  0
  7 46  1  0  0  0
  8  9  1  0  0  0
  9 10  1  0  0  0
 10 47  1  0  0  0
 10 48  1  0  0  0
 10 49  1  0  0  0
 11 15  2  0  0  0
 11 12  1  0  0  0
 12 13  2  0  0  0
 13 14  1  0  0  0
 13 16  1  0  0  0
 14 15  1  0  0  0
 16 17  1  0  0  0
 16 50  1  0  0  0
 16 51  1  0  0  0
 17 23  1  0  0  0
 17 18  1  0  0  0
 17 77  1  0  0  0
 18 19  1  0  0  0
 18 52  1  0  0  0
 18 53  1  0  0  0
 19 20  1  0  0  0
 19 54  1  0  0  0
 19 55  1  0  0  0
 20 21  1  0  0  0
 20 56  1  0  0  0
 20 57  1  0  0  0
 21 22  1  0  0  0
 21 23  1  0  0  0
 21 24  1  0  0  0
 23 58  1  0  0  0
 23 59  1  0  0  0
 24 25  2  0  0  0
 24 26  1  0  0  0
 26 31  1  0  0  0
 26 27  1  0  0  0
 27 28  1  0  0  0
 27 60  1  0  0  0
 27 61  1  0  0  0
 28 29  1  0  0  0
 28 62  1  0  0  0
 28 63  1  0  0  0
 29 30  1  0  0  0
 29 32  1  0  0  0
 30 31  1  0  0  0
 30 64  1  0  0  0
 30 65  1  0  0  0
 31 66  1  0  0  0
 31 67  1  0  0  0
 32 33  1  0  0  0
 32 68  1  0  0  0
 32 69  1  0  0  0
 33 34  2  0  0  0
 33 70  1  0  0  0
 34 35  1  0  0  0
 34 71  1  0  0  0
 35 40  2  0  0  0
 35 36  1  0  0  0
 36 37  2  0  0  0
 36 72  1  0  0  0
 37 38  1  0  0  0
 37 73  1  0  0  0
 38 39  2  0  0  0
 38 74  1  0  0  0
 39 40  1  0  0  0
 39 75  1  0  0  0
 40 76  1  0  0  0
M  CHG  1  17   1
M  END
> <i_i_glide_confnum>
226

> <i_i_glide_lignum>
1097

> <i_i_glide_posenum>
197

> <i_i_glide_rotatable_bonds>
10

> <i_m_Source_File_Index>
5982

> <b_m_subgroup_collapsed>
0

> <r_i_docking_score>
-5.18808

> <r_i_glide_ecoul>
-6.33932

> <r_i_glide_eff_state_penalty>
0

> <r_i_glide_einternal>
5.53338

> <r_i_glide_emodel>
-64.5855

> <r_i_glide_energy>
-49.9914

> <r_i_glide_erotb>
0.508924

> <r_i_glide_esite>
-0.056354

> <r_i_glide_evdw>
-43.652

> <r_i_glide_gscore>
-5.18808

> <r_i_glide_hbond>
-0.0402672

> <r_i_glide_ligand_efficiency>
-0.133028

> <r_i_glide_ligand_efficiency_ln>
-1.11247

> <r_i_glide_ligand_efficiency_sa>
-0.451125

> <r_i_glide_lipo>
-2.11634

> <r_i_glide_metal>
0

> <r_i_glide_rewards>
-0.350543

> <s_i_glide_gridfile>
wee1_glide-grid

> <s_m_Source_File>
wee1_decoys_glide_SP.sdf

> <s_m_Source_Path>
/Users/zhangxujun/Desktop

> <s_m_entry_id>
6257

> <s_m_entry_name>
wee1_decoys_glide_SP.5982

> <s_m_subgroup_title>
wee1_decoys_glide_SP

> <s_m_subgroupid>
wee1_decoys_glide_SP


$$$$
