ZINC39675413_897
                    3D
 Schrodinger Suite 2024-2.
 81 84  0  0  1  0            999 V2000
   -4.6974   50.1058   30.8527 C   0  0  0  0  0  0
   -5.0179   50.7986   29.5525 C   0  0  0  0  0  0
   -4.2217   50.9583   28.4237 C   0  0  0  0  0  0
   -4.9606   51.6986   27.5001 C   0  0  0  0  0  0
   -6.1659   51.9473   28.1544 N   0  0  0  0  0  0
   -6.1726   51.3911   29.3861 N   0  0  0  0  0  0
   -7.3769   52.7087   27.6914 C   0  0  0  0  0  0
   -7.8514   52.1407   26.3291 C   0  0  0  0  0  0
   -7.0485   54.2239   27.5870 C   0  0  0  0  0  0
   -8.5708   52.5396   28.6813 C   0  0  0  0  0  0
   -4.5052   52.2884   26.2519 C   0  0  0  0  0  0
   -4.6906   53.4863   26.0248 O   0  0  0  0  0  0
   -3.8512   51.4950   25.3700 N   0  0  0  0  0  0
   -3.2342   52.0500   24.1572 C   0  0  0  0  0  0
   -2.6943   50.7890   23.4634 C   0  0  2  0  0  0
   -3.5047   50.4321   22.8221 H   0  0  0  0  0  0
   -2.4196   49.7723   24.5965 C   0  0  0  0  0  0
   -3.6537   50.0428   25.4763 C   0  0  0  0  0  0
   -2.4268   48.2910   24.1313 C   0  0  0  0  0  0
   -1.0627   47.7244   23.7211 C   0  0  0  0  0  0
   -0.0811   47.9390   24.8815 N   0  3  0  0  0  0
    0.1678   49.4215   25.1549 C   0  0  0  0  0  0
   -1.1673   50.1044   25.4961 C   0  0  0  0  0  0
   -1.5441   51.0968   22.4817 C   0  0  0  0  0  0
   -1.5935   50.6205   21.3481 O   0  0  0  0  0  0
   -0.5050   51.8302   22.9210 N   0  0  0  0  0  0
    0.7097   52.2086   22.1896 C   0  0  2  0  0  0
    0.4132   52.8959   21.3937 H   0  0  0  0  0  0
    1.4354   51.0051   21.5327 C   0  0  0  0  0  0
    1.6347   52.9624   23.1742 C   0  0  0  0  0  0
    2.8409   53.7145   22.5586 C   0  0  0  0  0  0
    3.9467   54.0484   23.5593 C   0  0  0  0  0  0
    3.6623   54.2703   24.9101 C   0  0  0  0  0  0
    4.6924   54.4915   25.8179 C   0  0  0  0  0  0
    6.0228   54.5079   25.3797 C   0  0  0  0  0  0
    6.3004   54.3355   24.0251 C   0  0  0  0  0  0
    5.2716   54.0980   23.1188 C   0  0  0  0  0  0
    7.1036   54.6847   26.2137 O   0  0  0  0  0  0
    6.9285   54.4716   27.6098 C   0  0  0  0  0  0
   -3.6972   49.6777   30.8494 H   0  0  0  0  0  0
   -4.7419   50.7897   31.6996 H   0  0  0  0  0  0
   -5.3891   49.2901   31.0564 H   0  0  0  0  0  0
   -3.2021   50.6110   28.3293 H   0  0  0  0  0  0
   -8.7891   52.6032   26.0158 H   0  0  0  0  0  0
   -8.0192   51.0635   26.3790 H   0  0  0  0  0  0
   -7.1419   52.3188   25.5220 H   0  0  0  0  0  0
   -6.1151   54.4928   28.0893 H   0  0  0  0  0  0
   -6.9468   54.5510   26.5518 H   0  0  0  0  0  0
   -7.8372   54.8435   28.0175 H   0  0  0  0  0  0
   -8.3395   52.9426   29.6681 H   0  0  0  0  0  0
   -9.4629   53.0579   28.3317 H   0  0  0  0  0  0
   -8.8430   51.4911   28.8096 H   0  0  0  0  0  0
   -3.9507   52.5810   23.5298 H   0  0  0  0  0  0
   -2.4266   52.7077   24.4829 H   0  0  0  0  0  0
   -3.5442   49.6101   26.4691 H   0  0  0  0  0  0
   -4.5253   49.5609   25.0223 H   0  0  0  0  0  0
   -2.7135   47.6854   24.9963 H   0  0  0  0  0  0
   -3.2156   48.0898   23.4041 H   0  0  0  0  0  0
   -1.1035   46.6537   23.5344 H   0  0  0  0  0  0
   -0.6404   48.2210   22.8438 H   0  0  0  0  0  0
   -0.4009   47.4970   25.7394 H   0  0  0  0  0  0
    0.8878   49.4451   25.9796 H   0  0  0  0  0  0
    0.6423   49.8201   24.2595 H   0  0  0  0  0  0
   -1.0674   51.1683   25.7135 H   0  0  0  0  0  0
   -1.3718   49.6827   26.4815 H   0  0  0  0  0  0
   -0.5645   52.1830   23.8624 H   0  0  0  0  0  0
    2.3460   51.3122   21.0248 H   0  0  0  0  0  0
    1.7342   50.2592   22.2684 H   0  0  0  0  0  0
    0.8328   50.5204   20.7640 H   0  0  0  0  0  0
    1.0463   53.6957   23.7316 H   0  0  0  0  0  0
    1.9894   52.2393   23.9134 H   0  0  0  0  0  0
    3.2850   53.1112   21.7701 H   0  0  0  0  0  0
    2.5099   54.6371   22.0835 H   0  0  0  0  0  0
    2.6476   54.2513   25.2750 H   0  0  0  0  0  0
    4.4419   54.6440   26.8561 H   0  0  0  0  0  0
    7.3230   54.3648   23.6810 H   0  0  0  0  0  0
    5.5095   53.9433   22.0758 H   0  0  0  0  0  0
    7.9078   54.4971   28.0851 H   0  0  0  0  0  0
    6.3058   55.2441   28.0675 H   0  0  0  0  0  0
    6.4960   53.4907   27.8156 H   0  0  0  0  0  0
    0.8184   47.5196   24.6839 H   0  0  0  0  0  0
  1  2  1  0  0  0
  1 40  1  0  0  0
  1 41  1  0  0  0
  1 42  1  0  0  0
  2  6  2  0  0  0
  2  3  1  0  0  0
  3  4  2  0  0  0
  3 43  1  0  0  0
  4  5  1  0  0  0
  4 11  1  0  0  0
  5  6  1  0  0  0
  5  7  1  0  0  0
  7  8  1  0  0  0
  7  9  1  0  0  0
  7 10  1  0  0  0
  8 44  1  0  0  0
  8 45  1  0  0  0
  8 46  1  0  0  0
  9 47  1  0  0  0
  9 48  1  0  0  0
  9 49  1  0  0  0
 10 50  1  0  0  0
 10 51  1  0  0  0
 10 52  1  0  0  0
 11 12  2  0  0  0
 11 13  1  0  0  0
 13 18  1  0  0  0
 13 14  1  0  0  0
 14 15  1  0  0  0
 14 53  1  0  0  0
 14 54  1  0  0  0
 15 16  1  0  0  0
 15 17  1  0  0  0
 15 24  1  0  0  0
 17 23  1  0  0  0
 17 18  1  0  0  0
 17 19  1  0  0  0
 18 55  1  0  0  0
 18 56  1  0  0  0
 19 20  1  0  0  0
 19 57  1  0  0  0
 19 58  1  0  0  0
 20 21  1  0  0  0
 20 59  1  0  0  0
 20 60  1  0  0  0
 21 22  1  0  0  0
 21 61  1  0  0  0
 21 81  1  0  0  0
 22 23  1  0  0  0
 22 62  1  0  0  0
 22 63  1  0  0  0
 23 64  1  0  0  0
 23 65  1  0  0  0
 24 25  2  0  0  0
 24 26  1  0  0  0
 26 27  1  0  0  0
 26 66  1  0  0  0
 27 28  1  0  0  0
 27 29  1  0  0  0
 27 30  1  0  0  0
 29 67  1  0  0  0
 29 68  1  0  0  0
 29 69  1  0  0  0
 30 31  1  0  0  0
 30 70  1  0  0  0
 30 71  1  0  0  0
 31 32  1  0  0  0
 31 72  1  0  0  0
 31 73  1  0  0  0
 32 37  2  0  0  0
 32 33  1  0  0  0
 33 34  2  0  0  0
 33 74  1  0  0  0
 34 35  1  0  0  0
 34 75  1  0  0  0
 35 36  2  0  0  0
 35 38  1  0  0  0
 36 37  1  0  0  0
 36 76  1  0  0  0
 37 77  1  0  0  0
 38 39  1  0  0  0
 39 78  1  0  0  0
 39 79  1  0  0  0
 39 80  1  0  0  0
M  CHG  1  21   1
M  END
> <i_i_glide_confnum>
147

> <i_i_glide_lignum>
898

> <i_i_glide_posenum>
214

> <i_i_glide_rotatable_bonds>
10

> <i_m_Source_File_Index>
748

> <b_m_subgroup_collapsed>
0

> <r_i_docking_score>
-5.23495

> <r_i_glide_ecoul>
-8.37039

> <r_i_glide_eff_state_penalty>
0

> <r_i_glide_einternal>
13.8904

> <r_i_glide_emodel>
-56.7039

> <r_i_glide_energy>
-47.9741

> <r_i_glide_erotb>
0.628457

> <r_i_glide_esite>
-0.082786

> <r_i_glide_evdw>
-39.6037

> <r_i_glide_gscore>
-5.23495

> <r_i_glide_hbond>
-0.32

> <r_i_glide_ligand_efficiency>
-0.141485

> <r_i_glide_ligand_efficiency_ln>
-1.13534

> <r_i_glide_ligand_efficiency_sa>
-0.47146

> <r_i_glide_lipo>
-2.15141

> <r_i_glide_metal>
0

> <r_i_glide_rewards>
-0.0734672

> <s_i_glide_gridfile>
wee1_glide-grid

> <s_m_Source_File>
wee1_decoys_glide_SP.sdf

> <s_m_Source_Path>
/Users/zhangxujun/Desktop

> <s_m_entry_id>
1023

> <s_m_entry_name>
wee1_decoys_glide_SP.748

> <s_m_subgroup_title>
wee1_decoys_glide_SP

> <s_m_subgroupid>
wee1_decoys_glide_SP


$$$$
