ZINC61360370_1914
                    3D
 Schrodinger Suite 2024-2.
 39 41  0  0  1  0            999 V2000
    1.0834   49.8729   22.7851 C   0  0  0  0  0  0
    0.7865   50.5932   24.1020 C   0  0  0  0  0  0
    0.3052   49.8639   25.2101 C   0  0  0  0  0  0
    0.0941   50.4976   26.4336 C   0  0  0  0  0  0
    0.3649   51.8517   26.5804 C   0  0  0  0  0  0
    0.8167   52.5852   25.4899 C   0  0  0  0  0  0
    1.0106   51.9811   24.2431 C   0  0  0  0  0  0
    1.4139   53.0582   22.8505 S   0  0  0  0  0  0
    0.6486   52.5658   21.7004 O   0  0  0  0  0  0
    1.2609   54.4441   23.3116 O   0  0  0  0  0  0
    3.1072   52.7925   22.4812 N   0  0  0  0  0  0
    4.0109   53.9647   22.5222 C   0  0  2  0  0  0
    3.4398   54.8707   22.3083 H   0  0  0  0  0  0
    5.0136   53.7746   21.3600 C   0  0  0  0  0  0
    6.0747   54.8931   21.3353 C   0  0  0  0  0  0
    6.9670   54.8926   22.5964 C   0  0  0  0  0  0
    6.1074   54.6708   23.8321 C   0  0  0  0  0  0
    4.7801   54.2175   23.8204 C   0  0  0  0  0  0
    4.2673   54.0974   25.1203 C   0  0  0  0  0  0
    5.1810   54.4259   26.1091 C   0  0  0  0  0  0
    6.7043   54.8977   25.4455 S   0  0  0  0  0  0
    0.0267   48.4988   25.1348 N   0  0  0  0  0  0
    0.1889   49.8207   22.1645 H   0  0  0  0  0  0
    1.4491   48.8629   22.9580 H   0  0  0  0  0  0
    1.8798   50.3557   22.2224 H   0  0  0  0  0  0
   -0.2755   49.9400   27.2814 H   0  0  0  0  0  0
    0.2066   52.3332   27.5338 H   0  0  0  0  0  0
    1.0025   53.6407   25.6190 H   0  0  0  0  0  0
    3.1868   52.2883   21.5946 H   0  0  0  0  0  0
    5.5046   52.8025   21.4375 H   0  0  0  0  0  0
    4.4789   53.7678   20.4083 H   0  0  0  0  0  0
    6.6984   54.7987   20.4451 H   0  0  0  0  0  0
    5.5744   55.8581   21.2409 H   0  0  0  0  0  0
    7.7080   54.0969   22.5201 H   0  0  0  0  0  0
    7.5120   55.8337   22.6624 H   0  0  0  0  0  0
    3.2605   53.7757   25.3287 H   0  0  0  0  0  0
    5.0349   54.4059   27.1791 H   0  0  0  0  0  0
   -0.1949   48.0351   26.0105 H   0  0  0  0  0  0
    0.5883   47.9851   24.4726 H   0  0  0  0  0  0
  1  2  1  0  0  0
  1 23  1  0  0  0
  1 24  1  0  0  0
  1 25  1  0  0  0
  2  7  2  0  0  0
  2  3  1  0  0  0
  3  4  2  0  0  0
  3 22  1  0  0  0
  4  5  1  0  0  0
  4 26  1  0  0  0
  5  6  2  0  0  0
  5 27  1  0  0  0
  6  7  1  0  0  0
  6 28  1  0  0  0
  7  8  1  0  0  0
  8  9  2  0  0  0
  8 10  2  0  0  0
  8 11  1  0  0  0
 11 12  1  0  0  0
 11 29  1  0  0  0
 12 13  1  0  0  0
 12 18  1  0  0  0
 12 14  1  0  0  0
 14 15  1  0  0  0
 14 30  1  0  0  0
 14 31  1  0  0  0
 15 16  1  0  0  0
 15 32  1  0  0  0
 15 33  1  0  0  0
 16 17  1  0  0  0
 16 34  1  0  0  0
 16 35  1  0  0  0
 17 21  1  0  0  0
 17 18  2  0  0  0
 18 19  1  0  0  0
 19 20  2  0  0  0
 19 36  1  0  0  0
 20 21  1  0  0  0
 20 37  1  0  0  0
 22 38  1  0  0  0
 22 39  1  0  0  0
M  END
> <i_i_glide_confnum>
10

> <i_i_glide_lignum>
1915

> <i_i_glide_posenum>
386

> <i_i_glide_rotatable_bonds>
3

> <i_m_Source_File_Index>
5986

> <b_m_subgroup_collapsed>
0

> <r_i_docking_score>
-5.13694

> <r_i_glide_ecoul>
-3.68773

> <r_i_glide_eff_state_penalty>
0

> <r_i_glide_einternal>
4.39641

> <r_i_glide_emodel>
-43.5961

> <r_i_glide_energy>
-36.127

> <r_i_glide_erotb>
0.539579

> <r_i_glide_esite>
-0.0766665

> <r_i_glide_evdw>
-32.4392

> <r_i_glide_gscore>
-5.13694

> <r_i_glide_hbond>
-0.133172

> <r_i_glide_ligand_efficiency>
-0.244616

> <r_i_glide_ligand_efficiency_ln>
-1.2701

> <r_i_glide_ligand_efficiency_sa>
-0.674878

> <r_i_glide_lipo>
-2.2773

> <r_i_glide_metal>
0

> <r_i_glide_rewards>
-1.01426

> <s_i_glide_gridfile>
wee1_glide-grid

> <s_m_Source_File>
wee1_decoys_glide_SP.sdf

> <s_m_Source_Path>
/Users/zhangxujun/Desktop

> <s_m_entry_id>
6261

> <s_m_entry_name>
wee1_decoys_glide_SP.5986

> <s_m_subgroup_title>
wee1_decoys_glide_SP

> <s_m_subgroupid>
wee1_decoys_glide_SP


$$$$
