ZINC30825978_2970
                    3D
 Schrodinger Suite 2024-2.
 62 65  0  0  1  0            999 V2000
    5.3788   54.5728   19.2324 C   0  0  0  0  0  0
    5.5583   54.5315   20.7377 C   0  0  0  0  0  0
    6.5544   55.2952   21.3483 C   0  0  0  0  0  0
    6.7039   55.2624   22.7322 C   0  0  0  0  0  0
    5.8398   54.4957   23.5296 C   0  0  0  0  0  0
    4.8712   53.7009   22.8946 C   0  0  0  0  0  0
    4.7242   53.7261   21.5110 C   0  0  0  0  0  0
    5.9927   54.5355   25.0435 C   0  0  0  0  0  0
    7.1042   54.7842   25.5166 O   0  0  0  0  0  0
    4.9199   54.2986   25.8478 N   0  0  0  0  0  0
    5.1358   54.1883   27.3008 C   0  0  0  0  0  0
    4.0054   53.3458   27.9390 C   0  0  0  0  0  0
    2.6283   53.6515   27.5207 N   0  0  0  0  0  0
    2.5161   53.8740   26.0729 C   0  0  0  0  0  0
    3.5923   54.8056   25.4799 C   0  0  0  0  0  0
    1.5733   53.2208   28.3356 C   0  0  0  0  0  0
    0.6634   52.2028   27.9564 C   0  0  0  0  0  0
   -0.2572   51.6974   28.8833 C   0  0  0  0  0  0
   -0.3381   52.2325   30.1624 C   0  0  0  0  0  0
    0.4665   53.3113   30.5089 C   0  0  0  0  0  0
    1.4016   53.8152   29.6037 C   0  0  0  0  0  0
    2.3050   55.2159   30.0817 Cl  0  0  0  0  0  0
    0.7024   51.6534   26.6631 N   0  0  0  0  0  0
   -0.2464   51.6598   25.6753 C   0  0  0  0  0  0
   -1.8605   52.0960   25.9093 S   0  0  0  0  0  0
    0.3160   51.3148   24.4724 N   0  0  0  0  0  0
    0.0146   51.6867   23.2003 C   0  0  0  0  0  0
   -0.8620   52.4959   22.8845 O   0  0  0  0  0  0
    0.9008   51.0990   22.1290 C   0  0  0  0  0  0
    1.4826   49.8276   22.2673 C   0  0  0  0  0  0
    2.2720   49.2986   21.2459 C   0  0  0  0  0  0
    2.4976   50.0292   20.0811 C   0  0  0  0  0  0
    1.9358   51.2965   19.9313 C   0  0  0  0  0  0
    1.1397   51.8252   20.9509 C   0  0  0  0  0  0
    2.1789   52.0946   18.6642 C   0  0  0  0  0  0
    4.3238   54.7157   18.9836 H   0  0  0  0  0  0
    5.9298   55.3973   18.7759 H   0  0  0  0  0  0
    5.7024   53.6336   18.7778 H   0  0  0  0  0  0
    7.2205   55.9017   20.7538 H   0  0  0  0  0  0
    7.4853   55.8584   23.1837 H   0  0  0  0  0  0
    4.2019   53.0755   23.4658 H   0  0  0  0  0  0
    3.9595   53.1229   21.0418 H   0  0  0  0  0  0
    5.0754   55.1836   27.7468 H   0  0  0  0  0  0
    6.0960   53.7296   27.5505 H   0  0  0  0  0  0
    4.1041   53.3542   29.0245 H   0  0  0  0  0  0
    4.1648   52.3203   27.6117 H   0  0  0  0  0  0
    2.6526   52.9089   25.5845 H   0  0  0  0  0  0
    1.5141   54.2268   25.8244 H   0  0  0  0  0  0
    3.4286   54.9422   24.4132 H   0  0  0  0  0  0
    3.4923   55.7813   25.9482 H   0  0  0  0  0  0
   -0.9221   50.8883   28.6134 H   0  0  0  0  0  0
   -1.0410   51.8254   30.8791 H   0  0  0  0  0  0
    0.3598   53.7533   31.4898 H   0  0  0  0  0  0
    1.6420   51.4518   26.3616 H   0  0  0  0  0  0
    1.0873   50.6674   24.5328 H   0  0  0  0  0  0
    1.3194   49.2256   23.1511 H   0  0  0  0  0  0
    2.7036   48.3150   21.3533 H   0  0  0  0  0  0
    3.1080   49.6101   19.2927 H   0  0  0  0  0  0
    0.7129   52.8112   20.8178 H   0  0  0  0  0  0
    1.2313   52.3107   18.1674 H   0  0  0  0  0  0
    2.6464   53.0513   18.9013 H   0  0  0  0  0  0
    2.8232   51.5609   17.9586 H   0  0  0  0  0  0
  1  2  1  0  0  0
  1 36  1  0  0  0
  1 37  1  0  0  0
  1 38  1  0  0  0
  2  7  2  0  0  0
  2  3  1  0  0  0
  3  4  2  0  0  0
  3 39  1  0  0  0
  4  5  1  0  0  0
  4 40  1  0  0  0
  5  6  2  0  0  0
  5  8  1  0  0  0
  6  7  1  0  0  0
  6 41  1  0  0  0
  7 42  1  0  0  0
  8  9  2  0  0  0
  8 10  1  0  0  0
 10 15  1  0  0  0
 10 11  1  0  0  0
 11 12  1  0  0  0
 11 43  1  0  0  0
 11 44  1  0  0  0
 12 13  1  0  0  0
 12 45  1  0  0  0
 12 46  1  0  0  0
 13 14  1  0  0  0
 13 16  1  0  0  0
 14 15  1  0  0  0
 14 47  1  0  0  0
 14 48  1  0  0  0
 15 49  1  0  0  0
 15 50  1  0  0  0
 16 21  2  0  0  0
 16 17  1  0  0  0
 17 18  2  0  0  0
 17 23  1  0  0  0
 18 19  1  0  0  0
 18 51  1  0  0  0
 19 20  2  0  0  0
 19 52  1  0  0  0
 20 21  1  0  0  0
 20 53  1  0  0  0
 21 22  1  0  0  0
 23 24  1  0  0  0
 23 54  1  0  0  0
 24 25  2  0  0  0
 24 26  1  0  0  0
 26 27  1  0  0  0
 26 55  1  0  0  0
 27 28  2  0  0  0
 27 29  1  0  0  0
 29 34  2  0  0  0
 29 30  1  0  0  0
 30 31  2  0  0  0
 30 56  1  0  0  0
 31 32  1  0  0  0
 31 57  1  0  0  0
 32 33  2  0  0  0
 32 58  1  0  0  0
 33 34  1  0  0  0
 33 35  1  0  0  0
 34 59  1  0  0  0
 35 60  1  0  0  0
 35 61  1  0  0  0
 35 62  1  0  0  0
M  END
> <i_i_glide_confnum>
2

> <i_i_glide_lignum>
2971

> <i_i_glide_posenum>
117

> <i_i_glide_rotatable_bonds>
8

> <i_m_Source_File_Index>
637

> <b_m_subgroup_collapsed>
0

> <r_i_docking_score>
-6.80741

> <r_i_glide_ecoul>
-7.25061

> <r_i_glide_eff_state_penalty>
0

> <r_i_glide_einternal>
15.2885

> <r_i_glide_emodel>
-68.3079

> <r_i_glide_energy>
-57.8575

> <r_i_glide_erotb>
0.636773

> <r_i_glide_esite>
-0.0166572

> <r_i_glide_evdw>
-50.6068

> <r_i_glide_gscore>
-6.80741

> <r_i_glide_hbond>
-0.32

> <r_i_glide_ligand_efficiency>
-0.194497

> <r_i_glide_ligand_efficiency_ln>
-1.49438

> <r_i_glide_ligand_efficiency_sa>
-0.636214

> <r_i_glide_lipo>
-2.81938

> <r_i_glide_metal>
0

> <r_i_glide_rewards>
-0.670212

> <s_i_glide_gridfile>
wee1_glide-grid

> <s_m_Source_File>
wee1_decoys_glide_SP.sdf

> <s_m_Source_Path>
/Users/zhangxujun/Desktop

> <s_m_entry_id>
912

> <s_m_entry_name>
wee1_decoys_glide_SP.637

> <s_m_subgroup_title>
wee1_decoys_glide_SP

> <s_m_subgroupid>
wee1_decoys_glide_SP


$$$$
