ZINC40180275_2777
                    3D
 Schrodinger Suite 2024-2.
 49 52  0  0  1  0            999 V2000
   -8.3187   51.5063   29.5822 C   0  0  0  0  0  0
   -6.8403   51.7232   29.2899 C   0  0  0  0  0  0
   -6.0953   52.0986   30.1964 O   0  0  0  0  0  0
   -6.4587   51.5115   28.0132 N   0  0  0  0  0  0
   -5.1560   51.6199   27.5059 C   0  0  0  0  0  0
   -4.0441   51.1154   28.1919 C   0  0  0  0  0  0
   -2.7715   51.2648   27.6535 C   0  0  0  0  0  0
   -2.5950   51.9064   26.4248 C   0  0  0  0  0  0
   -3.7153   52.3824   25.7236 C   0  0  0  0  0  0
   -4.9910   52.2270   26.2608 C   0  0  0  0  0  0
   -1.2642   52.0869   26.0125 N   0  0  0  0  0  0
   -0.7796   52.4958   24.8175 C   0  0  0  0  0  0
   -1.4565   52.5762   23.7887 O   0  0  0  0  0  0
    0.6747   52.9349   24.8120 C   0  0  0  0  0  0
    1.1896   53.5769   23.6803 C   0  0  0  0  0  0
    2.4730   54.1027   23.6726 C   0  0  0  0  0  0
    3.3065   53.9338   24.7785 C   0  0  0  0  0  0
    2.8027   53.2972   25.9196 C   0  0  0  0  0  0
    1.5043   52.8032   25.9383 C   0  0  0  0  0  0
    4.6452   54.4087   24.7542 N   0  0  0  0  0  0
    5.5488   54.5646   23.7052 C   0  0  0  0  0  0
    6.6297   55.1671   24.3313 C   0  0  0  0  0  0
    6.4644   55.2992   25.6238 N   0  0  0  0  0  0
    5.2037   54.8280   25.9063 N   0  0  0  0  0  0
    5.3945   54.2738   22.2402 C   0  0  0  0  0  0
    5.9862   55.1442   21.3156 C   0  0  0  0  0  0
    5.8728   54.9060   19.9493 C   0  0  0  0  0  0
    5.1721   53.7893   19.4995 C   0  0  0  0  0  0
    4.5947   52.9056   20.4061 C   0  0  0  0  0  0
    4.7060   53.1522   21.7727 C   0  0  0  0  0  0
    5.0222   53.5065   17.8025 Cl  0  0  0  0  0  0
   -8.5550   50.4395   29.5843 H   0  0  0  0  0  0
   -8.9432   51.9998   28.8350 H   0  0  0  0  0  0
   -8.5806   51.9122   30.5631 H   0  0  0  0  0  0
   -7.1853   51.3516   27.3326 H   0  0  0  0  0  0
   -4.1554   50.6160   29.1441 H   0  0  0  0  0  0
   -1.9252   50.8759   28.2034 H   0  0  0  0  0  0
   -3.6203   52.8983   24.7803 H   0  0  0  0  0  0
   -5.8435   52.6084   25.7177 H   0  0  0  0  0  0
   -0.5855   51.9260   26.7375 H   0  0  0  0  0  0
    0.5949   53.6961   22.7931 H   0  0  0  0  0  0
    2.8066   54.6305   22.7921 H   0  0  0  0  0  0
    3.4229   53.1562   26.7954 H   0  0  0  0  0  0
    1.1649   52.3217   26.8429 H   0  0  0  0  0  0
    7.5062   55.5205   23.8261 H   0  0  0  0  0  0
    6.5282   56.0153   21.6536 H   0  0  0  0  0  0
    6.3218   55.5852   19.2407 H   0  0  0  0  0  0
    4.0530   52.0401   20.0476 H   0  0  0  0  0  0
    4.2364   52.4956   22.4796 H   0  0  0  0  0  0
  1  2  1  0  0  0
  1 32  1  0  0  0
  1 33  1  0  0  0
  1 34  1  0  0  0
  2  3  2  0  0  0
  2  4  1  0  0  0
  4  5  1  0  0  0
  4 35  1  0  0  0
  5 10  2  0  0  0
  5  6  1  0  0  0
  6  7  2  0  0  0
  6 36  1  0  0  0
  7  8  1  0  0  0
  7 37  1  0  0  0
  8  9  2  0  0  0
  8 11  1  0  0  0
  9 10  1  0  0  0
  9 38  1  0  0  0
 10 39  1  0  0  0
 11 12  1  0  0  0
 11 40  1  0  0  0
 12 13  2  0  0  0
 12 14  1  0  0  0
 14 19  2  0  0  0
 14 15  1  0  0  0
 15 16  2  0  0  0
 15 41  1  0  0  0
 16 17  1  0  0  0
 16 42  1  0  0  0
 17 18  2  0  0  0
 17 20  1  0  0  0
 18 19  1  0  0  0
 18 43  1  0  0  0
 19 44  1  0  0  0
 20 24  1  0  0  0
 20 21  1  0  0  0
 21 22  2  0  0  0
 21 25  1  0  0  0
 22 23  1  0  0  0
 22 45  1  0  0  0
 23 24  2  0  0  0
 25 30  2  0  0  0
 25 26  1  0  0  0
 26 27  2  0  0  0
 26 46  1  0  0  0
 27 28  1  0  0  0
 27 47  1  0  0  0
 28 29  2  0  0  0
 28 31  1  0  0  0
 29 30  1  0  0  0
 29 48  1  0  0  0
 30 49  1  0  0  0
M  END
> <i_i_glide_confnum>
29

> <i_i_glide_lignum>
2778

> <i_i_glide_posenum>
80

> <i_i_glide_rotatable_bonds>
7

> <i_m_Source_File_Index>
739

> <b_m_subgroup_collapsed>
0

> <r_i_docking_score>
-5.17733

> <r_i_glide_ecoul>
-4.63057

> <r_i_glide_eff_state_penalty>
0

> <r_i_glide_einternal>
7.73174

> <r_i_glide_emodel>
-55.3122

> <r_i_glide_energy>
-44.0424

> <r_i_glide_erotb>
0.639958

> <r_i_glide_esite>
-0.0239855

> <r_i_glide_evdw>
-39.4118

> <r_i_glide_gscore>
-5.17733

> <r_i_glide_hbond>
-0.145174

> <r_i_glide_ligand_efficiency>
-0.167011

> <r_i_glide_ligand_efficiency_ln>
-1.16765

> <r_i_glide_ligand_efficiency_sa>
-0.524644

> <r_i_glide_lipo>
-2.39154

> <r_i_glide_metal>
0

> <r_i_glide_rewards>
-0.591416

> <s_i_glide_gridfile>
wee1_glide-grid

> <s_m_Source_File>
wee1_decoys_glide_SP.sdf

> <s_m_Source_Path>
/Users/zhangxujun/Desktop

> <s_m_entry_id>
1014

> <s_m_entry_name>
wee1_decoys_glide_SP.739

> <s_m_subgroup_title>
wee1_decoys_glide_SP

> <s_m_subgroupid>
wee1_decoys_glide_SP


$$$$
