ZINC16568881_5984
                    3D
 Schrodinger Suite 2024-2.
 63 67  0  0  1  0            999 V2000
    1.3354   50.3760   21.7657 C   0  0  0  0  0  0
    2.4237   51.4278   21.6548 C   0  0  0  0  0  0
    3.5287   51.1970   20.8332 C   0  0  0  0  0  0
    4.5420   52.1477   20.7383 C   0  0  0  0  0  0
    4.4360   53.3431   21.4565 C   0  0  0  0  0  0
    3.3083   53.5972   22.2441 C   0  0  0  0  0  0
    2.3088   52.6350   22.3513 C   0  0  0  0  0  0
    5.4603   54.3055   21.3547 N   0  0  0  0  0  0
    5.7971   55.0722   20.2536 C   0  0  0  0  0  0
    6.7541   55.9187   20.5528 N   0  0  0  0  0  0
    7.1040   55.6966   21.8763 N   0  0  0  0  0  0
    6.3178   54.7608   22.3418 C   0  0  0  0  0  0
    6.4957   54.0965   23.9606 S   0  0  0  0  0  0
    5.3452   55.1894   24.8257 C   0  0  0  0  0  0
    4.9846   54.6414   26.1914 C   0  0  0  0  0  0
    5.8714   54.8063   27.2554 C   0  0  0  0  0  0
    5.5219   54.3467   28.5189 C   0  0  0  0  0  0
    4.2981   53.7111   28.7159 C   0  0  0  0  0  0
    3.4099   53.5432   27.6561 C   0  0  0  0  0  0
    3.7521   54.0112   26.3907 C   0  0  0  0  0  0
    5.2038   54.8941   18.8522 C   0  0  1  0  0  0
    4.2601   54.3517   18.9368 H   0  0  0  0  0  0
    4.8445   56.2326   18.1681 C   0  0  0  0  0  0
    6.0588   54.0271   18.0224 N   0  0  0  0  0  0
    7.2928   54.3141   17.5659 C   0  0  0  0  0  0
    7.7793   55.4437   17.5818 O   0  0  0  0  0  0
    7.9267   53.2122   17.1224 N   0  0  0  0  0  0
    9.2808   53.0860   16.7371 C   0  0  0  0  0  0
   10.2872   53.8975   17.2826 C   0  0  0  0  0  0
   11.6231   53.7153   16.9528 C   0  0  0  0  0  0
   12.0061   52.7003   16.0874 C   0  0  0  0  0  0
   11.0372   51.8401   15.5200 C   0  0  0  0  0  0
    9.6543   52.0317   15.8404 C   0  0  0  0  0  0
    8.7049   51.1640   15.2296 C   0  0  0  0  0  0
    9.1071   50.1463   14.3693 C   0  0  0  0  0  0
   10.4525   49.9596   14.0815 C   0  0  0  0  0  0
   11.4143   50.7945   14.6387 C   0  0  0  0  0  0
    1.1255   49.9452   20.7871 H   0  0  0  0  0  0
    1.6525   49.5712   22.4307 H   0  0  0  0  0  0
    0.4010   50.7994   22.1335 H   0  0  0  0  0  0
    3.6039   50.2798   20.2654 H   0  0  0  0  0  0
    5.3949   51.9520   20.1013 H   0  0  0  0  0  0
    3.1806   54.5421   22.7469 H   0  0  0  0  0  0
    1.4422   52.8315   22.9665 H   0  0  0  0  0  0
    5.7881   56.1799   24.9247 H   0  0  0  0  0  0
    4.4375   55.2967   24.2419 H   0  0  0  0  0  0
    6.8207   55.3016   27.1137 H   0  0  0  0  0  0
    6.2102   54.4967   29.3352 H   0  0  0  0  0  0
    4.0361   53.3497   29.6984 H   0  0  0  0  0  0
    2.4605   53.0517   27.8143 H   0  0  0  0  0  0
    3.0631   53.8768   25.5691 H   0  0  0  0  0  0
    4.0465   56.7488   18.6977 H   0  0  0  0  0  0
    5.6958   56.9143   18.1249 H   0  0  0  0  0  0
    4.5012   56.0750   17.1447 H   0  0  0  0  0  0
    5.6706   53.1230   17.7925 H   0  0  0  0  0  0
    7.3935   52.3565   17.0943 H   0  0  0  0  0  0
   10.0524   54.6735   17.9964 H   0  0  0  0  0  0
   12.3690   54.3598   17.3945 H   0  0  0  0  0  0
   13.0486   52.5626   15.8441 H   0  0  0  0  0  0
    7.6519   51.2961   15.4269 H   0  0  0  0  0  0
    8.3720   49.4955   13.9182 H   0  0  0  0  0  0
   10.7537   49.1759   13.4015 H   0  0  0  0  0  0
   12.4576   50.6481   14.3930 H   0  0  0  0  0  0
  1  2  1  0  0  0
  1 38  1  0  0  0
  1 39  1  0  0  0
  1 40  1  0  0  0
  2  7  2  0  0  0
  2  3  1  0  0  0
  3  4  2  0  0  0
  3 41  1  0  0  0
  4  5  1  0  0  0
  4 42  1  0  0  0
  5  6  2  0  0  0
  5  8  1  0  0  0
  6  7  1  0  0  0
  6 43  1  0  0  0
  7 44  1  0  0  0
  8 12  1  0  0  0
  8  9  1  0  0  0
  9 10  2  0  0  0
  9 21  1  0  0  0
 10 11  1  0  0  0
 11 12  2  0  0  0
 12 13  1  0  0  0
 13 14  1  0  0  0
 14 15  1  0  0  0
 14 45  1  0  0  0
 14 46  1  0  0  0
 15 20  2  0  0  0
 15 16  1  0  0  0
 16 17  2  0  0  0
 16 47  1  0  0  0
 17 18  1  0  0  0
 17 48  1  0  0  0
 18 19  2  0  0  0
 18 49  1  0  0  0
 19 20  1  0  0  0
 19 50  1  0  0  0
 20 51  1  0  0  0
 21 22  1  0  0  0
 21 23  1  0  0  0
 21 24  1  0  0  0
 23 52  1  0  0  0
 23 53  1  0  0  0
 23 54  1  0  0  0
 24 25  1  0  0  0
 24 55  1  0  0  0
 25 26  2  0  0  0
 25 27  1  0  0  0
 27 28  1  0  0  0
 27 56  1  0  0  0
 28 33  2  0  0  0
 28 29  1  0  0  0
 29 30  2  0  0  0
 29 57  1  0  0  0
 30 31  1  0  0  0
 30 58  1  0  0  0
 31 32  2  0  0  0
 31 59  1  0  0  0
 32 37  1  0  0  0
 32 33  1  0  0  0
 33 34  1  0  0  0
 34 35  2  0  0  0
 34 60  1  0  0  0
 35 36  1  0  0  0
 35 61  1  0  0  0
 36 37  2  0  0  0
 36 62  1  0  0  0
 37 63  1  0  0  0
M  END
> <i_i_glide_confnum>
111

> <i_i_glide_lignum>
5985

> <i_i_glide_posenum>
9

> <i_i_glide_rotatable_bonds>
9

> <i_m_Source_File_Index>
3495

> <b_m_subgroup_collapsed>
0

> <r_i_docking_score>
-6.07885

> <r_i_glide_ecoul>
-1.09495

> <r_i_glide_eff_state_penalty>
0

> <r_i_glide_einternal>
2.41255

> <r_i_glide_emodel>
-70.9361

> <r_i_glide_energy>
-51.7305

> <r_i_glide_erotb>
0.668881

> <r_i_glide_esite>
-0.0198644

> <r_i_glide_evdw>
-50.6356

> <r_i_glide_gscore>
-6.07885

> <r_i_glide_hbond>
0

> <r_i_glide_ligand_efficiency>
-0.168857

> <r_i_glide_ligand_efficiency_ln>
-1.32624

> <r_i_glide_ligand_efficiency_sa>
-0.557553

> <r_i_glide_lipo>
-3.12364

> <r_i_glide_metal>
0

> <r_i_glide_rewards>
-0.908202

> <s_i_glide_gridfile>
wee1_glide-grid

> <s_m_Source_File>
wee1_decoys_glide_SP.sdf

> <s_m_Source_Path>
/Users/zhangxujun/Desktop

> <s_m_entry_id>
3770

> <s_m_entry_name>
wee1_decoys_glide_SP.3495

> <s_m_subgroup_title>
wee1_decoys_glide_SP

> <s_m_subgroupid>
wee1_decoys_glide_SP


$$$$
