ZINC47746511_225
                    3D
 Schrodinger Suite 2024-2.
 69 71  0  0  1  0            999 V2000
    2.6433   59.5336   15.9798 C   0  0  0  0  0  0
    3.5661   58.4977   15.2852 N   0  3  0  0  0  0
    4.9891   59.1171   15.2515 C   0  0  0  0  0  0
    3.4546   57.0122   15.7793 C   0  0  0  0  0  0
    4.2695   56.1180   14.7889 C   0  0  0  0  0  0
    4.0736   54.6092   15.0416 C   0  0  0  0  0  0
    2.5881   54.2132   14.9438 C   0  0  0  0  0  0
    1.6930   55.0833   15.8458 C   0  0  0  0  0  0
    1.9503   56.5961   15.6487 C   0  0  0  0  0  0
    3.9278   56.8984   17.2647 C   0  0  0  0  0  0
    5.3841   56.8553   17.4544 N   0  0  0  0  0  0
    6.0987   56.1156   18.3167 C   0  0  0  0  0  0
    7.3235   56.0938   18.2424 O   0  0  0  0  0  0
    5.4030   55.4783   19.2793 N   0  0  0  0  0  0
    5.9716   54.9016   20.4945 C   0  0  0  0  0  0
    6.7793   55.8798   21.3712 C   0  0  0  0  0  0
    7.3076   55.2711   22.6772 C   0  0  0  0  0  0
    6.2086   54.6085   23.4008 N   0  0  0  0  0  0
    5.5520   53.5114   22.6621 C   0  0  0  0  0  0
    4.9710   54.0884   21.3461 C   0  0  0  0  0  0
    6.0392   54.8463   24.7347 C   0  0  0  0  0  0
    6.7070   55.6966   25.3295 O   0  0  0  0  0  0
    4.9414   54.0977   25.5378 C   0  0  0  0  0  0
    5.1340   54.2621   27.0733 C   0  0  0  0  0  0
    4.0339   53.5032   27.8429 C   0  0  0  0  0  0
    2.6164   53.8941   27.3791 C   0  0  0  0  0  0
    2.4558   53.7638   25.8506 C   0  0  0  0  0  0
    3.5330   54.5584   25.0845 C   0  0  0  0  0  0
    3.0214   59.6965   16.9910 H   0  0  0  0  0  0
    2.7045   60.4588   15.4047 H   0  0  0  0  0  0
    1.6110   59.1957   15.9856 H   0  0  0  0  0  0
    5.3366   59.2529   16.2779 H   0  0  0  0  0  0
    5.6586   58.4813   14.6739 H   0  0  0  0  0  0
    4.9097   60.0939   14.7694 H   0  0  0  0  0  0
    3.9549   56.3314   13.7651 H   0  0  0  0  0  0
    5.3341   56.3481   14.8126 H   0  0  0  0  0  0
    4.6554   54.0333   14.3203 H   0  0  0  0  0  0
    4.4654   54.3394   16.0237 H   0  0  0  0  0  0
    2.2584   54.3086   13.9092 H   0  0  0  0  0  0
    2.4672   53.1605   15.2025 H   0  0  0  0  0  0
    0.6451   54.8610   15.6392 H   0  0  0  0  0  0
    1.8427   54.8014   16.8876 H   0  0  0  0  0  0
    1.3241   57.1381   16.3570 H   0  0  0  0  0  0
    1.5848   56.8635   14.6545 H   0  0  0  0  0  0
    3.5076   55.9832   17.6790 H   0  0  0  0  0  0
    3.5048   57.6910   17.8733 H   0  0  0  0  0  0
    5.9242   57.4690   16.8645 H   0  0  0  0  0  0
    4.3963   55.5035   19.2286 H   0  0  0  0  0  0
    6.6967   54.1702   20.1331 H   0  0  0  0  0  0
    6.1605   56.7378   21.6258 H   0  0  0  0  0  0
    7.6384   56.2667   20.8205 H   0  0  0  0  0  0
    7.7881   56.0666   23.2515 H   0  0  0  0  0  0
    8.0412   54.4982   22.4588 H   0  0  0  0  0  0
    6.3043   52.7533   22.4469 H   0  0  0  0  0  0
    4.7472   53.0272   23.2093 H   0  0  0  0  0  0
    4.5548   53.2701   20.7554 H   0  0  0  0  0  0
    4.1311   54.7315   21.6175 H   0  0  0  0  0  0
    5.1104   53.0529   25.3123 H   0  0  0  0  0  0
    5.0276   55.2992   27.3758 H   0  0  0  0  0  0
    6.0917   53.8528   27.4020 H   0  0  0  0  0  0
    4.1407   53.6780   28.9134 H   0  0  0  0  0  0
    4.1750   52.4334   27.7004 H   0  0  0  0  0  0
    2.4073   54.9209   27.6811 H   0  0  0  0  0  0
    1.8748   53.2739   27.8842 H   0  0  0  0  0  0
    1.4651   54.0967   25.5468 H   0  0  0  0  0  0
    2.5127   52.7112   25.5701 H   0  0  0  0  0  0
    3.3377   54.3752   24.0277 H   0  0  0  0  0  0
    3.3914   55.6124   25.3108 H   0  0  0  0  0  0
    3.2612   58.4656   14.3219 H   0  0  0  0  0  0
  1  2  1  0  0  0
  1 29  1  0  0  0
  1 30  1  0  0  0
  1 31  1  0  0  0
  2  3  1  0  0  0
  2  4  1  0  0  0
  2 69  1  0  0  0
  3 32  1  0  0  0
  3 33  1  0  0  0
  3 34  1  0  0  0
  4  9  1  0  0  0
  4  5  1  0  0  0
  4 10  1  0  0  0
  5  6  1  0  0  0
  5 35  1  0  0  0
  5 36  1  0  0  0
  6  7  1  0  0  0
  6 37  1  0  0  0
  6 38  1  0  0  0
  7  8  1  0  0  0
  7 39  1  0  0  0
  7 40  1  0  0  0
  8  9  1  0  0  0
  8 41  1  0  0  0
  8 42  1  0  0  0
  9 43  1  0  0  0
  9 44  1  0  0  0
 10 11  1  0  0  0
 10 45  1  0  0  0
 10 46  1  0  0  0
 11 12  1  0  0  0
 11 47  1  0  0  0
 12 13  2  0  0  0
 12 14  1  0  0  0
 14 15  1  0  0  0
 14 48  1  0  0  0
 15 20  1  0  0  0
 15 16  1  0  0  0
 15 49  1  0  0  0
 16 17  1  0  0  0
 16 50  1  0  0  0
 16 51  1  0  0  0
 17 18  1  0  0  0
 17 52  1  0  0  0
 17 53  1  0  0  0
 18 19  1  0  0  0
 18 21  1  0  0  0
 19 20  1  0  0  0
 19 54  1  0  0  0
 19 55  1  0  0  0
 20 56  1  0  0  0
 20 57  1  0  0  0
 21 22  2  0  0  0
 21 23  1  0  0  0
 23 28  1  0  0  0
 23 24  1  0  0  0
 23 58  1  0  0  0
 24 25  1  0  0  0
 24 59  1  0  0  0
 24 60  1  0  0  0
 25 26  1  0  0  0
 25 61  1  0  0  0
 25 62  1  0  0  0
 26 27  1  0  0  0
 26 63  1  0  0  0
 26 64  1  0  0  0
 27 28  1  0  0  0
 27 65  1  0  0  0
 27 66  1  0  0  0
 28 67  1  0  0  0
 28 68  1  0  0  0
M  CHG  1   2   1
M  END
> <i_i_glide_confnum>
405

> <i_i_glide_lignum>
226

> <i_i_glide_posenum>
97

> <i_i_glide_rotatable_bonds>
8

> <i_m_Source_File_Index>
2610

> <b_m_subgroup_collapsed>
0

> <r_i_docking_score>
-4.92284

> <r_i_glide_ecoul>
-7.32617

> <r_i_glide_eff_state_penalty>
0

> <r_i_glide_einternal>
6.97803

> <r_i_glide_emodel>
-40.5873

> <r_i_glide_energy>
-33.6044

> <r_i_glide_erotb>
0.882796

> <r_i_glide_esite>
-0.046823

> <r_i_glide_evdw>
-26.2782

> <r_i_glide_gscore>
-4.92284

> <r_i_glide_hbond>
-0.27222

> <r_i_glide_ligand_efficiency>
-0.175816

> <r_i_glide_ligand_efficiency_ln>
-1.13634

> <r_i_glide_ligand_efficiency_sa>
-0.53388

> <r_i_glide_lipo>
-2.17839

> <r_i_glide_metal>
0

> <r_i_glide_rewards>
-0.895362

> <s_i_glide_gridfile>
wee1_glide-grid

> <s_m_Source_File>
wee1_decoys_glide_SP.sdf

> <s_m_Source_Path>
/Users/zhangxujun/Desktop

> <s_m_entry_id>
2885

> <s_m_entry_name>
wee1_decoys_glide_SP.2610

> <s_m_subgroup_title>
wee1_decoys_glide_SP

> <s_m_subgroupid>
wee1_decoys_glide_SP


$$$$
