ZINC39773872_751
                    3D
 Schrodinger Suite 2024-2.
 58 62  0  0  1  0            999 V2000
    1.0066   49.9196   18.8418 C   0  0  0  0  0  0
    2.1216   50.9349   18.4777 C   0  0  1  0  0  0
    2.6441   50.4951   17.6285 H   0  0  0  0  0  0
    1.6379   52.2783   17.8503 C   0  0  0  0  0  0
    0.3651   52.4508   17.6964 N   0  0  0  0  0  0
   -0.1283   53.6576   17.1703 C   0  0  0  0  0  0
   -1.3117   53.9005   16.9424 O   0  0  0  0  0  0
    0.8861   54.6970   16.8819 C   0  0  0  0  0  0
    0.7688   55.9682   16.4268 C   0  0  0  0  0  0
    2.0716   56.7245   16.2429 C   0  0  0  0  0  0
    3.4273   55.6422   16.7251 S   0  0  0  0  0  0
    2.2738   54.3379   17.0963 C   0  0  0  0  0  0
    2.6484   53.1901   17.5258 N   0  0  0  0  0  0
   -0.4652   56.6568   16.0923 C   0  0  0  0  0  0
   -0.8243   57.1689   14.8479 C   0  0  0  0  0  0
   -2.0959   57.7482   14.8383 C   0  0  0  0  0  0
   -2.7085   57.6986   16.0812 C   0  0  0  0  0  0
   -1.6959   56.9629   17.2812 S   0  0  0  0  0  0
    3.1042   51.0082   19.5758 N   0  0  0  0  0  0
    2.9803   52.0840   20.5633 C   0  0  2  0  0  0
    4.2491   52.1753   21.4182 C   0  0  0  0  0  0
    4.1982   53.3666   22.3866 C   0  0  0  0  0  0
    2.9567   53.2282   23.3090 N   0  3  2  0  0  0
    1.6415   53.1187   22.5068 C   0  0  0  0  0  0
    1.7498   51.9660   21.4884 C   0  0  0  0  0  0
    2.8725   54.3912   24.3253 C   0  0  0  0  0  0
    3.9160   54.3012   25.4250 C   0  0  0  0  0  0
    3.5920   53.6962   26.6410 C   0  0  0  0  0  0
    4.5717   53.5339   27.6164 C   0  0  0  0  0  0
    5.8669   53.9827   27.3693 C   0  0  0  0  0  0
    6.1803   54.6372   26.1817 C   0  0  0  0  0  0
    5.1993   54.8120   25.2149 C   0  0  0  0  0  0
    7.1047   53.6969   28.5266 Cl  0  0  0  0  0  0
    0.5854   49.4721   17.9402 H   0  0  0  0  0  0
    1.3861   49.1006   19.4552 H   0  0  0  0  0  0
    0.1789   50.3756   19.3842 H   0  0  0  0  0  0
    2.2222   57.0288   15.2068 H   0  0  0  0  0  0
    2.0997   57.6231   16.8616 H   0  0  0  0  0  0
   -0.1951   57.1014   13.9713 H   0  0  0  0  0  0
   -2.5532   58.1795   13.9582 H   0  0  0  0  0  0
   -3.6891   58.0612   16.3488 H   0  0  0  0  0  0
    4.0284   50.9767   19.1231 H   0  0  0  0  0  0
    2.9146   53.0500   20.0633 H   0  0  0  0  0  0
    4.4042   51.2469   21.9669 H   0  0  0  0  0  0
    5.1175   52.2911   20.7666 H   0  0  0  0  0  0
    4.1323   54.3270   21.8698 H   0  0  0  0  0  0
    5.0844   53.3369   23.0202 H   0  0  0  0  0  0
    1.4697   54.0960   22.0625 H   0  0  0  0  0  0
    0.8503   52.9008   23.2278 H   0  0  0  0  0  0
    0.8409   51.9637   20.8886 H   0  0  0  0  0  0
    1.7723   51.0104   22.0131 H   0  0  0  0  0  0
    2.9709   55.2966   23.7321 H   0  0  0  0  0  0
    1.8654   54.3602   24.7467 H   0  0  0  0  0  0
    2.5985   53.3124   26.8189 H   0  0  0  0  0  0
    4.3364   53.0298   28.5428 H   0  0  0  0  0  0
    7.1830   54.9831   25.9971 H   0  0  0  0  0  0
    5.4573   55.2975   24.2857 H   0  0  0  0  0  0
    3.0647   52.3669   23.8273 H   0  0  0  0  0  0
  1  2  1  0  0  0
  1 34  1  0  0  0
  1 35  1  0  0  0
  1 36  1  0  0  0
  2  3  1  0  0  0
  2  4  1  0  0  0
  2 19  1  0  0  0
  4 13  1  0  0  0
  4  5  2  0  0  0
  5  6  1  0  0  0
  6  7  2  0  0  0
  6  8  1  0  0  0
  8 12  1  0  0  0
  8  9  2  0  0  0
  9 10  1  0  0  0
  9 14  1  0  0  0
 10 11  1  0  0  0
 10 37  1  0  0  0
 10 38  1  0  0  0
 11 12  1  0  0  0
 12 13  2  0  0  0
 14 18  1  0  0  0
 14 15  2  0  0  0
 15 16  1  0  0  0
 15 39  1  0  0  0
 16 17  2  0  0  0
 16 40  1  0  0  0
 17 18  1  0  0  0
 17 41  1  0  0  0
 19 20  1  0  0  0
 19 42  1  0  0  0
 20 25  1  0  0  0
 20 21  1  0  0  0
 20 43  1  0  0  0
 21 22  1  0  0  0
 21 44  1  0  0  0
 21 45  1  0  0  0
 22 23  1  0  0  0
 22 46  1  0  0  0
 22 47  1  0  0  0
 23 24  1  0  0  0
 23 26  1  0  0  0
 23 58  1  0  0  0
 24 25  1  0  0  0
 24 48  1  0  0  0
 24 49  1  0  0  0
 25 50  1  0  0  0
 25 51  1  0  0  0
 26 27  1  0  0  0
 26 52  1  0  0  0
 26 53  1  0  0  0
 27 32  2  0  0  0
 27 28  1  0  0  0
 28 29  2  0  0  0
 28 54  1  0  0  0
 29 30  1  0  0  0
 29 55  1  0  0  0
 30 31  2  0  0  0
 30 33  1  0  0  0
 31 32  1  0  0  0
 31 56  1  0  0  0
 32 57  1  0  0  0
M  CHG  1  23   1
M  END
> <i_i_glide_confnum>
174

> <i_i_glide_lignum>
752

> <i_i_glide_posenum>
397

> <i_i_glide_rotatable_bonds>
6

> <i_m_Source_File_Index>
1773

> <b_m_subgroup_collapsed>
0

> <r_i_docking_score>
-4.73467

> <r_i_glide_ecoul>
-3.23797

> <r_i_glide_eff_state_penalty>
0

> <r_i_glide_einternal>
5.98889

> <r_i_glide_emodel>
-54.4298

> <r_i_glide_energy>
-42.1921

> <r_i_glide_erotb>
0.516015

> <r_i_glide_esite>
-0.0304234

> <r_i_glide_evdw>
-38.9541

> <r_i_glide_gscore>
-4.73467

> <r_i_glide_hbond>
-0.16

> <r_i_glide_ligand_efficiency>
-0.147959

> <r_i_glide_ligand_efficiency_ln>
-1.06022

> <r_i_glide_ligand_efficiency_sa>
-0.469739

> <r_i_glide_lipo>
-2.44025

> <r_i_glide_metal>
0

> <r_i_glide_rewards>
-0.186616

> <s_i_glide_gridfile>
wee1_glide-grid

> <s_m_Source_File>
wee1_decoys_glide_SP.sdf

> <s_m_Source_Path>
/Users/zhangxujun/Desktop

> <s_m_entry_id>
2048

> <s_m_entry_name>
wee1_decoys_glide_SP.1773

> <s_m_subgroup_title>
wee1_decoys_glide_SP

> <s_m_subgroupid>
wee1_decoys_glide_SP


$$$$
