ZINC36534616_5204
                    3D
 Schrodinger Suite 2024-2.
 72 75  0  0  1  0            999 V2000
    5.8772   53.4046   22.2131 C   0  0  0  0  0  0
    4.5485   53.9329   22.8196 C   0  0  2  0  0  0
    4.3407   54.9013   22.3658 H   0  0  0  0  0  0
    4.8239   54.2627   24.3176 C   0  0  0  0  0  0
    4.1192   53.6929   25.3780 C   0  0  0  0  0  0
    4.4769   53.9171   26.7058 C   0  0  0  0  0  0
    5.5782   54.7077   26.9936 C   0  0  0  0  0  0
    6.2905   55.2991   25.9609 C   0  0  0  0  0  0
    5.8930   55.1144   24.6418 C   0  0  0  0  0  0
    3.3522   52.9460   22.4032 C   0  0  2  0  0  0
    3.7634   51.9438   22.4816 H   0  0  0  0  0  0
    3.1225   52.8947   20.8604 C   0  0  0  0  0  0
    3.6878   53.6937   20.1130 O   0  0  0  0  0  0
    2.3205   51.9115   20.4145 N   0  0  0  0  0  0
    1.9911   51.6392   19.0168 C   0  0  0  0  0  0
    1.4212   50.2132   18.8159 C   0  0  0  0  0  0
    1.0075   49.9032   17.3630 C   0  0  0  0  0  0
    0.0885   50.9880   16.7753 C   0  0  0  0  0  0
    0.7395   52.3769   16.8702 C   0  0  0  0  0  0
    1.1442   52.7352   18.3151 C   0  0  0  0  0  0
    2.0327   53.0454   23.1371 N   0  0  0  0  0  0
    1.5508   54.4227   23.3120 C   0  0  0  0  0  0
    1.3558   51.8999   23.5208 C   0  0  0  0  0  0
    1.9072   50.8159   23.3130 O   0  0  0  0  0  0
   -0.0978   51.8234   24.1909 C   0  0  0  0  0  0
   -0.7343   50.4424   23.7962 C   0  0  0  0  0  0
   -1.7467   50.3411   22.8271 C   0  0  0  0  0  0
   -2.2925   49.1035   22.4917 C   0  0  0  0  0  0
   -1.8391   47.9504   23.1273 C   0  0  0  0  0  0
   -0.8369   48.0236   24.0902 C   0  0  0  0  0  0
   -0.2772   49.2572   24.4042 C   0  0  0  0  0  0
   -0.0572   52.0001   25.7452 C   0  0  0  0  0  0
   -0.9997   51.3459   26.5632 C   0  0  0  0  0  0
   -0.9710   51.4742   27.9487 C   0  0  0  0  0  0
   -0.0278   52.3014   28.5462 C   0  0  0  0  0  0
    0.8743   53.0133   27.7639 C   0  0  0  0  0  0
    0.8464   52.8713   26.3784 C   0  0  0  0  0  0
   -0.9085   52.8741   23.6841 O   0  0  0  0  0  0
    6.7495   53.9896   22.4957 H   0  0  0  0  0  0
    6.0675   52.3829   22.5417 H   0  0  0  0  0  0
    5.9032   53.4140   21.1260 H   0  0  0  0  0  0
    3.3739   52.9457   25.1904 H   0  0  0  0  0  0
    3.9386   53.4293   27.5027 H   0  0  0  0  0  0
    5.8781   54.8703   28.0200 H   0  0  0  0  0  0
    7.1186   55.9513   26.1845 H   0  0  0  0  0  0
    6.4530   55.6169   23.8672 H   0  0  0  0  0  0
    1.9017   51.2979   21.1007 H   0  0  0  0  0  0
    2.9402   51.6307   18.4715 H   0  0  0  0  0  0
    0.5387   50.0953   19.4445 H   0  0  0  0  0  0
    2.1503   49.4731   19.1462 H   0  0  0  0  0  0
    0.5141   48.9303   17.3169 H   0  0  0  0  0  0
    1.9017   49.8126   16.7411 H   0  0  0  0  0  0
   -0.8628   50.9881   17.3110 H   0  0  0  0  0  0
   -0.1421   50.7555   15.7338 H   0  0  0  0  0  0
    0.0610   53.1354   16.4754 H   0  0  0  0  0  0
    1.6264   52.4030   16.2314 H   0  0  0  0  0  0
    1.6757   53.6868   18.3078 H   0  0  0  0  0  0
    0.2326   52.8903   18.8915 H   0  0  0  0  0  0
    2.2859   55.0201   23.8543 H   0  0  0  0  0  0
    1.4197   54.8883   22.3386 H   0  0  0  0  0  0
    0.6127   54.5252   23.8501 H   0  0  0  0  0  0
   -2.1131   51.2195   22.3166 H   0  0  0  0  0  0
   -3.0706   49.0356   21.7451 H   0  0  0  0  0  0
   -2.2690   46.9932   22.8723 H   0  0  0  0  0  0
   -0.4865   47.1331   24.5908 H   0  0  0  0  0  0
    0.5122   49.2909   25.1412 H   0  0  0  0  0  0
   -1.7559   50.6990   26.1422 H   0  0  0  0  0  0
   -1.6723   50.9148   28.5544 H   0  0  0  0  0  0
   -0.0067   52.3973   29.6226 H   0  0  0  0  0  0
    1.5840   53.6823   28.2284 H   0  0  0  0  0  0
    1.5116   53.4856   25.8069 H   0  0  0  0  0  0
   -0.7458   53.6521   24.2225 H   0  0  0  0  0  0
  1  2  1  0  0  0
  1 39  1  0  0  0
  1 40  1  0  0  0
  1 41  1  0  0  0
  2  3  1  0  0  0
  2  4  1  0  0  0
  2 10  1  0  0  0
  4  9  2  0  0  0
  4  5  1  0  0  0
  5  6  2  0  0  0
  5 42  1  0  0  0
  6  7  1  0  0  0
  6 43  1  0  0  0
  7  8  2  0  0  0
  7 44  1  0  0  0
  8  9  1  0  0  0
  8 45  1  0  0  0
  9 46  1  0  0  0
 10 11  1  0  0  0
 10 12  1  0  0  0
 10 21  1  0  0  0
 12 13  2  0  0  0
 12 14  1  0  0  0
 14 15  1  0  0  0
 14 47  1  0  0  0
 15 20  1  0  0  0
 15 16  1  0  0  0
 15 48  1  0  0  0
 16 17  1  0  0  0
 16 49  1  0  0  0
 16 50  1  0  0  0
 17 18  1  0  0  0
 17 51  1  0  0  0
 17 52  1  0  0  0
 18 19  1  0  0  0
 18 53  1  0  0  0
 18 54  1  0  0  0
 19 20  1  0  0  0
 19 55  1  0  0  0
 19 56  1  0  0  0
 20 57  1  0  0  0
 20 58  1  0  0  0
 21 22  1  0  0  0
 21 23  1  0  0  0
 22 59  1  0  0  0
 22 60  1  0  0  0
 22 61  1  0  0  0
 23 24  2  0  0  0
 23 25  1  0  0  0
 25 26  1  0  0  0
 25 32  1  0  0  0
 25 38  1  0  0  0
 26 31  2  0  0  0
 26 27  1  0  0  0
 27 28  2  0  0  0
 27 62  1  0  0  0
 28 29  1  0  0  0
 28 63  1  0  0  0
 29 30  2  0  0  0
 29 64  1  0  0  0
 30 31  1  0  0  0
 30 65  1  0  0  0
 31 66  1  0  0  0
 32 37  2  0  0  0
 32 33  1  0  0  0
 33 34  2  0  0  0
 33 67  1  0  0  0
 34 35  1  0  0  0
 34 68  1  0  0  0
 35 36  2  0  0  0
 35 69  1  0  0  0
 36 37  1  0  0  0
 36 70  1  0  0  0
 37 71  1  0  0  0
 38 72  1  0  0  0
M  END
> <i_i_glide_confnum>
48

> <i_i_glide_lignum>
5205

> <i_i_glide_posenum>
239

> <i_i_glide_rotatable_bonds>
11

> <i_m_Source_File_Index>
3472

> <b_m_subgroup_collapsed>
0

> <r_i_docking_score>
-3.53662

> <r_i_glide_ecoul>
2.13656

> <r_i_glide_eff_state_penalty>
0

> <r_i_glide_einternal>
16.4963

> <r_i_glide_emodel>
-34.6585

> <r_i_glide_energy>
-34.7134

> <r_i_glide_erotb>
0.691777

> <r_i_glide_esite>
-0.0098534

> <r_i_glide_evdw>
-36.8499

> <r_i_glide_gscore>
-3.53662

> <r_i_glide_hbond>
0

> <r_i_glide_ligand_efficiency>
-0.0982394

> <r_i_glide_ligand_efficiency_ln>
-0.771594

> <r_i_glide_ligand_efficiency_sa>
-0.324379

> <r_i_glide_lipo>
-2.41629

> <r_i_glide_metal>
0

> <r_i_glide_rewards>
-0.280237

> <s_i_glide_gridfile>
wee1_glide-grid

> <s_m_Source_File>
wee1_decoys_glide_SP.sdf

> <s_m_Source_Path>
/Users/zhangxujun/Desktop

> <s_m_entry_id>
3747

> <s_m_entry_name>
wee1_decoys_glide_SP.3472

> <s_m_subgroup_title>
wee1_decoys_glide_SP

> <s_m_subgroupid>
wee1_decoys_glide_SP


$$$$
