ZINC27637487_2054
                    3D
 Schrodinger Suite 2024-2.
 59 62  0  0  1  0            999 V2000
    8.1914   57.0096   17.9257 C   0  0  0  0  0  0
    8.1598   55.4683   17.9773 C   0  0  0  0  0  0
    9.4491   54.8944   18.5840 C   0  0  0  0  0  0
    6.9313   54.9117   18.6970 C   0  0  0  0  0  0
    6.2335   53.8434   18.1296 C   0  0  0  0  0  0
    5.1305   53.3025   18.7829 C   0  0  0  0  0  0
    4.7320   53.8201   20.0184 C   0  0  0  0  0  0
    5.4211   54.8915   20.5890 C   0  0  0  0  0  0
    6.5219   55.4310   19.9324 C   0  0  0  0  0  0
    3.6181   53.2966   20.6882 N   0  0  0  0  0  0
    3.4808   52.0045   21.0633 C   0  0  0  0  0  0
    4.3479   51.1525   20.8817 O   0  0  0  0  0  0
    2.2176   51.6425   21.8113 C   0  0  0  0  0  0
    2.1860   50.4918   22.6129 C   0  0  0  0  0  0
    1.0550   50.1811   23.3609 C   0  0  0  0  0  0
   -0.0677   51.0156   23.3169 C   0  0  0  0  0  0
   -0.0651   52.1175   22.4711 C   0  0  0  0  0  0
    1.0656   52.4320   21.7263 C   0  0  0  0  0  0
   -1.2259   50.8162   24.0771 N   0  0  0  0  0  0
   -1.2874   50.0651   25.6815 S   0  0  0  0  0  0
   -2.7160   49.9704   26.0002 O   0  0  0  0  0  0
   -0.4464   48.8665   25.6498 O   0  0  0  0  0  0
   -0.5585   51.2137   26.8613 C   0  0  0  0  0  0
   -1.0968   51.2968   28.1433 C   0  0  0  0  0  0
   -0.4931   52.0996   29.1080 C   0  0  0  0  0  0
    0.6366   52.8629   28.8071 C   0  0  0  0  0  0
    1.1795   52.7977   27.4957 C   0  0  0  0  0  0
    0.5816   51.9611   26.5491 C   0  0  0  0  0  0
    2.3269   53.4598   27.1014 O   0  0  0  0  0  0
    3.3774   53.5921   28.0519 C   0  0  0  0  0  0
    3.1590   54.7763   29.0015 C   0  0  0  0  0  0
    1.6975   54.9270   29.4436 C   0  0  0  0  0  0
    1.1179   53.6806   29.8113 O   0  0  0  0  0  0
    7.2573   57.4095   17.5245 H   0  0  0  0  0  0
    8.9988   57.3653   17.2843 H   0  0  0  0  0  0
    8.3466   57.4532   18.9110 H   0  0  0  0  0  0
    8.1163   55.1385   16.9374 H   0  0  0  0  0  0
    9.4857   53.8078   18.4792 H   0  0  0  0  0  0
   10.3348   55.3024   18.0954 H   0  0  0  0  0  0
    9.5072   55.1238   19.6488 H   0  0  0  0  0  0
    6.5377   53.4224   17.1821 H   0  0  0  0  0  0
    4.5866   52.4917   18.3255 H   0  0  0  0  0  0
    5.1165   55.2967   21.5405 H   0  0  0  0  0  0
    7.0607   56.2458   20.3935 H   0  0  0  0  0  0
    2.8936   53.9559   20.9375 H   0  0  0  0  0  0
    3.0451   49.8402   22.6832 H   0  0  0  0  0  0
    1.0917   49.2951   23.9754 H   0  0  0  0  0  0
   -0.9369   52.7489   22.4074 H   0  0  0  0  0  0
    1.0307   53.2965   21.0842 H   0  0  0  0  0  0
   -2.0285   51.3761   23.8493 H   0  0  0  0  0  0
   -1.9549   50.6950   28.4113 H   0  0  0  0  0  0
   -0.9063   52.1288   30.1095 H   0  0  0  0  0  0
    1.0346   51.8912   25.5696 H   0  0  0  0  0  0
    4.3101   53.7316   27.5056 H   0  0  0  0  0  0
    3.5157   52.6576   28.6023 H   0  0  0  0  0  0
    3.4731   55.6964   28.5088 H   0  0  0  0  0  0
    3.8066   54.6614   29.8707 H   0  0  0  0  0  0
    1.0942   55.4172   28.6745 H   0  0  0  0  0  0
    1.6441   55.5903   30.3071 H   0  0  0  0  0  0
  1  2  1  0  0  0
  1 34  1  0  0  0
  1 35  1  0  0  0
  1 36  1  0  0  0
  2  3  1  0  0  0
  2  4  1  0  0  0
  2 37  1  0  0  0
  3 38  1  0  0  0
  3 39  1  0  0  0
  3 40  1  0  0  0
  4  9  2  0  0  0
  4  5  1  0  0  0
  5  6  2  0  0  0
  5 41  1  0  0  0
  6  7  1  0  0  0
  6 42  1  0  0  0
  7  8  2  0  0  0
  7 10  1  0  0  0
  8  9  1  0  0  0
  8 43  1  0  0  0
  9 44  1  0  0  0
 10 11  1  0  0  0
 10 45  1  0  0  0
 11 12  2  0  0  0
 11 13  1  0  0  0
 13 18  2  0  0  0
 13 14  1  0  0  0
 14 15  2  0  0  0
 14 46  1  0  0  0
 15 16  1  0  0  0
 15 47  1  0  0  0
 16 17  2  0  0  0
 16 19  1  0  0  0
 17 18  1  0  0  0
 17 48  1  0  0  0
 18 49  1  0  0  0
 19 20  1  0  0  0
 19 50  1  0  0  0
 20 21  2  0  0  0
 20 22  2  0  0  0
 20 23  1  0  0  0
 23 28  2  0  0  0
 23 24  1  0  0  0
 24 25  2  0  0  0
 24 51  1  0  0  0
 25 26  1  0  0  0
 25 52  1  0  0  0
 26 33  1  0  0  0
 26 27  2  0  0  0
 27 28  1  0  0  0
 27 29  1  0  0  0
 28 53  1  0  0  0
 29 30  1  0  0  0
 30 31  1  0  0  0
 30 54  1  0  0  0
 30 55  1  0  0  0
 31 32  1  0  0  0
 31 56  1  0  0  0
 31 57  1  0  0  0
 32 33  1  0  0  0
 32 58  1  0  0  0
 32 59  1  0  0  0
M  END
> <i_i_glide_confnum>
110

> <i_i_glide_lignum>
2055

> <i_i_glide_posenum>
282

> <i_i_glide_rotatable_bonds>
7

> <i_m_Source_File_Index>
5351

> <b_m_subgroup_collapsed>
0

> <r_i_docking_score>
-3.09466

> <r_i_glide_ecoul>
-2.13417

> <r_i_glide_eff_state_penalty>
0

> <r_i_glide_einternal>
8.16888

> <r_i_glide_emodel>
-44.2565

> <r_i_glide_energy>
-42.8639

> <r_i_glide_erotb>
0.556135

> <r_i_glide_esite>
-0.261753

> <r_i_glide_evdw>
-40.7297

> <r_i_glide_gscore>
-3.09466

> <r_i_glide_hbond>
-0.241502

> <r_i_glide_ligand_efficiency>
-0.0937776

> <r_i_glide_ligand_efficiency_ln>
-0.688236

> <r_i_glide_ligand_efficiency_sa>
-0.300795

> <r_i_glide_lipo>
-1.8282

> <r_i_glide_metal>
0

> <r_i_glide_rewards>
1.03727

> <s_i_glide_gridfile>
wee1_glide-grid

> <s_m_Source_File>
wee1_decoys_glide_SP.sdf

> <s_m_Source_Path>
/Users/zhangxujun/Desktop

> <s_m_entry_id>
5626

> <s_m_entry_name>
wee1_decoys_glide_SP.5351

> <s_m_subgroup_title>
wee1_decoys_glide_SP

> <s_m_subgroupid>
wee1_decoys_glide_SP


$$$$
