ZINC26458636_5088
                    3D
 Schrodinger Suite 2024-2.
 61 64  0  0  1  0            999 V2000
    3.1967   53.7178   21.9933 C   0  0  0  0  0  0
    4.3795   54.0968   22.8714 C   0  0  0  0  0  0
    4.2112   54.0962   24.2582 C   0  0  0  0  0  0
    5.2611   54.4257   25.1241 C   0  0  0  0  0  0
    6.4982   54.7632   24.5652 C   0  0  0  0  0  0
    6.6767   54.7984   23.1852 C   0  0  0  0  0  0
    5.6108   54.4966   22.3241 C   0  0  0  0  0  0
    5.7399   54.6034   20.9250 N   0  0  0  0  0  0
    6.4393   55.5365   20.2435 C   0  0  0  0  0  0
    7.0672   56.4645   20.7669 O   0  0  0  0  0  0
    6.3900   55.4147   18.7161 C   0  0  0  0  0  0
    7.6032   56.1596   18.0994 N   0  3  2  0  0  0
    7.4203   56.8054   16.7111 C   0  0  0  0  0  0
    8.8575   57.1244   16.2549 C   0  0  0  0  0  0
    9.8086   56.5402   17.3175 C   0  0  0  0  0  0
    8.9884   55.4616   18.0429 C   0  0  2  0  0  0
    9.3077   55.2211   19.0591 H   0  0  0  0  0  0
    8.9831   54.1164   17.2501 C   0  0  0  0  0  0
    7.9508   53.6684   16.7544 O   0  0  0  0  0  0
   10.1875   53.5179   17.1384 N   0  0  0  0  0  0
   10.5361   52.3136   16.4924 C   0  0  0  0  0  0
    9.6163   51.2785   16.2296 C   0  0  0  0  0  0
   10.0353   50.1013   15.6088 C   0  0  0  0  0  0
   11.3737   49.9443   15.2462 C   0  0  0  0  0  0
   12.2910   50.9589   15.5071 C   0  0  0  0  0  0
   11.8829   52.1381   16.1315 C   0  0  0  0  0  0
   13.0767   53.3566   16.4443 Cl  0  0  0  0  0  0
   11.9039   48.4942   14.4819 Cl  0  0  0  0  0  0
    5.0691   54.4217   26.5134 N   0  0  0  0  0  0
    3.8280   54.0931   27.2205 C   0  0  0  0  0  0
    4.0168   54.4705   28.6850 C   0  0  0  0  0  0
    5.5045   54.2736   28.8821 C   0  0  0  0  0  0
    6.0944   54.6614   27.5309 C   0  0  0  0  0  0
    3.1044   54.4339   21.1818 H   0  0  0  0  0  0
    3.3421   52.7296   21.5553 H   0  0  0  0  0  0
    2.2520   53.7382   22.5396 H   0  0  0  0  0  0
    3.2508   53.8130   24.6624 H   0  0  0  0  0  0
    7.3354   55.0137   25.1960 H   0  0  0  0  0  0
    7.6361   55.0874   22.7897 H   0  0  0  0  0  0
    5.1601   53.9723   20.3906 H   0  0  0  0  0  0
    6.3462   54.3882   18.3617 H   0  0  0  0  0  0
    5.5140   55.9498   18.3500 H   0  0  0  0  0  0
    6.9313   56.0582   16.0815 H   0  0  0  0  0  0
    6.7623   57.6696   16.8236 H   0  0  0  0  0  0
    9.0407   56.6644   15.2821 H   0  0  0  0  0  0
    9.0073   58.1975   16.1310 H   0  0  0  0  0  0
   10.7500   56.1844   16.8945 H   0  0  0  0  0  0
   10.0823   57.3203   18.0316 H   0  0  0  0  0  0
   10.9804   54.0212   17.5082 H   0  0  0  0  0  0
    8.5779   51.3561   16.5158 H   0  0  0  0  0  0
    9.3262   49.3073   15.4154 H   0  0  0  0  0  0
   13.3248   50.8281   15.2238 H   0  0  0  0  0  0
    3.5772   53.0371   27.1029 H   0  0  0  0  0  0
    3.0142   54.6877   26.8037 H   0  0  0  0  0  0
    3.4279   53.8354   29.3464 H   0  0  0  0  0  0
    3.7079   55.5002   28.8668 H   0  0  0  0  0  0
    5.9026   54.8966   29.6839 H   0  0  0  0  0  0
    5.7390   53.2321   29.1077 H   0  0  0  0  0  0
    6.4307   55.6964   27.5310 H   0  0  0  0  0  0
    6.9486   54.0115   27.3329 H   0  0  0  0  0  0
    7.7350   56.9405   18.7294 H   0  0  0  0  0  0
  1  2  1  0  0  0
  1 34  1  0  0  0
  1 35  1  0  0  0
  1 36  1  0  0  0
  2  7  2  0  0  0
  2  3  1  0  0  0
  3  4  2  0  0  0
  3 37  1  0  0  0
  4  5  1  0  0  0
  4 29  1  0  0  0
  5  6  2  0  0  0
  5 38  1  0  0  0
  6  7  1  0  0  0
  6 39  1  0  0  0
  7  8  1  0  0  0
  8  9  1  0  0  0
  8 40  1  0  0  0
  9 10  2  0  0  0
  9 11  1  0  0  0
 11 12  1  0  0  0
 11 41  1  0  0  0
 11 42  1  0  0  0
 12 16  1  0  0  0
 12 13  1  0  0  0
 12 61  1  0  0  0
 13 14  1  0  0  0
 13 43  1  0  0  0
 13 44  1  0  0  0
 14 15  1  0  0  0
 14 45  1  0  0  0
 14 46  1  0  0  0
 15 16  1  0  0  0
 15 47  1  0  0  0
 15 48  1  0  0  0
 16 17  1  0  0  0
 16 18  1  0  0  0
 18 19  2  0  0  0
 18 20  1  0  0  0
 20 21  1  0  0  0
 20 49  1  0  0  0
 21 26  2  0  0  0
 21 22  1  0  0  0
 22 23  2  0  0  0
 22 50  1  0  0  0
 23 24  1  0  0  0
 23 51  1  0  0  0
 24 25  2  0  0  0
 24 28  1  0  0  0
 25 26  1  0  0  0
 25 52  1  0  0  0
 26 27  1  0  0  0
 29 33  1  0  0  0
 29 30  1  0  0  0
 30 31  1  0  0  0
 30 53  1  0  0  0
 30 54  1  0  0  0
 31 32  1  0  0  0
 31 55  1  0  0  0
 31 56  1  0  0  0
 32 33  1  0  0  0
 32 57  1  0  0  0
 32 58  1  0  0  0
 33 59  1  0  0  0
 33 60  1  0  0  0
M  CHG  1  12   1
M  END
> <i_i_glide_confnum>
23

> <i_i_glide_lignum>
5089

> <i_i_glide_posenum>
96

> <i_i_glide_rotatable_bonds>
8

> <i_m_Source_File_Index>
2081

> <b_m_subgroup_collapsed>
0

> <r_i_docking_score>
-5.97987

> <r_i_glide_ecoul>
-5.4529

> <r_i_glide_eff_state_penalty>
0

> <r_i_glide_einternal>
1.89865

> <r_i_glide_emodel>
-63.3181

> <r_i_glide_energy>
-45.7773

> <r_i_glide_erotb>
0.713724

> <r_i_glide_esite>
0

> <r_i_glide_evdw>
-40.3244

> <r_i_glide_gscore>
-5.97987

> <r_i_glide_hbond>
-0.273804

> <r_i_glide_ligand_efficiency>
-0.186871

> <r_i_glide_ligand_efficiency_ln>
-1.33906

> <r_i_glide_ligand_efficiency_sa>
-0.593278

> <r_i_glide_lipo>
-2.75601

> <r_i_glide_metal>
0

> <r_i_glide_rewards>
-0.829626

> <s_i_glide_gridfile>
wee1_glide-grid

> <s_m_Source_File>
wee1_decoys_glide_SP.sdf

> <s_m_Source_Path>
/Users/zhangxujun/Desktop

> <s_m_entry_id>
2356

> <s_m_entry_name>
wee1_decoys_glide_SP.2081

> <s_m_subgroup_title>
wee1_decoys_glide_SP

> <s_m_subgroupid>
wee1_decoys_glide_SP


$$$$
