ZINC47136010_2780
                    3D
 Schrodinger Suite 2024-2.
 55 59  0  0  1  0            999 V2000
    6.0163   53.3207   27.5804 C   0  0  0  0  0  0
    5.3318   54.5932   27.0558 C   0  0  1  0  0  0
    5.3680   55.2968   27.8886 H   0  0  0  0  0  0
    6.0795   55.2962   25.8989 C   0  0  0  0  0  0
    6.0894   54.4777   24.5978 C   0  0  0  0  0  0
    4.6428   54.0964   24.2518 C   0  0  0  0  0  0
    3.6435   54.0532   25.2422 C   0  0  0  0  0  0
    2.1153   53.5474   24.6087 S   0  0  0  0  0  0
    2.7919   53.3626   23.0246 C   0  0  0  0  0  0
    4.1389   53.7526   22.9682 C   0  0  0  0  0  0
    4.9351   53.6956   21.7665 C   0  0  0  0  0  0
    5.1031   52.6320   21.1711 O   0  0  0  0  0  0
    5.4836   54.8691   21.4021 N   0  0  0  0  0  0
    6.4095   55.0609   20.2853 C   0  0  2  0  0  0
    6.6324   54.1390   19.7361 H   0  0  0  0  0  0
    7.7446   55.6193   20.8351 C   0  0  0  0  0  0
    8.6187   56.0225   19.6436 C   0  0  0  0  0  0
    7.4128   56.8531   18.4832 S   0  0  0  0  0  0
    7.6072   56.3179   17.1327 O   0  0  0  0  0  0
    7.4029   58.2957   18.7326 O   0  0  0  0  0  0
    5.8916   56.1010   19.2807 C   0  0  0  0  0  0
    1.9939   52.8971   22.0080 N   0  0  0  0  0  0
    1.1424   51.7522   22.0719 C   0  0  2  0  0  0
    1.3167   51.1487   22.9661 H   0  0  0  0  0  0
    1.2638   50.9209   20.8188 C   0  0  0  0  0  0
    2.3596   50.2729   20.2464 C   0  0  0  0  0  0
    2.1820   49.5923   19.0402 C   0  0  0  0  0  0
    0.9281   49.5707   18.4186 C   0  0  0  0  0  0
   -0.1599   50.2309   19.0005 C   0  0  0  0  0  0
    0.0255   50.9026   20.2101 C   0  0  0  0  0  0
   -0.8966   51.6954   21.0386 C   0  0  0  0  0  0
   -2.0793   51.9834   20.8503 O   0  0  0  0  0  0
   -0.2067   52.0972   22.1398 O   0  0  0  0  0  0
    3.8284   54.3955   26.7200 C   0  0  0  0  0  0
    5.8998   52.4967   26.8812 H   0  0  0  0  0  0
    7.0817   53.4760   27.7495 H   0  0  0  0  0  0
    5.5788   52.9983   28.5257 H   0  0  0  0  0  0
    5.6082   56.2512   25.6811 H   0  0  0  0  0  0
    7.1043   55.5099   26.1965 H   0  0  0  0  0  0
    6.6982   53.5819   24.7179 H   0  0  0  0  0  0
    6.5655   55.0654   23.8133 H   0  0  0  0  0  0
    5.2233   55.6906   21.9235 H   0  0  0  0  0  0
    8.2497   54.8961   21.4731 H   0  0  0  0  0  0
    7.5615   56.4793   21.4837 H   0  0  0  0  0  0
    8.9588   55.1085   19.1539 H   0  0  0  0  0  0
    9.4980   56.6435   19.8160 H   0  0  0  0  0  0
    5.5045   56.9385   19.8551 H   0  0  0  0  0  0
    5.1241   55.8138   18.5654 H   0  0  0  0  0  0
    1.9803   53.3631   21.1091 H   0  0  0  0  0  0
    3.3361   50.3088   20.7062 H   0  0  0  0  0  0
    3.0268   49.1021   18.5745 H   0  0  0  0  0  0
    0.8098   49.0518   17.4768 H   0  0  0  0  0  0
   -1.1204   50.2198   18.5061 H   0  0  0  0  0  0
    3.2740   55.2970   26.9718 H   0  0  0  0  0  0
    3.4103   53.6051   27.3451 H   0  0  0  0  0  0
  1  2  1  0  0  0
  1 35  1  0  0  0
  1 36  1  0  0  0
  1 37  1  0  0  0
  2  3  1  0  0  0
  2 34  1  0  0  0
  2  4  1  0  0  0
  4  5  1  0  0  0
  4 38  1  0  0  0
  4 39  1  0  0  0
  5  6  1  0  0  0
  5 40  1  0  0  0
  5 41  1  0  0  0
  6 10  1  0  0  0
  6  7  2  0  0  0
  7  8  1  0  0  0
  7 34  1  0  0  0
  8  9  1  0  0  0
  9 10  2  0  0  0
  9 22  1  0  0  0
 10 11  1  0  0  0
 11 12  2  0  0  0
 11 13  1  0  0  0
 13 14  1  0  0  0
 13 42  1  0  0  0
 14 15  1  0  0  0
 14 21  1  0  0  0
 14 16  1  0  0  0
 16 17  1  0  0  0
 16 43  1  0  0  0
 16 44  1  0  0  0
 17 18  1  0  0  0
 17 45  1  0  0  0
 17 46  1  0  0  0
 18 19  2  0  0  0
 18 20  2  0  0  0
 18 21  1  0  0  0
 21 47  1  0  0  0
 21 48  1  0  0  0
 22 23  1  0  0  0
 22 49  1  0  0  0
 23 24  1  0  0  0
 23 33  1  0  0  0
 23 25  1  0  0  0
 25 30  2  0  0  0
 25 26  1  0  0  0
 26 27  2  0  0  0
 26 50  1  0  0  0
 27 28  1  0  0  0
 27 51  1  0  0  0
 28 29  2  0  0  0
 28 52  1  0  0  0
 29 30  1  0  0  0
 29 53  1  0  0  0
 30 31  1  0  0  0
 31 32  2  0  0  0
 31 33  1  0  0  0
 34 54  1  0  0  0
 34 55  1  0  0  0
M  END
> <i_i_glide_confnum>
234

> <i_i_glide_lignum>
2781

> <i_i_glide_posenum>
274

> <i_i_glide_rotatable_bonds>
5

> <i_m_Source_File_Index>
1115

> <b_m_subgroup_collapsed>
0

> <r_i_docking_score>
-6.43123

> <r_i_glide_ecoul>
-4.75901

> <r_i_glide_eff_state_penalty>
0

> <r_i_glide_einternal>
6.95557

> <r_i_glide_emodel>
-66.7246

> <r_i_glide_energy>
-49.8618

> <r_i_glide_erotb>
0.474475

> <r_i_glide_esite>
-0.0762683

> <r_i_glide_evdw>
-45.1028

> <r_i_glide_gscore>
-6.43123

> <r_i_glide_hbond>
-0.315107

> <r_i_glide_ligand_efficiency>
-0.207459

> <r_i_glide_ligand_efficiency_ln>
-1.45044

> <r_i_glide_ligand_efficiency_sa>
-0.651707

> <r_i_glide_lipo>
-2.96395

> <r_i_glide_metal>
0

> <r_i_glide_rewards>
-0.581381

> <s_i_glide_gridfile>
wee1_glide-grid

> <s_m_Source_File>
wee1_decoys_glide_SP.sdf

> <s_m_Source_Path>
/Users/zhangxujun/Desktop

> <s_m_entry_id>
1390

> <s_m_entry_name>
wee1_decoys_glide_SP.1115

> <s_m_subgroup_title>
wee1_decoys_glide_SP

> <s_m_subgroupid>
wee1_decoys_glide_SP


$$$$
