ZINC09391449_5429
                    3D
 Schrodinger Suite 2024-2.
 69 72  0  0  1  0            999 V2000
   -0.3239   52.7395   23.4634 C   0  0  0  0  0  0
    0.8891   52.7512   22.5274 C   0  0  0  0  0  0
    1.9877   53.3530   23.1976 O   0  0  0  0  0  0
    3.1676   53.5153   22.5681 C   0  0  0  0  0  0
    3.3570   53.2522   21.3773 O   0  0  0  0  0  0
    4.2342   54.0219   23.4607 C   0  0  0  0  0  0
    4.2079   54.0962   24.8911 C   0  0  0  0  0  0
    5.4276   54.5143   25.4468 C   0  0  0  0  0  0
    6.5848   54.9216   24.2471 S   0  0  0  0  0  0
    5.4704   54.4962   22.9743 C   0  0  0  0  0  0
    5.8300   54.5718   21.6262 N   0  0  0  0  0  0
    6.8201   55.2967   21.0615 C   0  0  0  0  0  0
    7.5091   56.0967   21.6819 O   0  0  0  0  0  0
    7.0999   55.0441   19.5944 C   0  0  0  0  0  0
    8.2887   55.5383   19.0363 C   0  0  0  0  0  0
    8.6325   55.2466   17.7221 C   0  0  0  0  0  0
    7.7911   54.4495   16.9480 C   0  0  0  0  0  0
    6.5958   53.9623   17.4778 C   0  0  0  0  0  0
    6.2472   54.2651   18.7917 C   0  0  0  0  0  0
    8.2769   54.0324   15.2744 S   0  0  0  0  0  0
    7.0626   53.6251   14.5564 O   0  0  0  0  0  0
    9.0950   55.1464   14.7791 O   0  0  0  0  0  0
    9.3267   52.6142   15.4459 N   0  0  0  0  0  0
   10.6157   52.8486   16.1471 C   0  0  0  0  0  0
   11.5962   51.6972   15.8312 C   0  0  2  0  0  0
   11.7603   51.6970   14.7511 H   0  0  0  0  0  0
   10.9508   50.3400   16.2147 C   0  0  0  0  0  0
    9.5529   50.1338   15.5757 C   0  0  1  0  0  0
    9.1044   49.2807   16.0823 H   0  0  0  0  0  0
    8.6482   51.3616   15.8677 C   0  0  0  0  0  0
    9.6234   49.8036   14.0715 C   0  0  0  0  0  0
   12.9483   51.9045   16.5325 C   0  0  0  0  0  0
    5.7843   54.5070   26.9253 C   0  0  0  0  0  0
    3.5305   53.4092   27.2662 C   0  0  0  0  0  0
    3.0612   53.6488   25.8144 C   0  0  0  0  0  0
    4.7210   54.4958   29.2059 C   0  0  0  0  0  0
   -1.1907   52.3021   22.9680 H   0  0  0  0  0  0
   -0.1214   52.1529   24.3602 H   0  0  0  0  0  0
   -0.5939   53.7470   23.7780 H   0  0  0  0  0  0
    0.6635   53.2966   21.6096 H   0  0  0  0  0  0
    1.1444   51.7292   22.2400 H   0  0  0  0  0  0
    5.1570   54.1575   20.9958 H   0  0  0  0  0  0
    8.9787   56.1317   19.6224 H   0  0  0  0  0  0
    9.5608   55.6238   17.3161 H   0  0  0  0  0  0
    5.9419   53.3385   16.8829 H   0  0  0  0  0  0
    5.3219   53.8556   19.1701 H   0  0  0  0  0  0
   11.0395   53.8086   15.8503 H   0  0  0  0  0  0
   10.4293   52.8074   17.2222 H   0  0  0  0  0  0
   11.6246   49.5176   15.9688 H   0  0  0  0  0  0
   10.8466   50.2958   17.2995 H   0  0  0  0  0  0
    8.5316   51.3975   16.9524 H   0  0  0  0  0  0
    7.6891   51.2834   15.3559 H   0  0  0  0  0  0
   10.0330   50.6290   13.4880 H   0  0  0  0  0  0
   10.2511   48.9303   13.8872 H   0  0  0  0  0  0
    8.6345   49.5799   13.6725 H   0  0  0  0  0  0
   12.8370   51.9098   17.6188 H   0  0  0  0  0  0
   13.6517   51.1124   16.2742 H   0  0  0  0  0  0
   13.4026   52.8530   16.2412 H   0  0  0  0  0  0
    6.3594   55.3801   27.2402 H   0  0  0  0  0  0
    6.3046   53.5927   27.2200 H   0  0  0  0  0  0
    2.6752   53.3852   27.9450 H   0  0  0  0  0  0
    4.1167   52.4968   27.3815 H   0  0  0  0  0  0
    2.5889   52.7317   25.4642 H   0  0  0  0  0  0
    2.2856   54.4124   25.7953 H   0  0  0  0  0  0
    5.1044   53.4973   29.4178 H   0  0  0  0  0  0
    5.4484   55.2693   29.4651 H   0  0  0  0  0  0
    3.7707   54.6718   29.7106 H   0  0  0  0  0  0
    4.4456   54.5736   27.6906 N   0  3  1  0  0  0
    3.9783   55.4501   27.5007 H   0  0  0  0  0  0
  1  2  1  0  0  0
  1 37  1  0  0  0
  1 38  1  0  0  0
  1 39  1  0  0  0
  2  3  1  0  0  0
  2 40  1  0  0  0
  2 41  1  0  0  0
  3  4  1  0  0  0
  4  5  2  0  0  0
  4  6  1  0  0  0
  6 10  2  0  0  0
  6  7  1  0  0  0
  7 35  1  0  0  0
  7  8  2  0  0  0
  8  9  1  0  0  0
  8 33  1  0  0  0
  9 10  1  0  0  0
 10 11  1  0  0  0
 11 12  1  0  0  0
 11 42  1  0  0  0
 12 13  2  0  0  0
 12 14  1  0  0  0
 14 19  2  0  0  0
 14 15  1  0  0  0
 15 16  2  0  0  0
 15 43  1  0  0  0
 16 17  1  0  0  0
 16 44  1  0  0  0
 17 18  2  0  0  0
 17 20  1  0  0  0
 18 19  1  0  0  0
 18 45  1  0  0  0
 19 46  1  0  0  0
 20 21  2  0  0  0
 20 22  2  0  0  0
 20 23  1  0  0  0
 23 30  1  0  0  0
 23 24  1  0  0  0
 24 25  1  0  0  0
 24 47  1  0  0  0
 24 48  1  0  0  0
 25 26  1  0  0  0
 25 27  1  0  0  0
 25 32  1  0  0  0
 27 28  1  0  0  0
 27 49  1  0  0  0
 27 50  1  0  0  0
 28 29  1  0  0  0
 28 30  1  0  0  0
 28 31  1  0  0  0
 30 51  1  0  0  0
 30 52  1  0  0  0
 31 53  1  0  0  0
 31 54  1  0  0  0
 31 55  1  0  0  0
 32 56  1  0  0  0
 32 57  1  0  0  0
 32 58  1  0  0  0
 33 59  1  0  0  0
 33 60  1  0  0  0
 33 68  1  0  0  0
 34 35  1  0  0  0
 34 61  1  0  0  0
 34 62  1  0  0  0
 34 68  1  0  0  0
 35 63  1  0  0  0
 35 64  1  0  0  0
 36 65  1  0  0  0
 36 66  1  0  0  0
 36 67  1  0  0  0
 36 68  1  0  0  0
 68 69  1  0  0  0
M  CHG  1  68   1
M  END
> <i_i_glide_confnum>
111

> <i_i_glide_lignum>
5430

> <i_i_glide_posenum>
91

> <i_i_glide_rotatable_bonds>
8

> <i_m_Source_File_Index>
3107

> <b_m_subgroup_collapsed>
0

> <r_i_docking_score>
-5.25283

> <r_i_glide_ecoul>
-0.29631

> <r_i_glide_eff_state_penalty>
0

> <r_i_glide_einternal>
3.3631

> <r_i_glide_emodel>
-56.7722

> <r_i_glide_energy>
-43.7943

> <r_i_glide_erotb>
0.530659

> <r_i_glide_esite>
-0.000196211

> <r_i_glide_evdw>
-43.498

> <r_i_glide_gscore>
-5.25283

> <r_i_glide_hbond>
-0.0594415

> <r_i_glide_ligand_efficiency>
-0.150081

> <r_i_glide_ligand_efficiency_ln>
-1.15311

> <r_i_glide_ligand_efficiency_sa>
-0.490924

> <r_i_glide_lipo>
-3.05088

> <r_i_glide_metal>
0

> <r_i_glide_rewards>
-0.453621

> <s_i_glide_gridfile>
wee1_glide-grid

> <s_m_Source_File>
wee1_decoys_glide_SP.sdf

> <s_m_Source_Path>
/Users/zhangxujun/Desktop

> <s_m_entry_id>
3382

> <s_m_entry_name>
wee1_decoys_glide_SP.3107

> <s_m_subgroup_title>
wee1_decoys_glide_SP

> <s_m_subgroupid>
wee1_decoys_glide_SP


$$$$
