ZINC13022090_5880
                    3D
 Schrodinger Suite 2024-2.
 57 60  0  0  1  0            999 V2000
    7.5066   55.2358   21.9599 C   0  0  0  0  0  0
    6.3033   54.8278   22.7834 C   0  0  0  0  0  0
    6.3696   54.8623   24.1761 C   0  0  0  0  0  0
    5.2603   54.4968   24.9358 C   0  0  0  0  0  0
    4.0731   54.0968   24.3080 C   0  0  0  0  0  0
    4.0143   54.0809   22.9082 C   0  0  0  0  0  0
    5.1244   54.4382   22.1487 C   0  0  0  0  0  0
    2.8850   53.6443   25.1058 C   0  0  0  0  0  0
    1.7691   52.9360   24.6412 C   0  0  0  0  0  0
    0.9538   52.7070   25.7399 C   0  0  0  0  0  0
    1.6172   53.2971   26.8015 N   0  0  0  0  0  0
    2.7842   53.8453   26.4049 N   0  0  0  0  0  0
    1.2150   53.4052   28.1619 C   0  0  0  0  0  0
    0.5558   52.3443   28.8016 C   0  0  0  0  0  0
    0.0943   52.4968   30.1073 C   0  0  0  0  0  0
    0.3070   53.6957   30.7823 C   0  0  0  0  0  0
    0.9813   54.7465   30.1657 C   0  0  0  0  0  0
    1.4342   54.6033   28.8565 C   0  0  0  0  0  0
   -0.2809   52.0843   25.8655 N   0  0  0  0  0  0
   -1.0797   51.7005   24.8498 C   0  0  0  0  0  0
   -0.8495   51.9017   23.6546 O   0  0  0  0  0  0
   -2.3583   50.9660   25.2541 C   0  0  0  0  0  0
   -3.8125   52.0659   25.2314 S   0  0  0  0  0  0
   -4.7811   51.8315   26.7168 C   0  0  0  0  0  0
   -5.9766   52.5507   26.9691 C   0  0  0  0  0  0
   -6.6687   52.2694   28.1750 C   0  0  0  0  0  0
   -6.1589   51.3085   29.0529 C   0  0  0  0  0  0
   -4.9776   50.6533   28.7229 C   0  0  0  0  0  0
   -4.2978   50.9057   27.5829 N   0  0  0  0  0  0
   -4.3785   49.5953   29.6260 C   0  0  0  0  0  0
   -7.9439   52.9989   28.5921 C   0  0  0  0  0  0
   -6.4840   53.5912   26.0176 C   0  0  0  0  0  0
   -7.6812   53.5188   25.6559 O   0  0  0  0  0  0
    7.9034   56.1866   22.3101 H   0  0  0  0  0  0
    8.2976   54.4969   22.0796 H   0  0  0  0  0  0
    7.2732   55.3398   20.9003 H   0  0  0  0  0  0
    7.2832   55.1641   24.6672 H   0  0  0  0  0  0
    5.3330   54.5096   26.0140 H   0  0  0  0  0  0
    3.1111   53.7858   22.3946 H   0  0  0  0  0  0
    5.0611   54.4146   21.0701 H   0  0  0  0  0  0
    1.5784   52.6195   23.6264 H   0  0  0  0  0  0
    0.3944   51.3990   28.3049 H   0  0  0  0  0  0
   -0.4344   51.6934   30.6015 H   0  0  0  0  0  0
   -0.0560   53.8053   31.7954 H   0  0  0  0  0  0
    1.1381   55.6750   30.6957 H   0  0  0  0  0  0
    1.9339   55.4367   28.3815 H   0  0  0  0  0  0
   -0.6341   51.9593   26.8029 H   0  0  0  0  0  0
   -2.2263   50.4834   26.2236 H   0  0  0  0  0  0
   -2.5345   50.1609   24.5403 H   0  0  0  0  0  0
   -6.6699   51.0725   29.9763 H   0  0  0  0  0  0
   -4.7757   49.6550   30.6412 H   0  0  0  0  0  0
   -4.5884   48.5996   29.2323 H   0  0  0  0  0  0
   -3.2972   49.7106   29.6814 H   0  0  0  0  0  0
   -8.1984   52.8251   29.6383 H   0  0  0  0  0  0
   -7.8280   54.0761   28.4690 H   0  0  0  0  0  0
   -8.7802   52.6846   27.9678 H   0  0  0  0  0  0
   -5.6895   54.4967   25.6826 O   0  5  0  0  0  0
  1  2  1  0  0  0
  1 34  1  0  0  0
  1 35  1  0  0  0
  1 36  1  0  0  0
  2  7  2  0  0  0
  2  3  1  0  0  0
  3  4  2  0  0  0
  3 37  1  0  0  0
  4  5  1  0  0  0
  4 38  1  0  0  0
  5  6  2  0  0  0
  5  8  1  0  0  0
  6  7  1  0  0  0
  6 39  1  0  0  0
  7 40  1  0  0  0
  8 12  2  0  0  0
  8  9  1  0  0  0
  9 10  2  0  0  0
  9 41  1  0  0  0
 10 11  1  0  0  0
 10 19  1  0  0  0
 11 12  1  0  0  0
 11 13  1  0  0  0
 13 18  2  0  0  0
 13 14  1  0  0  0
 14 15  2  0  0  0
 14 42  1  0  0  0
 15 16  1  0  0  0
 15 43  1  0  0  0
 16 17  2  0  0  0
 16 44  1  0  0  0
 17 18  1  0  0  0
 17 45  1  0  0  0
 18 46  1  0  0  0
 19 20  1  0  0  0
 19 47  1  0  0  0
 20 21  2  0  0  0
 20 22  1  0  0  0
 22 23  1  0  0  0
 22 48  1  0  0  0
 22 49  1  0  0  0
 23 24  1  0  0  0
 24 29  2  0  0  0
 24 25  1  0  0  0
 25 26  2  0  0  0
 25 32  1  0  0  0
 26 27  1  0  0  0
 26 31  1  0  0  0
 27 28  2  0  0  0
 27 50  1  0  0  0
 28 29  1  0  0  0
 28 30  1  0  0  0
 30 51  1  0  0  0
 30 52  1  0  0  0
 30 53  1  0  0  0
 31 54  1  0  0  0
 31 55  1  0  0  0
 31 56  1  0  0  0
 32 33  2  0  0  0
 32 57  1  0  0  0
M  CHG  1  57  -1
M  END
> <i_i_glide_confnum>
79

> <i_i_glide_lignum>
5881

> <i_i_glide_posenum>
322

> <i_i_glide_rotatable_bonds>
8

> <i_m_Source_File_Index>
2395

> <b_m_subgroup_collapsed>
0

> <r_i_docking_score>
-5.88814

> <r_i_glide_ecoul>
-4.60488

> <r_i_glide_eff_state_penalty>
0

> <r_i_glide_einternal>
3.82039

> <r_i_glide_emodel>
-71.0652

> <r_i_glide_energy>
-48.9485

> <r_i_glide_erotb>
0.636325

> <r_i_glide_esite>
-0.00572231

> <r_i_glide_evdw>
-44.3437

> <r_i_glide_gscore>
-5.88814

> <r_i_glide_hbond>
-0.16

> <r_i_glide_ligand_efficiency>
-0.173181

> <r_i_glide_ligand_efficiency_ln>
-1.30086

> <r_i_glide_ligand_efficiency_sa>
-0.561038

> <r_i_glide_lipo>
-2.95244

> <r_i_glide_metal>
0

> <r_i_glide_rewards>
-0.498388

> <s_i_glide_gridfile>
wee1_glide-grid

> <s_m_Source_File>
wee1_decoys_glide_SP.sdf

> <s_m_Source_Path>
/Users/zhangxujun/Desktop

> <s_m_entry_id>
2670

> <s_m_entry_name>
wee1_decoys_glide_SP.2395

> <s_m_subgroup_title>
wee1_decoys_glide_SP

> <s_m_subgroupid>
wee1_decoys_glide_SP


$$$$
