ZINC42174294_6159
                    3D
 Schrodinger Suite 2024-2.
 37 39  0  0  1  0            999 V2000
    5.0828   55.1458   29.2543 C   0  0  0  0  0  0
    4.3448   54.2448   28.3622 N   0  0  0  0  0  0
    4.7652   54.2081   27.0014 C   0  0  0  0  0  0
    3.8492   54.4720   25.9763 C   0  0  0  0  0  0
    4.2705   54.4966   24.6490 C   0  0  0  0  0  0
    5.5632   54.3287   24.2890 N   0  0  0  0  0  0
    6.4610   54.0967   25.2760 C   0  0  0  0  0  0
    6.1142   54.0067   26.6308 C   0  0  0  0  0  0
    7.1043   53.6964   27.5640 N   0  0  0  0  0  0
    3.2297   53.6411   28.8838 C   0  0  0  0  0  0
    2.8654   53.8778   30.0439 O   0  0  0  0  0  0
    2.4062   52.5975   28.0678 C   0  0  1  0  0  0
    3.0351   52.2091   27.2710 H   0  0  0  0  0  0
    1.9235   51.4024   28.9421 C   0  0  0  0  0  0
    0.3926   51.4314   28.7756 C   0  0  1  0  0  0
   -0.0988   50.4967   29.0254 H   0  0  0  0  0  0
   -0.2171   52.6433   29.5047 C   0  0  0  0  0  0
    0.1457   53.8112   28.5653 C   0  0  0  0  0  0
    1.0396   53.1229   27.5069 C   0  0  2  0  0  0
    1.1047   53.6837   26.5793 H   0  0  0  0  0  0
    0.2632   51.8242   27.3137 C   0  0  0  0  0  0
    5.8900   55.6849   28.7530 H   0  0  0  0  0  0
    4.3940   55.8693   29.6817 H   0  0  0  0  0  0
    5.5046   54.5931   30.0814 H   0  0  0  0  0  0
    2.8276   54.6681   26.2124 H   0  0  0  0  0  0
    3.5688   54.6852   23.8494 H   0  0  0  0  0  0
    7.4744   53.9680   24.9307 H   0  0  0  0  0  0
    7.9897   53.3234   27.2565 H   0  0  0  0  0  0
    6.9861   54.0110   28.5171 H   0  0  0  0  0  0
    2.1937   51.4592   29.9968 H   0  0  0  0  0  0
    2.3043   50.4627   28.5499 H   0  0  0  0  0  0
    0.1906   52.7676   30.5095 H   0  0  0  0  0  0
   -1.2949   52.5209   29.6023 H   0  0  0  0  0  0
   -0.7470   54.2090   28.0836 H   0  0  0  0  0  0
    0.6263   54.6439   29.0779 H   0  0  0  0  0  0
    0.7395   51.1201   26.6275 H   0  0  0  0  0  0
   -0.7713   51.9660   26.9914 H   0  0  0  0  0  0
  1  2  1  0  0  0
  1 22  1  0  0  0
  1 23  1  0  0  0
  1 24  1  0  0  0
  2  3  1  0  0  0
  2 10  1  0  0  0
  3  8  2  0  0  0
  3  4  1  0  0  0
  4  5  2  0  0  0
  4 25  1  0  0  0
  5  6  1  0  0  0
  5 26  1  0  0  0
  6  7  2  0  0  0
  7  8  1  0  0  0
  7 27  1  0  0  0
  8  9  1  0  0  0
  9 28  1  0  0  0
  9 29  1  0  0  0
 10 11  2  0  0  0
 10 12  1  0  0  0
 12 13  1  0  0  0
 12 19  1  0  0  0
 12 14  1  0  0  0
 14 15  1  0  0  0
 14 30  1  0  0  0
 14 31  1  0  0  0
 15 16  1  0  0  0
 15 21  1  0  0  0
 15 17  1  0  0  0
 17 18  1  0  0  0
 17 32  1  0  0  0
 17 33  1  0  0  0
 18 19  1  0  0  0
 18 34  1  0  0  0
 18 35  1  0  0  0
 19 20  1  0  0  0
 19 21  1  0  0  0
 21 36  1  0  0  0
 21 37  1  0  0  0
M  END
> <i_i_glide_confnum>
8

> <i_i_glide_lignum>
6160

> <i_i_glide_posenum>
37

> <i_i_glide_rotatable_bonds>
3

> <i_m_Source_File_Index>
3946

> <b_m_subgroup_collapsed>
0

> <r_i_docking_score>
-5.387

> <r_i_glide_ecoul>
-3.14527

> <r_i_glide_eff_state_penalty>
0

> <r_i_glide_einternal>
1.70493

> <r_i_glide_emodel>
-35.7215

> <r_i_glide_energy>
-27.3405

> <r_i_glide_erotb>
0.867625

> <r_i_glide_esite>
0

> <r_i_glide_evdw>
-24.1953

> <r_i_glide_gscore>
-5.387

> <r_i_glide_hbond>
-0.32

> <r_i_glide_ligand_efficiency>
-0.299278

> <r_i_glide_ligand_efficiency_ln>
-1.3847

> <r_i_glide_ligand_efficiency_sa>
-0.78433

> <r_i_glide_lipo>
-1.8936

> <r_i_glide_metal>
0

> <r_i_glide_rewards>
-2.35947

> <s_i_glide_gridfile>
wee1_glide-grid

> <s_m_Source_File>
wee1_decoys_glide_SP.sdf

> <s_m_Source_Path>
/Users/zhangxujun/Desktop

> <s_m_entry_id>
4221

> <s_m_entry_name>
wee1_decoys_glide_SP.3946

> <s_m_subgroup_title>
wee1_decoys_glide_SP

> <s_m_subgroupid>
wee1_decoys_glide_SP


$$$$
