ZINC09970047_4645
                    3D
 Schrodinger Suite 2024-2.
 70 74  0  0  1  0            999 V2000
   -0.1986   52.7686   24.6565 C   0  0  0  0  0  0
    1.0226   53.2869   24.2516 C   0  0  0  0  0  0
    2.0698   53.4431   25.1841 C   0  0  0  0  0  0
    1.8985   53.0583   26.5488 C   0  0  0  0  0  0
    0.6351   52.4970   26.9150 C   0  0  0  0  0  0
   -0.3977   52.3794   25.9765 C   0  0  0  0  0  0
   -2.0227   51.8184   26.4676 S   0  0  0  0  0  0
   -2.9542   52.8887   26.0826 O   0  0  0  0  0  0
   -1.9183   51.3828   27.8650 O   0  0  0  0  0  0
   -2.3515   50.3895   25.4640 N   0  0  0  0  0  0
   -1.5330   49.1651   25.6388 C   0  0  0  0  0  0
   -0.6987   48.8448   24.3843 C   0  0  0  0  0  0
   -1.6292   48.7989   23.1343 C   0  0  0  0  0  0
   -2.3492   50.1595   22.9554 C   0  0  0  0  0  0
   -3.1617   50.4985   24.2199 C   0  0  0  0  0  0
   -0.8062   48.4964   21.8644 C   0  0  0  0  0  0
   -1.2051   47.6501   21.0655 O   0  0  0  0  0  0
    0.3324   49.1906   21.6857 N   0  0  0  0  0  0
    1.2914   49.0535   20.5883 C   0  0  0  0  0  0
    0.7361   49.4992   19.2151 C   0  0  0  0  0  0
   -0.0190   50.8409   19.1336 C   0  0  0  0  0  0
    0.4205   51.9785   20.0759 C   0  0  0  0  0  0
    1.9341   52.1663   20.2852 C   0  0  0  0  0  0
    2.5433   51.2468   21.3513 C   0  0  0  0  0  0
    2.6148   49.7671   20.9457 C   0  0  0  0  0  0
    3.0025   53.2847   27.4499 C   0  0  0  0  0  0
    4.2121   53.8141   26.9310 C   0  0  0  0  0  0
    4.2798   54.0954   25.5478 C   0  0  0  0  0  0
    3.2215   53.9707   24.7231 N   0  0  0  0  0  0
    5.5779   54.4975   24.8565 C   0  0  0  0  0  0
    6.6069   55.0936   25.8130 C   0  0  0  0  0  0
    6.7584   54.1940   27.0446 C   0  0  0  0  0  0
    5.4357   54.1051   27.8234 C   0  0  0  0  0  0
    2.8835   52.9650   28.9128 C   0  0  0  0  0  0
    3.0064   53.9076   29.7316 O   0  0  0  0  0  0
    2.6967   51.7674   29.2293 O   0  5  0  0  0  0
   -1.0074   52.7042   23.9460 H   0  0  0  0  0  0
    1.1676   53.5942   23.2247 H   0  0  0  0  0  0
    0.4589   52.2025   27.9393 H   0  0  0  0  0  0
   -2.1943   48.3479   25.9349 H   0  0  0  0  0  0
   -0.8581   49.3177   26.4818 H   0  0  0  0  0  0
   -0.2178   47.8802   24.5683 H   0  0  0  0  0  0
    0.0432   49.6468   24.3231 H   0  0  0  0  0  0
   -2.3252   47.9626   23.2410 H   0  0  0  0  0  0
   -1.6327   50.9704   22.8158 H   0  0  0  0  0  0
   -3.0665   50.1279   22.1282 H   0  0  0  0  0  0
   -4.0266   49.8438   24.3355 H   0  0  0  0  0  0
   -3.5640   51.5098   24.1474 H   0  0  0  0  0  0
    0.5895   49.8588   22.3975 H   0  0  0  0  0  0
    1.5523   47.9964   20.4850 H   0  0  0  0  0  0
    0.0680   48.7192   18.8492 H   0  0  0  0  0  0
    1.5516   49.4881   18.4896 H   0  0  0  0  0  0
   -1.0797   50.6540   19.3077 H   0  0  0  0  0  0
    0.0391   51.1945   18.1016 H   0  0  0  0  0  0
   -0.0674   51.8648   21.0444 H   0  0  0  0  0  0
    0.0101   52.8965   19.6650 H   0  0  0  0  0  0
    2.1154   53.1926   20.6061 H   0  0  0  0  0  0
    2.4661   52.0595   19.3385 H   0  0  0  0  0  0
    1.9960   51.3481   22.2882 H   0  0  0  0  0  0
    3.5552   51.5913   21.5706 H   0  0  0  0  0  0
    3.2989   49.6852   20.1013 H   0  0  0  0  0  0
    3.1040   49.2114   21.7469 H   0  0  0  0  0  0
    6.0029   53.5995   24.4024 H   0  0  0  0  0  0
    5.3872   55.1926   24.0382 H   0  0  0  0  0  0
    6.3056   56.0967   26.1041 H   0  0  0  0  0  0
    7.5503   55.1934   25.2831 H   0  0  0  0  0  0
    7.5413   54.5772   27.6980 H   0  0  0  0  0  0
    7.0784   53.1946   26.7400 H   0  0  0  0  0  0
    5.2628   55.0510   28.3396 H   0  0  0  0  0  0
    5.5459   53.3525   28.6042 H   0  0  0  0  0  0
  1  6  2  0  0  0
  1  2  1  0  0  0
  1 37  1  0  0  0
  2  3  2  0  0  0
  2 38  1  0  0  0
  3 29  1  0  0  0
  3  4  1  0  0  0
  4  5  2  0  0  0
  4 26  1  0  0  0
  5  6  1  0  0  0
  5 39  1  0  0  0
  6  7  1  0  0  0
  7  8  2  0  0  0
  7  9  2  0  0  0
  7 10  1  0  0  0
 10 15  1  0  0  0
 10 11  1  0  0  0
 11 12  1  0  0  0
 11 40  1  0  0  0
 11 41  1  0  0  0
 12 13  1  0  0  0
 12 42  1  0  0  0
 12 43  1  0  0  0
 13 14  1  0  0  0
 13 16  1  0  0  0
 13 44  1  0  0  0
 14 15  1  0  0  0
 14 45  1  0  0  0
 14 46  1  0  0  0
 15 47  1  0  0  0
 15 48  1  0  0  0
 16 17  2  0  0  0
 16 18  1  0  0  0
 18 19  1  0  0  0
 18 49  1  0  0  0
 19 25  1  0  0  0
 19 20  1  0  0  0
 19 50  1  0  0  0
 20 21  1  0  0  0
 20 51  1  0  0  0
 20 52  1  0  0  0
 21 22  1  0  0  0
 21 53  1  0  0  0
 21 54  1  0  0  0
 22 23  1  0  0  0
 22 55  1  0  0  0
 22 56  1  0  0  0
 23 24  1  0  0  0
 23 57  1  0  0  0
 23 58  1  0  0  0
 24 25  1  0  0  0
 24 59  1  0  0  0
 24 60  1  0  0  0
 25 61  1  0  0  0
 25 62  1  0  0  0
 26 27  2  0  0  0
 26 34  1  0  0  0
 27 33  1  0  0  0
 27 28  1  0  0  0
 28 29  2  0  0  0
 28 30  1  0  0  0
 30 31  1  0  0  0
 30 63  1  0  0  0
 30 64  1  0  0  0
 31 32  1  0  0  0
 31 65  1  0  0  0
 31 66  1  0  0  0
 32 33  1  0  0  0
 32 67  1  0  0  0
 32 68  1  0  0  0
 33 69  1  0  0  0
 33 70  1  0  0  0
 34 35  2  0  0  0
 34 36  1  0  0  0
M  CHG  1  36  -1
M  END
> <i_i_glide_confnum>
442

> <i_i_glide_lignum>
4646

> <i_i_glide_posenum>
289

> <i_i_glide_rotatable_bonds>
6

> <i_m_Source_File_Index>
5506

> <b_m_subgroup_collapsed>
0

> <r_i_docking_score>
-5.09607

> <r_i_glide_ecoul>
-5.07743

> <r_i_glide_eff_state_penalty>
0

> <r_i_glide_einternal>
5.04972

> <r_i_glide_emodel>
-62.863

> <r_i_glide_energy>
-48.6436

> <r_i_glide_erotb>
0.390045

> <r_i_glide_esite>
-0.162356

> <r_i_glide_evdw>
-43.5661

> <r_i_glide_gscore>
-5.09607

> <r_i_glide_hbond>
-0.170942

> <r_i_glide_ligand_efficiency>
-0.141558

> <r_i_glide_ligand_efficiency_ln>
-1.11183

> <r_i_glide_ligand_efficiency_sa>
-0.467413

> <r_i_glide_lipo>
-2.65847

> <r_i_glide_metal>
0

> <r_i_glide_rewards>
0.445575

> <s_i_glide_gridfile>
wee1_glide-grid

> <s_m_Source_File>
wee1_decoys_glide_SP.sdf

> <s_m_Source_Path>
/Users/zhangxujun/Desktop

> <s_m_entry_id>
5781

> <s_m_entry_name>
wee1_decoys_glide_SP.5506

> <s_m_subgroup_title>
wee1_decoys_glide_SP

> <s_m_subgroupid>
wee1_decoys_glide_SP


$$$$
