ZINC02458746_4359
                    3D
 Schrodinger Suite 2024-2.
 46 49  0  0  1  0            999 V2000
    2.1310   52.3293   31.5326 C   0  0  0  0  0  0
    1.9511   52.7057   30.0710 C   0  0  0  0  0  0
    2.3124   54.1479   29.6040 C   0  0  1  0  0  0
    2.5585   54.2461   28.0374 C   0  0  2  0  0  0
    2.2102   55.2036   27.6473 H   0  0  0  0  0  0
    1.8126   53.1938   27.3467 N   0  0  0  0  0  0
    1.3545   52.0522   27.9522 C   0  0  0  0  0  0
    0.7065   51.3328   27.0733 N   0  0  0  0  0  0
    0.8381   52.0307   25.9493 C   0  0  0  0  0  0
    1.5050   53.1645   26.0497 N   0  0  0  0  0  0
    0.1858   51.4058   24.4316 S   0  0  0  0  0  0
    0.5336   52.7491   23.2466 C   0  0  0  0  0  0
    1.8727   52.5797   22.5377 C   0  0  0  0  0  0
    2.0440   51.5433   21.6116 C   0  0  0  0  0  0
    3.2524   51.3984   20.9287 C   0  0  0  0  0  0
    4.2980   52.2897   21.1643 C   0  0  0  0  0  0
    4.1355   53.3254   22.0849 C   0  0  0  0  0  0
    2.9276   53.4728   22.7682 C   0  0  0  0  0  0
    2.7822   54.4969   23.6386 F   0  0  0  0  0  0
    1.5294   51.7952   29.2803 N   0  0  0  0  0  0
    4.0340   54.2333   27.6234 C   0  0  0  0  0  0
    5.0122   53.6342   28.4310 C   0  0  0  0  0  0
    6.3551   53.6989   28.0785 C   0  0  0  0  0  0
    6.7249   54.3159   26.8919 C   0  0  0  0  0  0
    5.7679   54.8674   26.0519 C   0  0  0  0  0  0
    4.4236   54.8261   26.4139 C   0  0  0  0  0  0
    6.3184   55.6973   24.4354 Br  0  0  0  0  0  0
    1.2802   55.1972   30.0833 C   0  0  0  0  0  0
    0.3031   54.8961   30.7596 O   0  0  0  0  0  0
    1.5333   56.4792   29.8199 N   0  0  0  0  0  0
    1.8979   51.2911   31.7356 H   0  0  0  0  0  0
    3.1572   52.4967   31.8599 H   0  0  0  0  0  0
    1.4603   52.9031   32.1705 H   0  0  0  0  0  0
   -0.2613   52.7349   22.5010 H   0  0  0  0  0  0
    0.4479   53.7261   23.7226 H   0  0  0  0  0  0
    1.2386   50.8491   21.4175 H   0  0  0  0  0  0
    3.3779   50.6027   20.2073 H   0  0  0  0  0  0
    5.2266   52.1801   20.6239 H   0  0  0  0  0  0
    4.9408   54.0218   22.2636 H   0  0  0  0  0  0
    3.1994   54.4749   30.1410 H   0  0  0  0  0  0
    4.7530   53.1278   29.3474 H   0  0  0  0  0  0
    7.1137   53.2951   28.7304 H   0  0  0  0  0  0
    7.7621   54.3723   26.6275 H   0  0  0  0  0  0
    3.6883   55.2760   25.7639 H   0  0  0  0  0  0
    2.3731   56.7666   29.3412 H   0  0  0  0  0  0
    0.9017   57.1775   30.1804 H   0  0  0  0  0  0
  1 31  1  0  0  0
  1 32  1  0  0  0
  1 33  1  0  0  0
  1  2  1  0  0  0
  2 20  2  0  0  0
  2  3  1  0  0  0
  3  4  1  0  0  0
  3 28  1  0  0  0
  3 40  1  0  0  0
  4  5  1  0  0  0
  4  6  1  0  0  0
  4 21  1  0  0  0
  6 10  1  0  0  0
  6  7  1  0  0  0
  7  8  2  0  0  0
  7 20  1  0  0  0
  8  9  1  0  0  0
  9 10  2  0  0  0
  9 11  1  0  0  0
 11 12  1  0  0  0
 12 13  1  0  0  0
 12 34  1  0  0  0
 12 35  1  0  0  0
 13 18  2  0  0  0
 13 14  1  0  0  0
 14 15  2  0  0  0
 14 36  1  0  0  0
 15 16  1  0  0  0
 15 37  1  0  0  0
 16 17  2  0  0  0
 16 38  1  0  0  0
 17 18  1  0  0  0
 17 39  1  0  0  0
 18 19  1  0  0  0
 21 26  2  0  0  0
 21 22  1  0  0  0
 22 23  2  0  0  0
 22 41  1  0  0  0
 23 24  1  0  0  0
 23 42  1  0  0  0
 24 25  2  0  0  0
 24 43  1  0  0  0
 25 26  1  0  0  0
 25 27  1  0  0  0
 26 44  1  0  0  0
 28 29  2  0  0  0
 28 30  1  0  0  0
 30 45  1  0  0  0
 30 46  1  0  0  0
M  END
> <i_i_glide_confnum>
27

> <i_i_glide_lignum>
4360

> <i_i_glide_posenum>
313

> <i_i_glide_rotatable_bonds>
5

> <i_m_Source_File_Index>
4447

> <b_m_subgroup_collapsed>
0

> <r_i_docking_score>
-6.27044

> <r_i_glide_ecoul>
3.84334

> <r_i_glide_eff_state_penalty>
0

> <r_i_glide_einternal>
5.81

> <r_i_glide_emodel>
-64.6991

> <r_i_glide_energy>
-48.6979

> <r_i_glide_erotb>
0.359708

> <r_i_glide_esite>
0

> <r_i_glide_evdw>
-52.5412

> <r_i_glide_gscore>
-6.27044

> <r_i_glide_hbond>
0

> <r_i_glide_ligand_efficiency>
-0.216222

> <r_i_glide_ligand_efficiency_ln>
-1.43577

> <r_i_glide_ligand_efficiency_sa>
-0.664302

> <r_i_glide_lipo>
-2.98772

> <r_i_glide_metal>
0

> <r_i_glide_rewards>
-1.59187

> <s_i_glide_gridfile>
wee1_glide-grid

> <s_m_Source_File>
wee1_decoys_glide_SP.sdf

> <s_m_Source_Path>
/Users/zhangxujun/Desktop

> <s_m_entry_id>
4722

> <s_m_entry_name>
wee1_decoys_glide_SP.4447

> <s_m_subgroup_title>
wee1_decoys_glide_SP

> <s_m_subgroupid>
wee1_decoys_glide_SP


$$$$
