ZINC53853448_2523
                    3D
 Schrodinger Suite 2024-2.
 40 43  0  0  1  0            999 V2000
    6.5463   53.6719   28.1129 C   0  0  0  0  0  0
    5.2478   54.2026   27.4656 C   0  0  2  0  0  0
    5.1900   55.2702   27.6932 H   0  0  0  0  0  0
    3.9459   53.6239   28.0627 C   0  0  0  0  0  0
    3.8630   53.3133   29.4358 C   0  0  0  0  0  0
    2.6960   52.7823   29.9992 C   0  0  0  0  0  0
    1.6037   52.5699   29.1653 C   0  0  0  0  0  0
    1.6664   52.8544   27.8320 C   0  0  0  0  0  0
    2.8157   53.3875   27.2543 C   0  0  0  0  0  0
    0.4449   52.5113   27.3074 N   0  0  0  0  0  0
    0.1888   52.5726   26.3350 H   0  0  0  0  0  0
   -0.3918   52.0571   28.2608 C   0  0  0  0  0  0
   -1.5554   51.6968   28.1198 O   0  0  0  0  0  0
    0.3331   52.0945   29.3975 N   0  0  0  0  0  0
   -0.0375   51.8147   30.2947 H   0  0  0  0  0  0
    5.3192   54.0964   26.0045 N   0  0  0  0  0  0
    6.0983   54.8494   25.2107 C   0  0  0  0  0  0
    6.8833   55.6967   25.6357 O   0  0  0  0  0  0
    5.9046   54.6428   23.7999 C   0  0  0  0  0  0
    4.8261   54.0946   23.1114 C   0  0  0  0  0  0
    5.0671   54.2523   21.7083 C   0  0  0  0  0  0
    4.3667   53.9022   20.5441 C   0  0  0  0  0  0
    4.9089   54.2415   19.3047 C   0  0  0  0  0  0
    6.1194   54.9247   19.2073 C   0  0  0  0  0  0
    6.8451   55.2972   20.3392 C   0  0  0  0  0  0
    6.3061   54.9449   21.5811 C   0  0  0  0  0  0
    6.7750   55.1478   22.8606 N   0  0  0  0  0  0
    7.6423   55.5951   23.1338 H   0  0  0  0  0  0
    6.8074   55.3550   17.4865 Br  0  0  0  0  0  0
    6.6426   53.9903   29.1503 H   0  0  0  0  0  0
    6.5876   52.5829   28.0812 H   0  0  0  0  0  0
    7.4402   54.0414   27.6121 H   0  0  0  0  0  0
    4.7044   53.4912   30.0815 H   0  0  0  0  0  0
    2.6520   52.5473   31.0527 H   0  0  0  0  0  0
    2.8277   53.6121   26.1982 H   0  0  0  0  0  0
    4.8908   53.2743   25.6015 H   0  0  0  0  0  0
    3.9543   53.6461   23.5644 H   0  0  0  0  0  0
    3.4196   53.3860   20.5990 H   0  0  0  0  0  0
    4.3812   53.9701   18.4011 H   0  0  0  0  0  0
    7.7892   55.8140   20.2472 H   0  0  0  0  0  0
  1  2  1  0  0  0
  1 30  1  0  0  0
  1 31  1  0  0  0
  1 32  1  0  0  0
  2  3  1  0  0  0
  2  4  1  0  0  0
  2 16  1  0  0  0
  4  9  2  0  0  0
  4  5  1  0  0  0
  5  6  2  0  0  0
  5 33  1  0  0  0
  6  7  1  0  0  0
  6 34  1  0  0  0
  7 14  1  0  0  0
  7  8  2  0  0  0
  8  9  1  0  0  0
  8 10  1  0  0  0
  9 35  1  0  0  0
 10 11  1  0  0  0
 10 12  1  0  0  0
 12 13  2  0  0  0
 12 14  1  0  0  0
 14 15  1  0  0  0
 16 17  1  0  0  0
 16 36  1  0  0  0
 17 18  2  0  0  0
 17 19  1  0  0  0
 19 27  1  0  0  0
 19 20  2  0  0  0
 20 21  1  0  0  0
 20 37  1  0  0  0
 21 26  2  0  0  0
 21 22  1  0  0  0
 22 23  2  0  0  0
 22 38  1  0  0  0
 23 24  1  0  0  0
 23 39  1  0  0  0
 24 25  2  0  0  0
 24 29  1  0  0  0
 25 26  1  0  0  0
 25 40  1  0  0  0
 26 27  1  0  0  0
 27 28  1  0  0  0
M  END
> <i_i_glide_confnum>
1

> <i_i_glide_lignum>
2524

> <i_i_glide_posenum>
328

> <i_i_glide_rotatable_bonds>
4

> <i_m_Source_File_Index>
3465

> <b_m_subgroup_collapsed>
0

> <r_i_docking_score>
-7.0258

> <r_i_glide_ecoul>
-4.04601

> <r_i_glide_eff_state_penalty>
0

> <r_i_glide_einternal>
4.6004

> <r_i_glide_emodel>
-64.8952

> <r_i_glide_energy>
-47.3951

> <r_i_glide_erotb>
0.245839

> <r_i_glide_esite>
-0.024703

> <r_i_glide_evdw>
-43.3491

> <r_i_glide_gscore>
-7.0258

> <r_i_glide_hbond>
-0.49922

> <r_i_glide_ligand_efficiency>
-0.281032

> <r_i_glide_ligand_efficiency_ln>
-1.66532

> <r_i_glide_ligand_efficiency_sa>
-0.821742

> <r_i_glide_lipo>
-2.83638

> <r_i_glide_metal>
0

> <r_i_glide_rewards>
-1.13697

> <s_i_glide_gridfile>
wee1_glide-grid

> <s_m_Source_File>
wee1_decoys_glide_SP.sdf

> <s_m_Source_Path>
/Users/zhangxujun/Desktop

> <s_m_entry_id>
3740

> <s_m_entry_name>
wee1_decoys_glide_SP.3465

> <s_m_subgroup_title>
wee1_decoys_glide_SP

> <s_m_subgroupid>
wee1_decoys_glide_SP


$$$$
