ZINC61709392_1770
                    3D
 Schrodinger Suite 2024-2.
 29 31  0  0  1  0            999 V2000
    2.2474   53.4200   26.2969 C   0  0  0  0  0  0
    2.9381   53.6305   25.1081 C   0  0  0  0  0  0
    4.2470   54.1027   25.1956 C   0  0  0  0  0  0
    4.8406   54.4100   26.4502 C   0  0  0  0  0  0
    4.1100   54.2213   27.6484 C   0  0  0  0  0  0
    2.7945   53.7030   27.5560 C   0  0  0  0  0  0
    1.9935   53.4795   28.6946 N   0  0  0  0  0  0
    1.6463   54.5094   29.6806 C   0  0  0  0  0  0
    0.5184   53.9914   30.5915 C   0  0  0  0  0  0
    0.4315   52.5126   30.2570 C   0  0  2  0  0  0
    1.1652   51.9722   30.8578 H   0  0  0  0  0  0
    0.9307   52.4803   28.8178 C   0  0  0  0  0  0
   -0.8128   51.8847   30.4817 O   0  0  0  0  0  0
    4.7190   54.4973   28.8866 N   0  0  0  0  0  0
    6.1247   54.8746   26.3588 N   0  0  0  0  0  0
    6.5245   54.9240   25.1206 C   0  0  0  0  0  0
    5.3994   54.4032   23.9024 S   0  0  0  0  0  0
    1.2425   53.0354   26.2235 H   0  0  0  0  0  0
    2.4885   53.4009   24.1518 H   0  0  0  0  0  0
    2.5073   54.8585   30.2473 H   0  0  0  0  0  0
    1.2731   55.3812   29.1394 H   0  0  0  0  0  0
    0.7021   54.1587   31.6525 H   0  0  0  0  0  0
   -0.4206   54.4868   30.3397 H   0  0  0  0  0  0
    0.1411   52.7224   28.1054 H   0  0  0  0  0  0
    1.2662   51.4889   28.5094 H   0  0  0  0  0  0
   -1.0309   51.8899   31.4322 H   0  0  0  0  0  0
    4.2414   54.2207   29.7323 H   0  0  0  0  0  0
    5.6855   54.8016   28.9094 H   0  0  0  0  0  0
    7.5044   55.2648   24.8296 H   0  0  0  0  0  0
  1  6  2  0  0  0
  1  2  1  0  0  0
  1 18  1  0  0  0
  2  3  2  0  0  0
  2 19  1  0  0  0
  3 17  1  0  0  0
  3  4  1  0  0  0
  4  5  2  0  0  0
  4 15  1  0  0  0
  5  6  1  0  0  0
  5 14  1  0  0  0
  6  7  1  0  0  0
  7 12  1  0  0  0
  7  8  1  0  0  0
  8  9  1  0  0  0
  8 20  1  0  0  0
  8 21  1  0  0  0
  9 10  1  0  0  0
  9 22  1  0  0  0
  9 23  1  0  0  0
 10 11  1  0  0  0
 10 12  1  0  0  0
 10 13  1  0  0  0
 12 24  1  0  0  0
 12 25  1  0  0  0
 13 26  1  0  0  0
 14 27  1  0  0  0
 14 28  1  0  0  0
 15 16  2  0  0  0
 16 17  1  0  0  0
 16 29  1  0  0  0
M  END
> <i_i_glide_confnum>
3

> <i_i_glide_lignum>
1771

> <i_i_glide_posenum>
62

> <i_i_glide_rotatable_bonds>
2

> <i_m_Source_File_Index>
962

> <b_m_subgroup_collapsed>
0

> <r_i_docking_score>
-6.54572

> <r_i_glide_ecoul>
-3.68443

> <r_i_glide_eff_state_penalty>
0

> <r_i_glide_einternal>
1.46534

> <r_i_glide_emodel>
-49.9876

> <r_i_glide_energy>
-34.9355

> <r_i_glide_erotb>
0.310521

> <r_i_glide_esite>
0

> <r_i_glide_evdw>
-31.2511

> <r_i_glide_gscore>
-6.54572

> <r_i_glide_hbond>
-0.16

> <r_i_glide_ligand_efficiency>
-0.409108

> <r_i_glide_ligand_efficiency_ln>
-1.73507

> <r_i_glide_ligand_efficiency_sa>
-1.03089

> <r_i_glide_lipo>
-2.47376

> <r_i_glide_metal>
0

> <r_i_glide_rewards>
-2.10727

> <s_i_glide_gridfile>
wee1_glide-grid

> <s_m_Source_File>
wee1_decoys_glide_SP.sdf

> <s_m_Source_Path>
/Users/zhangxujun/Desktop

> <s_m_entry_id>
1237

> <s_m_entry_name>
wee1_decoys_glide_SP.962

> <s_m_subgroup_title>
wee1_decoys_glide_SP

> <s_m_subgroupid>
wee1_decoys_glide_SP


$$$$
