ZINC35265306_441
                    3D
 Schrodinger Suite 2024-2.
 61 64  0  0  1  0            999 V2000
    1.5061   51.3896   17.3562 C   0  0  0  0  0  0
    1.6212   52.0457   18.5799 C   0  0  0  0  0  0
    1.3429   51.3710   19.7711 C   0  0  0  0  0  0
    0.9737   50.0172   19.7246 C   0  0  0  0  0  0
    0.8558   49.3651   18.5012 C   0  0  0  0  0  0
    1.1089   50.0488   17.3089 C   0  0  0  0  0  0
    0.9585   49.3197   15.9727 C   0  0  0  0  0  0
    1.5029   48.1022   16.0268 F   0  0  0  0  0  0
   -0.3410   49.1851   15.7091 F   0  0  0  0  0  0
    1.5185   49.9853   14.9610 F   0  0  0  0  0  0
    1.4785   52.1204   20.9561 N   0  0  0  0  0  0
    1.0703   51.8137   22.2023 C   0  0  0  0  0  0
    0.4082   50.8186   22.4977 O   0  0  0  0  0  0
    1.4927   52.7360   23.0908 N   0  0  0  0  0  0
    1.2820   52.7324   24.4840 C   0  0  0  0  0  0
    0.1439   52.1861   25.0898 C   0  0  0  0  0  0
    0.0181   52.1900   26.4751 C   0  0  0  0  0  0
    1.0104   52.7473   27.2872 C   0  0  0  0  0  0
    2.1716   53.2936   26.6926 C   0  0  0  0  0  0
    2.2754   53.2963   25.2875 C   0  0  0  0  0  0
    3.3812   53.6698   27.5246 C   0  0  0  0  0  0
    3.6661   53.0561   28.5562 O   0  0  0  0  0  0
    4.1731   54.6249   27.0169 N   0  0  0  0  0  0
    5.5623   54.8411   27.4235 C   0  0  0  0  0  0
    6.5265   54.9374   26.2289 C   0  0  1  0  0  0
    7.5044   55.1168   26.6598 H   0  0  0  0  0  0
    6.5409   53.6959   25.3603 C   0  0  0  0  0  0
    6.9303   54.1363   23.9751 C   0  0  0  0  0  0
    6.8964   55.6577   24.0720 C   0  0  0  0  0  0
    6.1935   55.9511   25.2825 O   0  0  0  0  0  0
    0.7738   52.8115   28.6646 N   0  0  0  0  0  0
    0.3833   51.6959   29.5208 C   0  0  0  0  0  0
   -0.0851   52.2745   30.8526 C   0  0  0  0  0  0
    0.4974   53.6711   30.8761 C   0  0  0  0  0  0
    0.5255   54.0441   29.4038 C   0  0  0  0  0  0
    1.7268   51.9278   16.4456 H   0  0  0  0  0  0
    1.9226   53.0843   18.5903 H   0  0  0  0  0  0
    0.7786   49.4458   20.6172 H   0  0  0  0  0  0
    0.5651   48.3237   18.4813 H   0  0  0  0  0  0
    1.8758   53.0389   20.8226 H   0  0  0  0  0  0
    2.1314   53.4381   22.7517 H   0  0  0  0  0  0
   -0.6553   51.7604   24.4992 H   0  0  0  0  0  0
   -0.8788   51.7783   26.9166 H   0  0  0  0  0  0
    3.1711   53.6709   24.8087 H   0  0  0  0  0  0
    3.8254   55.2057   26.2703 H   0  0  0  0  0  0
    5.9195   54.0173   28.0472 H   0  0  0  0  0  0
    5.6647   55.6964   28.0760 H   0  0  0  0  0  0
    5.5303   53.2966   25.3110 H   0  0  0  0  0  0
    7.1362   52.8971   25.8003 H   0  0  0  0  0  0
    6.2123   53.7752   23.2362 H   0  0  0  0  0  0
    7.9044   53.7509   23.6823 H   0  0  0  0  0  0
    6.4117   56.0972   23.2055 H   0  0  0  0  0  0
    7.8926   56.0969   24.1338 H   0  0  0  0  0  0
   -0.4469   51.1453   29.0736 H   0  0  0  0  0  0
    1.2268   51.0228   29.6750 H   0  0  0  0  0  0
   -1.1721   52.2836   30.8822 H   0  0  0  0  0  0
    0.2721   51.6969   31.7032 H   0  0  0  0  0  0
    1.5059   53.6721   31.2808 H   0  0  0  0  0  0
   -0.0939   54.3638   31.4753 H   0  0  0  0  0  0
    1.3144   54.7672   29.1935 H   0  0  0  0  0  0
   -0.4070   54.4945   29.0678 H   0  0  0  0  0  0
  1  6  2  0  0  0
  1  2  1  0  0  0
  1 36  1  0  0  0
  2  3  2  0  0  0
  2 37  1  0  0  0
  3  4  1  0  0  0
  3 11  1  0  0  0
  4  5  2  0  0  0
  4 38  1  0  0  0
  5  6  1  0  0  0
  5 39  1  0  0  0
  6  7  1  0  0  0
  7  8  1  0  0  0
  7  9  1  0  0  0
  7 10  1  0  0  0
 11 12  1  0  0  0
 11 40  1  0  0  0
 12 13  2  0  0  0
 12 14  1  0  0  0
 14 15  1  0  0  0
 14 41  1  0  0  0
 15 20  2  0  0  0
 15 16  1  0  0  0
 16 17  2  0  0  0
 16 42  1  0  0  0
 17 18  1  0  0  0
 17 43  1  0  0  0
 18 19  2  0  0  0
 18 31  1  0  0  0
 19 20  1  0  0  0
 19 21  1  0  0  0
 20 44  1  0  0  0
 21 22  2  0  0  0
 21 23  1  0  0  0
 23 24  1  0  0  0
 23 45  1  0  0  0
 24 25  1  0  0  0
 24 46  1  0  0  0
 24 47  1  0  0  0
 25 26  1  0  0  0
 25 30  1  0  0  0
 25 27  1  0  0  0
 27 28  1  0  0  0
 27 48  1  0  0  0
 27 49  1  0  0  0
 28 29  1  0  0  0
 28 50  1  0  0  0
 28 51  1  0  0  0
 29 30  1  0  0  0
 29 52  1  0  0  0
 29 53  1  0  0  0
 31 35  1  0  0  0
 31 32  1  0  0  0
 32 33  1  0  0  0
 32 54  1  0  0  0
 32 55  1  0  0  0
 33 34  1  0  0  0
 33 56  1  0  0  0
 33 57  1  0  0  0
 34 35  1  0  0  0
 34 58  1  0  0  0
 34 59  1  0  0  0
 35 60  1  0  0  0
 35 61  1  0  0  0
M  END
> <i_i_glide_confnum>
149

> <i_i_glide_lignum>
442

> <i_i_glide_posenum>
266

> <i_i_glide_rotatable_bonds>
10

> <i_m_Source_File_Index>
3827

> <b_m_subgroup_collapsed>
0

> <r_i_docking_score>
-4.84653

> <r_i_glide_ecoul>
-3.1369

> <r_i_glide_eff_state_penalty>
0

> <r_i_glide_einternal>
10.5788

> <r_i_glide_emodel>
-50.7064

> <r_i_glide_energy>
-40.9822

> <r_i_glide_erotb>
0.713523

> <r_i_glide_esite>
-0.158914

> <r_i_glide_evdw>
-37.8452

> <r_i_glide_gscore>
-4.84653

> <r_i_glide_hbond>
-0.051678

> <r_i_glide_ligand_efficiency>
-0.142545

> <r_i_glide_ligand_efficiency_ln>
-1.07073

> <r_i_glide_ligand_efficiency_sa>
-0.46179

> <r_i_glide_lipo>
-2.27657

> <r_i_glide_metal>
0

> <r_i_glide_rewards>
-0.710094

> <s_i_glide_gridfile>
wee1_glide-grid

> <s_m_Source_File>
wee1_decoys_glide_SP.sdf

> <s_m_Source_Path>
/Users/zhangxujun/Desktop

> <s_m_entry_id>
4102

> <s_m_entry_name>
wee1_decoys_glide_SP.3827

> <s_m_subgroup_title>
wee1_decoys_glide_SP

> <s_m_subgroupid>
wee1_decoys_glide_SP


$$$$
