ZINC06251736_4579
                    3D
 Schrodinger Suite 2024-2.
 45 46  0  0  1  0            999 V2000
    6.5381   55.4834   24.7830 C   0  0  0  0  0  0
    5.8942   54.1255   24.4040 C   0  0  2  0  0  0
    6.4694   53.2988   24.8313 H   0  0  0  0  0  0
    5.8589   53.8388   22.8849 C   0  0  0  0  0  0
    5.8902   52.6759   22.4817 O   0  0  0  0  0  0
    5.7707   54.8970   22.0636 N   0  0  0  0  0  0
    5.8565   54.7280   20.6901 N   0  0  0  0  0  0
    6.3789   55.7603   19.9999 C   0  0  0  0  0  0
    6.7044   56.8529   20.4820 O   0  0  0  0  0  0
    6.4665   55.4744   18.6910 N   0  0  0  0  0  0
    6.7661   56.4432   17.6330 C   0  0  0  0  0  0
    7.2307   55.7789   16.3159 C   0  0  0  0  0  0
    7.5435   56.7893   15.1939 C   0  0  0  0  0  0
    6.3864   57.7735   14.9598 C   0  0  0  0  0  0
    5.9958   58.4968   16.2590 C   0  0  0  0  0  0
    5.6711   57.5183   17.4040 C   0  0  0  0  0  0
    4.5408   54.0839   24.8638 O   0  0  0  0  0  0
    4.2414   53.8290   26.1927 C   0  0  0  0  0  0
    5.2050   53.7016   27.2086 C   0  0  0  0  0  0
    4.8241   53.4265   28.5194 C   0  0  0  0  0  0
    3.4794   53.2616   28.8407 C   0  0  0  0  0  0
    2.5124   53.3739   27.8432 C   0  0  0  0  0  0
    2.8906   53.6489   26.5267 C   0  0  0  0  0  0
    1.6703   53.6970   25.3026 Cl  0  0  0  0  0  0
    3.0199   52.8929   30.4639 Cl  0  0  0  0  0  0
    7.5043   55.6160   24.2993 H   0  0  0  0  0  0
    5.9058   56.3178   24.4818 H   0  0  0  0  0  0
    6.6968   55.5887   25.8542 H   0  0  0  0  0  0
    5.9362   55.8507   22.3519 H   0  0  0  0  0  0
    6.1033   53.7755   20.4618 H   0  0  0  0  0  0
    6.1609   54.5643   18.3787 H   0  0  0  0  0  0
    7.6475   56.9969   17.9707 H   0  0  0  0  0  0
    8.1100   55.1586   16.4964 H   0  0  0  0  0  0
    6.4423   55.1139   15.9580 H   0  0  0  0  0  0
    8.4448   57.3474   15.4542 H   0  0  0  0  0  0
    7.7734   56.2584   14.2684 H   0  0  0  0  0  0
    6.6689   58.5045   14.2007 H   0  0  0  0  0  0
    5.5215   57.2391   14.5621 H   0  0  0  0  0  0
    6.8104   59.1544   16.5685 H   0  0  0  0  0  0
    5.1444   59.1547   16.0802 H   0  0  0  0  0  0
    4.7285   57.0215   17.1671 H   0  0  0  0  0  0
    5.5052   58.0904   18.3182 H   0  0  0  0  0  0
    6.2594   53.7915   27.0055 H   0  0  0  0  0  0
    5.5802   53.3277   29.2816 H   0  0  0  0  0  0
    1.4699   53.2260   28.0851 H   0  0  0  0  0  0
  1  2  1  0  0  0
  1 26  1  0  0  0
  1 27  1  0  0  0
  1 28  1  0  0  0
  2  3  1  0  0  0
  2  4  1  0  0  0
  2 17  1  0  0  0
  4  5  2  0  0  0
  4  6  1  0  0  0
  6  7  1  0  0  0
  6 29  1  0  0  0
  7  8  1  0  0  0
  7 30  1  0  0  0
  8  9  2  0  0  0
  8 10  1  0  0  0
 10 11  1  0  0  0
 10 31  1  0  0  0
 11 16  1  0  0  0
 11 12  1  0  0  0
 11 32  1  0  0  0
 12 13  1  0  0  0
 12 33  1  0  0  0
 12 34  1  0  0  0
 13 14  1  0  0  0
 13 35  1  0  0  0
 13 36  1  0  0  0
 14 15  1  0  0  0
 14 37  1  0  0  0
 14 38  1  0  0  0
 15 16  1  0  0  0
 15 39  1  0  0  0
 15 40  1  0  0  0
 16 41  1  0  0  0
 16 42  1  0  0  0
 17 18  1  0  0  0
 18 23  2  0  0  0
 18 19  1  0  0  0
 19 20  2  0  0  0
 19 43  1  0  0  0
 20 21  1  0  0  0
 20 44  1  0  0  0
 21 22  2  0  0  0
 21 25  1  0  0  0
 22 23  1  0  0  0
 22 45  1  0  0  0
 23 24  1  0  0  0
M  END
> <i_i_glide_confnum>
132

> <i_i_glide_lignum>
4580

> <i_i_glide_posenum>
315

> <i_i_glide_rotatable_bonds>
8

> <i_m_Source_File_Index>
2089

> <b_m_subgroup_collapsed>
0

> <r_i_docking_score>
-5.40637

> <r_i_glide_ecoul>
-4.89392

> <r_i_glide_eff_state_penalty>
0

> <r_i_glide_einternal>
23.7163

> <r_i_glide_emodel>
-38.5841

> <r_i_glide_energy>
-36.6983

> <r_i_glide_erotb>
0.828179

> <r_i_glide_esite>
0

> <r_i_glide_evdw>
-31.8044

> <r_i_glide_gscore>
-5.40637

> <r_i_glide_hbond>
-0.32

> <r_i_glide_ligand_efficiency>
-0.225266

> <r_i_glide_ligand_efficiency_ln>
-1.29399

> <r_i_glide_ligand_efficiency_sa>
-0.649778

> <r_i_glide_lipo>
-2.17648

> <r_i_glide_metal>
0

> <r_i_glide_rewards>
-1.41377

> <s_i_glide_gridfile>
wee1_glide-grid

> <s_m_Source_File>
wee1_decoys_glide_SP.sdf

> <s_m_Source_Path>
/Users/zhangxujun/Desktop

> <s_m_entry_id>
2364

> <s_m_entry_name>
wee1_decoys_glide_SP.2089

> <s_m_subgroup_title>
wee1_decoys_glide_SP

> <s_m_subgroupid>
wee1_decoys_glide_SP


$$$$
