ZINC59015208_454
                    3D
 Schrodinger Suite 2024-2.
 41 43  0  0  1  0            999 V2000
    0.7311   50.0526   23.2312 C   0  0  0  0  0  0
   -0.2963   49.6343   24.0729 C   0  0  0  0  0  0
   -1.1074   50.5803   24.6926 C   0  0  0  0  0  0
   -0.8804   51.9405   24.5026 C   0  0  0  0  0  0
    0.1528   52.3579   23.6684 C   0  0  0  0  0  0
    0.9581   51.4193   23.0117 C   0  0  0  0  0  0
    2.0172   51.8949   22.1182 C   0  0  0  0  0  0
    2.6068   51.1663   21.2509 N   0  0  0  0  0  0
    3.6850   51.6794   20.4791 N   0  0  0  0  0  0
    4.3676   52.8626   20.6743 C   0  0  0  0  0  0
    5.1044   53.1679   21.7041 N   0  0  0  0  0  0
    5.5404   54.3896   21.4158 C   0  0  0  0  0  0
    5.1044   54.8954   20.2777 N   0  0  0  0  0  0
    4.3224   53.9159   19.8159 N   0  0  0  0  0  0
    6.7044   55.2686   22.4254 S   0  0  0  0  0  0
    6.8584   54.1553   23.8662 C   0  0  0  0  0  0
    6.1370   54.6321   25.1234 C   0  0  0  0  0  0
    6.7045   55.4201   25.8813 O   0  0  0  0  0  0
    4.9159   54.0966   25.3214 N   0  0  0  0  0  0
    4.0975   54.1263   26.4637 C   0  0  0  0  0  0
    4.5434   54.4966   27.7415 C   0  0  0  0  0  0
    3.6562   54.4966   28.8153 C   0  0  0  0  0  0
    2.3332   54.1040   28.6230 C   0  0  0  0  0  0
    1.8981   53.6880   27.3672 C   0  0  0  0  0  0
    2.7791   53.6968   26.2894 C   0  0  0  0  0  0
    1.1069   54.1363   30.0808 Br  0  0  0  0  0  0
   -2.4157   50.0642   25.6895 Cl  0  0  0  0  0  0
    1.3507   49.3055   22.7547 H   0  0  0  0  0  0
   -0.4661   48.5805   24.2402 H   0  0  0  0  0  0
   -1.5102   52.6676   24.9929 H   0  0  0  0  0  0
    0.3094   53.4182   23.5253 H   0  0  0  0  0  0
    2.2752   52.9431   22.2503 H   0  0  0  0  0  0
    4.0367   51.0149   19.7942 H   0  0  0  0  0  0
    7.9044   54.0964   24.1249 H   0  0  0  0  0  0
    6.5986   53.1284   23.6349 H   0  0  0  0  0  0
    4.5382   53.5666   24.5515 H   0  0  0  0  0  0
    5.5647   54.7960   27.9225 H   0  0  0  0  0  0
    3.9988   54.8057   29.7907 H   0  0  0  0  0  0
    0.8770   53.3640   27.2290 H   0  0  0  0  0  0
    2.4262   53.3769   25.3199 H   0  0  0  0  0  0
    3.8094   53.9598   18.9472 H   0  0  0  0  0  0
  1  6  2  0  0  0
  1  2  1  0  0  0
  1 28  1  0  0  0
  2  3  2  0  0  0
  2 29  1  0  0  0
  3  4  1  0  0  0
  3 27  1  0  0  0
  4  5  2  0  0  0
  4 30  1  0  0  0
  5  6  1  0  0  0
  5 31  1  0  0  0
  6  7  1  0  0  0
  7  8  2  0  0  0
  7 32  1  0  0  0
  8  9  1  0  0  0
  9 10  1  0  0  0
  9 33  1  0  0  0
 10 14  1  0  0  0
 10 11  2  0  0  0
 11 12  1  0  0  0
 12 13  2  0  0  0
 12 15  1  0  0  0
 13 14  1  0  0  0
 14 41  1  0  0  0
 15 16  1  0  0  0
 16 17  1  0  0  0
 16 34  1  0  0  0
 16 35  1  0  0  0
 17 18  2  0  0  0
 17 19  1  0  0  0
 19 20  1  0  0  0
 19 36  1  0  0  0
 20 25  2  0  0  0
 20 21  1  0  0  0
 21 22  2  0  0  0
 21 37  1  0  0  0
 22 23  1  0  0  0
 22 38  1  0  0  0
 23 24  2  0  0  0
 23 26  1  0  0  0
 24 25  1  0  0  0
 24 39  1  0  0  0
 25 40  1  0  0  0
M  END
> <i_i_glide_confnum>
138

> <i_i_glide_lignum>
455

> <i_i_glide_posenum>
322

> <i_i_glide_rotatable_bonds>
8

> <i_m_Source_File_Index>
5268

> <b_m_subgroup_collapsed>
0

> <r_i_docking_score>
-5.96953

> <r_i_glide_ecoul>
-4.57267

> <r_i_glide_eff_state_penalty>
0

> <r_i_glide_einternal>
9.18631

> <r_i_glide_emodel>
-64.1436

> <r_i_glide_energy>
-48.8713

> <r_i_glide_erotb>
0.557867

> <r_i_glide_esite>
-0.0426902

> <r_i_glide_evdw>
-44.2986

> <r_i_glide_gscore>
-5.96953

> <r_i_glide_hbond>
-0.394981

> <r_i_glide_ligand_efficiency>
-0.221094

> <r_i_glide_ligand_efficiency_ln>
-1.38961

> <r_i_glide_ligand_efficiency_sa>
-0.663281

> <r_i_glide_lipo>
-2.15948

> <r_i_glide_metal>
0

> <r_i_glide_rewards>
-1.02941

> <s_i_glide_gridfile>
wee1_glide-grid

> <s_m_Source_File>
wee1_decoys_glide_SP.sdf

> <s_m_Source_Path>
/Users/zhangxujun/Desktop

> <s_m_entry_id>
5543

> <s_m_entry_name>
wee1_decoys_glide_SP.5268

> <s_m_subgroup_title>
wee1_decoys_glide_SP

> <s_m_subgroupid>
wee1_decoys_glide_SP


$$$$
