ZINC02820168_5234
                    3D
 Schrodinger Suite 2024-2.
 71 75  0  0  1  0            999 V2000
    1.2861   52.8809   13.6453 C   0  0  0  0  0  0
    0.4649   53.5113   14.5772 C   0  0  0  0  0  0
    0.5834   53.1931   15.9288 C   0  0  0  0  0  0
    1.5159   52.2382   16.3453 C   0  0  0  0  0  0
    2.3392   51.6153   15.4002 C   0  0  0  0  0  0
    2.2236   51.9354   14.0507 C   0  0  0  0  0  0
    1.6642   51.9201   17.8382 C   0  0  0  0  0  0
    1.0035   50.5837   18.2095 C   0  0  0  0  0  0
   -0.3924   50.5189   18.2742 C   0  0  0  0  0  0
   -1.0258   49.3284   18.6194 C   0  0  0  0  0  0
   -0.2621   48.1971   18.9016 C   0  0  0  0  0  0
    1.1289   48.2492   18.8467 C   0  0  0  0  0  0
    1.7605   49.4412   18.5048 C   0  0  0  0  0  0
    3.0994   52.1124   19.9549 C   0  0  0  0  0  0
    4.5425   52.2720   20.4698 C   0  0  0  0  0  0
    5.0538   53.5634   19.9655 N   0  0  0  0  0  0
    5.1430   53.6520   18.4985 C   0  0  0  0  0  0
    3.7156   53.4803   17.9338 C   0  0  0  0  0  0
    5.5051   54.5761   20.7567 C   0  0  0  0  0  0
    6.1272   55.5480   20.3265 O   0  0  0  0  0  0
    5.2303   54.4960   22.2326 C   0  0  0  0  0  0
    3.9198   54.3059   22.6906 C   0  0  0  0  0  0
    3.6697   54.1668   24.0471 C   0  0  0  0  0  0
    4.7263   54.2484   24.9513 C   0  0  0  0  0  0
    6.0306   54.4781   24.5119 C   0  0  0  0  0  0
    6.2841   54.6036   23.1483 C   0  0  0  0  0  0
    4.4398   54.0883   26.3617 C   0  0  0  0  0  0
    4.1104   53.9784   27.5303 C   0  0  0  0  0  0
    3.6576   53.9567   28.9324 C   0  0  0  0  0  0
    2.4069   54.8552   29.1085 C   0  0  0  0  0  0
    1.1388   54.2423   28.4827 C   0  0  0  0  0  0
    0.8615   52.8228   29.0138 C   0  0  0  0  0  0
    2.0794   51.8975   28.8250 C   0  0  0  0  0  0
    3.3701   52.5082   29.4214 C   0  0  0  0  0  0
    4.7044   54.4971   29.6817 O   0  0  0  0  0  0
    1.1982   53.1322   12.5987 H   0  0  0  0  0  0
   -0.2553   54.2492   14.2547 H   0  0  0  0  0  0
   -0.0507   53.6940   16.6464 H   0  0  0  0  0  0
    3.0840   50.8968   15.7104 H   0  0  0  0  0  0
    2.8648   51.4566   13.3256 H   0  0  0  0  0  0
    1.1286   52.6917   18.3963 H   0  0  0  0  0  0
   -0.9902   51.3905   18.0548 H   0  0  0  0  0  0
   -2.1037   49.2810   18.6653 H   0  0  0  0  0  0
   -0.7535   47.2726   19.1652 H   0  0  0  0  0  0
    1.7192   47.3718   19.0667 H   0  0  0  0  0  0
    2.8396   49.4666   18.4804 H   0  0  0  0  0  0
    2.4209   52.8900   20.3103 H   0  0  0  0  0  0
    2.7181   51.1420   20.2691 H   0  0  0  0  0  0
    5.1664   51.4665   20.0818 H   0  0  0  0  0  0
    4.6064   52.1563   21.5517 H   0  0  0  0  0  0
    5.5714   54.5981   18.1619 H   0  0  0  0  0  0
    5.7966   52.8647   18.1172 H   0  0  0  0  0  0
    3.0396   54.2935   18.2106 H   0  0  0  0  0  0
    3.7873   53.4297   16.8476 H   0  0  0  0  0  0
    3.0899   54.2609   21.9990 H   0  0  0  0  0  0
    2.6567   54.0021   24.3888 H   0  0  0  0  0  0
    6.8478   54.5451   25.2155 H   0  0  0  0  0  0
    7.2995   54.7673   22.8110 H   0  0  0  0  0  0
    2.5743   55.8556   28.7051 H   0  0  0  0  0  0
    2.2165   55.0045   30.1714 H   0  0  0  0  0  0
    1.2361   54.2137   27.3957 H   0  0  0  0  0  0
    0.3020   54.8968   28.6939 H   0  0  0  0  0  0
   -0.0077   52.3980   28.5105 H   0  0  0  0  0  0
    0.6018   52.8717   30.0737 H   0  0  0  0  0  0
    2.2267   51.7067   27.7610 H   0  0  0  0  0  0
    1.8763   50.9269   29.2774 H   0  0  0  0  0  0
    3.2666   52.5162   30.5083 H   0  0  0  0  0  0
    4.2227   51.8552   29.2209 H   0  0  0  0  0  0
    4.9651   55.3302   29.2818 H   0  0  0  0  0  0
    3.1043   52.1316   18.4037 N   0  3  0  0  0  0
    3.7056   51.3735   18.0821 H   0  0  0  0  0  0
  1  6  2  0  0  0
  1  2  1  0  0  0
  1 36  1  0  0  0
  2  3  2  0  0  0
  2 37  1  0  0  0
  3  4  1  0  0  0
  3 38  1  0  0  0
  4  5  2  0  0  0
  4  7  1  0  0  0
  5  6  1  0  0  0
  5 39  1  0  0  0
  6 40  1  0  0  0
  7  8  1  0  0  0
  7 41  1  0  0  0
  7 70  1  0  0  0
  8 13  2  0  0  0
  8  9  1  0  0  0
  9 10  2  0  0  0
  9 42  1  0  0  0
 10 11  1  0  0  0
 10 43  1  0  0  0
 11 12  2  0  0  0
 11 44  1  0  0  0
 12 13  1  0  0  0
 12 45  1  0  0  0
 13 46  1  0  0  0
 14 15  1  0  0  0
 14 47  1  0  0  0
 14 48  1  0  0  0
 14 70  1  0  0  0
 15 16  1  0  0  0
 15 49  1  0  0  0
 15 50  1  0  0  0
 16 17  1  0  0  0
 16 19  1  0  0  0
 17 18  1  0  0  0
 17 51  1  0  0  0
 17 52  1  0  0  0
 18 53  1  0  0  0
 18 54  1  0  0  0
 18 70  1  0  0  0
 19 20  2  0  0  0
 19 21  1  0  0  0
 21 26  2  0  0  0
 21 22  1  0  0  0
 22 23  2  0  0  0
 22 55  1  0  0  0
 23 24  1  0  0  0
 23 56  1  0  0  0
 24 25  2  0  0  0
 24 27  1  0  0  0
 25 26  1  0  0  0
 25 57  1  0  0  0
 26 58  1  0  0  0
 27 28  3  0  0  0
 28 29  1  0  0  0
 29 34  1  0  0  0
 29 30  1  0  0  0
 29 35  1  0  0  0
 30 31  1  0  0  0
 30 59  1  0  0  0
 30 60  1  0  0  0
 31 32  1  0  0  0
 31 61  1  0  0  0
 31 62  1  0  0  0
 32 33  1  0  0  0
 32 63  1  0  0  0
 32 64  1  0  0  0
 33 34  1  0  0  0
 33 65  1  0  0  0
 33 66  1  0  0  0
 34 67  1  0  0  0
 34 68  1  0  0  0
 35 69  1  0  0  0
 70 71  1  0  0  0
M  CHG  1  70   1
M  END
> <i_i_glide_confnum>
43

> <i_i_glide_lignum>
5235

> <i_i_glide_posenum>
394

> <i_i_glide_rotatable_bonds>
8

> <i_m_Source_File_Index>
1470

> <b_m_subgroup_collapsed>
0

> <r_i_docking_score>
-5.81108

> <r_i_glide_ecoul>
-3.29499

> <r_i_glide_eff_state_penalty>
0

> <r_i_glide_einternal>
4.6197

> <r_i_glide_emodel>
-64.4115

> <r_i_glide_energy>
-46.2605

> <r_i_glide_erotb>
0.616883

> <r_i_glide_esite>
-0.106417

> <r_i_glide_evdw>
-42.9655

> <r_i_glide_gscore>
-5.81108

> <r_i_glide_hbond>
-0.2

> <r_i_glide_ligand_efficiency>
-0.161419

> <r_i_glide_ligand_efficiency_ln>
-1.26782

> <r_i_glide_ligand_efficiency_sa>
-0.532993

> <r_i_glide_lipo>
-3.10539

> <r_i_glide_metal>
0

> <r_i_glide_rewards>
-0.373633

> <s_i_glide_gridfile>
wee1_glide-grid

> <s_m_Source_File>
wee1_decoys_glide_SP.sdf

> <s_m_Source_Path>
/Users/zhangxujun/Desktop

> <s_m_entry_id>
1745

> <s_m_entry_name>
wee1_decoys_glide_SP.1470

> <s_m_subgroup_title>
wee1_decoys_glide_SP

> <s_m_subgroupid>
wee1_decoys_glide_SP


$$$$
