ZINC65601422_6220
                    3D
 Schrodinger Suite 2024-2.
 59 60  0  0  1  0            999 V2000
    0.6262   50.4369   16.1030 C   0  0  0  0  0  0
    1.4831   51.6356   16.5523 C   0  0  1  0  0  0
    1.9773   51.4479   17.9961 C   0  0  0  0  0  0
    2.7497   52.6833   18.4767 C   0  0  0  0  0  0
    3.9721   52.8966   17.5444 N   0  3  1  0  0  0
    3.5580   53.0263   16.0546 C   0  0  0  0  0  0
    2.7165   51.8043   15.6482 C   0  0  0  0  0  0
    4.9214   54.0612   17.9635 C   0  0  1  0  0  0
    4.1593   55.3864   18.2058 C   0  0  0  0  0  0
    5.8440   53.6193   19.1271 C   0  0  0  0  0  0
    5.1923   53.6224   20.4381 N   0  0  0  0  0  0
    5.4638   54.4142   21.4927 C   0  0  0  0  0  0
    6.3175   55.3049   21.4985 O   0  0  0  0  0  0
    4.6194   54.0709   22.6678 C   0  0  0  0  0  0
    3.5726   53.4207   22.5477 O   0  0  0  0  0  0
    5.1437   54.4947   23.8435 N   0  0  0  0  0  0
    4.6273   54.2591   25.1292 C   0  0  0  0  0  0
    3.2651   54.0457   25.3774 C   0  0  0  0  0  0
    2.8299   53.7390   26.6591 C   0  0  0  0  0  0
    3.7416   53.6619   27.7212 C   0  0  0  0  0  0
    5.0937   53.9414   27.4791 C   0  0  0  0  0  0
    5.5347   54.2379   26.1918 C   0  0  0  0  0  0
    3.2748   53.3176   29.1138 C   0  0  0  0  0  0
    3.9044   53.6892   30.1044 O   0  0  0  0  0  0
    2.1229   52.6240   29.1956 N   0  0  0  0  0  0
    1.3415   52.4230   30.4147 C   0  0  0  0  0  0
    0.6100   53.6459   30.9488 C   0  0  0  0  0  0
    0.7034   54.9018   30.4811 C   0  0  0  0  0  0
    1.1944   49.5047   16.1446 H   0  0  0  0  0  0
   -0.2493   50.3155   16.7416 H   0  0  0  0  0  0
    0.2696   50.5617   15.0793 H   0  0  0  0  0  0
    0.8779   52.5411   16.5003 H   0  0  0  0  0  0
    2.5923   50.5483   18.0795 H   0  0  0  0  0  0
    1.1287   51.2601   18.6566 H   0  0  0  0  0  0
    3.1215   52.4852   19.4789 H   0  0  0  0  0  0
    2.1388   53.5876   18.4722 H   0  0  0  0  0  0
    3.0269   53.9697   15.9225 H   0  0  0  0  0  0
    4.4801   53.0351   15.4706 H   0  0  0  0  0  0
    2.4063   51.8930   14.6052 H   0  0  0  0  0  0
    3.3201   50.8987   15.6787 H   0  0  0  0  0  0
    5.5698   54.1781   17.0929 H   0  0  0  0  0  0
    4.8623   56.2018   18.3897 H   0  0  0  0  0  0
    3.5518   55.6753   17.3505 H   0  0  0  0  0  0
    3.5080   55.3277   19.0766 H   0  0  0  0  0  0
    6.7191   54.2716   19.1466 H   0  0  0  0  0  0
    6.2374   52.6170   18.9367 H   0  0  0  0  0  0
    4.4856   52.9192   20.5926 H   0  0  0  0  0  0
    6.0502   54.9402   23.7960 H   0  0  0  0  0  0
    2.5269   54.1032   24.5926 H   0  0  0  0  0  0
    1.7740   53.5712   26.8081 H   0  0  0  0  0  0
    5.8132   53.9094   28.2855 H   0  0  0  0  0  0
    6.5859   54.4096   26.0204 H   0  0  0  0  0  0
    1.6937   52.3188   28.3350 H   0  0  0  0  0  0
    1.9399   51.9632   31.2046 H   0  0  0  0  0  0
    0.5637   51.6969   30.1804 H   0  0  0  0  0  0
   -0.0403   53.4556   31.7918 H   0  0  0  0  0  0
    1.3325   55.1703   29.6462 H   0  0  0  0  0  0
    0.1390   55.6988   30.9362 H   0  0  0  0  0  0
    4.5105   52.0289   17.6121 H   0  0  0  0  0  0
  1  2  1  0  0  0
  1 29  1  0  0  0
  1 30  1  0  0  0
  1 31  1  0  0  0
  2  7  1  0  0  0
  2  3  1  0  0  0
  2 32  1  0  0  0
  3  4  1  0  0  0
  3 33  1  0  0  0
  3 34  1  0  0  0
  4  5  1  0  0  0
  4 35  1  0  0  0
  4 36  1  0  0  0
  5  6  1  0  0  0
  5  8  1  0  0  0
  5 59  1  0  0  0
  6  7  1  0  0  0
  6 37  1  0  0  0
  6 38  1  0  0  0
  7 39  1  0  0  0
  7 40  1  0  0  0
  8  9  1  0  0  0
  8 10  1  0  0  0
  8 41  1  0  0  0
  9 42  1  0  0  0
  9 43  1  0  0  0
  9 44  1  0  0  0
 10 11  1  0  0  0
 10 45  1  0  0  0
 10 46  1  0  0  0
 11 12  1  0  0  0
 11 47  1  0  0  0
 12 13  2  0  0  0
 12 14  1  0  0  0
 14 15  2  0  0  0
 14 16  1  0  0  0
 16 17  1  0  0  0
 16 48  1  0  0  0
 17 22  2  0  0  0
 17 18  1  0  0  0
 18 19  2  0  0  0
 18 49  1  0  0  0
 19 20  1  0  0  0
 19 50  1  0  0  0
 20 21  2  0  0  0
 20 23  1  0  0  0
 21 22  1  0  0  0
 21 51  1  0  0  0
 22 52  1  0  0  0
 23 24  2  0  0  0
 23 25  1  0  0  0
 25 26  1  0  0  0
 25 53  1  0  0  0
 26 27  1  0  0  0
 26 54  1  0  0  0
 26 55  1  0  0  0
 27 28  2  0  0  0
 27 56  1  0  0  0
 28 57  1  0  0  0
 28 58  1  0  0  0
M  CHG  1   5   1
M  END
> <i_i_glide_confnum>
48

> <i_i_glide_lignum>
6221

> <i_i_glide_posenum>
371

> <i_i_glide_rotatable_bonds>
11

> <i_m_Source_File_Index>
6020

> <b_m_subgroup_collapsed>
0

> <r_i_docking_score>
-5.41117

> <r_i_glide_ecoul>
-5.69486

> <r_i_glide_eff_state_penalty>
0

> <r_i_glide_einternal>
7.78325

> <r_i_glide_emodel>
-58.4667

> <r_i_glide_energy>
-44.1686

> <r_i_glide_erotb>
1.42666

> <r_i_glide_esite>
-0.0738165

> <r_i_glide_evdw>
-38.4738

> <r_i_glide_gscore>
-5.41117

> <r_i_glide_hbond>
-0.499529

> <r_i_glide_ligand_efficiency>
-0.193256

> <r_i_glide_ligand_efficiency_ln>
-1.24906

> <r_i_glide_ligand_efficiency_sa>
-0.586839

> <r_i_glide_lipo>
-1.94172

> <r_i_glide_metal>
0

> <r_i_glide_rewards>
-1.54485

> <s_i_glide_gridfile>
wee1_glide-grid

> <s_m_Source_File>
wee1_decoys_glide_SP.sdf

> <s_m_Source_Path>
/Users/zhangxujun/Desktop

> <s_m_entry_id>
6295

> <s_m_entry_name>
wee1_decoys_glide_SP.6020

> <s_m_subgroup_title>
wee1_decoys_glide_SP

> <s_m_subgroupid>
wee1_decoys_glide_SP


$$$$
