ZINC38684375_6009
                    3D
 Schrodinger Suite 2024-2.
 54 57  0  0  1  0            999 V2000
    0.7047   52.8957   31.6299 C   0  0  0  0  0  0
    0.3977   53.6067   30.3072 C   0  0  0  0  0  0
    1.1225   54.9592   30.1411 C   0  0  0  0  0  0
    2.5255   54.8037   29.9325 O   0  0  0  0  0  0
    2.9936   54.4214   28.6881 C   0  0  0  0  0  0
    4.3778   54.3746   28.5297 C   0  0  0  0  0  0
    4.9388   54.0219   27.3058 C   0  0  0  0  0  0
    4.1145   53.6968   26.2305 C   0  0  0  0  0  0
    2.7170   53.6967   26.3609 C   0  0  0  0  0  0
    2.1769   54.0939   27.5905 C   0  0  0  0  0  0
    1.7675   53.3508   25.1869 C   0  0  1  0  0  0
    1.1045   54.2139   25.1559 H   0  0  0  0  0  0
    2.4110   53.3183   23.7920 C   0  0  0  0  0  0
    3.1037   54.4195   23.2989 C   0  0  0  0  0  0
    3.7011   54.4002   22.0468 C   0  0  0  0  0  0
    3.6243   53.2632   21.2277 C   0  0  0  0  0  0
    2.9063   52.1592   21.6987 C   0  0  0  0  0  0
    2.3044   52.1880   22.9606 C   0  0  0  0  0  0
    1.6220   51.0544   23.3544 O   0  0  0  0  0  0
    0.8689   51.1054   24.4820 C   0  0  0  0  0  0
    0.8651   52.1224   25.3702 C   0  0  0  0  0  0
   -0.0325   52.0869   26.4793 C   0  0  0  0  0  0
   -0.7922   52.0956   27.3511 N   0  0  0  0  0  0
    0.1586   49.9392   24.5665 N   0  0  0  0  0  0
    4.1652   53.1753   19.9532 O   0  0  0  0  0  0
    5.2419   53.9158   19.5072 C   0  0  0  0  0  0
    5.9104   54.6670   20.2199 O   0  0  0  0  0  0
    5.5252   53.7061   18.0458 C   0  0  0  0  0  0
    4.4800   53.2963   17.1969 C   0  0  0  0  0  0
    4.6987   53.0625   15.8409 C   0  0  0  0  0  0
    5.9681   53.2398   15.3014 C   0  0  0  0  0  0
    7.0152   53.6553   16.1191 C   0  0  0  0  0  0
    6.8097   53.8919   17.4803 C   0  0  0  0  0  0
    8.3432   54.4490   18.4813 Br  0  0  0  0  0  0
    0.1882   51.9374   31.6818 H   0  0  0  0  0  0
    0.3830   53.4868   32.4885 H   0  0  0  0  0  0
    1.7702   52.6932   31.7343 H   0  0  0  0  0  0
    0.6544   52.9286   29.4960 H   0  0  0  0  0  0
   -0.6766   53.7627   30.2236 H   0  0  0  0  0  0
    0.7044   55.5538   29.3308 H   0  0  0  0  0  0
    0.9803   55.5632   31.0383 H   0  0  0  0  0  0
    5.0231   54.6265   29.3588 H   0  0  0  0  0  0
    6.0125   53.9907   27.1938 H   0  0  0  0  0  0
    4.5837   53.4050   25.3032 H   0  0  0  0  0  0
    1.1043   54.1447   27.6770 H   0  0  0  0  0  0
    3.1892   55.2967   23.9152 H   0  0  0  0  0  0
    4.2009   55.2964   21.7182 H   0  0  0  0  0  0
    2.8141   51.2764   21.0820 H   0  0  0  0  0  0
   -0.4593   49.7807   25.3515 H   0  0  0  0  0  0
    0.5070   49.1164   24.0977 H   0  0  0  0  0  0
    3.4816   53.1363   17.5792 H   0  0  0  0  0  0
    3.8841   52.7328   15.2123 H   0  0  0  0  0  0
    6.1413   53.0525   14.2521 H   0  0  0  0  0  0
    7.9995   53.7887   15.6946 H   0  0  0  0  0  0
  1  2  1  0  0  0
  1 35  1  0  0  0
  1 36  1  0  0  0
  1 37  1  0  0  0
  2  3  1  0  0  0
  2 38  1  0  0  0
  2 39  1  0  0  0
  3  4  1  0  0  0
  3 40  1  0  0  0
  3 41  1  0  0  0
  4  5  1  0  0  0
  5 10  2  0  0  0
  5  6  1  0  0  0
  6  7  2  0  0  0
  6 42  1  0  0  0
  7  8  1  0  0  0
  7 43  1  0  0  0
  8  9  2  0  0  0
  8 44  1  0  0  0
  9 10  1  0  0  0
  9 11  1  0  0  0
 10 45  1  0  0  0
 11 12  1  0  0  0
 11 21  1  0  0  0
 11 13  1  0  0  0
 13 18  2  0  0  0
 13 14  1  0  0  0
 14 15  2  0  0  0
 14 46  1  0  0  0
 15 16  1  0  0  0
 15 47  1  0  0  0
 16 17  2  0  0  0
 16 25  1  0  0  0
 17 18  1  0  0  0
 17 48  1  0  0  0
 18 19  1  0  0  0
 19 20  1  0  0  0
 20 21  2  0  0  0
 20 24  1  0  0  0
 21 22  1  0  0  0
 22 23  3  0  0  0
 24 49  1  0  0  0
 24 50  1  0  0  0
 25 26  1  0  0  0
 26 27  2  0  0  0
 26 28  1  0  0  0
 28 33  2  0  0  0
 28 29  1  0  0  0
 29 30  2  0  0  0
 29 51  1  0  0  0
 30 31  1  0  0  0
 30 52  1  0  0  0
 31 32  2  0  0  0
 31 53  1  0  0  0
 32 33  1  0  0  0
 32 54  1  0  0  0
 33 34  1  0  0  0
M  END
> <i_i_glide_confnum>
48

> <i_i_glide_lignum>
6010

> <i_i_glide_posenum>
188

> <i_i_glide_rotatable_bonds>
8

> <i_m_Source_File_Index>
1848

> <b_m_subgroup_collapsed>
0

> <r_i_docking_score>
-5.16086

> <r_i_glide_ecoul>
-3.28094

> <r_i_glide_eff_state_penalty>
0

> <r_i_glide_einternal>
5.37282

> <r_i_glide_emodel>
-56.8957

> <r_i_glide_energy>
-45.3838

> <r_i_glide_erotb>
0.48051

> <r_i_glide_esite>
-0.0235176

> <r_i_glide_evdw>
-42.1028

> <r_i_glide_gscore>
-5.16086

> <r_i_glide_hbond>
-0.312355

> <r_i_glide_ligand_efficiency>
-0.15639

> <r_i_glide_ligand_efficiency_ln>
-1.14775

> <r_i_glide_ligand_efficiency_sa>
-0.501625

> <r_i_glide_lipo>
-2.77415

> <r_i_glide_metal>
0

> <r_i_glide_rewards>
0.065938

> <s_i_glide_gridfile>
wee1_glide-grid

> <s_m_Source_File>
wee1_decoys_glide_SP.sdf

> <s_m_Source_Path>
/Users/zhangxujun/Desktop

> <s_m_entry_id>
2123

> <s_m_entry_name>
wee1_decoys_glide_SP.1848

> <s_m_subgroup_title>
wee1_decoys_glide_SP

> <s_m_subgroupid>
wee1_decoys_glide_SP


$$$$
