ZINC59025646_2630
                    3D
 Schrodinger Suite 2024-2.
 40 42  0  0  1  0            999 V2000
    2.9952   53.2984   30.0816 C   0  0  0  0  0  0
    3.8387   53.7410   28.9140 C   0  0  0  0  0  0
    3.6058   53.5252   27.5541 C   0  0  0  0  0  0
    4.6738   54.0811   26.8840 C   0  0  0  0  0  0
    5.4668   54.5940   27.8775 N   0  0  0  0  0  0
    6.3391   55.0812   27.7233 H   0  0  0  0  0  0
    4.9511   54.4210   29.1006 N   0  0  0  0  0  0
    4.8866   54.1334   25.5254 N   0  0  0  0  0  0
    5.9753   54.5760   24.8643 C   0  0  0  0  0  0
    6.9732   55.0551   25.4131 O   0  0  0  0  0  0
    5.8507   54.4969   23.3534 C   0  0  0  0  0  0
    4.8446   53.7277   22.7419 C   0  0  0  0  0  0
    4.6759   53.7377   21.3656 C   0  0  0  0  0  0
    5.5039   54.5232   20.5769 C   0  0  0  0  0  0
    6.5367   55.2967   21.1293 C   0  0  0  0  0  0
    6.7046   55.2423   22.5217 C   0  0  0  0  0  0
    7.3932   56.0970   20.4120 N   0  5  0  0  0  0
    7.2052   56.4985   18.8999 S   0  0  0  0  0  0
    5.8064   56.6066   18.4695 O   0  0  0  0  0  0
    8.1095   57.5782   18.4909 O   0  0  0  0  0  0
    7.8651   55.0376   18.0838 C   0  0  0  0  0  0
    7.0130   54.1123   17.4710 C   0  0  0  0  0  0
    7.5400   52.9674   16.8807 C   0  0  0  0  0  0
    8.9174   52.7619   16.8818 C   0  0  0  0  0  0
    9.7727   53.6956   17.4653 C   0  0  0  0  0  0
    9.2461   54.8280   18.0804 C   0  0  0  0  0  0
    9.6314   51.1838   16.0926 Br  0  0  0  0  0  0
    2.4104   54.1270   30.4815 H   0  0  0  0  0  0
    3.6018   52.8901   30.8910 H   0  0  0  0  0  0
    2.2846   52.5215   29.7940 H   0  0  0  0  0  0
    2.7630   53.0094   27.1187 H   0  0  0  0  0  0
    4.1431   53.7619   24.9559 H   0  0  0  0  0  0
    4.1563   53.1248   23.3140 H   0  0  0  0  0  0
    3.8910   53.1530   20.9077 H   0  0  0  0  0  0
    5.3132   54.5088   19.5196 H   0  0  0  0  0  0
    7.4987   55.8283   22.9655 H   0  0  0  0  0  0
    5.9451   54.2701   17.4493 H   0  0  0  0  0  0
    6.8825   52.2388   16.4277 H   0  0  0  0  0  0
   10.8389   53.5252   17.4689 H   0  0  0  0  0  0
    9.9037   55.5395   18.5609 H   0  0  0  0  0  0
  1  2  1  0  0  0
  1 28  1  0  0  0
  1 29  1  0  0  0
  1 30  1  0  0  0
  2  7  2  0  0  0
  2  3  1  0  0  0
  3  4  2  0  0  0
  3 31  1  0  0  0
  4  5  1  0  0  0
  4  8  1  0  0  0
  5  6  1  0  0  0
  5  7  1  0  0  0
  8  9  1  0  0  0
  8 32  1  0  0  0
  9 10  2  0  0  0
  9 11  1  0  0  0
 11 16  2  0  0  0
 11 12  1  0  0  0
 12 13  2  0  0  0
 12 33  1  0  0  0
 13 14  1  0  0  0
 13 34  1  0  0  0
 14 15  2  0  0  0
 14 35  1  0  0  0
 15 16  1  0  0  0
 15 17  1  0  0  0
 16 36  1  0  0  0
 17 18  1  0  0  0
 18 19  2  0  0  0
 18 20  2  0  0  0
 18 21  1  0  0  0
 21 26  2  0  0  0
 21 22  1  0  0  0
 22 23  2  0  0  0
 22 37  1  0  0  0
 23 24  1  0  0  0
 23 38  1  0  0  0
 24 25  2  0  0  0
 24 27  1  0  0  0
 25 26  1  0  0  0
 25 39  1  0  0  0
 26 40  1  0  0  0
M  CHG  1  17  -1
M  END
> <i_i_glide_confnum>
40

> <i_i_glide_lignum>
2631

> <i_i_glide_posenum>
308

> <i_i_glide_rotatable_bonds>
6

> <i_m_Source_File_Index>
1785

> <b_m_subgroup_collapsed>
0

> <r_i_docking_score>
-5.28157

> <r_i_glide_ecoul>
-3.12207

> <r_i_glide_eff_state_penalty>
0

> <r_i_glide_einternal>
1.98997

> <r_i_glide_emodel>
-58.7749

> <r_i_glide_energy>
-45.1988

> <r_i_glide_erotb>
0.633525

> <r_i_glide_esite>
-0.00721805

> <r_i_glide_evdw>
-42.0767

> <r_i_glide_gscore>
-5.28157

> <r_i_glide_hbond>
-0.354306

> <r_i_glide_ligand_efficiency>
-0.203137

> <r_i_glide_ligand_efficiency_ln>
-1.24036

> <r_i_glide_ligand_efficiency_sa>
-0.601793

> <r_i_glide_lipo>
-2.25864

> <r_i_glide_metal>
0

> <r_i_glide_rewards>
-0.722784

> <s_i_glide_gridfile>
wee1_glide-grid

> <s_m_Source_File>
wee1_decoys_glide_SP.sdf

> <s_m_Source_Path>
/Users/zhangxujun/Desktop

> <s_m_entry_id>
2060

> <s_m_entry_name>
wee1_decoys_glide_SP.1785

> <s_m_subgroup_title>
wee1_decoys_glide_SP

> <s_m_subgroupid>
wee1_decoys_glide_SP


$$$$
