ZINC08645049_3603
                    3D
 Schrodinger Suite 2024-2.
 47 49  0  0  1  0            999 V2000
    6.6840   54.6373   27.3074 C   0  0  0  0  0  0
    5.4404   53.9738   26.6735 C   0  0  2  0  0  0
    5.5904   52.8961   26.7594 H   0  0  0  0  0  0
    5.2965   54.1775   25.1502 C   0  0  0  0  0  0
    4.0399   54.0753   24.5305 C   0  0  0  0  0  0
    3.9238   54.1373   23.1434 C   0  0  0  0  0  0
    5.0591   54.3456   22.3653 C   0  0  0  0  0  0
    6.3047   54.4968   22.9641 C   0  0  0  0  0  0
    6.4242   54.4112   24.3481 C   0  0  0  0  0  0
    4.9508   54.4175   21.0203 F   0  0  0  0  0  0
    4.2200   54.2663   27.4367 N   0  0  0  0  0  0
    3.9276   53.7681   28.6535 C   0  0  0  0  0  0
    4.7035   53.0426   29.2775 O   0  0  0  0  0  0
    2.5671   54.1076   29.2938 C   0  0  1  0  0  0
    2.8298   54.5152   30.2662 H   0  0  0  0  0  0
    1.7475   55.2261   28.6041 C   0  0  0  0  0  0
    1.6266   52.5776   29.6609 S   0  0  0  0  0  0
    0.8947   52.2432   28.0858 C   0  0  0  0  0  0
    1.5041   52.3640   26.9343 N   0  0  0  0  0  0
    0.5756   52.0958   25.9395 N   0  0  0  0  0  0
   -0.5736   51.8323   26.5175 C   0  0  0  0  0  0
   -0.4190   51.8879   27.8922 N   0  0  0  0  0  0
   -1.3617   51.6957   28.8821 N   0  0  0  0  0  0
   -1.8317   51.4931   25.7603 C   0  0  0  0  0  0
   -2.6941   50.5230   26.2959 C   0  0  0  0  0  0
   -3.8551   50.1390   25.6298 C   0  0  0  0  0  0
   -4.1720   50.7106   24.4013 C   0  0  0  0  0  0
   -3.3281   51.6678   23.8453 C   0  0  0  0  0  0
   -2.1707   52.0690   24.5159 C   0  0  0  0  0  0
   -1.2132   53.2964   23.7609 Cl  0  0  0  0  0  0
   -5.6041   50.2335   23.5656 Cl  0  0  0  0  0  0
    7.6066   54.1988   26.9332 H   0  0  0  0  0  0
    6.7040   55.7077   27.1158 H   0  0  0  0  0  0
    6.7098   54.4968   28.3892 H   0  0  0  0  0  0
    3.1490   53.8826   25.1094 H   0  0  0  0  0  0
    2.9602   54.0291   22.6676 H   0  0  0  0  0  0
    7.1824   54.6652   22.3558 H   0  0  0  0  0  0
    7.4134   54.4969   24.7702 H   0  0  0  0  0  0
    3.5311   54.8348   26.9714 H   0  0  0  0  0  0
    2.3270   56.1410   28.4821 H   0  0  0  0  0  0
    1.3822   54.9240   27.6233 H   0  0  0  0  0  0
    0.8765   55.4840   29.2061 H   0  0  0  0  0  0
   -1.2828   50.7699   29.2900 H   0  0  0  0  0  0
   -1.3023   52.4215   29.5798 H   0  0  0  0  0  0
   -2.4620   50.0382   27.2321 H   0  0  0  0  0  0
   -4.4992   49.3890   26.0637 H   0  0  0  0  0  0
   -3.5720   52.0987   22.8858 H   0  0  0  0  0  0
  1  2  1  0  0  0
  1 32  1  0  0  0
  1 33  1  0  0  0
  1 34  1  0  0  0
  2  3  1  0  0  0
  2  4  1  0  0  0
  2 11  1  0  0  0
  4  9  2  0  0  0
  4  5  1  0  0  0
  5  6  2  0  0  0
  5 35  1  0  0  0
  6  7  1  0  0  0
  6 36  1  0  0  0
  7  8  2  0  0  0
  7 10  1  0  0  0
  8  9  1  0  0  0
  8 37  1  0  0  0
  9 38  1  0  0  0
 11 12  1  0  0  0
 11 39  1  0  0  0
 12 13  2  0  0  0
 12 14  1  0  0  0
 14 15  1  0  0  0
 14 16  1  0  0  0
 14 17  1  0  0  0
 16 40  1  0  0  0
 16 41  1  0  0  0
 16 42  1  0  0  0
 17 18  1  0  0  0
 18 22  1  0  0  0
 18 19  2  0  0  0
 19 20  1  0  0  0
 20 21  2  0  0  0
 21 22  1  0  0  0
 21 24  1  0  0  0
 22 23  1  0  0  0
 23 43  1  0  0  0
 23 44  1  0  0  0
 24 29  2  0  0  0
 24 25  1  0  0  0
 25 26  2  0  0  0
 25 45  1  0  0  0
 26 27  1  0  0  0
 26 46  1  0  0  0
 27 28  2  0  0  0
 27 31  1  0  0  0
 28 29  1  0  0  0
 28 47  1  0  0  0
 29 30  1  0  0  0
M  END
> <i_i_glide_confnum>
39

> <i_i_glide_lignum>
3604

> <i_i_glide_posenum>
334

> <i_i_glide_rotatable_bonds>
7

> <i_m_Source_File_Index>
3436

> <b_m_subgroup_collapsed>
0

> <r_i_docking_score>
-5.33723

> <r_i_glide_ecoul>
-0.217943

> <r_i_glide_eff_state_penalty>
0

> <r_i_glide_einternal>
6.72829

> <r_i_glide_emodel>
-58.0561

> <r_i_glide_energy>
-43.8839

> <r_i_glide_erotb>
0.583639

> <r_i_glide_esite>
-0.132343

> <r_i_glide_evdw>
-43.6659

> <r_i_glide_gscore>
-5.33723

> <r_i_glide_hbond>
0

> <r_i_glide_ligand_efficiency>
-0.184042

> <r_i_glide_ligand_efficiency_ln>
-1.22209

> <r_i_glide_ligand_efficiency_sa>
-0.565436

> <r_i_glide_lipo>
-2.58392

> <r_i_glide_metal>
0

> <r_i_glide_rewards>
-0.98862

> <s_i_glide_gridfile>
wee1_glide-grid

> <s_m_Source_File>
wee1_decoys_glide_SP.sdf

> <s_m_Source_Path>
/Users/zhangxujun/Desktop

> <s_m_entry_id>
3711

> <s_m_entry_name>
wee1_decoys_glide_SP.3436

> <s_m_subgroup_title>
wee1_decoys_glide_SP

> <s_m_subgroupid>
wee1_decoys_glide_SP


$$$$
