ZINC12151399_4872
                    3D
 Schrodinger Suite 2024-2.
 63 66  0  0  1  0            999 V2000
    6.7874   54.2293   18.3895 C   0  0  0  0  0  0
    5.2737   53.9584   18.3968 C   0  0  0  0  0  0
    4.7984   53.3411   17.0758 C   0  0  0  0  0  0
    4.8796   53.1188   19.5305 N   0  0  0  0  0  0
    4.5881   53.5755   20.7655 C   0  0  0  0  0  0
    4.7040   54.7673   21.0397 O   0  0  0  0  0  0
    4.1934   52.5426   21.8671 C   0  0  2  0  0  0
    5.1278   52.3677   22.4011 H   0  0  0  0  0  0
    3.4952   51.2737   21.3520 C   0  0  0  0  0  0
    1.9901   51.5638   21.3078 C   0  0  1  0  0  0
    1.4258   50.7436   21.7556 H   0  0  0  0  0  0
    1.7698   52.7966   22.2037 C   0  0  0  0  0  0
    3.2666   54.3917   23.6483 C   0  0  0  0  0  0
    4.3810   54.3775   24.6894 C   0  0  0  0  0  0
    5.6876   54.6721   24.2883 C   0  0  0  0  0  0
    6.7241   54.6767   25.2145 C   0  0  0  0  0  0
    6.4708   54.3871   26.5521 C   0  0  0  0  0  0
    5.1730   54.0949   26.9604 C   0  0  0  0  0  0
    4.1081   54.0979   26.0422 C   0  0  0  0  0  0
    2.7945   53.8330   26.3957 O   0  0  0  0  0  0
    2.4291   53.6088   27.7599 C   0  0  0  0  0  0
    2.4813   54.8839   28.5922 C   0  0  0  0  0  0
    1.5038   55.3183   29.4046 C   0  0  0  0  0  0
    1.4045   51.8595   19.6098 S   0  0  0  0  0  0
    1.0795   50.1760   19.2251 C   0  0  0  0  0  0
    1.8762   49.3904   18.4199 N   0  0  0  0  0  0
    2.7190   49.7045   17.9463 H   0  0  0  0  0  0
    1.2830   48.1515   18.3407 C   0  0  0  0  0  0
    1.5919   46.9737   17.6546 C   0  0  0  0  0  0
    0.7105   45.9005   17.8310 C   0  0  0  0  0  0
   -0.4094   45.9887   18.6601 C   0  0  0  0  0  0
   -0.7134   47.1671   19.3447 C   0  0  0  0  0  0
    0.1412   48.2672   19.1725 C   0  0  0  0  0  0
    0.0468   49.5236   19.7048 N   0  0  0  0  0  0
    7.0652   54.8622   17.5453 H   0  0  0  0  0  0
    7.1124   54.7414   19.2939 H   0  0  0  0  0  0
    7.3560   53.3048   18.2807 H   0  0  0  0  0  0
    4.7578   54.9210   18.4734 H   0  0  0  0  0  0
    5.0682   53.9813   16.2372 H   0  0  0  0  0  0
    5.2677   52.3754   16.8836 H   0  0  0  0  0  0
    3.7165   53.2189   17.0597 H   0  0  0  0  0  0
    4.7920   52.1339   19.3185 H   0  0  0  0  0  0
    3.6477   50.4957   22.0878 H   0  0  0  0  0  0
    3.9001   50.8925   20.4127 H   0  0  0  0  0  0
    1.0215   52.6704   22.9872 H   0  0  0  0  0  0
    1.5420   53.7021   21.6614 H   0  0  0  0  0  0
    2.2972   54.5474   24.1248 H   0  0  0  0  0  0
    3.3707   55.1887   22.9173 H   0  0  0  0  0  0
    5.9119   54.9012   23.2570 H   0  0  0  0  0  0
    7.7269   54.8980   24.8819 H   0  0  0  0  0  0
    7.2729   54.3804   27.2764 H   0  0  0  0  0  0
    5.0163   53.8670   28.0022 H   0  0  0  0  0  0
    3.0522   52.8356   28.2104 H   0  0  0  0  0  0
    1.4142   53.2070   27.7692 H   0  0  0  0  0  0
    3.3777   55.4797   28.5042 H   0  0  0  0  0  0
    0.5827   54.7655   29.5290 H   0  0  0  0  0  0
    1.6117   56.2385   29.9608 H   0  0  0  0  0  0
    2.4628   46.9034   17.0158 H   0  0  0  0  0  0
    0.9063   44.9718   17.3146 H   0  0  0  0  0  0
   -1.0564   45.1303   18.7654 H   0  0  0  0  0  0
   -1.5868   47.2392   19.9780 H   0  0  0  0  0  0
    3.1265   53.0535   22.8831 N   0  3  2  0  0  0
    3.1526   52.3791   23.6357 H   0  0  0  0  0  0
  1  2  1  0  0  0
  1 35  1  0  0  0
  1 36  1  0  0  0
  1 37  1  0  0  0
  2  3  1  0  0  0
  2  4  1  0  0  0
  2 38  1  0  0  0
  3 39  1  0  0  0
  3 40  1  0  0  0
  3 41  1  0  0  0
  4  5  1  0  0  0
  4 42  1  0  0  0
  5  6  2  0  0  0
  5  7  1  0  0  0
  7  8  1  0  0  0
  7  9  1  0  0  0
  7 62  1  0  0  0
  9 10  1  0  0  0
  9 43  1  0  0  0
  9 44  1  0  0  0
 10 11  1  0  0  0
 10 12  1  0  0  0
 10 24  1  0  0  0
 12 45  1  0  0  0
 12 46  1  0  0  0
 12 62  1  0  0  0
 13 14  1  0  0  0
 13 47  1  0  0  0
 13 48  1  0  0  0
 13 62  1  0  0  0
 14 19  2  0  0  0
 14 15  1  0  0  0
 15 16  2  0  0  0
 15 49  1  0  0  0
 16 17  1  0  0  0
 16 50  1  0  0  0
 17 18  2  0  0  0
 17 51  1  0  0  0
 18 19  1  0  0  0
 18 52  1  0  0  0
 19 20  1  0  0  0
 20 21  1  0  0  0
 21 22  1  0  0  0
 21 53  1  0  0  0
 21 54  1  0  0  0
 22 23  2  0  0  0
 22 55  1  0  0  0
 23 56  1  0  0  0
 23 57  1  0  0  0
 24 25  1  0  0  0
 25 34  2  0  0  0
 25 26  1  0  0  0
 26 27  1  0  0  0
 26 28  1  0  0  0
 28 33  2  0  0  0
 28 29  1  0  0  0
 29 30  2  0  0  0
 29 58  1  0  0  0
 30 31  1  0  0  0
 30 59  1  0  0  0
 31 32  2  0  0  0
 31 60  1  0  0  0
 32 33  1  0  0  0
 32 61  1  0  0  0
 33 34  1  0  0  0
 62 63  1  0  0  0
M  CHG  1  62   1
M  END
> <i_i_glide_confnum>
78

> <i_i_glide_lignum>
4873

> <i_i_glide_posenum>
125

> <i_i_glide_rotatable_bonds>
10

> <i_m_Source_File_Index>
5088

> <b_m_subgroup_collapsed>
0

> <r_i_docking_score>
-5.34655

> <r_i_glide_ecoul>
-3.21962

> <r_i_glide_eff_state_penalty>
0

> <r_i_glide_einternal>
16.3309

> <r_i_glide_emodel>
-50.2674

> <r_i_glide_energy>
-42.9089

> <r_i_glide_erotb>
0.885159

> <r_i_glide_esite>
-0.176258

> <r_i_glide_evdw>
-39.6893

> <r_i_glide_gscore>
-5.34655

> <r_i_glide_hbond>
-0.2372

> <r_i_glide_ligand_efficiency>
-0.16708

> <r_i_glide_ligand_efficiency_ln>
-1.19724

> <r_i_glide_ligand_efficiency_sa>
-0.530445

> <r_i_glide_lipo>
-2.84991

> <r_i_glide_metal>
0

> <r_i_glide_rewards>
-0.500929

> <s_i_glide_gridfile>
wee1_glide-grid

> <s_m_Source_File>
wee1_decoys_glide_SP.sdf

> <s_m_Source_Path>
/Users/zhangxujun/Desktop

> <s_m_entry_id>
5363

> <s_m_entry_name>
wee1_decoys_glide_SP.5088

> <s_m_subgroup_title>
wee1_decoys_glide_SP

> <s_m_subgroupid>
wee1_decoys_glide_SP


$$$$
