ZINC54600177_1762
                    3D
 Schrodinger Suite 2024-2.
 40 41  0  0  1  0            999 V2000
   -0.7369   50.0746   25.6148 C   0  0  0  0  0  0
   -1.6279   51.1780   26.2317 C   0  0  0  0  0  0
   -1.8635   52.2922   25.1824 C   0  0  0  0  0  0
   -3.0007   50.5641   26.5956 C   0  0  0  0  0  0
   -0.9347   51.7594   27.4731 C   0  0  0  0  0  0
   -1.2953   51.6967   28.8271 C   0  0  0  0  0  0
   -0.3488   52.3994   29.5391 C   0  0  0  0  0  0
    0.5650   52.8041   28.5866 N   0  0  0  0  0  0
    0.1912   52.4285   27.3506 N   0  0  0  0  0  0
    1.8655   53.4888   28.7994 C   0  0  2  0  0  0
    1.6145   54.4463   29.2577 H   0  0  0  0  0  0
    2.6320   53.7681   27.4666 C   0  0  0  0  0  0
    4.0342   54.3551   27.7089 C   0  0  0  0  0  0
    4.8791   53.4565   28.6268 C   0  0  0  0  0  0
    4.1507   53.1720   29.9560 C   0  0  0  0  0  0
    2.7352   52.6208   29.7519 C   0  0  2  0  0  0
    2.2814   52.5570   30.7389 H   0  0  0  0  0  0
    2.8272   51.2969   29.2817 O   0  0  0  0  0  0
   -0.2166   52.6271   30.8810 N   0  0  0  0  0  0
   -1.2079   49.6080   24.7489 H   0  0  0  0  0  0
   -0.5281   49.2854   26.3395 H   0  0  0  0  0  0
    0.2281   50.4681   25.2924 H   0  0  0  0  0  0
   -2.4830   53.0930   25.5884 H   0  0  0  0  0  0
   -0.9271   52.7478   24.8571 H   0  0  0  0  0  0
   -2.3631   51.9088   24.2917 H   0  0  0  0  0  0
   -3.6519   51.2945   27.0773 H   0  0  0  0  0  0
   -3.5237   50.1922   25.7137 H   0  0  0  0  0  0
   -2.8956   49.7233   27.2819 H   0  0  0  0  0  0
   -2.1500   51.1820   29.2398 H   0  0  0  0  0  0
    2.6944   52.8745   26.8424 H   0  0  0  0  0  0
    2.0709   54.4968   26.8833 H   0  0  0  0  0  0
    3.9340   55.3315   28.1755 H   0  0  0  0  0  0
    4.5477   54.5127   26.7593 H   0  0  0  0  0  0
    5.8454   53.9243   28.8228 H   0  0  0  0  0  0
    5.0957   52.5147   28.1186 H   0  0  0  0  0  0
    4.0943   54.1256   30.4811 H   0  0  0  0  0  0
    4.7044   52.4657   30.5692 H   0  0  0  0  0  0
    1.9817   51.0562   28.8881 H   0  0  0  0  0  0
   -0.7851   52.0968   31.5478 H   0  0  0  0  0  0
    0.0267   53.5439   31.2228 H   0  0  0  0  0  0
  1  2  1  0  0  0
  1 20  1  0  0  0
  1 21  1  0  0  0
  1 22  1  0  0  0
  2  3  1  0  0  0
  2  4  1  0  0  0
  2  5  1  0  0  0
  3 23  1  0  0  0
  3 24  1  0  0  0
  3 25  1  0  0  0
  4 26  1  0  0  0
  4 27  1  0  0  0
  4 28  1  0  0  0
  5  9  2  0  0  0
  5  6  1  0  0  0
  6  7  2  0  0  0
  6 29  1  0  0  0
  7  8  1  0  0  0
  7 19  1  0  0  0
  8  9  1  0  0  0
  8 10  1  0  0  0
 10 11  1  0  0  0
 10 16  1  0  0  0
 10 12  1  0  0  0
 12 13  1  0  0  0
 12 30  1  0  0  0
 12 31  1  0  0  0
 13 14  1  0  0  0
 13 32  1  0  0  0
 13 33  1  0  0  0
 14 15  1  0  0  0
 14 34  1  0  0  0
 14 35  1  0  0  0
 15 16  1  0  0  0
 15 36  1  0  0  0
 15 37  1  0  0  0
 16 17  1  0  0  0
 16 18  1  0  0  0
 18 38  1  0  0  0
 19 39  1  0  0  0
 19 40  1  0  0  0
M  END
> <i_i_glide_confnum>
4

> <i_i_glide_lignum>
1763

> <i_i_glide_posenum>
131

> <i_i_glide_rotatable_bonds>
3

> <i_m_Source_File_Index>
3160

> <b_m_subgroup_collapsed>
0

> <r_i_docking_score>
-4.82542

> <r_i_glide_ecoul>
-5.16533

> <r_i_glide_eff_state_penalty>
0

> <r_i_glide_einternal>
2.42306

> <r_i_glide_emodel>
-29.2216

> <r_i_glide_energy>
-22.768

> <r_i_glide_erotb>
0.306001

> <r_i_glide_esite>
-0.1

> <r_i_glide_evdw>
-17.6027

> <r_i_glide_gscore>
-4.82542

> <r_i_glide_hbond>
-0.344543

> <r_i_glide_ligand_efficiency>
-0.283848

> <r_i_glide_ligand_efficiency_ln>
-1.25885

> <r_i_glide_ligand_efficiency_sa>
-0.729854

> <r_i_glide_lipo>
-1.04925

> <r_i_glide_metal>
0

> <r_i_glide_rewards>
-1.98269

> <s_i_glide_gridfile>
wee1_glide-grid

> <s_m_Source_File>
wee1_decoys_glide_SP.sdf

> <s_m_Source_Path>
/Users/zhangxujun/Desktop

> <s_m_entry_id>
3435

> <s_m_entry_name>
wee1_decoys_glide_SP.3160

> <s_m_subgroup_title>
wee1_decoys_glide_SP

> <s_m_subgroupid>
wee1_decoys_glide_SP


$$$$
