ZINC13598436_2012
                    3D
 Schrodinger Suite 2024-2.
 45 48  0  0  1  0            999 V2000
    6.7291   55.0955   24.3037 C   0  0  0  0  0  0
    6.3063   54.8885   22.8614 C   0  0  0  0  0  0
    6.8343   55.6965   21.8457 C   0  0  0  0  0  0
    6.4315   55.5208   20.5208 C   0  0  0  0  0  0
    5.5267   54.5050   20.2161 C   0  0  0  0  0  0
    5.0226   53.6817   21.2095 C   0  0  0  0  0  0
    5.3865   53.8855   22.5422 C   0  0  0  0  0  0
    4.1882   52.7029   20.5481 C   0  0  0  0  0  0
    3.5272   51.7559   21.1011 N   0  0  0  0  0  0
    2.8298   50.8819   20.3331 N   0  0  0  0  0  0
    2.0365   49.9467   20.9046 C   0  0  0  0  0  0
    1.7416   49.9502   22.1049 O   0  0  0  0  0  0
    1.5038   48.8413   20.0192 C   0  0  0  0  0  0
    2.1931   48.4083   18.8821 C   0  0  0  0  0  0
    1.7435   47.2972   18.1698 C   0  0  0  0  0  0
    0.6204   46.5640   18.5706 C   0  0  0  0  0  0
   -0.0955   47.0480   19.6763 C   0  0  0  0  0  0
    0.3292   48.1724   20.3805 C   0  0  0  0  0  0
    0.3305   45.4358   17.8371 N   0  5  0  0  0  0
   -0.6364   44.2575   18.2245 S   0  0  0  0  0  0
   -1.6781   44.5607   19.2116 O   0  0  0  0  0  0
   -1.0511   43.4782   17.0538 O   0  0  0  0  0  0
    0.4339   43.0940   19.1079 C   0  0  0  0  0  0
    0.4585   42.8967   20.4817 C   0  0  0  0  0  0
    1.3800   41.9223   20.8769 C   0  0  0  0  0  0
    2.0632   41.3749   19.7988 C   0  0  0  0  0  0
    1.5834   42.0843   18.2883 S   0  0  0  0  0  0
    4.3626   53.1532   19.1006 C   0  0  0  0  0  0
    5.0830   54.1815   18.9520 N   0  0  0  0  0  0
    3.8188   52.4967   18.0318 O   0  0  0  0  0  0
    7.1295   56.0957   24.4641 H   0  0  0  0  0  0
    7.4864   54.3625   24.5852 H   0  0  0  0  0  0
    5.8745   54.9842   24.9724 H   0  0  0  0  0  0
    7.5631   56.4574   22.0808 H   0  0  0  0  0  0
    6.8414   56.1457   19.7414 H   0  0  0  0  0  0
    4.9874   53.2564   23.3235 H   0  0  0  0  0  0
    2.9616   50.9458   19.3342 H   0  0  0  0  0  0
    3.1043   48.8913   18.5586 H   0  0  0  0  0  0
    2.3188   46.9756   17.3127 H   0  0  0  0  0  0
   -0.9909   46.5701   20.0304 H   0  0  0  0  0  0
   -0.2393   48.4857   21.2457 H   0  0  0  0  0  0
   -0.1615   43.4523   21.1717 H   0  0  0  0  0  0
    1.5381   41.6330   21.9055 H   0  0  0  0  0  0
    2.8293   40.6133   19.8178 H   0  0  0  0  0  0
    4.2111   51.6070   17.9894 H   0  0  0  0  0  0
  1  2  1  0  0  0
  1 31  1  0  0  0
  1 32  1  0  0  0
  1 33  1  0  0  0
  2  7  2  0  0  0
  2  3  1  0  0  0
  3  4  2  0  0  0
  3 34  1  0  0  0
  4  5  1  0  0  0
  4 35  1  0  0  0
  5 29  1  0  0  0
  5  6  2  0  0  0
  6  7  1  0  0  0
  6  8  1  0  0  0
  7 36  1  0  0  0
  8  9  2  0  0  0
  8 28  1  0  0  0
  9 10  1  0  0  0
 10 11  1  0  0  0
 10 37  1  0  0  0
 11 12  2  0  0  0
 11 13  1  0  0  0
 13 18  2  0  0  0
 13 14  1  0  0  0
 14 15  2  0  0  0
 14 38  1  0  0  0
 15 16  1  0  0  0
 15 39  1  0  0  0
 16 17  2  0  0  0
 16 19  1  0  0  0
 17 18  1  0  0  0
 17 40  1  0  0  0
 18 41  1  0  0  0
 19 20  1  0  0  0
 20 21  2  0  0  0
 20 22  2  0  0  0
 20 23  1  0  0  0
 23 27  1  0  0  0
 23 24  2  0  0  0
 24 25  1  0  0  0
 24 42  1  0  0  0
 25 26  2  0  0  0
 25 43  1  0  0  0
 26 27  1  0  0  0
 26 44  1  0  0  0
 28 29  2  0  0  0
 28 30  1  0  0  0
 30 45  1  0  0  0
M  CHG  1  19  -1
M  END
> <i_i_glide_confnum>
44

> <i_i_glide_lignum>
2013

> <i_i_glide_posenum>
356

> <i_i_glide_rotatable_bonds>
7

> <i_m_Source_File_Index>
3226

> <b_m_subgroup_collapsed>
0

> <r_i_docking_score>
-4.21535

> <r_i_glide_ecoul>
-4.5836

> <r_i_glide_eff_state_penalty>
0

> <r_i_glide_einternal>
11.9382

> <r_i_glide_emodel>
-50.5497

> <r_i_glide_energy>
-43.3495

> <r_i_glide_erotb>
0.619992

> <r_i_glide_esite>
-0.121334

> <r_i_glide_evdw>
-38.7659

> <r_i_glide_gscore>
-4.21535

> <r_i_glide_hbond>
-0.16

> <r_i_glide_ligand_efficiency>
-0.140512

> <r_i_glide_ligand_efficiency_ln>
-0.957773

> <r_i_glide_ligand_efficiency_sa>
-0.436602

> <r_i_glide_lipo>
-1.575

> <r_i_glide_metal>
0

> <r_i_glide_rewards>
-0.353174

> <s_i_glide_gridfile>
wee1_glide-grid

> <s_m_Source_File>
wee1_decoys_glide_SP.sdf

> <s_m_Source_Path>
/Users/zhangxujun/Desktop

> <s_m_entry_id>
3501

> <s_m_entry_name>
wee1_decoys_glide_SP.3226

> <s_m_subgroup_title>
wee1_decoys_glide_SP

> <s_m_subgroupid>
wee1_decoys_glide_SP


$$$$
