ZINC15666039_4378
                    3D
 Schrodinger Suite 2024-2.
 50 52  0  0  1  0            999 V2000
    6.9987   55.3338   22.5018 C   0  0  0  0  0  0
    6.1414   54.8769   23.6751 C   0  0  0  0  0  0
    6.5068   55.2755   24.9678 C   0  0  0  0  0  0
    5.7532   54.8965   26.0823 C   0  0  0  0  0  0
    4.5833   54.1506   25.9016 C   0  0  0  0  0  0
    4.1895   53.7970   24.6133 C   0  0  0  0  0  0
    4.9813   54.0970   23.5026 C   0  0  0  0  0  0
    4.5075   53.3167   21.9473 S   0  0  0  0  0  0
    5.4709   52.2411   21.6982 O   0  0  0  0  0  0
    3.0730   53.0159   22.0129 O   0  0  0  0  0  0
    4.7042   54.4993   20.6550 N   0  0  0  0  0  0
    4.3293   54.2902   19.3218 C   0  0  0  0  0  0
    3.9886   53.0294   18.8234 C   0  0  0  0  0  0
    3.6167   52.8867   17.4895 C   0  0  0  0  0  0
    3.5837   54.0001   16.6544 C   0  0  0  0  0  0
    3.9257   55.2589   17.1428 C   0  0  0  0  0  0
    4.3037   55.4007   18.4750 C   0  0  0  0  0  0
    3.0772   53.7986   14.8309 Br  0  0  0  0  0  0
    3.7426   53.6983   26.9252 N   0  0  0  0  0  0
    3.9761   53.4812   28.2330 C   0  0  0  0  0  0
    5.0312   53.7349   28.8143 O   0  0  0  0  0  0
    2.8386   52.8954   28.9302 C   0  0  0  0  0  0
    1.5126   52.6715   28.4537 C   0  0  0  0  0  0
    0.7940   52.2037   29.5442 C   0  0  0  0  0  0
    1.5920   52.0965   30.6263 O   0  0  0  0  0  0
    2.8475   52.4059   30.2398 C   0  0  0  0  0  0
    3.9068   52.1142   31.2738 C   0  0  0  0  0  0
   -0.6426   51.7883   29.7323 C   0  0  0  0  0  0
    0.9268   52.8964   27.0743 C   0  0  0  0  0  0
    6.4399   56.0189   21.8676 H   0  0  0  0  0  0
    7.8946   55.8665   22.8212 H   0  0  0  0  0  0
    7.3177   54.4966   21.8898 H   0  0  0  0  0  0
    7.3905   55.8784   25.1057 H   0  0  0  0  0  0
    6.0705   55.2015   27.0691 H   0  0  0  0  0  0
    3.2982   53.1990   24.4812 H   0  0  0  0  0  0
    4.9131   55.4427   20.9352 H   0  0  0  0  0  0
    4.0191   52.1501   19.4472 H   0  0  0  0  0  0
    3.3737   51.9062   17.1039 H   0  0  0  0  0  0
    3.9009   56.1204   16.4916 H   0  0  0  0  0  0
    4.5696   56.3808   18.8443 H   0  0  0  0  0  0
    2.8369   53.3866   26.6117 H   0  0  0  0  0  0
    4.7638   51.6207   30.8201 H   0  0  0  0  0  0
    3.5502   51.4738   32.0811 H   0  0  0  0  0  0
    4.3011   53.0210   31.7281 H   0  0  0  0  0  0
   -1.2953   52.6528   29.6827 H   0  0  0  0  0  0
   -0.9653   51.0874   28.9620 H   0  0  0  0  0  0
   -0.8267   51.3056   30.6934 H   0  0  0  0  0  0
    1.1056   53.9135   26.7303 H   0  0  0  0  0  0
    1.3807   52.2391   26.3320 H   0  0  0  0  0  0
   -0.1519   52.7384   27.0395 H   0  0  0  0  0  0
  1  2  1  0  0  0
  1 30  1  0  0  0
  1 31  1  0  0  0
  1 32  1  0  0  0
  2  7  2  0  0  0
  2  3  1  0  0  0
  3  4  2  0  0  0
  3 33  1  0  0  0
  4  5  1  0  0  0
  4 34  1  0  0  0
  5  6  2  0  0  0
  5 19  1  0  0  0
  6  7  1  0  0  0
  6 35  1  0  0  0
  7  8  1  0  0  0
  8  9  2  0  0  0
  8 10  2  0  0  0
  8 11  1  0  0  0
 11 12  1  0  0  0
 11 36  1  0  0  0
 12 17  2  0  0  0
 12 13  1  0  0  0
 13 14  2  0  0  0
 13 37  1  0  0  0
 14 15  1  0  0  0
 14 38  1  0  0  0
 15 16  2  0  0  0
 15 18  1  0  0  0
 16 17  1  0  0  0
 16 39  1  0  0  0
 17 40  1  0  0  0
 19 20  1  0  0  0
 19 41  1  0  0  0
 20 21  2  0  0  0
 20 22  1  0  0  0
 22 26  2  0  0  0
 22 23  1  0  0  0
 23 24  2  0  0  0
 23 29  1  0  0  0
 24 25  1  0  0  0
 24 28  1  0  0  0
 25 26  1  0  0  0
 26 27  1  0  0  0
 27 42  1  0  0  0
 27 43  1  0  0  0
 27 44  1  0  0  0
 28 45  1  0  0  0
 28 46  1  0  0  0
 28 47  1  0  0  0
 29 48  1  0  0  0
 29 49  1  0  0  0
 29 50  1  0  0  0
M  END
> <i_i_glide_confnum>
72

> <i_i_glide_lignum>
4379

> <i_i_glide_posenum>
126

> <i_i_glide_rotatable_bonds>
6

> <i_m_Source_File_Index>
5904

> <b_m_subgroup_collapsed>
0

> <r_i_docking_score>
-1.65116

> <r_i_glide_ecoul>
-0.0671906

> <r_i_glide_eff_state_penalty>
0

> <r_i_glide_einternal>
10.2357

> <r_i_glide_emodel>
-32.1163

> <r_i_glide_energy>
-42.2023

> <r_i_glide_erotb>
0.53334

> <r_i_glide_esite>
0

> <r_i_glide_evdw>
-42.1351

> <r_i_glide_gscore>
-1.65116

> <r_i_glide_hbond>
-0.0875634

> <r_i_glide_ligand_efficiency>
-0.0569364

> <r_i_glide_ligand_efficiency_ln>
-0.378073

> <r_i_glide_ligand_efficiency_sa>
-0.174927

> <r_i_glide_lipo>
-2.54307

> <r_i_glide_metal>
0

> <r_i_glide_rewards>
2.56297

> <s_i_glide_gridfile>
wee1_glide-grid

> <s_m_Source_File>
wee1_decoys_glide_SP.sdf

> <s_m_Source_Path>
/Users/zhangxujun/Desktop

> <s_m_entry_id>
6179

> <s_m_entry_name>
wee1_decoys_glide_SP.5904

> <s_m_subgroup_title>
wee1_decoys_glide_SP

> <s_m_subgroupid>
wee1_decoys_glide_SP


$$$$
