ZINC00887337_5761
                    3D
 Schrodinger Suite 2024-2.
 75 79  0  0  1  0            999 V2000
    6.7765   55.8861   19.4229 C   0  0  0  0  0  0
    5.8278   54.8171   19.9315 C   0  0  0  0  0  0
    5.4856   54.7839   21.2828 C   0  0  0  0  0  0
    4.6041   53.8133   21.7540 C   0  0  0  0  0  0
    4.0701   52.8568   20.8810 C   0  0  0  0  0  0
    4.4219   52.8973   19.5278 C   0  0  0  0  0  0
    5.2918   53.8750   19.0528 C   0  0  0  0  0  0
    3.1622   51.7807   21.3964 C   0  0  0  0  0  0
    3.0707   50.5835   20.8350 N   0  0  0  0  0  0
    2.2557   49.8356   21.6605 N   0  0  0  0  0  0
    1.9313   50.6890   22.6322 N   0  0  0  0  0  0
    2.4280   51.9225   22.4818 N   0  0  0  0  0  0
    1.1051   50.3185   23.7766 C   0  0  0  0  0  0
   -0.4136   50.3267   23.5072 C   0  0  0  0  0  0
   -0.8000   50.0533   22.3686 O   0  0  0  0  0  0
   -1.2901   50.6294   24.5126 N   0  0  0  0  0  0
   -0.8448   50.7569   25.9185 C   0  0  0  0  0  0
   -0.5240   52.2195   26.3014 C   0  0  0  0  0  0
    0.1273   52.3531   27.6773 C   0  0  0  0  0  0
   -0.6148   51.9628   28.7976 C   0  0  0  0  0  0
   -0.0931   52.0967   30.0815 C   0  0  0  0  0  0
    1.1887   52.6079   30.2626 C   0  0  0  0  0  0
    1.9449   52.9918   29.1560 C   0  0  0  0  0  0
    1.4255   52.8738   27.8604 C   0  0  0  0  0  0
    2.2888   53.3267   26.6905 C   0  0  0  0  0  0
   -2.7643   50.5165   24.2849 C   0  0  2  0  0  0
   -2.9495   50.5553   23.2103 H   0  0  0  0  0  0
   -3.4888   51.7445   24.8226 C   0  0  0  0  0  0
   -4.2320   51.7690   26.0152 C   0  0  0  0  0  0
   -4.8969   52.9414   26.3784 C   0  0  0  0  0  0
   -4.8376   54.0843   25.6495 N   0  0  0  0  0  0
   -4.0960   54.0635   24.5150 C   0  0  0  0  0  0
   -3.4073   52.9304   24.0811 C   0  0  0  0  0  0
   -3.3599   49.1103   24.6107 C   0  0  0  0  0  0
   -4.4543   49.0013   25.1597 O   0  0  0  0  0  0
   -2.5990   48.0562   24.2586 N   0  0  0  0  0  0
   -2.7880   46.6351   24.5754 C   0  0  0  0  0  0
   -2.4802   46.3047   26.0408 C   0  0  0  0  0  0
   -3.8290   46.3248   26.7591 C   0  0  0  0  0  0
   -4.8682   45.9182   25.6994 C   0  0  0  0  0  0
   -4.1985   46.0724   24.3175 C   0  0  0  0  0  0
    6.4844   56.8627   19.8123 H   0  0  0  0  0  0
    7.7947   55.6815   19.7574 H   0  0  0  0  0  0
    6.7636   55.9562   18.3339 H   0  0  0  0  0  0
    5.9046   55.5053   21.9682 H   0  0  0  0  0  0
    4.3523   53.7959   22.8045 H   0  0  0  0  0  0
    4.0319   52.1596   18.8396 H   0  0  0  0  0  0
    5.5533   53.8847   18.0048 H   0  0  0  0  0  0
    1.3658   50.9962   24.5850 H   0  0  0  0  0  0
    1.3939   49.3124   24.0842 H   0  0  0  0  0  0
   -1.6471   50.3910   26.5624 H   0  0  0  0  0  0
    0.0212   50.1196   26.1071 H   0  0  0  0  0  0
    0.0872   52.6833   25.5300 H   0  0  0  0  0  0
   -1.4424   52.8062   26.3285 H   0  0  0  0  0  0
   -1.6078   51.5518   28.6787 H   0  0  0  0  0  0
   -0.6833   51.7872   30.9327 H   0  0  0  0  0  0
    1.5910   52.7021   31.2607 H   0  0  0  0  0  0
    2.9382   53.3879   29.3092 H   0  0  0  0  0  0
    3.2474   53.7354   27.0127 H   0  0  0  0  0  0
    2.4882   52.4968   26.0152 H   0  0  0  0  0  0
    1.7754   54.0965   26.1164 H   0  0  0  0  0  0
   -4.3065   50.9015   26.6536 H   0  0  0  0  0  0
   -5.4957   52.9742   27.2758 H   0  0  0  0  0  0
   -4.0559   54.9813   23.9476 H   0  0  0  0  0  0
   -2.8325   52.9646   23.1673 H   0  0  0  0  0  0
   -1.7214   48.2830   23.8145 H   0  0  0  0  0  0
   -2.0462   46.1653   23.9272 H   0  0  0  0  0  0
   -1.7197   46.9500   26.4818 H   0  0  0  0  0  0
   -2.0861   45.2968   26.1113 H   0  0  0  0  0  0
   -4.0324   47.3292   27.1342 H   0  0  0  0  0  0
   -3.8363   45.6580   27.6242 H   0  0  0  0  0  0
   -5.7574   46.5453   25.7753 H   0  0  0  0  0  0
   -5.1927   44.8886   25.8578 H   0  0  0  0  0  0
   -4.1129   45.0833   23.8681 H   0  0  0  0  0  0
   -4.7789   46.6748   23.6164 H   0  0  0  0  0  0
  1  2  1  0  0  0
  1 42  1  0  0  0
  1 43  1  0  0  0
  1 44  1  0  0  0
  2  7  2  0  0  0
  2  3  1  0  0  0
  3  4  2  0  0  0
  3 45  1  0  0  0
  4  5  1  0  0  0
  4 46  1  0  0  0
  5  6  2  0  0  0
  5  8  1  0  0  0
  6  7  1  0  0  0
  6 47  1  0  0  0
  7 48  1  0  0  0
  8 12  2  0  0  0
  8  9  1  0  0  0
  9 10  2  0  0  0
 10 11  1  0  0  0
 11 12  1  0  0  0
 11 13  1  0  0  0
 13 14  1  0  0  0
 13 49  1  0  0  0
 13 50  1  0  0  0
 14 15  2  0  0  0
 14 16  1  0  0  0
 16 17  1  0  0  0
 16 26  1  0  0  0
 17 18  1  0  0  0
 17 51  1  0  0  0
 17 52  1  0  0  0
 18 19  1  0  0  0
 18 53  1  0  0  0
 18 54  1  0  0  0
 19 24  2  0  0  0
 19 20  1  0  0  0
 20 21  2  0  0  0
 20 55  1  0  0  0
 21 22  1  0  0  0
 21 56  1  0  0  0
 22 23  2  0  0  0
 22 57  1  0  0  0
 23 24  1  0  0  0
 23 58  1  0  0  0
 24 25  1  0  0  0
 25 59  1  0  0  0
 25 60  1  0  0  0
 25 61  1  0  0  0
 26 27  1  0  0  0
 26 28  1  0  0  0
 26 34  1  0  0  0
 28 33  2  0  0  0
 28 29  1  0  0  0
 29 30  2  0  0  0
 29 62  1  0  0  0
 30 31  1  0  0  0
 30 63  1  0  0  0
 31 32  2  0  0  0
 32 33  1  0  0  0
 32 64  1  0  0  0
 33 65  1  0  0  0
 34 35  2  0  0  0
 34 36  1  0  0  0
 36 37  1  0  0  0
 36 66  1  0  0  0
 37 41  1  0  0  0
 37 38  1  0  0  0
 37 67  1  0  0  0
 38 39  1  0  0  0
 38 68  1  0  0  0
 38 69  1  0  0  0
 39 40  1  0  0  0
 39 70  1  0  0  0
 39 71  1  0  0  0
 40 41  1  0  0  0
 40 72  1  0  0  0
 40 73  1  0  0  0
 41 74  1  0  0  0
 41 75  1  0  0  0
M  END
> <i_i_glide_confnum>
356

> <i_i_glide_lignum>
5762

> <i_i_glide_posenum>
3

> <i_i_glide_rotatable_bonds>
12

> <i_m_Source_File_Index>
2288

> <b_m_subgroup_collapsed>
0

> <r_i_docking_score>
-3.51668

> <r_i_glide_ecoul>
-1.50776

> <r_i_glide_eff_state_penalty>
0

> <r_i_glide_einternal>
14.9883

> <r_i_glide_emodel>
-52.2297

> <r_i_glide_energy>
-47.884

> <r_i_glide_erotb>
0.714622

> <r_i_glide_esite>
-0.0486263

> <r_i_glide_evdw>
-46.3762

> <r_i_glide_gscore>
-3.51668

> <r_i_glide_hbond>
-0.0188139

> <r_i_glide_ligand_efficiency>
-0.087917

> <r_i_glide_ligand_efficiency_ln>
-0.750005

> <r_i_glide_ligand_efficiency_sa>
-0.300672

> <r_i_glide_lipo>
-1.49421

> <r_i_glide_metal>
0

> <r_i_glide_rewards>
-0.124676

> <s_i_glide_gridfile>
wee1_glide-grid

> <s_m_Source_File>
wee1_decoys_glide_SP.sdf

> <s_m_Source_Path>
/Users/zhangxujun/Desktop

> <s_m_entry_id>
2563

> <s_m_entry_name>
wee1_decoys_glide_SP.2288

> <s_m_subgroup_title>
wee1_decoys_glide_SP

> <s_m_subgroupid>
wee1_decoys_glide_SP


$$$$
