ZINC39680040_546
                    3D
 Schrodinger Suite 2024-2.
 50 54  0  0  1  0            999 V2000
    5.7473   54.6732   27.8096 C   0  0  0  0  0  0
    4.4578   54.1959   27.1559 C   0  0  0  0  0  0
    4.2636   54.0967   25.7547 C   0  0  0  0  0  0
    5.2189   54.3502   24.6577 C   0  0  0  0  0  0
    6.3884   54.7287   24.7037 O   0  0  0  0  0  0
    4.6442   54.0968   23.4415 N   0  0  0  0  0  0
    5.2797   54.2225   22.6708 H   0  0  0  0  0  0
    3.3487   53.6959   23.1824 C   0  0  0  0  0  0
    2.5057   53.5101   24.1395 N   0  0  0  0  0  0
    2.9688   53.6982   25.4063 C   0  0  0  0  0  0
    1.9674   53.4148   26.7710 S   0  0  0  0  0  0
    3.2601   53.8810   27.8511 C   0  0  0  0  0  0
    2.9604   53.8675   29.2973 C   0  0  0  0  0  0
    1.7862   53.6278   29.6642 O   0  0  0  0  0  0
    3.9023   54.0953   30.0849 O   0  5  0  0  0  0
    2.9427   53.4389   21.7474 C   0  0  0  0  0  0
    3.2402   51.6850   21.3112 S   0  0  0  0  0  0
    1.5481   51.0395   21.3897 C   0  0  0  0  0  0
    1.3979   50.0024   22.1245 N   0  0  0  0  0  0
    0.0636   49.4603   22.3562 C   0  0  2  0  0  0
   -0.0455   48.5665   21.7409 H   0  0  0  0  0  0
   -1.1065   50.4538   22.1248 C   0  0  1  0  0  0
   -1.9775   49.8990   21.7760 H   0  0  0  0  0  0
   -1.4652   51.0855   23.4675 C   0  0  0  0  0  0
   -0.9770   50.3975   24.5278 C   0  0  0  0  0  0
   -0.0863   48.9278   24.0756 S   0  0  0  0  0  0
   -1.2285   50.7586   25.9868 C   0  0  0  0  0  0
   -1.7510   52.2048   26.1207 C   0  0  0  0  0  0
   -2.8233   52.5285   25.0644 C   0  0  0  0  0  0
   -2.2601   52.3836   23.6323 C   0  0  0  0  0  0
   -0.8216   51.4774   20.9968 C   0  0  0  0  0  0
   -1.7424   52.0932   20.4447 O   0  0  0  0  0  0
    0.5067   51.5993   20.6825 N   0  0  0  0  0  0
    0.7618   52.3175   19.4197 C   0  0  0  0  0  0
    6.3619   53.8374   28.1455 H   0  0  0  0  0  0
    6.3571   55.3036   27.1686 H   0  0  0  0  0  0
    5.5649   55.2983   28.6814 H   0  0  0  0  0  0
    1.8868   53.6926   21.6693 H   0  0  0  0  0  0
    3.4751   54.0896   21.0533 H   0  0  0  0  0  0
   -1.9493   50.0652   26.4246 H   0  0  0  0  0  0
   -0.3268   50.6385   26.5934 H   0  0  0  0  0  0
   -2.1398   52.3661   27.1263 H   0  0  0  0  0  0
   -0.9189   52.8963   26.0063 H   0  0  0  0  0  0
   -3.6708   51.8544   25.1958 H   0  0  0  0  0  0
   -3.2156   53.5346   25.2148 H   0  0  0  0  0  0
   -1.6170   53.2369   23.4173 H   0  0  0  0  0  0
   -3.0619   52.4592   22.8985 H   0  0  0  0  0  0
    1.8217   52.4522   19.1935 H   0  0  0  0  0  0
    0.3335   51.7614   18.5823 H   0  0  0  0  0  0
    0.3060   53.3031   19.4201 H   0  0  0  0  0  0
  1  2  1  0  0  0
  1 35  1  0  0  0
  1 36  1  0  0  0
  1 37  1  0  0  0
  2 12  2  0  0  0
  2  3  1  0  0  0
  3 10  2  0  0  0
  3  4  1  0  0  0
  4  5  2  0  0  0
  4  6  1  0  0  0
  6  7  1  0  0  0
  6  8  1  0  0  0
  8  9  2  0  0  0
  8 16  1  0  0  0
  9 10  1  0  0  0
 10 11  1  0  0  0
 11 12  1  0  0  0
 12 13  1  0  0  0
 13 14  2  0  0  0
 13 15  1  0  0  0
 16 17  1  0  0  0
 16 38  1  0  0  0
 16 39  1  0  0  0
 17 18  1  0  0  0
 18 33  1  0  0  0
 18 19  2  0  0  0
 19 20  1  0  0  0
 20 21  1  0  0  0
 20 26  1  0  0  0
 20 22  1  0  0  0
 22 23  1  0  0  0
 22 24  1  0  0  0
 22 31  1  0  0  0
 24 30  1  0  0  0
 24 25  2  0  0  0
 25 26  1  0  0  0
 25 27  1  0  0  0
 27 28  1  0  0  0
 27 40  1  0  0  0
 27 41  1  0  0  0
 28 29  1  0  0  0
 28 42  1  0  0  0
 28 43  1  0  0  0
 29 30  1  0  0  0
 29 44  1  0  0  0
 29 45  1  0  0  0
 30 46  1  0  0  0
 30 47  1  0  0  0
 31 32  2  0  0  0
 31 33  1  0  0  0
 33 34  1  0  0  0
 34 48  1  0  0  0
 34 49  1  0  0  0
 34 50  1  0  0  0
M  CHG  1  15  -1
M  END
> <i_i_glide_confnum>
10

> <i_i_glide_lignum>
547

> <i_i_glide_posenum>
256

> <i_i_glide_rotatable_bonds>
4

> <i_m_Source_File_Index>
2252

> <b_m_subgroup_collapsed>
0

> <r_i_docking_score>
-5.84581

> <r_i_glide_ecoul>
-7.74491

> <r_i_glide_eff_state_penalty>
0

> <r_i_glide_einternal>
2.40127

> <r_i_glide_emodel>
-71.8501

> <r_i_glide_energy>
-52.2228

> <r_i_glide_erotb>
0.268501

> <r_i_glide_esite>
-0.0174245

> <r_i_glide_evdw>
-44.4779

> <r_i_glide_gscore>
-5.84581

> <r_i_glide_hbond>
-0.354109

> <r_i_glide_ligand_efficiency>
-0.188574

> <r_i_glide_ligand_efficiency_ln>
-1.31841

> <r_i_glide_ligand_efficiency_sa>
-0.592384

> <r_i_glide_lipo>
-1.70805

> <r_i_glide_metal>
0

> <r_i_glide_rewards>
-0.649096

> <s_i_glide_gridfile>
wee1_glide-grid

> <s_m_Source_File>
wee1_decoys_glide_SP.sdf

> <s_m_Source_Path>
/Users/zhangxujun/Desktop

> <s_m_entry_id>
2527

> <s_m_entry_name>
wee1_decoys_glide_SP.2252

> <s_m_subgroup_title>
wee1_decoys_glide_SP

> <s_m_subgroupid>
wee1_decoys_glide_SP


$$$$
