ZINC39227442_6052
                    3D
 Schrodinger Suite 2024-2.
 65 69  0  0  1  0            999 V2000
   -3.8654   47.5255   25.9889 C   0  0  0  0  0  0
   -2.6300   48.0717   25.2547 C   0  0  0  0  0  0
   -2.9090   48.4825   23.7954 C   0  0  0  0  0  0
   -2.0203   49.2348   26.0817 N   0  3  2  0  0  0
   -2.8513   50.5431   26.0886 C   0  0  0  0  0  0
   -2.1988   51.5029   27.0982 C   0  0  0  0  0  0
   -0.7209   51.7994   26.7606 C   0  0  2  0  0  0
    0.0276   50.4552   26.7878 C   0  0  0  0  0  0
   -0.5234   49.4590   25.7567 C   0  0  0  0  0  0
   -0.1454   52.8273   27.7576 C   0  0  0  0  0  0
    1.2930   53.1848   27.3738 C   0  0  0  0  0  0
    2.1972   53.3497   28.1920 O   0  0  0  0  0  0
    1.5067   53.2848   25.8977 C   0  0  0  0  0  0
    2.7326   53.6971   25.3661 C   0  0  0  0  0  0
    2.9874   53.6961   23.9823 C   0  0  0  0  0  0
    1.9517   53.2758   23.1311 C   0  0  0  0  0  0
    0.7250   52.8517   23.6375 C   0  0  0  0  0  0
    0.5157   52.8359   25.0107 C   0  0  0  0  0  0
   -0.7146   52.3751   25.4421 O   0  0  0  0  0  0
    4.3305   54.0965   23.4437 C   0  0  0  0  0  0
    5.4652   54.1003   24.2708 C   0  0  0  0  0  0
    6.7052   54.5120   23.8007 C   0  0  0  0  0  0
    6.8481   54.9227   22.4809 C   0  0  0  0  0  0
    5.7547   54.8971   21.6127 C   0  0  0  0  0  0
    4.5050   54.4862   22.1035 C   0  0  0  0  0  0
    5.9151   55.3665   20.1924 C   0  0  0  0  0  0
    6.6390   56.3331   19.9421 O   0  0  0  0  0  0
    5.2332   54.6441   19.2783 N   0  0  0  0  0  0
    5.0891   54.8914   17.9061 C   0  0  0  0  0  0
    4.8242   53.7857   17.0933 C   0  0  0  0  0  0
    4.6349   53.9583   15.7241 C   0  0  0  0  0  0
    4.6995   55.2362   15.1741 C   0  0  0  0  0  0
    4.9515   56.3458   15.9780 C   0  0  0  0  0  0
    5.1437   56.1761   17.3466 C   0  0  0  0  0  0
   -4.2305   46.6143   25.5157 H   0  0  0  0  0  0
   -4.6918   48.2350   25.9967 H   0  0  0  0  0  0
   -3.6291   47.2766   27.0247 H   0  0  0  0  0  0
   -1.8564   47.3010   25.2867 H   0  0  0  0  0  0
   -3.2352   47.6231   23.2095 H   0  0  0  0  0  0
   -3.6942   49.2346   23.7237 H   0  0  0  0  0  0
   -2.0214   48.8811   23.3063 H   0  0  0  0  0  0
   -2.8798   50.9422   25.0743 H   0  0  0  0  0  0
   -3.8551   50.2908   26.4310 H   0  0  0  0  0  0
   -2.7676   52.4329   27.1133 H   0  0  0  0  0  0
   -2.2823   51.0866   28.1053 H   0  0  0  0  0  0
   -0.0910   50.0957   27.8024 H   0  0  0  0  0  0
    1.1010   50.5657   26.6291 H   0  0  0  0  0  0
   -0.0200   48.4983   25.8936 H   0  0  0  0  0  0
   -0.4304   49.8015   24.7250 H   0  0  0  0  0  0
   -0.7749   53.6971   27.6770 H   0  0  0  0  0  0
   -0.1651   52.4098   28.7645 H   0  0  0  0  0  0
    3.4951   54.0240   26.0569 H   0  0  0  0  0  0
    2.0869   53.2403   22.0611 H   0  0  0  0  0  0
   -0.0508   52.5128   22.9671 H   0  0  0  0  0  0
    5.4163   53.7743   25.2976 H   0  0  0  0  0  0
    7.5510   54.5147   24.4689 H   0  0  0  0  0  0
    7.8204   55.2492   22.1361 H   0  0  0  0  0  0
    3.6522   54.5209   21.4415 H   0  0  0  0  0  0
    4.7969   53.7958   19.6065 H   0  0  0  0  0  0
    4.7675   52.7890   17.5108 H   0  0  0  0  0  0
    4.4355   53.1040   15.0930 H   0  0  0  0  0  0
    4.5506   55.3697   14.1123 H   0  0  0  0  0  0
    4.9893   57.3351   15.5470 H   0  0  0  0  0  0
    5.3157   57.0500   17.9588 H   0  0  0  0  0  0
   -1.9901   48.8910   27.0538 H   0  0  0  0  0  0
  1  2  1  0  0  0
  1 35  1  0  0  0
  1 36  1  0  0  0
  1 37  1  0  0  0
  2  3  1  0  0  0
  2  4  1  0  0  0
  2 38  1  0  0  0
  3 39  1  0  0  0
  3 40  1  0  0  0
  3 41  1  0  0  0
  4  9  1  0  0  0
  4  5  1  0  0  0
  4 65  1  0  0  0
  5  6  1  0  0  0
  5 42  1  0  0  0
  5 43  1  0  0  0
  6  7  1  0  0  0
  6 44  1  0  0  0
  6 45  1  0  0  0
  7 19  1  0  0  0
  7  8  1  0  0  0
  7 10  1  0  0  0
  8  9  1  0  0  0
  8 46  1  0  0  0
  8 47  1  0  0  0
  9 48  1  0  0  0
  9 49  1  0  0  0
 10 11  1  0  0  0
 10 50  1  0  0  0
 10 51  1  0  0  0
 11 12  2  0  0  0
 11 13  1  0  0  0
 13 18  2  0  0  0
 13 14  1  0  0  0
 14 15  2  0  0  0
 14 52  1  0  0  0
 15 16  1  0  0  0
 15 20  1  0  0  0
 16 17  2  0  0  0
 16 53  1  0  0  0
 17 18  1  0  0  0
 17 54  1  0  0  0
 18 19  1  0  0  0
 20 25  2  0  0  0
 20 21  1  0  0  0
 21 22  2  0  0  0
 21 55  1  0  0  0
 22 23  1  0  0  0
 22 56  1  0  0  0
 23 24  2  0  0  0
 23 57  1  0  0  0
 24 25  1  0  0  0
 24 26  1  0  0  0
 25 58  1  0  0  0
 26 27  2  0  0  0
 26 28  1  0  0  0
 28 29  1  0  0  0
 28 59  1  0  0  0
 29 34  2  0  0  0
 29 30  1  0  0  0
 30 31  2  0  0  0
 30 60  1  0  0  0
 31 32  1  0  0  0
 31 61  1  0  0  0
 32 33  2  0  0  0
 32 62  1  0  0  0
 33 34  1  0  0  0
 33 63  1  0  0  0
 34 64  1  0  0  0
M  CHG  1   4   1
M  END
> <i_i_glide_confnum>
56

> <i_i_glide_lignum>
6053

> <i_i_glide_posenum>
172

> <i_i_glide_rotatable_bonds>
5

> <i_m_Source_File_Index>
2544

> <b_m_subgroup_collapsed>
0

> <r_i_docking_score>
-5.66967

> <r_i_glide_ecoul>
-6.92167

> <r_i_glide_eff_state_penalty>
0

> <r_i_glide_einternal>
5.99374

> <r_i_glide_emodel>
-57.5889

> <r_i_glide_energy>
-41.2181

> <r_i_glide_erotb>
0.3872

> <r_i_glide_esite>
-0.1

> <r_i_glide_evdw>
-34.2964

> <r_i_glide_gscore>
-5.66967

> <r_i_glide_hbond>
-0.195216

> <r_i_glide_ligand_efficiency>
-0.166755

> <r_i_glide_ligand_efficiency_ln>
-1.25259

> <r_i_glide_ligand_efficiency_sa>
-0.540221

> <r_i_glide_lipo>
-2.39121

> <r_i_glide_metal>
0

> <r_i_glide_rewards>
-0.617372

> <s_i_glide_gridfile>
wee1_glide-grid

> <s_m_Source_File>
wee1_decoys_glide_SP.sdf

> <s_m_Source_Path>
/Users/zhangxujun/Desktop

> <s_m_entry_id>
2819

> <s_m_entry_name>
wee1_decoys_glide_SP.2544

> <s_m_subgroup_title>
wee1_decoys_glide_SP

> <s_m_subgroupid>
wee1_decoys_glide_SP


$$$$
