ZINC04212966_4466
                    3D
 Schrodinger Suite 2024-2.
 70 73  0  0  1  0            999 V2000
    0.1214   53.2819   31.0277 C   0  0  0  0  0  0
    1.5806   53.3023   30.5541 C   0  0  0  0  0  0
    1.8324   52.3006   29.4188 C   0  0  0  0  0  0
    3.2818   52.3871   28.8976 C   0  0  0  0  0  0
    3.5809   53.7524   28.4440 N   0  0  0  0  0  0
    3.4856   54.6976   29.5610 C   0  0  0  0  0  0
    2.0290   54.7047   30.0815 C   0  0  0  0  0  0
    4.3496   53.9893   27.3121 C   0  0  0  0  0  0
    5.6825   54.3967   27.4552 C   0  0  0  0  0  0
    6.4814   54.6436   26.3377 C   0  0  0  0  0  0
    5.9584   54.5277   25.0470 C   0  0  0  0  0  0
    4.6392   54.1044   24.9067 C   0  0  0  0  0  0
    3.8404   53.7859   26.0077 C   0  0  0  0  0  0
    2.4259   53.3430   25.7286 C   0  0  0  0  0  0
    1.5042   53.6969   26.4444 O   0  0  0  0  0  0
    2.2720   52.5939   24.6233 N   0  0  0  0  0  0
    1.0455   52.1197   23.9942 C   0  0  1  0  0  0
    0.5198   51.5052   24.7287 H   0  0  0  0  0  0
    0.1446   53.2913   23.5749 C   0  0  0  0  0  0
    1.3574   51.2478   22.7715 C   0  0  0  0  0  0
    2.4084   51.5704   21.8978 C   0  0  0  0  0  0
    2.6869   50.7579   20.8013 C   0  0  0  0  0  0
    1.9137   49.6238   20.5709 C   0  0  0  0  0  0
    0.8616   49.2965   21.4251 C   0  0  0  0  0  0
    0.5886   50.1039   22.5279 C   0  0  0  0  0  0
    6.7786   54.8625   23.9522 N   0  0  0  0  0  0
    6.4899   54.8804   22.6308 C   0  0  0  0  0  0
    5.4450   54.4975   22.1056 O   0  0  0  0  0  0
    7.5045   55.4191   21.9376 N   0  0  0  0  0  0
    7.4834   55.8512   20.6038 C   0  0  0  0  0  0
    6.3759   56.5110   20.0677 C   0  0  0  0  0  0
    6.4115   57.0027   18.7673 C   0  0  0  0  0  0
    7.5689   56.8464   18.0019 C   0  0  0  0  0  0
    8.6789   56.1876   18.5316 C   0  0  0  0  0  0
    8.6361   55.6974   19.8340 C   0  0  0  0  0  0
    7.6678   57.4888   16.3545 S   0  0  0  0  0  0
    6.2355   58.5720   16.0737 C   0  0  0  0  0  0
   -0.5447   53.6432   30.2445 H   0  0  0  0  0  0
   -0.1930   52.2702   31.2817 H   0  0  0  0  0  0
   -0.0226   53.9056   31.9111 H   0  0  0  0  0  0
    2.2277   52.9832   31.3722 H   0  0  0  0  0  0
    1.1389   52.4640   28.5939 H   0  0  0  0  0  0
    1.5984   51.2957   29.7581 H   0  0  0  0  0  0
    3.3795   51.6978   28.0687 H   0  0  0  0  0  0
    4.0033   52.0829   29.6578 H   0  0  0  0  0  0
    4.1992   54.4191   30.3401 H   0  0  0  0  0  0
    3.7429   55.6979   29.2187 H   0  0  0  0  0  0
    1.8989   55.4357   30.8813 H   0  0  0  0  0  0
    1.3697   55.0700   29.2913 H   0  0  0  0  0  0
    6.1089   54.5190   28.4399 H   0  0  0  0  0  0
    7.5042   54.9359   26.4980 H   0  0  0  0  0  0
    4.1984   54.0212   23.9289 H   0  0  0  0  0  0
    3.1118   52.1778   24.2572 H   0  0  0  0  0  0
   -0.7309   52.9298   23.0342 H   0  0  0  0  0  0
   -0.2145   53.8526   24.4336 H   0  0  0  0  0  0
    0.7046   53.9731   22.9311 H   0  0  0  0  0  0
    3.0077   52.4552   22.0579 H   0  0  0  0  0  0
    3.4932   51.0092   20.1269 H   0  0  0  0  0  0
    2.1326   48.9965   19.7175 H   0  0  0  0  0  0
    0.2620   48.4190   21.2326 H   0  0  0  0  0  0
   -0.2269   49.8381   23.1859 H   0  0  0  0  0  0
    7.7182   55.1475   24.1858 H   0  0  0  0  0  0
    8.4068   55.4404   22.3957 H   0  0  0  0  0  0
    5.5048   56.6685   20.6752 H   0  0  0  0  0  0
    5.5445   57.5129   18.3779 H   0  0  0  0  0  0
    9.5753   56.0654   17.9408 H   0  0  0  0  0  0
    9.5043   55.2014   20.2382 H   0  0  0  0  0  0
    6.3539   59.1161   15.1377 H   0  0  0  0  0  0
    5.3201   57.9862   16.0103 H   0  0  0  0  0  0
    6.1326   59.2972   16.8784 H   0  0  0  0  0  0
  1  2  1  0  0  0
  1 38  1  0  0  0
  1 39  1  0  0  0
  1 40  1  0  0  0
  2  7  1  0  0  0
  2  3  1  0  0  0
  2 41  1  0  0  0
  3  4  1  0  0  0
  3 42  1  0  0  0
  3 43  1  0  0  0
  4  5  1  0  0  0
  4 44  1  0  0  0
  4 45  1  0  0  0
  5  6  1  0  0  0
  5  8  1  0  0  0
  6  7  1  0  0  0
  6 46  1  0  0  0
  6 47  1  0  0  0
  7 48  1  0  0  0
  7 49  1  0  0  0
  8 13  2  0  0  0
  8  9  1  0  0  0
  9 10  2  0  0  0
  9 50  1  0  0  0
 10 11  1  0  0  0
 10 51  1  0  0  0
 11 12  2  0  0  0
 11 26  1  0  0  0
 12 13  1  0  0  0
 12 52  1  0  0  0
 13 14  1  0  0  0
 14 15  2  0  0  0
 14 16  1  0  0  0
 16 17  1  0  0  0
 16 53  1  0  0  0
 17 18  1  0  0  0
 17 19  1  0  0  0
 17 20  1  0  0  0
 19 54  1  0  0  0
 19 55  1  0  0  0
 19 56  1  0  0  0
 20 25  2  0  0  0
 20 21  1  0  0  0
 21 22  2  0  0  0
 21 57  1  0  0  0
 22 23  1  0  0  0
 22 58  1  0  0  0
 23 24  2  0  0  0
 23 59  1  0  0  0
 24 25  1  0  0  0
 24 60  1  0  0  0
 25 61  1  0  0  0
 26 27  1  0  0  0
 26 62  1  0  0  0
 27 28  2  0  0  0
 27 29  1  0  0  0
 29 30  1  0  0  0
 29 63  1  0  0  0
 30 35  2  0  0  0
 30 31  1  0  0  0
 31 32  2  0  0  0
 31 64  1  0  0  0
 32 33  1  0  0  0
 32 65  1  0  0  0
 33 34  2  0  0  0
 33 36  1  0  0  0
 34 35  1  0  0  0
 34 66  1  0  0  0
 35 67  1  0  0  0
 36 37  1  0  0  0
 37 68  1  0  0  0
 37 69  1  0  0  0
 37 70  1  0  0  0
M  END
> <i_i_glide_confnum>
75

> <i_i_glide_lignum>
4467

> <i_i_glide_posenum>
317

> <i_i_glide_rotatable_bonds>
10

> <i_m_Source_File_Index>
5633

> <b_m_subgroup_collapsed>
0

> <r_i_docking_score>
-6.74698

> <r_i_glide_ecoul>
-3.53228

> <r_i_glide_eff_state_penalty>
0

> <r_i_glide_einternal>
7.64011

> <r_i_glide_emodel>
-71.9295

> <r_i_glide_energy>
-52.4666

> <r_i_glide_erotb>
0.64698

> <r_i_glide_esite>
0

> <r_i_glide_evdw>
-48.9343

> <r_i_glide_gscore>
-6.74698

> <r_i_glide_hbond>
-0.600848

> <r_i_glide_ligand_efficiency>
-0.187416

> <r_i_glide_ligand_efficiency_ln>
-1.47201

> <r_i_glide_ligand_efficiency_sa>
-0.618835

> <r_i_glide_lipo>
-2.9594

> <r_i_glide_metal>
0

> <r_i_glide_rewards>
-0.85716

> <s_i_glide_gridfile>
wee1_glide-grid

> <s_m_Source_File>
wee1_decoys_glide_SP.sdf

> <s_m_Source_Path>
/Users/zhangxujun/Desktop

> <s_m_entry_id>
5908

> <s_m_entry_name>
wee1_decoys_glide_SP.5633

> <s_m_subgroup_title>
wee1_decoys_glide_SP

> <s_m_subgroupid>
wee1_decoys_glide_SP


$$$$
