ZINC02418952_3959
                    3D
 Schrodinger Suite 2024-2.
 57 61  0  0  1  0            999 V2000
   -4.5717   50.1205   20.0985 C   0  0  0  0  0  0
   -3.0687   49.9342   20.0031 C   0  0  0  0  0  0
   -2.4381   48.9828   20.8092 C   0  0  0  0  0  0
   -1.0567   48.8190   20.7411 C   0  0  0  0  0  0
   -0.3090   49.6139   19.8699 C   0  0  0  0  0  0
   -0.9380   50.5585   19.0565 C   0  0  0  0  0  0
   -2.3191   50.7193   19.1239 C   0  0  0  0  0  0
    1.4755   49.4781   19.8267 S   0  0  0  0  0  0
    1.9037   49.8005   18.4638 O   0  0  0  0  0  0
    1.8642   48.2248   20.4819 O   0  0  0  0  0  0
    1.9919   50.8364   20.8972 C   0  0  0  0  0  0
    1.5602   51.0486   22.2382 C   0  0  0  0  0  0
    2.0517   52.3086   22.6490 C   0  0  0  0  0  0
    1.7650   52.8400   23.8360 N   0  0  0  0  0  0
    0.9989   52.1088   24.6906 C   0  0  0  0  0  0
    0.7023   52.6065   25.9765 C   0  0  0  0  0  0
   -0.0965   51.8708   26.8452 C   0  0  0  0  0  0
   -0.6019   50.6351   26.4591 C   0  0  0  0  0  0
   -0.3075   50.0972   25.2064 C   0  0  0  0  0  0
    0.4975   50.8304   24.3012 C   0  0  0  0  0  0
    0.7932   50.3325   23.0670 N   0  0  0  0  0  0
    2.8234   52.8286   21.6232 N   0  0  0  0  0  0
    2.8066   51.9127   20.5724 C   0  0  0  0  0  0
    3.5045   52.1363   19.4212 N   0  0  0  0  0  0
    3.5069   54.1313   21.6472 C   0  0  0  0  0  0
    4.8555   54.0978   22.3961 C   0  0  0  0  0  0
    4.6508   54.0664   23.8058 O   0  0  0  0  0  0
    5.6169   54.4480   24.6899 C   0  0  0  0  0  0
    6.7035   54.9214   24.3527 O   0  0  0  0  0  0
    5.2286   54.2175   26.1226 C   0  0  0  0  0  0
    3.9594   53.7304   26.4616 C   0  0  0  0  0  0
    3.5923   53.5420   27.7880 C   0  0  0  0  0  0
    4.5007   53.8261   28.7950 C   0  0  0  0  0  0
    5.7791   54.2766   28.4814 C   0  0  0  0  0  0
    6.1425   54.4801   27.1523 C   0  0  0  0  0  0
    4.1273   53.6647   30.0830 F   0  0  0  0  0  0
   -5.0875   49.2471   19.6992 H   0  0  0  0  0  0
   -4.8701   50.2329   21.1412 H   0  0  0  0  0  0
   -4.9108   51.0085   19.5649 H   0  0  0  0  0  0
   -3.0155   48.3777   21.4936 H   0  0  0  0  0  0
   -0.5677   48.0948   21.3769 H   0  0  0  0  0  0
   -0.3555   51.1738   18.3847 H   0  0  0  0  0  0
   -2.7998   51.4542   18.4943 H   0  0  0  0  0  0
    1.0848   53.5715   26.2739 H   0  0  0  0  0  0
   -0.3335   52.2607   27.8245 H   0  0  0  0  0  0
   -1.2308   50.0965   27.1504 H   0  0  0  0  0  0
   -0.6935   49.1278   24.9255 H   0  0  0  0  0  0
    3.6916   51.3693   18.7743 H   0  0  0  0  0  0
    4.0206   52.9827   19.2443 H   0  0  0  0  0  0
    2.8348   54.8602   22.1022 H   0  0  0  0  0  0
    3.6541   54.4774   20.6247 H   0  0  0  0  0  0
    5.4001   55.0098   22.1451 H   0  0  0  0  0  0
    5.4737   53.2609   22.0672 H   0  0  0  0  0  0
    3.2441   53.4980   25.6972 H   0  0  0  0  0  0
    2.6102   53.1731   28.0418 H   0  0  0  0  0  0
    6.4828   54.4824   29.2729 H   0  0  0  0  0  0
    7.1359   54.8450   26.9391 H   0  0  0  0  0  0
  1  2  1  0  0  0
  1 37  1  0  0  0
  1 38  1  0  0  0
  1 39  1  0  0  0
  2  7  2  0  0  0
  2  3  1  0  0  0
  3  4  2  0  0  0
  3 40  1  0  0  0
  4  5  1  0  0  0
  4 41  1  0  0  0
  5  6  2  0  0  0
  5  8  1  0  0  0
  6  7  1  0  0  0
  6 42  1  0  0  0
  7 43  1  0  0  0
  8  9  2  0  0  0
  8 10  2  0  0  0
  8 11  1  0  0  0
 11 23  2  0  0  0
 11 12  1  0  0  0
 12 21  2  0  0  0
 12 13  1  0  0  0
 13 14  2  0  0  0
 13 22  1  0  0  0
 14 15  1  0  0  0
 15 20  2  0  0  0
 15 16  1  0  0  0
 16 17  2  0  0  0
 16 44  1  0  0  0
 17 18  1  0  0  0
 17 45  1  0  0  0
 18 19  2  0  0  0
 18 46  1  0  0  0
 19 20  1  0  0  0
 19 47  1  0  0  0
 20 21  1  0  0  0
 22 23  1  0  0  0
 22 25  1  0  0  0
 23 24  1  0  0  0
 24 48  1  0  0  0
 24 49  1  0  0  0
 25 26  1  0  0  0
 25 50  1  0  0  0
 25 51  1  0  0  0
 26 27  1  0  0  0
 26 52  1  0  0  0
 26 53  1  0  0  0
 27 28  1  0  0  0
 28 29  2  0  0  0
 28 30  1  0  0  0
 30 35  2  0  0  0
 30 31  1  0  0  0
 31 32  2  0  0  0
 31 54  1  0  0  0
 32 33  1  0  0  0
 32 55  1  0  0  0
 33 34  2  0  0  0
 33 36  1  0  0  0
 34 35  1  0  0  0
 34 56  1  0  0  0
 35 57  1  0  0  0
M  END
> <i_i_glide_confnum>
54

> <i_i_glide_lignum>
3960

> <i_i_glide_posenum>
240

> <i_i_glide_rotatable_bonds>
7

> <i_m_Source_File_Index>
4102

> <b_m_subgroup_collapsed>
0

> <r_i_docking_score>
-4.99114

> <r_i_glide_ecoul>
-2.74456

> <r_i_glide_eff_state_penalty>
0

> <r_i_glide_einternal>
3.1024

> <r_i_glide_emodel>
-61.078

> <r_i_glide_energy>
-46.764

> <r_i_glide_erotb>
0.481955

> <r_i_glide_esite>
-0.238752

> <r_i_glide_evdw>
-44.0194

> <r_i_glide_gscore>
-4.99114

> <r_i_glide_hbond>
-0.104149

> <r_i_glide_ligand_efficiency>
-0.138643

> <r_i_glide_ligand_efficiency_ln>
-1.08893

> <r_i_glide_ligand_efficiency_sa>
-0.457789

> <r_i_glide_lipo>
-1.92022

> <r_i_glide_metal>
0

> <r_i_glide_rewards>
-0.597319

> <s_i_glide_gridfile>
wee1_glide-grid

> <s_m_Source_File>
wee1_decoys_glide_SP.sdf

> <s_m_Source_Path>
/Users/zhangxujun/Desktop

> <s_m_entry_id>
4377

> <s_m_entry_name>
wee1_decoys_glide_SP.4102

> <s_m_subgroup_title>
wee1_decoys_glide_SP

> <s_m_subgroupid>
wee1_decoys_glide_SP


$$$$
