ZINC36029066_598
                    3D
 Schrodinger Suite 2024-2.
 64 67  0  0  1  0            999 V2000
   -4.4613   49.1241   25.7946 C   0  0  0  0  0  0
   -4.5076   50.2594   26.8387 C   0  0  0  0  0  0
   -4.5375   49.7380   28.2931 C   0  0  0  0  0  0
   -3.4231   51.3393   26.6150 C   0  0  0  0  0  0
   -1.9784   50.8798   26.9385 C   0  0  2  0  0  0
   -1.9247   50.4965   27.9548 H   0  0  0  0  0  0
   -0.9200   51.9711   26.8778 C   0  0  0  0  0  0
   -0.8950   52.8980   27.6753 O   0  0  0  0  0  0
   -0.0598   51.7243   25.8647 N   0  0  0  0  0  0
   -0.4198   50.5090   25.1152 C   0  0  0  0  0  0
   -1.3814   49.8144   26.0815 N   0  3  0  0  0  0
   -1.1768   50.7947   23.7881 C   0  0  0  0  0  0
   -0.2755   51.2615   22.6216 C   0  0  0  0  0  0
    0.8581   50.3177   22.4939 N   0  0  0  0  0  0
    1.6887   50.0296   23.6811 C   0  0  0  0  0  0
    0.7456   49.5369   24.8087 C   0  0  0  0  0  0
    1.2198   49.8099   21.2725 C   0  0  0  0  0  0
    0.1608   49.0423   20.2351 S   0  0  0  0  0  0
    2.5241   49.9899   20.9238 N   0  0  0  0  0  0
    3.0578   51.1591   20.3707 C   0  0  0  0  0  0
    4.1583   51.7407   21.0032 C   0  0  0  0  0  0
    4.7003   52.9197   20.4985 C   0  0  0  0  0  0
    4.1639   53.4937   19.3484 C   0  0  0  0  0  0
    3.0817   52.9027   18.7010 C   0  0  0  0  0  0
    2.5182   51.7372   19.2155 C   0  0  0  0  0  0
    4.6939   54.6393   18.8628 F   0  0  0  0  0  0
    0.9284   52.7503   25.4623 C   0  0  0  0  0  0
    2.0992   53.0854   26.3980 C   0  0  0  0  0  0
    3.0673   53.9791   25.9267 C   0  0  0  0  0  0
    4.1541   54.3310   26.7233 C   0  0  0  0  0  0
    4.2757   53.7902   28.0005 C   0  0  0  0  0  0
    3.3231   52.8969   28.4830 C   0  0  0  0  0  0
    2.2410   52.5384   27.6824 C   0  0  0  0  0  0
   -3.9968   48.2185   26.1873 H   0  0  0  0  0  0
   -5.4706   48.8562   25.4801 H   0  0  0  0  0  0
   -3.9188   49.4171   24.8948 H   0  0  0  0  0  0
   -5.4564   50.7754   26.6770 H   0  0  0  0  0  0
   -4.1011   48.7427   28.3893 H   0  0  0  0  0  0
   -3.9921   50.3921   28.9760 H   0  0  0  0  0  0
   -5.5608   49.6820   28.6615 H   0  0  0  0  0  0
   -3.6688   52.1927   27.2510 H   0  0  0  0  0  0
   -3.4920   51.7197   25.5944 H   0  0  0  0  0  0
   -0.8968   49.1485   26.6813 H   0  0  0  0  0  0
   -1.7032   49.8971   23.4581 H   0  0  0  0  0  0
   -1.9601   51.5372   23.9419 H   0  0  0  0  0  0
   -0.8579   51.3416   21.7021 H   0  0  0  0  0  0
    0.1351   52.2529   22.8110 H   0  0  0  0  0  0
    2.4606   49.2967   23.4682 H   0  0  0  0  0  0
    2.2388   50.9230   23.9560 H   0  0  0  0  0  0
    1.3109   49.3077   25.7137 H   0  0  0  0  0  0
    0.3475   48.5662   24.5033 H   0  0  0  0  0  0
    3.1954   49.3704   21.3494 H   0  0  0  0  0  0
    4.5869   51.2980   21.8891 H   0  0  0  0  0  0
    5.5325   53.3925   20.9945 H   0  0  0  0  0  0
    2.6765   53.3541   17.8077 H   0  0  0  0  0  0
    1.6816   51.2815   18.7069 H   0  0  0  0  0  0
    0.3935   53.6805   25.2816 H   0  0  0  0  0  0
    1.3368   52.5243   24.4865 H   0  0  0  0  0  0
    2.9803   54.4057   24.9371 H   0  0  0  0  0  0
    4.8981   55.0196   26.3522 H   0  0  0  0  0  0
    5.1199   54.0616   28.6185 H   0  0  0  0  0  0
    3.4271   52.4761   29.4711 H   0  0  0  0  0  0
    1.5275   51.8300   28.0735 H   0  0  0  0  0  0
   -2.0835   49.2775   25.5958 H   0  0  0  0  0  0
  1  2  1  0  0  0
  1 34  1  0  0  0
  1 35  1  0  0  0
  1 36  1  0  0  0
  2  3  1  0  0  0
  2  4  1  0  0  0
  2 37  1  0  0  0
  3 38  1  0  0  0
  3 39  1  0  0  0
  3 40  1  0  0  0
  4  5  1  0  0  0
  4 41  1  0  0  0
  4 42  1  0  0  0
  5  6  1  0  0  0
  5 11  1  0  0  0
  5  7  1  0  0  0
  7  8  2  0  0  0
  7  9  1  0  0  0
  9 10  1  0  0  0
  9 27  1  0  0  0
 10 16  1  0  0  0
 10 11  1  0  0  0
 10 12  1  0  0  0
 11 43  1  0  0  0
 11 64  1  0  0  0
 12 13  1  0  0  0
 12 44  1  0  0  0
 12 45  1  0  0  0
 13 14  1  0  0  0
 13 46  1  0  0  0
 13 47  1  0  0  0
 14 15  1  0  0  0
 14 17  1  0  0  0
 15 16  1  0  0  0
 15 48  1  0  0  0
 15 49  1  0  0  0
 16 50  1  0  0  0
 16 51  1  0  0  0
 17 18  2  0  0  0
 17 19  1  0  0  0
 19 20  1  0  0  0
 19 52  1  0  0  0
 20 25  2  0  0  0
 20 21  1  0  0  0
 21 22  2  0  0  0
 21 53  1  0  0  0
 22 23  1  0  0  0
 22 54  1  0  0  0
 23 24  2  0  0  0
 23 26  1  0  0  0
 24 25  1  0  0  0
 24 55  1  0  0  0
 25 56  1  0  0  0
 27 28  1  0  0  0
 27 57  1  0  0  0
 27 58  1  0  0  0
 28 33  2  0  0  0
 28 29  1  0  0  0
 29 30  2  0  0  0
 29 59  1  0  0  0
 30 31  1  0  0  0
 30 60  1  0  0  0
 31 32  2  0  0  0
 31 61  1  0  0  0
 32 33  1  0  0  0
 32 62  1  0  0  0
 33 63  1  0  0  0
M  CHG  1  11   1
M  END
> <i_i_glide_confnum>
2

> <i_i_glide_lignum>
599

> <i_i_glide_posenum>
313

> <i_i_glide_rotatable_bonds>
7

> <i_m_Source_File_Index>
287

> <b_m_subgroup_collapsed>
0

> <r_i_docking_score>
-3.0364

> <r_i_glide_ecoul>
-3.24659

> <r_i_glide_eff_state_penalty>
0

> <r_i_glide_einternal>
13.6076

> <r_i_glide_emodel>
-32.6368

> <r_i_glide_energy>
-33.6992

> <r_i_glide_erotb>
0.580698

> <r_i_glide_esite>
-0.150853

> <r_i_glide_evdw>
-30.4526

> <r_i_glide_gscore>
-3.0364

> <r_i_glide_hbond>
-0.184535

> <r_i_glide_ligand_efficiency>
-0.0948875

> <r_i_glide_ligand_efficiency_ln>
-0.679932

> <r_i_glide_ligand_efficiency_sa>
-0.301249

> <r_i_glide_lipo>
-1.37317

> <r_i_glide_metal>
0

> <r_i_glide_rewards>
0.101082

> <s_i_glide_gridfile>
wee1_glide-grid

> <s_m_Source_File>
wee1_decoys_glide_SP.sdf

> <s_m_Source_Path>
/Users/zhangxujun/Desktop

> <s_m_entry_id>
562

> <s_m_entry_name>
wee1_decoys_glide_SP.287

> <s_m_subgroup_title>
wee1_decoys_glide_SP

> <s_m_subgroupid>
wee1_decoys_glide_SP


$$$$
