ZINC45527476_3335
                    3D
 Schrodinger Suite 2024-2.
 53 56  0  0  1  0            999 V2000
    0.3043   53.7384   32.3850 C   0  0  0  0  0  0
    1.0837   52.5069   31.8873 C   0  0  0  0  0  0
    1.2219   52.4955   30.4676 O   0  0  0  0  0  0
    0.2002   52.0969   29.6779 C   0  0  0  0  0  0
   -0.8959   51.7133   30.0824 O   0  0  0  0  0  0
    0.5358   52.0950   28.2606 C   0  0  0  0  0  0
   -0.1512   51.3564   27.3059 C   0  0  0  0  0  0
    0.4404   51.6420   26.1124 N   0  0  0  0  0  0
    1.4519   52.4967   26.2322 N   0  0  0  0  0  0
    0.1713   51.2506   25.2214 H   0  0  0  0  0  0
    1.5326   52.7804   27.5192 C   0  0  0  0  0  0
    2.8334   53.9346   28.0968 S   0  0  0  0  0  0
    2.1592   54.7769   29.0906 O   0  0  0  0  0  0
    3.8872   53.0387   28.5859 O   0  0  0  0  0  0
    3.2117   54.7534   26.8144 N   0  5  0  0  0  0
    4.2911   54.4938   26.0133 C   0  0  0  0  0  0
    5.5740   54.5283   26.5662 C   0  0  0  0  0  0
    6.7043   54.3899   25.7775 C   0  0  0  0  0  0
    6.5847   54.1539   24.4118 C   0  0  0  0  0  0
    5.3211   54.0966   23.8106 C   0  0  0  0  0  0
    4.1677   54.3110   24.6092 C   0  0  0  0  0  0
    2.7855   54.3576   23.9290 C   0  0  0  0  0  0
    5.2011   53.7573   22.3348 C   0  0  0  0  0  0
    4.5952   52.7293   22.0327 O   0  0  0  0  0  0
    5.7057   54.6073   21.3943 N   0  0  0  0  0  0
    6.4904   55.8234   21.6910 C   0  0  0  0  0  0
    7.9200   55.6212   21.1349 C   0  0  0  0  0  0
    7.8136   55.2960   19.6568 C   0  0  0  0  0  0
    6.6985   54.6630   19.1086 C   0  0  0  0  0  0
    6.8545   54.4178   17.7381 C   0  0  0  0  0  0
    8.0820   54.8393   17.2497 C   0  0  0  0  0  0
    9.0672   55.5514   18.4827 S   0  0  0  0  0  0
    5.4785   54.3180   19.9533 C   0  0  0  0  0  0
    0.3175   53.7961   33.4730 H   0  0  0  0  0  0
   -0.7390   53.6943   32.0841 H   0  0  0  0  0  0
    0.7047   54.6702   31.9874 H   0  0  0  0  0  0
    2.0855   52.4981   32.3147 H   0  0  0  0  0  0
    0.6063   51.5945   32.2452 H   0  0  0  0  0  0
   -0.9793   50.6628   27.3760 H   0  0  0  0  0  0
    5.7011   54.7034   27.6260 H   0  0  0  0  0  0
    7.6669   54.4620   26.2499 H   0  0  0  0  0  0
    7.4825   54.0062   23.8290 H   0  0  0  0  0  0
    2.8388   54.8908   22.9815 H   0  0  0  0  0  0
    2.4263   53.3475   23.7256 H   0  0  0  0  0  0
    2.0308   54.8948   24.4961 H   0  0  0  0  0  0
    6.0107   56.6623   21.1841 H   0  0  0  0  0  0
    6.4910   56.0966   22.7460 H   0  0  0  0  0  0
    8.5405   56.4967   21.3063 H   0  0  0  0  0  0
    8.4216   54.8282   21.6807 H   0  0  0  0  0  0
    6.1036   53.9361   17.1302 H   0  0  0  0  0  0
    8.4524   54.7555   16.2372 H   0  0  0  0  0  0
    5.1826   53.2839   19.7709 H   0  0  0  0  0  0
    4.6056   54.8775   19.6136 H   0  0  0  0  0  0
  1  2  1  0  0  0
  1 34  1  0  0  0
  1 35  1  0  0  0
  1 36  1  0  0  0
  2  3  1  0  0  0
  2 37  1  0  0  0
  2 38  1  0  0  0
  3  4  1  0  0  0
  4  5  2  0  0  0
  4  6  1  0  0  0
  6 11  1  0  0  0
  6  7  2  0  0  0
  7 39  1  0  0  0
  7  8  1  0  0  0
  8 10  1  0  0  0
  8  9  1  0  0  0
  9 11  2  0  0  0
 11 12  1  0  0  0
 12 13  2  0  0  0
 12 14  2  0  0  0
 12 15  1  0  0  0
 15 16  1  0  0  0
 16 21  2  0  0  0
 16 17  1  0  0  0
 17 18  2  0  0  0
 17 40  1  0  0  0
 18 19  1  0  0  0
 18 41  1  0  0  0
 19 20  2  0  0  0
 19 42  1  0  0  0
 20 21  1  0  0  0
 20 23  1  0  0  0
 21 22  1  0  0  0
 22 43  1  0  0  0
 22 44  1  0  0  0
 22 45  1  0  0  0
 23 24  2  0  0  0
 23 25  1  0  0  0
 25 33  1  0  0  0
 25 26  1  0  0  0
 26 27  1  0  0  0
 26 46  1  0  0  0
 26 47  1  0  0  0
 27 28  1  0  0  0
 27 48  1  0  0  0
 27 49  1  0  0  0
 28 32  1  0  0  0
 28 29  2  0  0  0
 29 30  1  0  0  0
 29 33  1  0  0  0
 30 31  2  0  0  0
 30 50  1  0  0  0
 31 32  1  0  0  0
 31 51  1  0  0  0
 33 52  1  0  0  0
 33 53  1  0  0  0
M  CHG  1  15  -1
M  END
> <i_i_glide_confnum>
98

> <i_i_glide_lignum>
3336

> <i_i_glide_posenum>
60

> <i_i_glide_rotatable_bonds>
8

> <i_m_Source_File_Index>
4202

> <b_m_subgroup_collapsed>
0

> <r_i_docking_score>
-5.38682

> <r_i_glide_ecoul>
-3.0006

> <r_i_glide_eff_state_penalty>
0

> <r_i_glide_einternal>
7.22244

> <r_i_glide_emodel>
-64.7411

> <r_i_glide_energy>
-54.1445

> <r_i_glide_erotb>
0.631439

> <r_i_glide_esite>
-0.011767

> <r_i_glide_evdw>
-51.1439

> <r_i_glide_gscore>
-5.38682

> <r_i_glide_hbond>
0

> <r_i_glide_ligand_efficiency>
-0.168338

> <r_i_glide_ligand_efficiency_ln>
-1.20626

> <r_i_glide_ligand_efficiency_sa>
-0.534441

> <r_i_glide_lipo>
-2.74787

> <r_i_glide_metal>
0

> <r_i_glide_rewards>
-0.251343

> <s_i_glide_gridfile>
wee1_glide-grid

> <s_m_Source_File>
wee1_decoys_glide_SP.sdf

> <s_m_Source_Path>
/Users/zhangxujun/Desktop

> <s_m_entry_id>
4477

> <s_m_entry_name>
wee1_decoys_glide_SP.4202

> <s_m_subgroup_title>
wee1_decoys_glide_SP

> <s_m_subgroupid>
wee1_decoys_glide_SP


$$$$
