ZINC16568093_3414
                    3D
 Schrodinger Suite 2024-2.
 62 65  0  0  1  0            999 V2000
   -0.6214   49.6103   26.0821 C   0  0  0  0  0  0
   -0.8278   50.8027   25.1313 C   0  0  1  0  0  0
   -0.8920   50.3729   24.1296 H   0  0  0  0  0  0
   -2.1477   51.5791   25.3096 C   0  0  0  0  0  0
   -3.0218   51.3320   26.3792 C   0  0  0  0  0  0
   -4.2101   52.0494   26.4946 C   0  0  0  0  0  0
   -4.5316   53.0193   25.5471 C   0  0  0  0  0  0
   -3.6737   53.2748   24.4812 C   0  0  0  0  0  0
   -2.4869   52.5544   24.3622 C   0  0  0  0  0  0
    0.3692   51.6497   25.1309 N   0  0  0  0  0  0
    0.7674   52.4960   26.1059 C   0  0  0  0  0  0
    0.1098   52.6870   27.1287 O   0  0  0  0  0  0
    2.0859   53.2153   25.8528 C   0  0  0  0  0  0
    2.4872   53.4360   24.5204 C   0  0  0  0  0  0
    3.7062   54.0322   24.2061 C   0  0  0  0  0  0
    4.5220   54.4969   25.2420 C   0  0  0  0  0  0
    4.1241   54.3399   26.5645 C   0  0  0  0  0  0
    2.9190   53.6992   26.9013 C   0  0  0  0  0  0
    2.5908   53.5552   28.2737 N   0  0  0  0  0  0
    2.9151   54.6516   29.1840 C   0  0  0  0  0  0
    2.8299   52.2184   28.8077 C   0  0  0  0  0  0
    4.0268   54.1497   22.8431 N   0  0  0  0  0  0
    5.2500   54.2748   22.2950 C   0  0  0  0  0  0
    6.3061   54.0735   22.8948 O   0  0  0  0  0  0
    5.1330   54.7311   21.0333 N   0  0  0  0  0  0
    6.1007   55.2915   20.1696 C   0  0  0  0  0  0
    7.4333   55.5188   20.5522 C   0  0  0  0  0  0
    8.3461   56.0963   19.6808 C   0  0  0  0  0  0
    7.9550   56.5052   18.4143 C   0  0  0  0  0  0
    6.6209   56.3249   17.9837 C   0  0  0  0  0  0
    5.6744   55.6996   18.8592 C   0  0  0  0  0  0
    4.3399   55.5255   18.3794 C   0  0  0  0  0  0
    3.9686   55.9718   17.1147 C   0  0  0  0  0  0
    4.8933   56.5874   16.2826 C   0  0  0  0  0  0
    6.2089   56.7628   16.6996 C   0  0  0  0  0  0
   -1.4631   48.9161   26.0634 H   0  0  0  0  0  0
    0.2722   49.0400   25.8249 H   0  0  0  0  0  0
   -0.4945   49.9577   27.1081 H   0  0  0  0  0  0
   -2.7919   50.5907   27.1318 H   0  0  0  0  0  0
   -4.8812   51.8531   27.3189 H   0  0  0  0  0  0
   -5.4534   53.5749   25.6371 H   0  0  0  0  0  0
   -3.9241   54.0299   23.7493 H   0  0  0  0  0  0
   -1.8232   52.7568   23.5335 H   0  0  0  0  0  0
    1.0223   51.4703   24.3851 H   0  0  0  0  0  0
    1.8594   53.1201   23.6977 H   0  0  0  0  0  0
    5.4644   54.9841   25.0385 H   0  0  0  0  0  0
    4.7855   54.7075   27.3348 H   0  0  0  0  0  0
    2.6826   55.6180   28.7291 H   0  0  0  0  0  0
    2.3121   54.5732   30.0885 H   0  0  0  0  0  0
    3.9704   54.6489   29.4618 H   0  0  0  0  0  0
    2.4186   51.4447   28.1569 H   0  0  0  0  0  0
    3.8987   52.0317   28.9073 H   0  0  0  0  0  0
    2.3577   52.1044   29.7845 H   0  0  0  0  0  0
    3.2407   54.1216   22.2128 H   0  0  0  0  0  0
    4.1955   54.7745   20.6681 H   0  0  0  0  0  0
    7.8000   55.2502   21.5307 H   0  0  0  0  0  0
    9.3695   56.2426   19.9993 H   0  0  0  0  0  0
    8.6718   56.9704   17.7530 H   0  0  0  0  0  0
    3.5912   55.0508   18.9959 H   0  0  0  0  0  0
    2.9502   55.8387   16.7768 H   0  0  0  0  0  0
    4.5900   56.9338   15.3050 H   0  0  0  0  0  0
    6.9222   57.2451   16.0455 H   0  0  0  0  0  0
  1  2  1  0  0  0
  1 36  1  0  0  0
  1 37  1  0  0  0
  1 38  1  0  0  0
  2  3  1  0  0  0
  2  4  1  0  0  0
  2 10  1  0  0  0
  4  9  2  0  0  0
  4  5  1  0  0  0
  5  6  2  0  0  0
  5 39  1  0  0  0
  6  7  1  0  0  0
  6 40  1  0  0  0
  7  8  2  0  0  0
  7 41  1  0  0  0
  8  9  1  0  0  0
  8 42  1  0  0  0
  9 43  1  0  0  0
 10 11  1  0  0  0
 10 44  1  0  0  0
 11 12  2  0  0  0
 11 13  1  0  0  0
 13 18  2  0  0  0
 13 14  1  0  0  0
 14 15  2  0  0  0
 14 45  1  0  0  0
 15 16  1  0  0  0
 15 22  1  0  0  0
 16 17  2  0  0  0
 16 46  1  0  0  0
 17 18  1  0  0  0
 17 47  1  0  0  0
 18 19  1  0  0  0
 19 20  1  0  0  0
 19 21  1  0  0  0
 20 48  1  0  0  0
 20 49  1  0  0  0
 20 50  1  0  0  0
 21 51  1  0  0  0
 21 52  1  0  0  0
 21 53  1  0  0  0
 22 23  1  0  0  0
 22 54  1  0  0  0
 23 24  2  0  0  0
 23 25  1  0  0  0
 25 26  1  0  0  0
 25 55  1  0  0  0
 26 31  2  0  0  0
 26 27  1  0  0  0
 27 28  2  0  0  0
 27 56  1  0  0  0
 28 29  1  0  0  0
 28 57  1  0  0  0
 29 30  2  0  0  0
 29 58  1  0  0  0
 30 35  1  0  0  0
 30 31  1  0  0  0
 31 32  1  0  0  0
 32 33  2  0  0  0
 32 59  1  0  0  0
 33 34  1  0  0  0
 33 60  1  0  0  0
 34 35  2  0  0  0
 34 61  1  0  0  0
 35 62  1  0  0  0
M  END
> <i_i_glide_confnum>
17

> <i_i_glide_lignum>
3415

> <i_i_glide_posenum>
286

> <i_i_glide_rotatable_bonds>
9

> <i_m_Source_File_Index>
2293

> <b_m_subgroup_collapsed>
0

> <r_i_docking_score>
-5.69408

> <r_i_glide_ecoul>
-3.49976

> <r_i_glide_eff_state_penalty>
0

> <r_i_glide_einternal>
6.15803

> <r_i_glide_emodel>
-64.7807

> <r_i_glide_energy>
-47.1074

> <r_i_glide_erotb>
0.587873

> <r_i_glide_esite>
0

> <r_i_glide_evdw>
-43.6076

> <r_i_glide_gscore>
-5.69408

> <r_i_glide_hbond>
0

> <r_i_glide_ligand_efficiency>
-0.167473

> <r_i_glide_ligand_efficiency_ln>
-1.25798

> <r_i_glide_ligand_efficiency_sa>
-0.542547

> <r_i_glide_lipo>
-2.6931

> <r_i_glide_metal>
0

> <r_i_glide_rewards>
-0.883502

> <s_i_glide_gridfile>
wee1_glide-grid

> <s_m_Source_File>
wee1_decoys_glide_SP.sdf

> <s_m_Source_Path>
/Users/zhangxujun/Desktop

> <s_m_entry_id>
2568

> <s_m_entry_name>
wee1_decoys_glide_SP.2293

> <s_m_subgroup_title>
wee1_decoys_glide_SP

> <s_m_subgroupid>
wee1_decoys_glide_SP


$$$$
