ZINC38693695_87
                    3D
 Schrodinger Suite 2024-2.
 57 60  0  0  1  0            999 V2000
    9.9411   57.9178   18.4448 C   0  0  0  0  0  0
    8.5254   58.0594   18.4767 O   0  0  0  0  0  0
    7.7406   56.9246   18.5278 C   0  0  0  0  0  0
    6.3689   57.1261   18.6621 C   0  0  0  0  0  0
    5.5033   56.0421   18.7703 C   0  0  0  0  0  0
    6.0045   54.7380   18.7394 C   0  0  0  0  0  0
    7.3715   54.5305   18.5502 C   0  0  0  0  0  0
    8.2396   55.6135   18.4604 C   0  0  0  0  0  0
    5.0805   53.5372   18.9439 C   0  0  0  0  0  0
    4.0707   53.6958   19.9981 N   0  0  0  0  0  0
    4.3056   53.7184   21.3203 C   0  0  0  0  0  0
    5.4293   53.7747   21.8191 O   0  0  0  0  0  0
    3.1546   53.6208   22.0134 N   0  0  0  0  0  0
    2.9823   53.6289   23.4069 C   0  0  0  0  0  0
    3.8094   54.3345   24.2853 C   0  0  0  0  0  0
    3.5511   54.3139   25.6525 C   0  0  0  0  0  0
    2.4695   53.5991   26.1819 C   0  0  0  0  0  0
    1.6197   52.8970   25.2932 C   0  0  0  0  0  0
    1.9019   52.9109   23.9202 C   0  0  0  0  0  0
    0.5451   52.0972   25.7715 N   0  0  0  0  0  0
    0.6015   51.7178   27.1912 C   0  0  0  0  0  0
    0.9034   52.9462   28.0623 C   0  0  0  0  0  0
    2.2637   53.5511   27.6903 C   0  0  0  0  0  0
   -1.0787   52.1322   25.0064 S   0  0  0  0  0  0
   -2.0469   52.4962   26.0487 O   0  0  0  0  0  0
   -1.0139   52.8890   23.7482 O   0  0  0  0  0  0
   -1.3590   50.4140   24.5902 C   0  0  0  0  0  0
   -1.0405   49.9388   23.3149 C   0  0  0  0  0  0
   -1.1980   48.5852   23.0259 C   0  0  0  0  0  0
   -1.6608   47.7157   24.0110 C   0  0  0  0  0  0
   -1.9728   48.1875   25.2819 C   0  0  0  0  0  0
   -1.8273   49.5393   25.5747 C   0  0  0  0  0  0
   -1.8049   46.4004   23.7340 F   0  0  0  0  0  0
   10.4028   58.9048   18.4493 H   0  0  0  0  0  0
   10.2715   57.4007   17.5428 H   0  0  0  0  0  0
   10.3048   57.3786   19.3205 H   0  0  0  0  0  0
    5.9780   58.1328   18.6927 H   0  0  0  0  0  0
    4.4445   56.2183   18.8817 H   0  0  0  0  0  0
    7.7687   53.5301   18.4826 H   0  0  0  0  0  0
    9.2949   55.4175   18.3475 H   0  0  0  0  0  0
    4.5625   53.3541   18.0030 H   0  0  0  0  0  0
    5.6649   52.6364   19.1452 H   0  0  0  0  0  0
    3.1384   53.9253   19.6838 H   0  0  0  0  0  0
    2.3173   53.4661   21.4738 H   0  0  0  0  0  0
    4.6559   54.8981   23.9208 H   0  0  0  0  0  0
    4.2143   54.8497   26.3185 H   0  0  0  0  0  0
    1.2889   52.3403   23.2378 H   0  0  0  0  0  0
   -0.3034   51.2080   27.5217 H   0  0  0  0  0  0
    1.4082   50.9869   27.2796 H   0  0  0  0  0  0
    0.1132   53.6874   27.9345 H   0  0  0  0  0  0
    0.8876   52.6764   29.1187 H   0  0  0  0  0  0
    3.0561   52.9299   28.1141 H   0  0  0  0  0  0
    2.3750   54.5441   28.1327 H   0  0  0  0  0  0
   -0.6618   50.6089   22.5561 H   0  0  0  0  0  0
   -0.9521   48.2070   22.0450 H   0  0  0  0  0  0
   -2.3095   47.5091   26.0546 H   0  0  0  0  0  0
   -2.0579   49.8877   26.5732 H   0  0  0  0  0  0
  1  2  1  0  0  0
  1 34  1  0  0  0
  1 35  1  0  0  0
  1 36  1  0  0  0
  2  3  1  0  0  0
  3  8  2  0  0  0
  3  4  1  0  0  0
  4  5  2  0  0  0
  4 37  1  0  0  0
  5  6  1  0  0  0
  5 38  1  0  0  0
  6  7  2  0  0  0
  6  9  1  0  0  0
  7  8  1  0  0  0
  7 39  1  0  0  0
  8 40  1  0  0  0
  9 10  1  0  0  0
  9 41  1  0  0  0
  9 42  1  0  0  0
 10 11  1  0  0  0
 10 43  1  0  0  0
 11 12  2  0  0  0
 11 13  1  0  0  0
 13 14  1  0  0  0
 13 44  1  0  0  0
 14 19  2  0  0  0
 14 15  1  0  0  0
 15 16  2  0  0  0
 15 45  1  0  0  0
 16 17  1  0  0  0
 16 46  1  0  0  0
 17 23  1  0  0  0
 17 18  2  0  0  0
 18 19  1  0  0  0
 18 20  1  0  0  0
 19 47  1  0  0  0
 20 21  1  0  0  0
 20 24  1  0  0  0
 21 22  1  0  0  0
 21 48  1  0  0  0
 21 49  1  0  0  0
 22 23  1  0  0  0
 22 50  1  0  0  0
 22 51  1  0  0  0
 23 52  1  0  0  0
 23 53  1  0  0  0
 24 25  2  0  0  0
 24 26  2  0  0  0
 24 27  1  0  0  0
 27 32  2  0  0  0
 27 28  1  0  0  0
 28 29  2  0  0  0
 28 54  1  0  0  0
 29 30  1  0  0  0
 29 55  1  0  0  0
 30 31  2  0  0  0
 30 33  1  0  0  0
 31 32  1  0  0  0
 31 56  1  0  0  0
 32 57  1  0  0  0
M  END
> <i_i_glide_confnum>
511

> <i_i_glide_lignum>
88

> <i_i_glide_posenum>
56

> <i_i_glide_rotatable_bonds>
8

> <i_m_Source_File_Index>
5691

> <b_m_subgroup_collapsed>
0

> <r_i_docking_score>
-4.65824

> <r_i_glide_ecoul>
-7.2825

> <r_i_glide_eff_state_penalty>
0

> <r_i_glide_einternal>
1.4206

> <r_i_glide_emodel>
-58.9778

> <r_i_glide_energy>
-45.7281

> <r_i_glide_erotb>
0.641335

> <r_i_glide_esite>
-0.0587499

> <r_i_glide_evdw>
-38.4456

> <r_i_glide_gscore>
-4.65824

> <r_i_glide_hbond>
-0.153443

> <r_i_glide_ligand_efficiency>
-0.141159

> <r_i_glide_ligand_efficiency_ln>
-1.03597

> <r_i_glide_ligand_efficiency_sa>
-0.452771

> <r_i_glide_lipo>
-1.83136

> <r_i_glide_metal>
0

> <r_i_glide_rewards>
-0.241359

> <s_i_glide_gridfile>
wee1_glide-grid

> <s_m_Source_File>
wee1_decoys_glide_SP.sdf

> <s_m_Source_Path>
/Users/zhangxujun/Desktop

> <s_m_entry_id>
5966

> <s_m_entry_name>
wee1_decoys_glide_SP.5691

> <s_m_subgroup_title>
wee1_decoys_glide_SP

> <s_m_subgroupid>
wee1_decoys_glide_SP


$$$$
