ZINC44792805_1694
                    3D
 Schrodinger Suite 2024-2.
 46 48  0  0  1  0            999 V2000
    3.5300   54.1181   27.8773 C   0  0  0  0  0  0
    2.6639   54.8152   28.9425 C   0  0  0  0  0  0
    1.6231   53.8476   29.5371 C   0  0  0  0  0  0
    0.7362   53.2457   28.4295 C   0  0  1  0  0  0
    0.1672   54.0581   27.9747 H   0  0  0  0  0  0
    1.5843   52.5123   27.3404 C   0  0  2  0  0  0
    2.1365   51.7075   27.8276 H   0  0  0  0  0  0
    2.6735   53.4671   26.7716 C   0  0  0  0  0  0
    0.6207   51.8357   26.4102 N   0  0  0  0  0  0
   -0.2642   50.9032   27.1388 C   0  0  0  0  0  0
   -1.0577   51.6966   28.1898 C   0  0  0  0  0  0
   -0.1647   52.3539   29.0812 O   0  0  0  0  0  0
    0.4929   52.0574   25.0604 C   0  0  0  0  0  0
    1.2301   52.8517   24.4750 O   0  0  0  0  0  0
   -0.5803   51.2812   24.1822 C   0  0  0  0  0  0
   -1.9922   51.7757   24.6775 C   0  0  0  0  0  0
   -2.8962   51.9963   23.4496 C   0  0  0  0  0  0
   -2.0442   51.6658   22.2258 C   0  0  0  0  0  0
   -0.6085   51.8352   22.7171 C   0  0  0  0  0  0
   -0.2359   49.7282   24.1363 C   0  0  0  0  0  0
   -1.0498   48.7442   24.2044 N   0  0  0  0  0  0
   -2.4238   49.0270   24.1696 O   0  0  0  0  0  0
    1.1045   49.4823   23.9549 N   0  0  0  0  0  0
    4.2243   54.8344   27.4355 H   0  0  0  0  0  0
    4.1468   53.3528   28.3516 H   0  0  0  0  0  0
    2.1565   55.6740   28.4999 H   0  0  0  0  0  0
    3.3022   55.2160   29.7285 H   0  0  0  0  0  0
    1.0079   54.3833   30.2611 H   0  0  0  0  0  0
    2.1525   53.0480   30.0581 H   0  0  0  0  0  0
    3.3229   52.9286   26.0804 H   0  0  0  0  0  0
    2.2048   54.2748   26.2115 H   0  0  0  0  0  0
   -0.8308   50.1544   26.5926 H   0  0  0  0  0  0
    0.4338   50.2703   27.6815 H   0  0  0  0  0  0
   -1.6954   52.4207   27.6808 H   0  0  0  0  0  0
   -1.7288   51.0338   28.7384 H   0  0  0  0  0  0
   -1.9292   52.7447   25.1820 H   0  0  0  0  0  0
   -2.4561   51.1327   25.4264 H   0  0  0  0  0  0
   -3.2286   53.0359   23.4067 H   0  0  0  0  0  0
   -3.7973   51.3829   23.4868 H   0  0  0  0  0  0
   -2.2686   52.3136   21.3780 H   0  0  0  0  0  0
   -2.2145   50.6380   21.9033 H   0  0  0  0  0  0
    0.1055   51.3493   22.0494 H   0  0  0  0  0  0
   -0.3759   52.8967   22.6716 H   0  0  0  0  0  0
   -2.4403   49.9836   24.0699 H   0  0  0  0  0  0
    1.4567   48.5327   23.9926 H   0  0  0  0  0  0
    1.7677   50.2429   23.9107 H   0  0  0  0  0  0
  1  8  1  0  0  0
  1  2  1  0  0  0
  1 24  1  0  0  0
  1 25  1  0  0  0
  2  3  1  0  0  0
  2 26  1  0  0  0
  2 27  1  0  0  0
  3  4  1  0  0  0
  3 28  1  0  0  0
  3 29  1  0  0  0
  4  5  1  0  0  0
  4 12  1  0  0  0
  4  6  1  0  0  0
  6  7  1  0  0  0
  6  8  1  0  0  0
  6  9  1  0  0  0
  8 30  1  0  0  0
  8 31  1  0  0  0
  9 10  1  0  0  0
  9 13  1  0  0  0
 10 11  1  0  0  0
 10 32  1  0  0  0
 10 33  1  0  0  0
 11 12  1  0  0  0
 11 34  1  0  0  0
 11 35  1  0  0  0
 13 14  2  0  0  0
 13 15  1  0  0  0
 15 19  1  0  0  0
 15 16  1  0  0  0
 15 20  1  0  0  0
 16 17  1  0  0  0
 16 36  1  0  0  0
 16 37  1  0  0  0
 17 18  1  0  0  0
 17 38  1  0  0  0
 17 39  1  0  0  0
 18 19  1  0  0  0
 18 40  1  0  0  0
 18 41  1  0  0  0
 19 42  1  0  0  0
 19 43  1  0  0  0
 20 21  2  0  0  0
 20 23  1  0  0  0
 21 22  1  0  0  0
 22 44  1  0  0  0
 23 45  1  0  0  0
 23 46  1  0  0  0
M  END
> <i_i_glide_confnum>
41

> <i_i_glide_lignum>
1695

> <i_i_glide_posenum>
353

> <i_i_glide_rotatable_bonds>
4

> <i_m_Source_File_Index>
1946

> <b_m_subgroup_collapsed>
0

> <r_i_docking_score>
-3.89614

> <r_i_glide_ecoul>
-1.3103

> <r_i_glide_eff_state_penalty>
0

> <r_i_glide_einternal>
0.0732071

> <r_i_glide_emodel>
-36.4804

> <r_i_glide_energy>
-29.418

> <r_i_glide_erotb>
0.839145

> <r_i_glide_esite>
-0.0617173

> <r_i_glide_evdw>
-28.1077

> <r_i_glide_gscore>
-3.89614

> <r_i_glide_hbond>
-0.288953

> <r_i_glide_ligand_efficiency>
-0.18553

> <r_i_glide_ligand_efficiency_ln>
-0.963312

> <r_i_glide_ligand_efficiency_sa>
-0.511864

> <r_i_glide_lipo>
-1.19515

> <r_i_glide_metal>
0

> <r_i_glide_rewards>
-1.58753

> <s_i_glide_gridfile>
wee1_glide-grid

> <s_m_Source_File>
wee1_decoys_glide_SP.sdf

> <s_m_Source_Path>
/Users/zhangxujun/Desktop

> <s_m_entry_id>
2221

> <s_m_entry_name>
wee1_decoys_glide_SP.1946

> <s_m_subgroup_title>
wee1_decoys_glide_SP

> <s_m_subgroupid>
wee1_decoys_glide_SP


$$$$
