ZINC20435660_947
                    3D
 Schrodinger Suite 2024-2.
 39 40  0  0  1  0            999 V2000
   -0.4739   47.5998   19.8925 C   0  0  0  0  0  0
    0.5656   47.3734   18.9730 C   0  0  0  0  0  0
    0.7221   46.0788   18.4620 C   0  0  0  0  0  0
   -0.1032   45.0333   18.8796 C   0  0  0  0  0  0
   -1.1258   45.2766   19.7986 C   0  0  0  0  0  0
   -1.3117   46.5615   20.3011 C   0  0  0  0  0  0
   -1.9249   44.2695   20.2213 F   0  0  0  0  0  0
    0.1882   43.2755   18.2040 Br  0  0  0  0  0  0
    1.4866   48.4410   18.5503 C   0  0  0  0  0  0
    1.3601   49.6446   18.9416 N   0  0  0  0  0  0
    2.3044   50.4947   18.4812 N   0  0  0  0  0  0
    2.2819   51.8018   18.8218 C   0  0  0  0  0  0
    1.4027   52.3125   19.5303 O   0  0  0  0  0  0
    3.4335   52.6941   18.3212 C   0  0  0  0  0  0
    4.4179   53.2061   19.3936 C   0  0  0  0  0  0
    5.6159   53.2966   19.1176 O   0  0  0  0  0  0
    3.9052   53.5587   20.5921 N   0  0  0  0  0  0
    4.6645   53.7904   21.6802 N   0  0  0  0  0  0
    3.9643   53.9661   22.7282 C   0  0  0  0  0  0
    4.5399   54.1497   24.0632 C   0  0  0  0  0  0
    3.6879   54.2008   25.1745 C   0  0  0  0  0  0
    4.1996   54.3510   26.4642 C   0  0  0  0  0  0
    5.5770   54.4497   26.6604 C   0  0  0  0  0  0
    6.4368   54.4233   25.5646 C   0  0  0  0  0  0
    5.9231   54.2780   24.2761 C   0  0  0  0  0  0
    6.0858   54.5689   27.9066 F   0  0  0  0  0  0
    3.0064   54.4184   27.9496 Br  0  0  0  0  0  0
   -0.6341   48.5867   20.3086 H   0  0  0  0  0  0
    1.5023   45.8680   17.7446 H   0  0  0  0  0  0
   -2.1002   46.7569   21.0115 H   0  0  0  0  0  0
    2.2875   48.1244   17.8816 H   0  0  0  0  0  0
    3.0376   50.0922   17.9023 H   0  0  0  0  0  0
    4.0076   52.1486   17.5735 H   0  0  0  0  0  0
    3.0055   53.5540   17.8074 H   0  0  0  0  0  0
    2.9052   53.5366   20.7457 H   0  0  0  0  0  0
    2.8743   53.9791   22.7107 H   0  0  0  0  0  0
    2.6176   54.1097   25.0529 H   0  0  0  0  0  0
    7.5034   54.4973   25.7141 H   0  0  0  0  0  0
    6.6127   54.2472   23.4444 H   0  0  0  0  0  0
  1  6  2  0  0  0
  1  2  1  0  0  0
  1 28  1  0  0  0
  2  3  2  0  0  0
  2  9  1  0  0  0
  3  4  1  0  0  0
  3 29  1  0  0  0
  4  5  2  0  0  0
  4  8  1  0  0  0
  5  6  1  0  0  0
  5  7  1  0  0  0
  6 30  1  0  0  0
  9 10  2  0  0  0
  9 31  1  0  0  0
 10 11  1  0  0  0
 11 12  1  0  0  0
 11 32  1  0  0  0
 12 13  2  0  0  0
 12 14  1  0  0  0
 14 15  1  0  0  0
 14 33  1  0  0  0
 14 34  1  0  0  0
 15 16  2  0  0  0
 15 17  1  0  0  0
 17 18  1  0  0  0
 17 35  1  0  0  0
 18 19  2  0  0  0
 19 20  1  0  0  0
 19 36  1  0  0  0
 20 25  2  0  0  0
 20 21  1  0  0  0
 21 22  2  0  0  0
 21 37  1  0  0  0
 22 23  1  0  0  0
 22 27  1  0  0  0
 23 24  2  0  0  0
 23 26  1  0  0  0
 24 25  1  0  0  0
 24 38  1  0  0  0
 25 39  1  0  0  0
M  END
> <i_i_glide_confnum>
99

> <i_i_glide_lignum>
948

> <i_i_glide_posenum>
338

> <i_i_glide_rotatable_bonds>
8

> <i_m_Source_File_Index>
4017

> <b_m_subgroup_collapsed>
0

> <r_i_docking_score>
-4.79742

> <r_i_glide_ecoul>
-4.23718

> <r_i_glide_eff_state_penalty>
0

> <r_i_glide_einternal>
2.78934

> <r_i_glide_emodel>
-50.093

> <r_i_glide_energy>
-37.1738

> <r_i_glide_erotb>
0.486235

> <r_i_glide_esite>
-0.276586

> <r_i_glide_evdw>
-32.9366

> <r_i_glide_gscore>
-4.79742

> <r_i_glide_hbond>
-0.208392

> <r_i_glide_ligand_efficiency>
-0.177682

> <r_i_glide_ligand_efficiency_ln>
-1.11676

> <r_i_glide_ligand_efficiency_sa>
-0.533047

> <r_i_glide_lipo>
-1.90026

> <r_i_glide_metal>
0

> <r_i_glide_rewards>
-0.616016

> <s_i_glide_gridfile>
wee1_glide-grid

> <s_m_Source_File>
wee1_decoys_glide_SP.sdf

> <s_m_Source_Path>
/Users/zhangxujun/Desktop

> <s_m_entry_id>
4292

> <s_m_entry_name>
wee1_decoys_glide_SP.4017

> <s_m_subgroup_title>
wee1_decoys_glide_SP

> <s_m_subgroupid>
wee1_decoys_glide_SP


$$$$
