ZINC20418300_4534
                    3D
 Schrodinger Suite 2024-2.
 51 54  0  0  1  0            999 V2000
   -5.9578   53.3554   26.6070 C   0  0  0  0  0  0
   -4.7272   52.6373   26.0829 C   0  0  0  0  0  0
   -4.1725   53.0304   24.8643 C   0  0  0  0  0  0
   -3.0579   52.3650   24.3632 C   0  0  0  0  0  0
   -2.5004   51.3051   25.0827 C   0  0  0  0  0  0
   -3.0505   50.9099   26.3036 C   0  0  0  0  0  0
   -4.1674   51.5767   26.7998 C   0  0  0  0  0  0
   -1.0539   50.4835   24.4239 S   0  0  0  0  0  0
   -1.2664   50.3234   22.9793 O   0  0  0  0  0  0
   -0.7341   49.3360   25.2798 O   0  0  0  0  0  0
    0.2534   51.7203   24.6703 C   0  0  0  0  0  0
    0.7468   52.0954   25.9313 C   0  0  0  0  0  0
    1.7088   53.1129   25.8953 C   0  0  0  0  0  0
    1.8764   53.6958   24.2659 S   0  0  0  0  0  0
    0.8805   52.4166   23.6423 C   0  0  0  0  0  0
    0.7115   52.2089   22.2935 N   0  0  0  0  0  0
    1.6285   52.3066   21.2278 C   0  0  0  0  0  0
    2.9959   52.5766   21.4019 C   0  0  0  0  0  0
    3.8504   52.6743   20.3030 C   0  0  0  0  0  0
    3.3518   52.4944   19.0158 C   0  0  0  0  0  0
    2.0033   52.1917   18.8292 C   0  0  0  0  0  0
    1.1457   52.0968   19.9273 C   0  0  0  0  0  0
   -0.1628   51.8118   19.7166 F   0  0  0  0  0  0
    2.4227   53.7434   27.0145 C   0  0  0  0  0  0
    1.7740   53.9806   28.0368 O   0  0  0  0  0  0
    3.9232   53.9357   27.0104 C   0  0  0  0  0  0
    4.5782   53.9567   28.2532 C   0  0  0  0  0  0
    5.9582   54.0967   28.3295 C   0  0  0  0  0  0
    6.7039   54.2451   27.1704 C   0  0  0  0  0  0
    6.0834   54.2548   25.9289 C   0  0  0  0  0  0
    4.7028   54.0967   25.8497 C   0  0  0  0  0  0
    0.3358   51.4976   27.0904 N   0  0  0  0  0  0
   -6.6835   53.4935   25.8024 H   0  0  0  0  0  0
   -6.4580   52.7873   27.3922 H   0  0  0  0  0  0
   -5.6927   54.3423   26.9894 H   0  0  0  0  0  0
   -4.6042   53.8483   24.3033 H   0  0  0  0  0  0
   -2.6279   52.6713   23.4190 H   0  0  0  0  0  0
   -2.6182   50.0950   26.8696 H   0  0  0  0  0  0
   -4.5935   51.2651   27.7416 H   0  0  0  0  0  0
   -0.1399   51.7469   21.9952 H   0  0  0  0  0  0
    3.4287   52.6877   22.3798 H   0  0  0  0  0  0
    4.9024   52.8743   20.4461 H   0  0  0  0  0  0
    4.0173   52.5515   18.1645 H   0  0  0  0  0  0
    1.6240   52.0285   17.8313 H   0  0  0  0  0  0
    4.0275   53.8417   29.1762 H   0  0  0  0  0  0
    6.4624   54.0997   29.2816 H   0  0  0  0  0  0
    7.7757   54.3503   27.2438 H   0  0  0  0  0  0
    6.6678   54.3725   25.0284 H   0  0  0  0  0  0
    4.2920   54.1116   24.8581 H   0  0  0  0  0  0
   -0.2226   50.6520   27.0856 H   0  0  0  0  0  0
    0.6584   51.8253   27.9900 H   0  0  0  0  0  0
  1  2  1  0  0  0
  1 33  1  0  0  0
  1 34  1  0  0  0
  1 35  1  0  0  0
  2  7  2  0  0  0
  2  3  1  0  0  0
  3  4  2  0  0  0
  3 36  1  0  0  0
  4  5  1  0  0  0
  4 37  1  0  0  0
  5  6  2  0  0  0
  5  8  1  0  0  0
  6  7  1  0  0  0
  6 38  1  0  0  0
  7 39  1  0  0  0
  8  9  2  0  0  0
  8 10  2  0  0  0
  8 11  1  0  0  0
 11 15  2  0  0  0
 11 12  1  0  0  0
 12 13  2  0  0  0
 12 32  1  0  0  0
 13 14  1  0  0  0
 13 24  1  0  0  0
 14 15  1  0  0  0
 15 16  1  0  0  0
 16 17  1  0  0  0
 16 40  1  0  0  0
 17 22  2  0  0  0
 17 18  1  0  0  0
 18 19  2  0  0  0
 18 41  1  0  0  0
 19 20  1  0  0  0
 19 42  1  0  0  0
 20 21  2  0  0  0
 20 43  1  0  0  0
 21 22  1  0  0  0
 21 44  1  0  0  0
 22 23  1  0  0  0
 24 25  2  0  0  0
 24 26  1  0  0  0
 26 31  2  0  0  0
 26 27  1  0  0  0
 27 28  2  0  0  0
 27 45  1  0  0  0
 28 29  1  0  0  0
 28 46  1  0  0  0
 29 30  2  0  0  0
 29 47  1  0  0  0
 30 31  1  0  0  0
 30 48  1  0  0  0
 31 49  1  0  0  0
 32 50  1  0  0  0
 32 51  1  0  0  0
M  END
> <i_i_glide_confnum>
116

> <i_i_glide_lignum>
4535

> <i_i_glide_posenum>
225

> <i_i_glide_rotatable_bonds>
6

> <i_m_Source_File_Index>
2099

> <b_m_subgroup_collapsed>
0

> <r_i_docking_score>
-4.74595

> <r_i_glide_ecoul>
1.26962

> <r_i_glide_eff_state_penalty>
0

> <r_i_glide_einternal>
8.3481

> <r_i_glide_emodel>
-51.5281

> <r_i_glide_energy>
-42.7636

> <r_i_glide_erotb>
0.556137

> <r_i_glide_esite>
-0.101891

> <r_i_glide_evdw>
-44.0332

> <r_i_glide_gscore>
-4.74595

> <r_i_glide_hbond>
0

> <r_i_glide_ligand_efficiency>
-0.148311

> <r_i_glide_ligand_efficiency_ln>
-1.06275

> <r_i_glide_ligand_efficiency_sa>
-0.470858

> <r_i_glide_lipo>
-2.58771

> <r_i_glide_metal>
0

> <r_i_glide_rewards>
-0.601269

> <s_i_glide_gridfile>
wee1_glide-grid

> <s_m_Source_File>
wee1_decoys_glide_SP.sdf

> <s_m_Source_Path>
/Users/zhangxujun/Desktop

> <s_m_entry_id>
2374

> <s_m_entry_name>
wee1_decoys_glide_SP.2099

> <s_m_subgroup_title>
wee1_decoys_glide_SP

> <s_m_subgroupid>
wee1_decoys_glide_SP


$$$$
