ZINC59582784_1967
                    3D
 Schrodinger Suite 2024-2.
 45 47  0  0  1  0            999 V2000
    6.3000   55.6965   24.7529 C   0  0  0  0  0  0
    5.5741   54.3540   24.9929 C   0  0  1  0  0  0
    6.3245   53.5613   25.0236 H   0  0  0  0  0  0
    4.8572   54.3727   26.3565 C   0  0  0  0  0  0
    3.4506   54.3865   26.4370 C   0  0  0  0  0  0
    2.8045   54.3821   27.6672 C   0  0  0  0  0  0
    3.5489   54.4489   28.8440 C   0  0  0  0  0  0
    4.9371   54.4470   28.7846 C   0  0  0  0  0  0
    5.5896   54.3620   27.5571 C   0  0  0  0  0  0
    7.4832   54.1880   27.5860 Br  0  0  0  0  0  0
    2.9480   54.4219   30.0817 O   0  0  0  0  0  0
    1.5354   54.6819   30.0764 C   0  0  0  0  0  0
    0.8569   53.9303   28.9126 C   0  0  0  0  0  0
    1.4261   54.3716   27.6791 O   0  0  0  0  0  0
    4.6427   53.9827   23.9222 N   0  0  0  0  0  0
    4.8415   53.8119   22.6081 C   0  0  0  0  0  0
    5.8970   54.0976   22.0470 O   0  0  0  0  0  0
    3.6771   53.1769   21.8727 C   0  0  0  0  0  0
    2.3883   53.1344   22.4304 C   0  0  0  0  0  0
    1.3446   52.4963   21.7669 C   0  0  0  0  0  0
    1.5342   51.8939   20.5149 C   0  0  0  0  0  0
    2.8164   51.9611   19.9588 C   0  0  0  0  0  0
    3.8733   52.5878   20.6186 C   0  0  0  0  0  0
    0.5680   51.2291   19.7962 N   0  5  0  0  0  0
   -0.8990   50.9489   20.2711 S   0  0  0  0  0  0
   -1.6782   50.2408   19.2524 O   0  0  0  0  0  0
   -1.5639   52.0967   20.8970 O   0  0  0  0  0  0
   -0.6772   49.6879   21.6465 C   0  0  0  0  0  0
    7.1070   55.8611   25.4598 H   0  0  0  0  0  0
    6.7435   55.7653   23.7601 H   0  0  0  0  0  0
    5.6130   56.5311   24.8817 H   0  0  0  0  0  0
    2.8285   54.3993   25.5559 H   0  0  0  0  0  0
    5.5236   54.4926   29.6817 H   0  0  0  0  0  0
    1.1030   54.3783   31.0298 H   0  0  0  0  0  0
    1.3669   55.7543   29.9604 H   0  0  0  0  0  0
    1.0234   52.8577   29.0287 H   0  0  0  0  0  0
   -0.2200   54.0967   28.9061 H   0  0  0  0  0  0
    3.8094   53.5293   24.2585 H   0  0  0  0  0  0
    2.1678   53.5879   23.3849 H   0  0  0  0  0  0
    0.3814   52.4863   22.2492 H   0  0  0  0  0  0
    3.0081   51.5043   18.9968 H   0  0  0  0  0  0
    4.8461   52.5953   20.1465 H   0  0  0  0  0  0
   -1.6625   49.3980   22.0056 H   0  0  0  0  0  0
   -0.0982   50.1315   22.4532 H   0  0  0  0  0  0
   -0.1552   48.8248   21.2373 H   0  0  0  0  0  0
  1  2  1  0  0  0
  1 29  1  0  0  0
  1 30  1  0  0  0
  1 31  1  0  0  0
  2  3  1  0  0  0
  2  4  1  0  0  0
  2 15  1  0  0  0
  4  9  2  0  0  0
  4  5  1  0  0  0
  5  6  2  0  0  0
  5 32  1  0  0  0
  6 14  1  0  0  0
  6  7  1  0  0  0
  7  8  2  0  0  0
  7 11  1  0  0  0
  8  9  1  0  0  0
  8 33  1  0  0  0
  9 10  1  0  0  0
 11 12  1  0  0  0
 12 13  1  0  0  0
 12 34  1  0  0  0
 12 35  1  0  0  0
 13 14  1  0  0  0
 13 36  1  0  0  0
 13 37  1  0  0  0
 15 16  1  0  0  0
 15 38  1  0  0  0
 16 17  2  0  0  0
 16 18  1  0  0  0
 18 23  2  0  0  0
 18 19  1  0  0  0
 19 20  2  0  0  0
 19 39  1  0  0  0
 20 21  1  0  0  0
 20 40  1  0  0  0
 21 22  2  0  0  0
 21 24  1  0  0  0
 22 23  1  0  0  0
 22 41  1  0  0  0
 23 42  1  0  0  0
 24 25  1  0  0  0
 25 26  2  0  0  0
 25 27  2  0  0  0
 25 28  1  0  0  0
 28 43  1  0  0  0
 28 44  1  0  0  0
 28 45  1  0  0  0
M  CHG  1  24  -1
M  END
> <i_i_glide_confnum>
30

> <i_i_glide_lignum>
1968

> <i_i_glide_posenum>
351

> <i_i_glide_rotatable_bonds>
6

> <i_m_Source_File_Index>
351

> <b_m_subgroup_collapsed>
0

> <r_i_docking_score>
-6.3287

> <r_i_glide_ecoul>
-6.72028

> <r_i_glide_eff_state_penalty>
0

> <r_i_glide_einternal>
3.9632

> <r_i_glide_emodel>
-61.9763

> <r_i_glide_energy>
-45.759

> <r_i_glide_erotb>
0.389144

> <r_i_glide_esite>
-0.0246013

> <r_i_glide_evdw>
-39.0387

> <r_i_glide_gscore>
-6.3287

> <r_i_glide_hbond>
-0.32

> <r_i_glide_ligand_efficiency>
-0.234396

> <r_i_glide_ligand_efficiency_ln>
-1.47322

> <r_i_glide_ligand_efficiency_sa>
-0.703189

> <r_i_glide_lipo>
-2.7114

> <r_i_glide_metal>
0

> <r_i_glide_rewards>
-0.701866

> <s_i_glide_gridfile>
wee1_glide-grid

> <s_m_Source_File>
wee1_decoys_glide_SP.sdf

> <s_m_Source_Path>
/Users/zhangxujun/Desktop

> <s_m_entry_id>
626

> <s_m_entry_name>
wee1_decoys_glide_SP.351

> <s_m_subgroup_title>
wee1_decoys_glide_SP

> <s_m_subgroupid>
wee1_decoys_glide_SP


$$$$
