ZINC48599713_1599
                    3D
 Schrodinger Suite 2024-2.
 31 31  0  0  1  0            999 V2000
    6.7534   55.5757   24.4816 C   0  0  0  0  0  0
    5.6555   54.7718   25.0366 N   0  0  0  0  0  0
    4.5731   54.4229   24.0851 C   0  0  0  0  0  0
    5.0036   53.9116   22.6919 C   0  0  0  0  0  0
    5.5412   54.8689   21.9356 F   0  0  0  0  0  0
    3.9475   53.4361   22.0352 F   0  0  0  0  0  0
    5.8946   52.9273   22.7877 F   0  0  0  0  0  0
    5.6033   54.5029   26.3711 C   0  0  0  0  0  0
    6.5412   54.7672   27.1264 O   0  0  0  0  0  0
    4.3164   53.8813   26.9497 C   0  0  0  0  0  0
    4.2320   53.7106   28.7661 S   0  0  0  0  0  0
    2.6381   53.0329   29.1451 C   0  0  0  0  0  0
    2.3097   52.9502   30.4611 N   0  0  0  0  0  0
    1.0626   52.4968   30.7449 C   0  0  0  0  0  0
    0.1668   52.0966   29.7562 C   0  0  0  0  0  0
    0.6181   52.1642   28.4407 C   0  0  0  0  0  0
    1.8397   52.6530   28.1116 N   0  0  0  0  0  0
   -0.1871   51.6966   27.4122 N   0  0  0  0  0  0
    0.7044   52.3965   32.0817 N   0  0  0  0  0  0
    7.2753   55.0325   23.6936 H   0  0  0  0  0  0
    6.3554   56.4963   24.0574 H   0  0  0  0  0  0
    7.5019   55.8647   25.2189 H   0  0  0  0  0  0
    3.9288   55.2917   23.9588 H   0  0  0  0  0  0
    3.9254   53.6526   24.5000 H   0  0  0  0  0  0
    3.4679   54.4945   26.6464 H   0  0  0  0  0  0
    4.1893   52.8948   26.5168 H   0  0  0  0  0  0
   -0.8083   51.7019   30.0042 H   0  0  0  0  0  0
   -0.9861   51.1268   27.6571 H   0  0  0  0  0  0
    0.2015   51.6705   26.4826 H   0  0  0  0  0  0
   -0.2434   52.0969   32.3567 H   0  0  0  0  0  0
    1.3937   52.5768   32.7962 H   0  0  0  0  0  0
  1  2  1  0  0  0
  1 20  1  0  0  0
  1 21  1  0  0  0
  1 22  1  0  0  0
  2  3  1  0  0  0
  2  8  1  0  0  0
  3  4  1  0  0  0
  3 23  1  0  0  0
  3 24  1  0  0  0
  4  5  1  0  0  0
  4  6  1  0  0  0
  4  7  1  0  0  0
  8  9  2  0  0  0
  8 10  1  0  0  0
 10 11  1  0  0  0
 10 25  1  0  0  0
 10 26  1  0  0  0
 11 12  1  0  0  0
 12 17  2  0  0  0
 12 13  1  0  0  0
 13 14  2  0  0  0
 14 15  1  0  0  0
 14 19  1  0  0  0
 15 16  2  0  0  0
 15 27  1  0  0  0
 16 17  1  0  0  0
 16 18  1  0  0  0
 18 28  1  0  0  0
 18 29  1  0  0  0
 19 30  1  0  0  0
 19 31  1  0  0  0
M  END
> <i_i_glide_confnum>
87

> <i_i_glide_lignum>
1600

> <i_i_glide_posenum>
108

> <i_i_glide_rotatable_bonds>
6

> <i_m_Source_File_Index>
3742

> <b_m_subgroup_collapsed>
0

> <r_i_docking_score>
-6.36437

> <r_i_glide_ecoul>
-8.90254

> <r_i_glide_eff_state_penalty>
0

> <r_i_glide_einternal>
3.25285

> <r_i_glide_emodel>
-57.4925

> <r_i_glide_energy>
-41.7386

> <r_i_glide_erotb>
1.0495

> <r_i_glide_esite>
-0.128276

> <r_i_glide_evdw>
-32.8361

> <r_i_glide_gscore>
-6.36437

> <r_i_glide_hbond>
-0.523028

> <r_i_glide_ligand_efficiency>
-0.334967

> <r_i_glide_ligand_efficiency_ln>
-1.61351

> <r_i_glide_ligand_efficiency_sa>
-0.893826

> <r_i_glide_lipo>
-1.22642

> <r_i_glide_metal>
0

> <r_i_glide_rewards>
-2.55896

> <s_i_glide_gridfile>
wee1_glide-grid

> <s_m_Source_File>
wee1_decoys_glide_SP.sdf

> <s_m_Source_Path>
/Users/zhangxujun/Desktop

> <s_m_entry_id>
4017

> <s_m_entry_name>
wee1_decoys_glide_SP.3742

> <s_m_subgroup_title>
wee1_decoys_glide_SP

> <s_m_subgroupid>
wee1_decoys_glide_SP


$$$$
