ZINC39836487_4246
                    3D
 Schrodinger Suite 2024-2.
 64 67  0  0  1  0            999 V2000
    3.8265   55.1189   28.2587 C   0  0  0  0  0  0
    4.1093   53.7189   27.6771 C   0  0  0  0  0  0
    5.2804   53.1142   28.4881 C   0  0  0  0  0  0
    2.8589   52.8501   27.9729 C   0  0  0  0  0  0
    4.5092   53.7526   26.1409 C   0  0  2  0  0  0
    5.1633   52.8969   25.9863 H   0  0  0  0  0  0
    5.3639   54.9844   25.7316 C   0  0  0  0  0  0
    6.0222   54.8585   24.3368 C   0  0  0  0  0  0
    5.0187   54.3255   23.2980 C   0  0  0  0  0  0
    3.8116   53.7469   23.7230 C   0  0  0  0  0  0
    2.8805   53.1300   22.4163 S   0  0  0  0  0  0
    4.0614   53.6759   21.2540 C   0  0  0  0  0  0
    5.1243   54.3877   21.8680 C   0  0  0  0  0  0
    6.1479   55.1626   21.1513 C   0  0  0  0  0  0
    6.7412   56.0973   21.6804 O   0  0  0  0  0  0
    6.3590   54.8234   19.8622 N   0  0  0  0  0  0
    7.1987   55.4927   18.8574 C   0  0  2  0  0  0
    7.1476   54.9237   17.9257 H   0  0  0  0  0  0
    8.6981   55.5501   19.2514 C   0  0  0  0  0  0
    9.4493   56.4505   18.2588 C   0  0  0  0  0  0
    8.2227   57.7804   17.7654 S   0  0  0  0  0  0
    8.5050   59.0283   18.4813 O   0  0  0  0  0  0
    8.0942   57.7695   16.3060 O   0  0  0  0  0  0
    6.7436   56.9310   18.5420 C   0  0  0  0  0  0
    3.8333   53.5067   19.8862 N   0  0  0  0  0  0
    3.0855   52.5583   19.2753 C   0  0  0  0  0  0
    2.5312   51.6163   19.8452 O   0  0  0  0  0  0
    2.9855   52.7105   17.7725 C   0  0  0  0  0  0
    4.1774   52.8990   17.0509 C   0  0  0  0  0  0
    4.1872   52.9422   15.6616 C   0  0  0  0  0  0
    2.9997   52.7919   14.9596 C   0  0  0  0  0  0
    1.8055   52.6114   15.6497 C   0  0  0  0  0  0
    1.7610   52.5843   17.0552 C   0  0  0  0  0  0
    0.4229   52.4425   17.7002 N   0  3  0  0  0  0
    0.2337   52.8933   18.8247 O   0  0  0  0  0  0
   -0.4840   51.9286   17.0484 O   0  5  0  0  0  0
    3.3089   53.6747   25.1621 C   0  0  0  0  0  0
    3.0755   55.6831   27.7015 H   0  0  0  0  0  0
    3.4944   55.0755   29.2970 H   0  0  0  0  0  0
    4.7484   55.6960   28.2497 H   0  0  0  0  0  0
    5.5406   52.1184   28.1342 H   0  0  0  0  0  0
    6.1821   53.7241   28.4262 H   0  0  0  0  0  0
    5.0252   53.0136   29.5435 H   0  0  0  0  0  0
    2.9994   51.8115   27.6815 H   0  0  0  0  0  0
    2.6246   52.8353   29.0389 H   0  0  0  0  0  0
    1.9668   53.2244   27.4696 H   0  0  0  0  0  0
    4.7728   55.8970   25.8011 H   0  0  0  0  0  0
    6.1710   55.1188   26.4524 H   0  0  0  0  0  0
    6.8760   54.1819   24.3892 H   0  0  0  0  0  0
    6.4306   55.8320   24.0720 H   0  0  0  0  0  0
    6.0489   53.9000   19.6012 H   0  0  0  0  0  0
    8.8252   55.9424   20.2611 H   0  0  0  0  0  0
    9.1293   54.5482   19.2830 H   0  0  0  0  0  0
   10.3786   56.8989   18.6073 H   0  0  0  0  0  0
    9.6741   55.8736   17.3622 H   0  0  0  0  0  0
    5.8021   57.1050   18.0256 H   0  0  0  0  0  0
    6.6511   57.4490   19.4932 H   0  0  0  0  0  0
    4.3435   54.1250   19.2754 H   0  0  0  0  0  0
    5.1284   52.9536   17.5605 H   0  0  0  0  0  0
    5.1198   53.0642   15.1302 H   0  0  0  0  0  0
    3.0031   52.8106   13.8800 H   0  0  0  0  0  0
    0.8976   52.5087   15.0727 H   0  0  0  0  0  0
    2.6173   54.4957   25.3487 H   0  0  0  0  0  0
    2.7417   52.7550   25.3055 H   0  0  0  0  0  0
  1  2  1  0  0  0
  1 38  1  0  0  0
  1 39  1  0  0  0
  1 40  1  0  0  0
  2  3  1  0  0  0
  2  4  1  0  0  0
  2  5  1  0  0  0
  3 41  1  0  0  0
  3 42  1  0  0  0
  3 43  1  0  0  0
  4 44  1  0  0  0
  4 45  1  0  0  0
  4 46  1  0  0  0
  5  6  1  0  0  0
  5 37  1  0  0  0
  5  7  1  0  0  0
  7  8  1  0  0  0
  7 47  1  0  0  0
  7 48  1  0  0  0
  8  9  1  0  0  0
  8 49  1  0  0  0
  8 50  1  0  0  0
  9 13  1  0  0  0
  9 10  2  0  0  0
 10 11  1  0  0  0
 10 37  1  0  0  0
 11 12  1  0  0  0
 12 13  2  0  0  0
 12 25  1  0  0  0
 13 14  1  0  0  0
 14 15  2  0  0  0
 14 16  1  0  0  0
 16 17  1  0  0  0
 16 51  1  0  0  0
 17 18  1  0  0  0
 17 24  1  0  0  0
 17 19  1  0  0  0
 19 20  1  0  0  0
 19 52  1  0  0  0
 19 53  1  0  0  0
 20 21  1  0  0  0
 20 54  1  0  0  0
 20 55  1  0  0  0
 21 22  2  0  0  0
 21 23  2  0  0  0
 21 24  1  0  0  0
 24 56  1  0  0  0
 24 57  1  0  0  0
 25 26  1  0  0  0
 25 58  1  0  0  0
 26 27  2  0  0  0
 26 28  1  0  0  0
 28 33  2  0  0  0
 28 29  1  0  0  0
 29 30  2  0  0  0
 29 59  1  0  0  0
 30 31  1  0  0  0
 30 60  1  0  0  0
 31 32  2  0  0  0
 31 61  1  0  0  0
 32 33  1  0  0  0
 32 62  1  0  0  0
 33 34  1  0  0  0
 34 35  2  0  0  0
 34 36  1  0  0  0
 37 63  1  0  0  0
 37 64  1  0  0  0
M  CHG  2  34   1  36  -1
M  END
> <i_i_glide_confnum>
130

> <i_i_glide_lignum>
4247

> <i_i_glide_posenum>
171

> <i_i_glide_rotatable_bonds>
8

> <i_m_Source_File_Index>
3287

> <b_m_subgroup_collapsed>
0

> <r_i_docking_score>
-4.61642

> <r_i_glide_ecoul>
-2.20602

> <r_i_glide_eff_state_penalty>
0

> <r_i_glide_einternal>
8.96788

> <r_i_glide_emodel>
-41.8592

> <r_i_glide_energy>
-34.287

> <r_i_glide_erotb>
0.456543

> <r_i_glide_esite>
-0.118093

> <r_i_glide_evdw>
-32.081

> <r_i_glide_gscore>
-4.61642

> <r_i_glide_hbond>
0

> <r_i_glide_ligand_efficiency>
-0.131898

> <r_i_glide_ligand_efficiency_ln>
-1.01341

> <r_i_glide_ligand_efficiency_sa>
-0.431446

> <r_i_glide_lipo>
-2.69126

> <r_i_glide_metal>
0

> <r_i_glide_rewards>
-0.328664

> <s_i_glide_gridfile>
wee1_glide-grid

> <s_m_Source_File>
wee1_decoys_glide_SP.sdf

> <s_m_Source_Path>
/Users/zhangxujun/Desktop

> <s_m_entry_id>
3562

> <s_m_entry_name>
wee1_decoys_glide_SP.3287

> <s_m_subgroup_title>
wee1_decoys_glide_SP

> <s_m_subgroupid>
wee1_decoys_glide_SP


$$$$
