ZINC24033350_2107
                    3D
 Schrodinger Suite 2024-2.
 58 61  0  0  1  0            999 V2000
    9.5615   50.6984   14.9405 C   0  0  0  0  0  0
    8.8793   51.6759   15.9129 C   0  0  0  0  0  0
    9.7626   52.9090   16.2132 C   0  0  0  0  0  0
    9.0685   53.8742   17.1988 C   0  0  0  0  0  0
    7.7242   54.2561   16.6910 N   0  0  0  0  0  0
    6.8203   53.1135   16.3860 C   0  0  0  0  0  0
    7.5028   52.1522   15.3908 C   0  0  0  0  0  0
    6.9646   55.6808   17.4308 S   0  0  0  0  0  0
    5.7389   55.9758   16.6789 O   0  0  0  0  0  0
    7.9969   56.7097   17.6090 O   0  0  0  0  0  0
    6.4362   55.1802   19.0729 C   0  0  0  0  0  0
    7.1322   55.6087   20.2039 C   0  0  0  0  0  0
    6.6603   55.2849   21.4749 C   0  0  0  0  0  0
    5.5010   54.4966   21.6286 C   0  0  0  0  0  0
    4.8298   54.0584   20.4770 C   0  0  0  0  0  0
    5.2880   54.4025   19.2100 C   0  0  0  0  0  0
    4.9295   54.1515   22.9922 C   0  0  0  0  0  0
    3.7950   53.6808   23.0799 O   0  0  0  0  0  0
    5.7200   54.4265   24.0547 N   0  0  0  0  0  0
    5.4389   54.3315   25.4327 C   0  0  0  0  0  0
    6.5268   54.4878   26.2916 C   0  0  0  0  0  0
    6.3658   54.3876   27.6722 C   0  0  0  0  0  0
    5.1105   54.1270   28.2132 C   0  0  0  0  0  0
    4.0009   53.9749   27.3699 C   0  0  0  0  0  0
    4.1692   54.0927   25.9861 C   0  0  0  0  0  0
    2.7135   53.6285   27.8087 N   0  0  0  0  0  0
    2.2219   53.5272   29.0621 C   0  0  0  0  0  0
    2.7793   53.9426   30.0808 O   0  0  0  0  0  0
    0.9628   52.8201   29.1489 C   0  0  0  0  0  0
    0.2711   52.4900   30.3157 C   0  0  0  0  0  0
   -0.8619   51.7022   30.0791 C   0  0  0  0  0  0
   -1.0952   51.4872   28.7310 C   0  0  0  0  0  0
    0.1171   52.2115   27.7374 S   0  0  0  0  0  0
    9.7404   51.1594   13.9682 H   0  0  0  0  0  0
   10.5243   50.3639   15.3294 H   0  0  0  0  0  0
    8.9522   49.8093   14.7786 H   0  0  0  0  0  0
    8.7091   51.1573   16.8600 H   0  0  0  0  0  0
   10.0038   53.4345   15.2864 H   0  0  0  0  0  0
   10.7270   52.5921   16.6109 H   0  0  0  0  0  0
    9.6792   54.7637   17.3615 H   0  0  0  0  0  0
    8.9370   53.2962   18.1093 H   0  0  0  0  0  0
    6.6636   52.5366   17.2994 H   0  0  0  0  0  0
    5.8768   53.4791   15.9770 H   0  0  0  0  0  0
    6.8564   51.2970   15.1925 H   0  0  0  0  0  0
    7.6163   52.6396   14.4200 H   0  0  0  0  0  0
    8.0253   56.2082   20.1002 H   0  0  0  0  0  0
    7.2145   55.6587   22.3235 H   0  0  0  0  0  0
    3.9280   53.4647   20.5516 H   0  0  0  0  0  0
    4.7402   54.0757   18.3379 H   0  0  0  0  0  0
    6.6520   54.7391   23.8366 H   0  0  0  0  0  0
    7.5076   54.6646   25.8862 H   0  0  0  0  0  0
    7.2173   54.4962   28.3281 H   0  0  0  0  0  0
    5.0339   54.0255   29.2830 H   0  0  0  0  0  0
    3.3027   53.9726   25.3555 H   0  0  0  0  0  0
    2.0987   53.3044   27.0787 H   0  0  0  0  0  0
    0.6002   52.7562   31.3107 H   0  0  0  0  0  0
   -1.4821   51.2968   30.8687 H   0  0  0  0  0  0
   -1.8846   50.8939   28.2905 H   0  0  0  0  0  0
  1  2  1  0  0  0
  1 34  1  0  0  0
  1 35  1  0  0  0
  1 36  1  0  0  0
  2  7  1  0  0  0
  2  3  1  0  0  0
  2 37  1  0  0  0
  3  4  1  0  0  0
  3 38  1  0  0  0
  3 39  1  0  0  0
  4  5  1  0  0  0
  4 40  1  0  0  0
  4 41  1  0  0  0
  5  6  1  0  0  0
  5  8  1  0  0  0
  6  7  1  0  0  0
  6 42  1  0  0  0
  6 43  1  0  0  0
  7 44  1  0  0  0
  7 45  1  0  0  0
  8  9  2  0  0  0
  8 10  2  0  0  0
  8 11  1  0  0  0
 11 16  2  0  0  0
 11 12  1  0  0  0
 12 13  2  0  0  0
 12 46  1  0  0  0
 13 14  1  0  0  0
 13 47  1  0  0  0
 14 15  2  0  0  0
 14 17  1  0  0  0
 15 16  1  0  0  0
 15 48  1  0  0  0
 16 49  1  0  0  0
 17 18  2  0  0  0
 17 19  1  0  0  0
 19 20  1  0  0  0
 19 50  1  0  0  0
 20 25  2  0  0  0
 20 21  1  0  0  0
 21 22  2  0  0  0
 21 51  1  0  0  0
 22 23  1  0  0  0
 22 52  1  0  0  0
 23 24  2  0  0  0
 23 53  1  0  0  0
 24 25  1  0  0  0
 24 26  1  0  0  0
 25 54  1  0  0  0
 26 27  1  0  0  0
 26 55  1  0  0  0
 27 28  2  0  0  0
 27 29  1  0  0  0
 29 33  1  0  0  0
 29 30  2  0  0  0
 30 31  1  0  0  0
 30 56  1  0  0  0
 31 32  2  0  0  0
 31 57  1  0  0  0
 32 33  1  0  0  0
 32 58  1  0  0  0
M  END
> <i_i_glide_confnum>
65

> <i_i_glide_lignum>
2108

> <i_i_glide_posenum>
50

> <i_i_glide_rotatable_bonds>
8

> <i_m_Source_File_Index>
5403

> <b_m_subgroup_collapsed>
0

> <r_i_docking_score>
-6.05698

> <r_i_glide_ecoul>
-5.15011

> <r_i_glide_eff_state_penalty>
0

> <r_i_glide_einternal>
5.67423

> <r_i_glide_emodel>
-72.183

> <r_i_glide_energy>
-54.5665

> <r_i_glide_erotb>
0.694458

> <r_i_glide_esite>
0

> <r_i_glide_evdw>
-49.4164

> <r_i_glide_gscore>
-6.05698

> <r_i_glide_hbond>
-0.32

> <r_i_glide_ligand_efficiency>
-0.183545

> <r_i_glide_ligand_efficiency_ln>
-1.34704

> <r_i_glide_ligand_efficiency_sa>
-0.588726

> <r_i_glide_lipo>
-2.73867

> <r_i_glide_metal>
0

> <r_i_glide_rewards>
-0.449433

> <s_i_glide_gridfile>
wee1_glide-grid

> <s_m_Source_File>
wee1_decoys_glide_SP.sdf

> <s_m_Source_Path>
/Users/zhangxujun/Desktop

> <s_m_entry_id>
5678

> <s_m_entry_name>
wee1_decoys_glide_SP.5403

> <s_m_subgroup_title>
wee1_decoys_glide_SP

> <s_m_subgroupid>
wee1_decoys_glide_SP


$$$$
