ZINC40217003_4683
                    3D
 Schrodinger Suite 2024-2.
 38 40  0  0  1  0            999 V2000
    0.2802   51.5762   22.6009 C   0  0  0  0  0  0
    0.5524   52.1110   23.8598 C   0  0  0  0  0  0
    1.7240   52.8407   24.0863 C   0  0  0  0  0  0
    2.6166   53.0469   23.0200 C   0  0  0  0  0  0
    2.3494   52.4969   21.7612 C   0  0  0  0  0  0
    1.1794   51.7640   21.5534 C   0  0  0  0  0  0
    3.5051   52.7211   20.4150 S   0  0  0  0  0  0
    2.7442   52.6458   19.1644 O   0  0  0  0  0  0
    4.3542   53.8740   20.7326 O   0  0  0  0  0  0
    4.5165   51.3102   20.4817 N   0  0  0  0  0  0
    1.9096   53.3171   25.3972 N   0  0  0  0  0  0
    2.9962   53.8739   25.9756 C   0  0  0  0  0  0
    4.0752   54.0554   25.4118 O   0  0  0  0  0  0
    2.8313   54.3003   27.4542 C   0  0  1  0  0  0
    2.3913   55.2956   27.4011 H   0  0  0  0  0  0
    1.9120   53.3978   28.3287 C   0  0  0  0  0  0
    2.7568   53.2061   29.6092 C   0  0  1  0  0  0
    2.1635   52.9743   30.4951 H   0  0  0  0  0  0
    3.8896   52.2007   29.3481 C   0  0  0  0  0  0
    4.8438   52.9887   28.4230 C   0  0  0  0  0  0
    4.1408   54.3589   28.2866 C   0  0  2  0  0  0
    4.8139   55.1664   27.9937 H   0  0  0  0  0  0
    3.5493   54.5038   29.6818 C   0  0  0  0  0  0
   -0.6228   51.0059   22.4405 H   0  0  0  0  0  0
   -0.1520   51.9397   24.6613 H   0  0  0  0  0  0
    3.5224   53.6182   23.1494 H   0  0  0  0  0  0
    0.9698   51.3374   20.5825 H   0  0  0  0  0  0
    4.7246   50.9507   19.5268 H   0  0  0  0  0  0
    5.3741   51.4836   21.0065 H   0  0  0  0  0  0
    1.1182   53.1840   26.0070 H   0  0  0  0  0  0
    1.6746   52.4263   27.8907 H   0  0  0  0  0  0
    0.9726   53.9038   28.5578 H   0  0  0  0  0  0
    3.5060   51.2968   28.8819 H   0  0  0  0  0  0
    4.3906   51.9143   30.2744 H   0  0  0  0  0  0
    5.8273   53.1029   28.8810 H   0  0  0  0  0  0
    4.9976   52.4990   27.4612 H   0  0  0  0  0  0
    2.9231   55.3910   29.8036 H   0  0  0  0  0  0
    4.3042   54.4981   30.4715 H   0  0  0  0  0  0
  1  6  2  0  0  0
  1  2  1  0  0  0
  1 24  1  0  0  0
  2  3  2  0  0  0
  2 25  1  0  0  0
  3  4  1  0  0  0
  3 11  1  0  0  0
  4  5  2  0  0  0
  4 26  1  0  0  0
  5  6  1  0  0  0
  5  7  1  0  0  0
  6 27  1  0  0  0
  7  8  2  0  0  0
  7  9  2  0  0  0
  7 10  1  0  0  0
 10 28  1  0  0  0
 10 29  1  0  0  0
 11 12  1  0  0  0
 11 30  1  0  0  0
 12 13  2  0  0  0
 12 14  1  0  0  0
 14 15  1  0  0  0
 14 21  1  0  0  0
 14 16  1  0  0  0
 16 17  1  0  0  0
 16 31  1  0  0  0
 16 32  1  0  0  0
 17 18  1  0  0  0
 17 23  1  0  0  0
 17 19  1  0  0  0
 19 20  1  0  0  0
 19 33  1  0  0  0
 19 34  1  0  0  0
 20 21  1  0  0  0
 20 35  1  0  0  0
 20 36  1  0  0  0
 21 22  1  0  0  0
 21 23  1  0  0  0
 23 37  1  0  0  0
 23 38  1  0  0  0
M  END
> <i_i_glide_confnum>
3

> <i_i_glide_lignum>
4684

> <i_i_glide_posenum>
365

> <i_i_glide_rotatable_bonds>
4

> <i_m_Source_File_Index>
4360

> <b_m_subgroup_collapsed>
0

> <r_i_docking_score>
-4.77565

> <r_i_glide_ecoul>
-1.50782

> <r_i_glide_eff_state_penalty>
0

> <r_i_glide_einternal>
4.60278

> <r_i_glide_emodel>
-38.5539

> <r_i_glide_energy>
-30.1876

> <r_i_glide_erotb>
0.633124

> <r_i_glide_esite>
-0.114012

> <r_i_glide_evdw>
-28.6797

> <r_i_glide_gscore>
-4.77565

> <r_i_glide_hbond>
-0.16

> <r_i_glide_ligand_efficiency>
-0.238783

> <r_i_glide_ligand_efficiency_ln>
-1.19519

> <r_i_glide_ligand_efficiency_sa>
-0.648156

> <r_i_glide_lipo>
-1.68007

> <r_i_glide_metal>
0

> <r_i_glide_rewards>
-1.79454

> <s_i_glide_gridfile>
wee1_glide-grid

> <s_m_Source_File>
wee1_decoys_glide_SP.sdf

> <s_m_Source_Path>
/Users/zhangxujun/Desktop

> <s_m_entry_id>
4635

> <s_m_entry_name>
wee1_decoys_glide_SP.4360

> <s_m_subgroup_title>
wee1_decoys_glide_SP

> <s_m_subgroupid>
wee1_decoys_glide_SP


$$$$
