ZINC16567120_4023
                    3D
 Schrodinger Suite 2024-2.
 66 70  0  0  1  0            999 V2000
   -0.0949   52.6848   31.2254 C   0  0  0  0  0  0
    0.6761   52.9491   29.9561 C   0  0  0  0  0  0
    0.9314   51.8900   29.0873 C   0  0  0  0  0  0
    1.6533   52.1010   27.9267 C   0  0  0  0  0  0
    2.0550   53.3934   27.5952 C   0  0  0  0  0  0
    1.7817   54.4669   28.4523 C   0  0  0  0  0  0
    1.1004   54.2405   29.6432 C   0  0  0  0  0  0
    2.7457   53.6351   26.3929 N   0  0  0  0  0  0
    4.0383   54.1507   26.3404 C   0  0  0  0  0  0
    4.3951   54.3159   24.9997 C   0  0  0  0  0  0
    3.2292   54.0212   24.2814 C   0  0  0  0  0  0
    2.2925   53.4049   25.0951 C   0  0  0  0  0  0
    1.0486   52.6819   24.6204 C   0  0  0  0  0  0
   -0.1188   52.4968   25.3753 C   0  0  0  0  0  0
   -1.2182   51.8284   24.8461 C   0  0  0  0  0  0
   -1.1615   51.3230   23.5529 C   0  0  0  0  0  0
   -0.0104   51.4782   22.7899 C   0  0  0  0  0  0
    1.0870   52.1478   23.3231 C   0  0  0  0  0  0
   -2.2317   50.6839   23.0305 F   0  0  0  0  0  0
    5.6308   54.8862   24.4816 C   0  0  0  0  0  0
    6.2935   55.6413   25.2014 O   0  0  0  0  0  0
    5.9956   54.6023   23.1945 N   0  0  0  0  0  0
    5.4769   53.5167   22.3411 C   0  0  0  0  0  0
    4.9680   54.1301   21.0108 C   0  0  0  0  0  0
    6.0728   54.9009   20.3885 N   0  0  0  0  0  0
    6.6676   55.9424   21.2530 C   0  0  0  0  0  0
    7.1328   55.2996   22.5788 C   0  0  0  0  0  0
    6.4728   54.7961   19.0874 C   0  0  0  0  0  0
    7.3501   55.5231   18.6161 O   0  0  0  0  0  0
    5.8613   53.8334   18.3594 N   0  0  0  0  0  0
    6.1007   53.4695   17.0227 C   0  0  0  0  0  0
    5.0343   52.8967   16.3230 C   0  0  0  0  0  0
    5.1949   52.4879   14.9990 C   0  0  0  0  0  0
    6.4288   52.6397   14.3674 C   0  0  0  0  0  0
    7.5026   53.1966   15.0602 C   0  0  0  0  0  0
    7.3433   53.6082   16.3830 C   0  0  0  0  0  0
    8.7018   53.3321   14.4505 F   0  0  0  0  0  0
    4.8496   54.3873   27.6114 C   0  0  0  0  0  0
   -0.9368   52.0370   30.9820 H   0  0  0  0  0  0
    0.5223   52.1659   31.9587 H   0  0  0  0  0  0
   -0.4949   53.5936   31.6742 H   0  0  0  0  0  0
    0.5641   50.8967   29.2830 H   0  0  0  0  0  0
    1.8583   51.2633   27.2809 H   0  0  0  0  0  0
    2.0927   55.4710   28.1996 H   0  0  0  0  0  0
    0.8921   55.0668   30.3081 H   0  0  0  0  0  0
    3.1029   54.1509   23.2166 H   0  0  0  0  0  0
   -0.2093   52.8966   26.3718 H   0  0  0  0  0  0
   -2.1150   51.7036   25.4360 H   0  0  0  0  0  0
    0.0322   51.0769   21.7884 H   0  0  0  0  0  0
    1.9710   52.2404   22.7095 H   0  0  0  0  0  0
    6.3006   52.8345   22.1481 H   0  0  0  0  0  0
    4.7427   52.8763   22.8183 H   0  0  0  0  0  0
    4.1455   54.8168   21.2165 H   0  0  0  0  0  0
    4.5810   53.3338   20.3748 H   0  0  0  0  0  0
    5.9047   56.6944   21.4484 H   0  0  0  0  0  0
    7.5192   56.4421   20.7888 H   0  0  0  0  0  0
    7.5736   56.0555   23.2308 H   0  0  0  0  0  0
    7.9056   54.5596   22.3831 H   0  0  0  0  0  0
    5.1060   53.3325   18.7988 H   0  0  0  0  0  0
    4.0776   52.7493   16.8055 H   0  0  0  0  0  0
    4.3677   52.0362   14.4719 H   0  0  0  0  0  0
    6.5579   52.3153   13.3448 H   0  0  0  0  0  0
    8.1995   54.0158   16.8980 H   0  0  0  0  0  0
    5.9191   54.4722   27.4226 H   0  0  0  0  0  0
    4.5447   55.2965   28.1266 H   0  0  0  0  0  0
    4.7421   53.5667   28.3212 H   0  0  0  0  0  0
  1  2  1  0  0  0
  1 39  1  0  0  0
  1 40  1  0  0  0
  1 41  1  0  0  0
  2  7  2  0  0  0
  2  3  1  0  0  0
  3  4  2  0  0  0
  3 42  1  0  0  0
  4  5  1  0  0  0
  4 43  1  0  0  0
  5  6  2  0  0  0
  5  8  1  0  0  0
  6  7  1  0  0  0
  6 44  1  0  0  0
  7 45  1  0  0  0
  8 12  1  0  0  0
  8  9  1  0  0  0
  9 10  2  0  0  0
  9 38  1  0  0  0
 10 11  1  0  0  0
 10 20  1  0  0  0
 11 12  2  0  0  0
 11 46  1  0  0  0
 12 13  1  0  0  0
 13 18  2  0  0  0
 13 14  1  0  0  0
 14 15  2  0  0  0
 14 47  1  0  0  0
 15 16  1  0  0  0
 15 48  1  0  0  0
 16 17  2  0  0  0
 16 19  1  0  0  0
 17 18  1  0  0  0
 17 49  1  0  0  0
 18 50  1  0  0  0
 20 21  2  0  0  0
 20 22  1  0  0  0
 22 27  1  0  0  0
 22 23  1  0  0  0
 23 24  1  0  0  0
 23 51  1  0  0  0
 23 52  1  0  0  0
 24 25  1  0  0  0
 24 53  1  0  0  0
 24 54  1  0  0  0
 25 26  1  0  0  0
 25 28  1  0  0  0
 26 27  1  0  0  0
 26 55  1  0  0  0
 26 56  1  0  0  0
 27 57  1  0  0  0
 27 58  1  0  0  0
 28 29  2  0  0  0
 28 30  1  0  0  0
 30 31  1  0  0  0
 30 59  1  0  0  0
 31 36  2  0  0  0
 31 32  1  0  0  0
 32 33  2  0  0  0
 32 60  1  0  0  0
 33 34  1  0  0  0
 33 61  1  0  0  0
 34 35  2  0  0  0
 34 62  1  0  0  0
 35 36  1  0  0  0
 35 37  1  0  0  0
 36 63  1  0  0  0
 38 64  1  0  0  0
 38 65  1  0  0  0
 38 66  1  0  0  0
M  END
> <i_i_glide_confnum>
236

> <i_i_glide_lignum>
4024

> <i_i_glide_posenum>
220

> <i_i_glide_rotatable_bonds>
7

> <i_m_Source_File_Index>
4747

> <b_m_subgroup_collapsed>
0

> <r_i_docking_score>
-6.64059

> <r_i_glide_ecoul>
-2.25015

> <r_i_glide_eff_state_penalty>
0

> <r_i_glide_einternal>
4.22137

> <r_i_glide_emodel>
-68.0477

> <r_i_glide_energy>
-49.4413

> <r_i_glide_erotb>
0.542319

> <r_i_glide_esite>
-0.0303524

> <r_i_glide_evdw>
-47.1912

> <r_i_glide_gscore>
-6.64059

> <r_i_glide_hbond>
0

> <r_i_glide_ligand_efficiency>
-0.174752

> <r_i_glide_ligand_efficiency_ln>
-1.43191

> <r_i_glide_ligand_efficiency_sa>
-0.587513

> <r_i_glide_lipo>
-3.24846

> <r_i_glide_metal>
0

> <r_i_glide_rewards>
-1.20702

> <s_i_glide_gridfile>
wee1_glide-grid

> <s_m_Source_File>
wee1_decoys_glide_SP.sdf

> <s_m_Source_Path>
/Users/zhangxujun/Desktop

> <s_m_entry_id>
5022

> <s_m_entry_name>
wee1_decoys_glide_SP.4747

> <s_m_subgroup_title>
wee1_decoys_glide_SP

> <s_m_subgroupid>
wee1_decoys_glide_SP


$$$$
