ZINC34923149_5641
                    3D
 Schrodinger Suite 2024-2.
 59 62  0  0  1  0            999 V2000
    6.2451   54.2415   23.5319 C   0  0  0  0  0  0
    5.9266   54.4475   25.0321 C   0  0  0  0  0  0
    4.5059   54.0969   25.5343 C   0  0  0  0  0  0
    4.1463   53.6041   26.7682 C   0  0  0  0  0  0
    2.6916   53.0676   27.0117 C   0  0  2  0  0  0
    2.7820   52.0169   27.2806 H   0  0  0  0  0  0
    1.9055   53.0798   25.7373 N   0  0  0  0  0  0
    0.6581   52.5048   25.5073 C   0  0  0  0  0  0
    0.2077   52.7581   24.2654 C   0  0  0  0  0  0
    1.3145   53.6964   23.2826 S   0  0  0  0  0  0
    2.4582   53.7058   24.6231 C   0  0  0  0  0  0
    3.6075   54.2373   24.5200 N   0  0  0  0  0  0
   -0.1441   51.7587   26.4661 C   0  0  0  0  0  0
   -1.4471   51.9825   26.7287 C   0  0  0  0  0  0
   -2.2396   52.8718   26.2291 O   0  5  0  0  0  0
   -2.1098   51.2010   27.6519 N   0  0  0  0  0  0
   -3.5360   51.0922   27.9547 C   0  0  0  0  0  0
   -4.2452   50.2477   26.8744 C   0  0  0  0  0  0
   -5.7564   50.1831   27.1845 C   0  0  0  0  0  0
   -6.0295   49.6393   28.6086 C   0  0  0  0  0  0
   -5.1964   50.3549   29.6995 C   0  0  0  0  0  0
   -3.7012   50.4002   29.3202 C   0  0  0  0  0  0
    1.9606   53.6892   28.2092 C   0  0  0  0  0  0
    1.2526   52.8727   29.1032 C   0  0  0  0  0  0
    0.6349   53.4158   30.2270 C   0  0  0  0  0  0
    0.7495   54.7801   30.4831 C   0  0  0  0  0  0
    1.4817   55.5953   29.6204 C   0  0  0  0  0  0
    2.0692   55.0569   28.4813 C   0  0  0  0  0  0
    1.6048   56.9091   29.8891 F   0  0  0  0  0  0
    5.0777   53.4420   27.9088 C   0  0  0  0  0  0
    4.8190   52.7266   28.8817 O   0  0  0  0  0  0
    6.2054   54.1624   27.8064 O   0  0  0  0  0  0
    7.3267   53.8803   28.6182 C   0  0  0  0  0  0
    7.2933   54.4539   23.3191 H   0  0  0  0  0  0
    6.0471   53.2142   23.2267 H   0  0  0  0  0  0
    5.6452   54.8956   22.8981 H   0  0  0  0  0  0
    6.1321   55.4845   25.3011 H   0  0  0  0  0  0
    6.6591   53.8292   25.5468 H   0  0  0  0  0  0
   -0.7429   52.4386   23.8654 H   0  0  0  0  0  0
    0.3519   50.9585   26.9982 H   0  0  0  0  0  0
   -1.6385   50.3458   27.9271 H   0  0  0  0  0  0
   -3.9628   52.0955   27.9973 H   0  0  0  0  0  0
   -3.8347   49.2369   26.8502 H   0  0  0  0  0  0
   -4.0907   50.6805   25.8850 H   0  0  0  0  0  0
   -6.2609   49.5590   26.4457 H   0  0  0  0  0  0
   -6.1918   51.1797   27.0873 H   0  0  0  0  0  0
   -5.7946   48.5736   28.6303 H   0  0  0  0  0  0
   -7.0926   49.7174   28.8415 H   0  0  0  0  0  0
   -5.3209   49.8477   30.6583 H   0  0  0  0  0  0
   -5.5697   51.3703   29.8391 H   0  0  0  0  0  0
   -3.1266   50.8967   30.0997 H   0  0  0  0  0  0
   -3.3096   49.3832   29.2727 H   0  0  0  0  0  0
    1.1763   51.8093   28.9307 H   0  0  0  0  0  0
    0.0828   52.7795   30.9055 H   0  0  0  0  0  0
    0.2921   55.2034   31.3632 H   0  0  0  0  0  0
    2.6347   55.6966   27.8216 H   0  0  0  0  0  0
    8.1590   54.4968   28.2877 H   0  0  0  0  0  0
    7.1462   54.0962   29.6758 H   0  0  0  0  0  0
    7.6303   52.8431   28.4817 H   0  0  0  0  0  0
  1  2  1  0  0  0
  1 34  1  0  0  0
  1 35  1  0  0  0
  1 36  1  0  0  0
  2  3  1  0  0  0
  2 37  1  0  0  0
  2 38  1  0  0  0
  3 12  1  0  0  0
  3  4  2  0  0  0
  4  5  1  0  0  0
  4 30  1  0  0  0
  5  6  1  0  0  0
  5  7  1  0  0  0
  5 23  1  0  0  0
  7 11  1  0  0  0
  7  8  1  0  0  0
  8  9  2  0  0  0
  8 13  1  0  0  0
  9 10  1  0  0  0
  9 39  1  0  0  0
 10 11  1  0  0  0
 11 12  2  0  0  0
 13 14  2  0  0  0
 13 40  1  0  0  0
 14 15  1  0  0  0
 14 16  1  0  0  0
 16 17  1  0  0  0
 16 41  1  0  0  0
 17 22  1  0  0  0
 17 18  1  0  0  0
 17 42  1  0  0  0
 18 19  1  0  0  0
 18 43  1  0  0  0
 18 44  1  0  0  0
 19 20  1  0  0  0
 19 45  1  0  0  0
 19 46  1  0  0  0
 20 21  1  0  0  0
 20 47  1  0  0  0
 20 48  1  0  0  0
 21 22  1  0  0  0
 21 49  1  0  0  0
 21 50  1  0  0  0
 22 51  1  0  0  0
 22 52  1  0  0  0
 23 28  2  0  0  0
 23 24  1  0  0  0
 24 25  2  0  0  0
 24 53  1  0  0  0
 25 26  1  0  0  0
 25 54  1  0  0  0
 26 27  2  0  0  0
 26 55  1  0  0  0
 27 28  1  0  0  0
 27 29  1  0  0  0
 28 56  1  0  0  0
 30 31  2  0  0  0
 30 32  1  0  0  0
 32 33  1  0  0  0
 33 57  1  0  0  0
 33 58  1  0  0  0
 33 59  1  0  0  0
M  CHG  1  15  -1
M  END
> <i_i_glide_confnum>
13

> <i_i_glide_lignum>
5642

> <i_i_glide_posenum>
369

> <i_i_glide_rotatable_bonds>
7

> <i_m_Source_File_Index>
5868

> <b_m_subgroup_collapsed>
0

> <r_i_docking_score>
-7.13559

> <r_i_glide_ecoul>
-2.13716

> <r_i_glide_eff_state_penalty>
0

> <r_i_glide_einternal>
5.4363

> <r_i_glide_emodel>
-62.1228

> <r_i_glide_energy>
-46.5287

> <r_i_glide_erotb>
0.38568

> <r_i_glide_esite>
-0.0979391

> <r_i_glide_evdw>
-44.3915

> <r_i_glide_gscore>
-7.13559

> <r_i_glide_hbond>
-0.159644

> <r_i_glide_ligand_efficiency>
-0.222987

> <r_i_glide_ligand_efficiency_ln>
-1.59785

> <r_i_glide_ligand_efficiency_sa>
-0.70794

> <r_i_glide_lipo>
-3.05952

> <r_i_glide_metal>
0

> <r_i_glide_rewards>
-1.66401

> <s_i_glide_gridfile>
wee1_glide-grid

> <s_m_Source_File>
wee1_decoys_glide_SP.sdf

> <s_m_Source_Path>
/Users/zhangxujun/Desktop

> <s_m_entry_id>
6143

> <s_m_entry_name>
wee1_decoys_glide_SP.5868

> <s_m_subgroup_title>
wee1_decoys_glide_SP

> <s_m_subgroupid>
wee1_decoys_glide_SP


$$$$
