ZINC09112983_2817
                    3D
 Schrodinger Suite 2024-2.
 54 57  0  0  1  0            999 V2000
    6.4447   54.3523   25.8971 C   0  0  0  0  0  0
    5.1103   54.6916   25.7020 C   0  0  0  0  0  0
    4.2029   54.5380   26.7462 C   0  0  0  0  0  0
    4.6184   54.0316   27.9867 C   0  0  0  0  0  0
    5.9611   53.6967   28.1647 C   0  0  0  0  0  0
    6.8701   53.8578   27.1271 C   0  0  0  0  0  0
    3.6467   53.8701   29.1660 C   0  0  0  0  0  0
    2.5548   52.9919   28.8657 O   0  0  0  0  0  0
    1.5223   53.4380   28.1096 C   0  0  0  0  0  0
    1.1784   54.6225   28.0819 O   0  0  0  0  0  0
    1.0627   52.4490   27.2355 N   0  0  0  0  0  0
    1.1044   51.0249   27.6100 C   0  0  0  0  0  0
    0.3051   50.2033   26.5819 C   0  0  0  0  0  0
   -0.2905   50.6820   25.4658 C   0  0  0  0  0  0
   -0.1821   52.1853   25.1717 C   0  0  1  0  0  0
   -1.0436   52.6466   25.6600 H   0  0  0  0  0  0
    1.0807   52.8008   25.8132 C   0  0  0  0  0  0
   -0.2988   52.4626   23.6502 C   0  0  2  0  0  0
   -0.4466   53.5409   23.5701 H   0  0  0  0  0  0
   -1.5932   51.8063   23.0644 C   0  0  0  0  0  0
   -1.6892   50.3208   23.4621 C   0  0  0  0  0  0
   -1.0719   49.8245   24.5622 C   0  0  0  0  0  0
   -1.1792   48.4135   24.8044 C   0  0  0  0  0  0
   -1.2943   47.2630   24.8820 N   0  0  0  0  0  0
   -2.4839   49.5445   22.6434 N   0  0  0  0  0  0
   -2.7683   52.4924   23.6333 C   0  0  0  0  0  0
   -3.6856   53.0361   24.0821 N   0  0  0  0  0  0
   -1.6460   51.9710   21.5975 C   0  0  0  0  0  0
   -1.6962   52.0958   20.4482 N   0  0  0  0  0  0
    1.0100   52.2140   22.8639 C   0  0  0  0  0  0
    1.3595   50.9500   22.3655 C   0  0  0  0  0  0
    2.5406   50.7691   21.6431 C   0  0  0  0  0  0
    3.3977   51.8460   21.4211 C   0  0  0  0  0  0
    3.0794   53.1020   21.9356 C   0  0  0  0  0  0
    1.8911   53.2841   22.6446 C   0  0  0  0  0  0
    4.1517   54.4337   21.6968 Cl  0  0  0  0  0  0
    7.1507   54.4690   25.0875 H   0  0  0  0  0  0
    4.7818   55.0799   24.7489 H   0  0  0  0  0  0
    3.1841   54.8442   26.5765 H   0  0  0  0  0  0
    6.3139   53.3091   29.1061 H   0  0  0  0  0  0
    7.9032   53.5905   27.2838 H   0  0  0  0  0  0
    3.2946   54.8527   29.4861 H   0  0  0  0  0  0
    4.1844   53.4479   30.0160 H   0  0  0  0  0  0
    0.6625   50.8955   28.5993 H   0  0  0  0  0  0
    2.1286   50.6615   27.6818 H   0  0  0  0  0  0
    0.2050   49.1477   26.8000 H   0  0  0  0  0  0
    1.9978   52.4105   25.3702 H   0  0  0  0  0  0
    1.1044   53.8790   25.6484 H   0  0  0  0  0  0
   -2.9404   49.9221   21.8247 H   0  0  0  0  0  0
   -2.6370   48.5664   22.8503 H   0  0  0  0  0  0
    0.7262   50.0909   22.5191 H   0  0  0  0  0  0
    2.7917   49.7918   21.2538 H   0  0  0  0  0  0
    4.3073   51.7058   20.8544 H   0  0  0  0  0  0
    1.6576   54.2695   23.0206 H   0  0  0  0  0  0
  1  6  2  0  0  0
  1  2  1  0  0  0
  1 37  1  0  0  0
  2  3  2  0  0  0
  2 38  1  0  0  0
  3  4  1  0  0  0
  3 39  1  0  0  0
  4  5  2  0  0  0
  4  7  1  0  0  0
  5  6  1  0  0  0
  5 40  1  0  0  0
  6 41  1  0  0  0
  7  8  1  0  0  0
  7 42  1  0  0  0
  7 43  1  0  0  0
  8  9  1  0  0  0
  9 10  2  0  0  0
  9 11  1  0  0  0
 11 17  1  0  0  0
 11 12  1  0  0  0
 12 13  1  0  0  0
 12 44  1  0  0  0
 12 45  1  0  0  0
 13 14  2  0  0  0
 13 46  1  0  0  0
 14 22  1  0  0  0
 14 15  1  0  0  0
 15 16  1  0  0  0
 15 17  1  0  0  0
 15 18  1  0  0  0
 17 47  1  0  0  0
 17 48  1  0  0  0
 18 19  1  0  0  0
 18 20  1  0  0  0
 18 30  1  0  0  0
 20 21  1  0  0  0
 20 26  1  0  0  0
 20 28  1  0  0  0
 21 22  2  0  0  0
 21 25  1  0  0  0
 22 23  1  0  0  0
 23 24  3  0  0  0
 25 49  1  0  0  0
 25 50  1  0  0  0
 26 27  3  0  0  0
 28 29  3  0  0  0
 30 35  2  0  0  0
 30 31  1  0  0  0
 31 32  2  0  0  0
 31 51  1  0  0  0
 32 33  1  0  0  0
 32 52  1  0  0  0
 33 34  2  0  0  0
 33 53  1  0  0  0
 34 35  1  0  0  0
 34 36  1  0  0  0
 35 54  1  0  0  0
M  END
> <i_i_glide_confnum>
25

> <i_i_glide_lignum>
2818

> <i_i_glide_posenum>
198

> <i_i_glide_rotatable_bonds>
8

> <i_m_Source_File_Index>
2217

> <b_m_subgroup_collapsed>
0

> <r_i_docking_score>
-5.4982

> <r_i_glide_ecoul>
-0.473859

> <r_i_glide_eff_state_penalty>
0

> <r_i_glide_einternal>
14.0142

> <r_i_glide_emodel>
-52.1207

> <r_i_glide_energy>
-45.6462

> <r_i_glide_erotb>
0.365919

> <r_i_glide_esite>
-0.0770028

> <r_i_glide_evdw>
-45.1723

> <r_i_glide_gscore>
-5.4982

> <r_i_glide_hbond>
-0.174314

> <r_i_glide_ligand_efficiency>
-0.161712

> <r_i_glide_ligand_efficiency_ln>
-1.21471

> <r_i_glide_ligand_efficiency_sa>
-0.523883

> <r_i_glide_lipo>
-2.64349

> <r_i_glide_metal>
0

> <r_i_glide_rewards>
-0.639613

> <s_i_glide_gridfile>
wee1_glide-grid

> <s_m_Source_File>
wee1_decoys_glide_SP.sdf

> <s_m_Source_Path>
/Users/zhangxujun/Desktop

> <s_m_entry_id>
2492

> <s_m_entry_name>
wee1_decoys_glide_SP.2217

> <s_m_subgroup_title>
wee1_decoys_glide_SP

> <s_m_subgroupid>
wee1_decoys_glide_SP


$$$$
