ZINC34969882_2975
                    3D
 Schrodinger Suite 2024-2.
 69 71  0  0  1  0            999 V2000
    0.7060   52.5624   31.6931 C   0  0  0  0  0  0
    1.9631   52.8316   30.8525 C   0  0  0  0  0  0
    1.9348   54.0914   29.9186 C   0  0  2  0  0  0
    2.7518   54.7340   30.2566 H   0  0  0  0  0  0
    0.7061   54.9962   30.1222 C   0  0  0  0  0  0
    2.1807   53.7948   28.3920 C   0  0  1  0  0  0
    1.8553   54.6647   27.8221 H   0  0  0  0  0  0
    3.7181   53.5749   28.2110 C   0  0  0  0  0  0
    4.2734   52.7742   28.9694 O   0  0  0  0  0  0
    4.4240   54.3580   27.3481 N   0  0  0  0  0  0
    3.8662   54.9570   26.1189 C   0  0  0  0  0  0
    4.6165   54.3678   24.9081 C   0  0  0  0  0  0
    6.0675   54.5594   25.0277 N   0  0  0  0  0  0
    6.5944   53.9773   26.2689 C   0  0  0  0  0  0
    5.8803   54.5044   27.5262 C   0  0  0  0  0  0
    6.7333   53.9917   23.8557 C   0  0  0  0  0  0
    6.6570   54.8528   22.6112 C   0  0  0  0  0  0
    5.9994   54.4836   21.4955 C   0  0  0  0  0  0
    5.9053   55.2316   20.2292 C   0  0  0  0  0  0
    4.8854   54.8993   19.3319 C   0  0  0  0  0  0
    4.7393   55.6112   18.1455 C   0  0  0  0  0  0
    5.6209   56.6477   17.8482 C   0  0  0  0  0  0
    6.6554   56.9706   18.7237 C   0  0  0  0  0  0
    6.8019   56.2599   19.9121 C   0  0  0  0  0  0
    1.3723   52.6436   27.9588 N   0  0  0  0  0  0
    1.1043   52.2832   26.6964 C   0  0  0  0  0  0
    1.4966   52.9133   25.7163 O   0  0  0  0  0  0
    0.3727   51.1513   26.6361 N   0  0  0  0  0  0
   -0.0764   50.4922   25.4745 C   0  0  0  0  0  0
   -0.2753   49.1131   25.5600 C   0  0  0  0  0  0
   -0.7053   48.3928   24.4473 C   0  0  0  0  0  0
   -0.9528   49.0483   23.2407 C   0  0  0  0  0  0
   -0.7815   50.4354   23.1404 C   0  0  0  0  0  0
   -0.3479   51.1477   24.2636 C   0  0  0  0  0  0
   -1.0516   51.1835   21.8356 C   0  0  0  0  0  0
   -1.2814   50.3530   20.8147 F   0  0  0  0  0  0
   -2.1234   51.9649   21.9859 F   0  0  0  0  0  0
   -0.0068   51.9529   21.5196 F   0  0  0  0  0  0
    0.8430   51.6825   32.3208 H   0  0  0  0  0  0
    0.4684   53.3857   32.3668 H   0  0  0  0  0  0
   -0.1647   52.3775   31.0604 H   0  0  0  0  0  0
    2.1737   51.9291   30.2803 H   0  0  0  0  0  0
    2.8189   52.8961   31.5253 H   0  0  0  0  0  0
   -0.2178   54.4961   29.8339 H   0  0  0  0  0  0
    0.6106   55.3144   31.1582 H   0  0  0  0  0  0
    0.7886   55.9069   29.5275 H   0  0  0  0  0  0
    4.0277   56.0322   26.0819 H   0  0  0  0  0  0
    2.8032   54.7963   25.9907 H   0  0  0  0  0  0
    4.2400   54.8415   23.9979 H   0  0  0  0  0  0
    4.4046   53.2970   24.8661 H   0  0  0  0  0  0
    6.4467   52.8969   26.2362 H   0  0  0  0  0  0
    7.6456   54.2174   26.3819 H   0  0  0  0  0  0
    6.2646   53.9888   28.4085 H   0  0  0  0  0  0
    6.1154   55.5615   27.6576 H   0  0  0  0  0  0
    6.4098   52.9703   23.6511 H   0  0  0  0  0  0
    7.7989   53.9437   24.0859 H   0  0  0  0  0  0
    7.1578   55.8080   22.6742 H   0  0  0  0  0  0
    5.5004   53.5244   21.5017 H   0  0  0  0  0  0
    4.1860   54.1051   19.5605 H   0  0  0  0  0  0
    3.9431   55.3621   17.4597 H   0  0  0  0  0  0
    5.5078   57.2010   16.9273 H   0  0  0  0  0  0
    7.3437   57.7661   18.4747 H   0  0  0  0  0  0
    7.6203   56.4973   20.5731 H   0  0  0  0  0  0
    1.0000   52.0834   28.7133 H   0  0  0  0  0  0
    0.1984   50.6578   27.4997 H   0  0  0  0  0  0
   -0.0957   48.5801   26.4826 H   0  0  0  0  0  0
   -0.8489   47.3243   24.5287 H   0  0  0  0  0  0
   -1.2868   48.4735   22.3902 H   0  0  0  0  0  0
   -0.2334   52.2187   24.1829 H   0  0  0  0  0  0
  1  2  1  0  0  0
  1 39  1  0  0  0
  1 40  1  0  0  0
  1 41  1  0  0  0
  2  3  1  0  0  0
  2 42  1  0  0  0
  2 43  1  0  0  0
  3  4  1  0  0  0
  3  5  1  0  0  0
  3  6  1  0  0  0
  5 44  1  0  0  0
  5 45  1  0  0  0
  5 46  1  0  0  0
  6  7  1  0  0  0
  6  8  1  0  0  0
  6 25  1  0  0  0
  8  9  2  0  0  0
  8 10  1  0  0  0
 10 15  1  0  0  0
 10 11  1  0  0  0
 11 12  1  0  0  0
 11 47  1  0  0  0
 11 48  1  0  0  0
 12 13  1  0  0  0
 12 49  1  0  0  0
 12 50  1  0  0  0
 13 14  1  0  0  0
 13 16  1  0  0  0
 14 15  1  0  0  0
 14 51  1  0  0  0
 14 52  1  0  0  0
 15 53  1  0  0  0
 15 54  1  0  0  0
 16 17  1  0  0  0
 16 55  1  0  0  0
 16 56  1  0  0  0
 17 18  2  0  0  0
 17 57  1  0  0  0
 18 19  1  0  0  0
 18 58  1  0  0  0
 19 24  2  0  0  0
 19 20  1  0  0  0
 20 21  2  0  0  0
 20 59  1  0  0  0
 21 22  1  0  0  0
 21 60  1  0  0  0
 22 23  2  0  0  0
 22 61  1  0  0  0
 23 24  1  0  0  0
 23 62  1  0  0  0
 24 63  1  0  0  0
 25 26  1  0  0  0
 25 64  1  0  0  0
 26 27  2  0  0  0
 26 28  1  0  0  0
 28 29  1  0  0  0
 28 65  1  0  0  0
 29 34  2  0  0  0
 29 30  1  0  0  0
 30 31  2  0  0  0
 30 66  1  0  0  0
 31 32  1  0  0  0
 31 67  1  0  0  0
 32 33  2  0  0  0
 32 68  1  0  0  0
 33 34  1  0  0  0
 33 35  1  0  0  0
 34 69  1  0  0  0
 35 36  1  0  0  0
 35 37  1  0  0  0
 35 38  1  0  0  0
M  END
> <i_i_glide_confnum>
17

> <i_i_glide_lignum>
2976

> <i_i_glide_posenum>
394

> <i_i_glide_rotatable_bonds>
12

> <i_m_Source_File_Index>
2908

> <b_m_subgroup_collapsed>
0

> <r_i_docking_score>
-5.38367

> <r_i_glide_ecoul>
-2.28253

> <r_i_glide_eff_state_penalty>
0

> <r_i_glide_einternal>
16.7541

> <r_i_glide_emodel>
-57.8722

> <r_i_glide_energy>
-49.962

> <r_i_glide_erotb>
0.728118

> <r_i_glide_esite>
-0.0447911

> <r_i_glide_evdw>
-47.6795

> <r_i_glide_gscore>
-5.38367

> <r_i_glide_hbond>
0

> <r_i_glide_ligand_efficiency>
-0.149546

> <r_i_glide_ligand_efficiency_ln>
-1.17457

> <r_i_glide_ligand_efficiency_sa>
-0.493791

> <r_i_glide_lipo>
-2.66879

> <r_i_glide_metal>
0

> <r_i_glide_rewards>
-0.671852

> <s_i_glide_gridfile>
wee1_glide-grid

> <s_m_Source_File>
wee1_decoys_glide_SP.sdf

> <s_m_Source_Path>
/Users/zhangxujun/Desktop

> <s_m_entry_id>
3183

> <s_m_entry_name>
wee1_decoys_glide_SP.2908

> <s_m_subgroup_title>
wee1_decoys_glide_SP

> <s_m_subgroupid>
wee1_decoys_glide_SP


$$$$
