ZINC59337003_1003
                    3D
 Schrodinger Suite 2024-2.
 48 49  0  0  1  0            999 V2000
    2.7994   58.4533   14.8627 C   0  0  0  0  0  0
    3.3676   58.3121   16.2809 C   0  0  0  0  0  0
    4.7680   57.6747   16.3082 C   0  0  0  0  0  0
    5.3564   57.6281   17.7330 C   0  0  0  0  0  0
    6.6980   56.8620   17.8572 C   0  0  2  0  0  0
    6.5586   55.5366   17.3865 O   0  0  0  0  0  0
    5.9774   54.5877   18.1845 C   0  0  0  0  0  0
    5.6204   53.5689   17.5971 O   0  0  0  0  0  0
    5.8643   54.8995   19.6199 C   0  0  0  0  0  0
    5.1202   54.0628   20.3983 C   0  0  0  0  0  0
    4.8290   54.0946   21.8520 C   0  0  0  0  0  0
    5.8204   54.1137   22.8413 C   0  0  0  0  0  0
    5.4829   54.1826   24.1989 C   0  0  0  0  0  0
    4.1262   54.2232   24.5809 C   0  0  0  0  0  0
    3.1393   54.1292   23.5936 C   0  0  0  0  0  0
    3.4921   54.0635   22.2485 C   0  0  0  0  0  0
    1.1056   54.0960   24.0815 I   0  0  0  0  0  0
    3.7415   54.4110   25.8913 O   0  0  0  0  0  0
    3.9039   53.2965   26.7699 C   0  0  0  0  0  0
    3.6457   53.7250   28.2278 C   0  0  0  0  0  0
    3.8265   52.8493   29.1049 O   0  0  0  0  0  0
    3.2749   54.8968   28.4690 O   0  5  0  0  0  0
    6.5047   54.1521   25.1195 O   0  0  0  0  0  0
    6.6892   55.3348   25.8785 C   0  0  0  0  0  0
    6.5548   56.0985   20.1300 C   0  0  0  0  0  0
    6.7050   56.4811   21.2820 O   0  0  0  0  0  0
    7.1266   56.9207   19.2015 O   0  0  0  0  0  0
    7.8559   57.4488   17.0567 C   0  0  0  0  0  0
    1.8122   58.9136   14.8875 H   0  0  0  0  0  0
    3.4399   59.0788   14.2407 H   0  0  0  0  0  0
    2.6996   57.4817   14.3783 H   0  0  0  0  0  0
    2.6773   57.7200   16.8834 H   0  0  0  0  0  0
    3.4071   59.2967   16.7483 H   0  0  0  0  0  0
    5.4362   58.2425   15.6592 H   0  0  0  0  0  0
    4.7098   56.6695   15.8897 H   0  0  0  0  0  0
    4.6254   57.1847   18.4091 H   0  0  0  0  0  0
    5.5299   58.6486   18.0835 H   0  0  0  0  0  0
    4.6511   53.2118   19.9170 H   0  0  0  0  0  0
    6.8637   54.0977   22.5614 H   0  0  0  0  0  0
    2.7073   54.0103   21.5071 H   0  0  0  0  0  0
    4.9122   52.8898   26.6955 H   0  0  0  0  0  0
    3.1710   52.5322   26.5054 H   0  0  0  0  0  0
    7.3904   55.1288   26.6861 H   0  0  0  0  0  0
    7.1053   56.1256   25.2546 H   0  0  0  0  0  0
    5.7716   55.6966   26.3407 H   0  0  0  0  0  0
    8.7777   56.9025   17.2621 H   0  0  0  0  0  0
    7.6486   57.3873   15.9880 H   0  0  0  0  0  0
    8.0002   58.4956   17.3262 H   0  0  0  0  0  0
  1  2  1  0  0  0
  1 29  1  0  0  0
  1 30  1  0  0  0
  1 31  1  0  0  0
  2  3  1  0  0  0
  2 32  1  0  0  0
  2 33  1  0  0  0
  3  4  1  0  0  0
  3 34  1  0  0  0
  3 35  1  0  0  0
  4  5  1  0  0  0
  4 36  1  0  0  0
  4 37  1  0  0  0
  5 27  1  0  0  0
  5  6  1  0  0  0
  5 28  1  0  0  0
  6  7  1  0  0  0
  7  8  2  0  0  0
  7  9  1  0  0  0
  9 10  2  0  0  0
  9 25  1  0  0  0
 10 11  1  0  0  0
 10 38  1  0  0  0
 11 16  2  0  0  0
 11 12  1  0  0  0
 12 13  2  0  0  0
 12 39  1  0  0  0
 13 14  1  0  0  0
 13 23  1  0  0  0
 14 15  2  0  0  0
 14 18  1  0  0  0
 15 16  1  0  0  0
 15 17  1  0  0  0
 16 40  1  0  0  0
 18 19  1  0  0  0
 19 20  1  0  0  0
 19 41  1  0  0  0
 19 42  1  0  0  0
 20 21  2  0  0  0
 20 22  1  0  0  0
 23 24  1  0  0  0
 24 43  1  0  0  0
 24 44  1  0  0  0
 24 45  1  0  0  0
 25 26  2  0  0  0
 25 27  1  0  0  0
 28 46  1  0  0  0
 28 47  1  0  0  0
 28 48  1  0  0  0
M  CHG  1  22  -1
M  END
> <i_i_glide_confnum>
316

> <i_i_glide_lignum>
1004

> <i_i_glide_posenum>
35

> <i_i_glide_rotatable_bonds>
8

> <i_m_Source_File_Index>
4270

> <b_m_subgroup_collapsed>
0

> <r_i_docking_score>
-4.50109

> <r_i_glide_ecoul>
-3.7498

> <r_i_glide_eff_state_penalty>
0

> <r_i_glide_einternal>
12.4483

> <r_i_glide_emodel>
-47.5015

> <r_i_glide_energy>
-41.1009

> <r_i_glide_erotb>
0.403493

> <r_i_glide_esite>
-0.00632593

> <r_i_glide_evdw>
-37.3511

> <r_i_glide_gscore>
-4.50109

> <r_i_glide_hbond>
-0.20307

> <r_i_glide_ligand_efficiency>
-0.160753

> <r_i_glide_ligand_efficiency_ln>
-1.03898

> <r_i_glide_ligand_efficiency_sa>
-0.488141

> <r_i_glide_lipo>
-1.86692

> <r_i_glide_metal>
0

> <r_i_glide_rewards>
-0.398237

> <s_i_glide_gridfile>
wee1_glide-grid

> <s_m_Source_File>
wee1_decoys_glide_SP.sdf

> <s_m_Source_Path>
/Users/zhangxujun/Desktop

> <s_m_entry_id>
4545

> <s_m_entry_name>
wee1_decoys_glide_SP.4270

> <s_m_subgroup_title>
wee1_decoys_glide_SP

> <s_m_subgroupid>
wee1_decoys_glide_SP


$$$$
