ZINC67160900_6227
                    3D
 Schrodinger Suite 2024-2.
 57 60  0  0  1  0            999 V2000
    5.4387   54.2771   20.9046 C   0  0  0  0  0  0
    5.2990   54.1563   22.2850 C   0  0  0  0  0  0
    4.2311   53.2964   22.4654 N   0  3  0  0  0  0
    3.7650   52.8403   21.2536 C   0  0  0  0  0  0
    4.4939   53.4830   20.2677 N   0  0  0  0  0  0
    4.3515   53.2326   18.8300 C   0  0  0  0  0  0
    2.9861   52.5502   18.5551 C   0  0  0  0  0  0
    2.6820   51.4052   19.5440 C   0  0  0  0  0  0
    2.5979   51.8998   21.0047 C   0  0  0  0  0  0
    6.0732   54.7659   23.4388 C   0  0  0  0  0  0
    5.2034   55.1618   24.6547 C   0  0  0  0  0  0
    5.3249   54.2557   25.8015 N   0  0  0  0  0  0
    6.2686   54.4075   26.7465 C   0  0  0  0  0  0
    7.1040   55.2966   26.6765 O   0  0  0  0  0  0
    6.2994   53.4572   27.9519 C   0  0  0  0  0  0
    4.9171   53.0412   28.4913 C   0  0  0  0  0  0
    4.0518   54.2153   29.0016 C   0  0  0  0  0  0
    2.6741   53.8144   29.5709 C   0  0  0  0  0  0
    1.5178   53.7187   28.5428 C   0  0  1  0  0  0
    1.5143   54.6212   27.9307 H   0  0  0  0  0  0
    1.4716   52.4442   27.6598 C   0  0  1  0  0  0
    2.4589   52.0985   27.3798 H   0  0  0  0  0  0
    0.6890   51.3447   28.3623 C   0  0  1  0  0  0
    1.3469   50.5074   28.6148 H   0  0  0  0  0  0
    0.0219   51.8927   29.6412 C   0  0  0  0  0  0
   -0.0573   53.6860   29.4313 S   0  0  0  0  0  0
   -0.2055   50.8951   27.3124 N   0  0  0  0  0  0
   -0.1484   51.5718   26.1586 C   0  0  0  0  0  0
   -0.5971   51.2460   25.0640 O   0  0  0  0  0  0
    0.7121   52.5614   26.4266 N   0  0  0  0  0  0
    6.1457   54.8448   20.3167 H   0  0  0  0  0  0
    5.1657   52.5727   18.5235 H   0  0  0  0  0  0
    4.4565   54.1664   18.2781 H   0  0  0  0  0  0
    2.9805   52.1620   17.5360 H   0  0  0  0  0  0
    2.1885   53.2948   18.5973 H   0  0  0  0  0  0
    3.4603   50.6440   19.4540 H   0  0  0  0  0  0
    1.7527   50.9055   19.2650 H   0  0  0  0  0  0
    1.6571   52.4310   21.1596 H   0  0  0  0  0  0
    2.6012   51.0555   21.6952 H   0  0  0  0  0  0
    6.8673   54.0883   23.7577 H   0  0  0  0  0  0
    6.6119   55.6489   23.0896 H   0  0  0  0  0  0
    5.5045   56.1682   24.9573 H   0  0  0  0  0  0
    4.1549   55.2918   24.3832 H   0  0  0  0  0  0
    4.6512   53.5102   25.9011 H   0  0  0  0  0  0
    6.8704   52.5728   27.6692 H   0  0  0  0  0  0
    6.8708   53.9294   28.7537 H   0  0  0  0  0  0
    4.4147   52.4965   27.7025 H   0  0  0  0  0  0
    5.0617   52.3210   29.2987 H   0  0  0  0  0  0
    4.6155   54.7244   29.7860 H   0  0  0  0  0  0
    3.9136   54.9642   28.2214 H   0  0  0  0  0  0
    2.7590   52.8916   30.1446 H   0  0  0  0  0  0
    2.3971   54.5841   30.2936 H   0  0  0  0  0  0
    0.6481   51.7160   30.5162 H   0  0  0  0  0  0
   -0.9706   51.4775   29.8332 H   0  0  0  0  0  0
   -0.9645   50.2576   27.5308 H   0  0  0  0  0  0
    0.7082   53.4199   25.8993 H   0  0  0  0  0  0
    3.8639   53.0152   23.3617 H   0  0  0  0  0  0
  1  5  1  0  0  0
  1  2  2  0  0  0
  1 31  1  0  0  0
  2  3  1  0  0  0
  2 10  1  0  0  0
  3  4  2  0  0  0
  3 57  1  0  0  0
  4  9  1  0  0  0
  4  5  1  0  0  0
  5  6  1  0  0  0
  6  7  1  0  0  0
  6 32  1  0  0  0
  6 33  1  0  0  0
  7  8  1  0  0  0
  7 34  1  0  0  0
  7 35  1  0  0  0
  8  9  1  0  0  0
  8 36  1  0  0  0
  8 37  1  0  0  0
  9 38  1  0  0  0
  9 39  1  0  0  0
 10 11  1  0  0  0
 10 40  1  0  0  0
 10 41  1  0  0  0
 11 12  1  0  0  0
 11 42  1  0  0  0
 11 43  1  0  0  0
 12 13  1  0  0  0
 12 44  1  0  0  0
 13 14  2  0  0  0
 13 15  1  0  0  0
 15 16  1  0  0  0
 15 45  1  0  0  0
 15 46  1  0  0  0
 16 17  1  0  0  0
 16 47  1  0  0  0
 16 48  1  0  0  0
 17 18  1  0  0  0
 17 49  1  0  0  0
 17 50  1  0  0  0
 18 19  1  0  0  0
 18 51  1  0  0  0
 18 52  1  0  0  0
 19 20  1  0  0  0
 19 26  1  0  0  0
 19 21  1  0  0  0
 21 22  1  0  0  0
 21 30  1  0  0  0
 21 23  1  0  0  0
 23 24  1  0  0  0
 23 25  1  0  0  0
 23 27  1  0  0  0
 25 26  1  0  0  0
 25 53  1  0  0  0
 25 54  1  0  0  0
 27 28  1  0  0  0
 27 55  1  0  0  0
 28 29  2  0  0  0
 28 30  1  0  0  0
 30 56  1  0  0  0
M  CHG  1   3   1
M  END
> <i_i_glide_confnum>
50

> <i_i_glide_lignum>
6228

> <i_i_glide_posenum>
80

> <i_i_glide_rotatable_bonds>
9

> <i_m_Source_File_Index>
5028

> <b_m_subgroup_collapsed>
0

> <r_i_docking_score>
-5.85778

> <r_i_glide_ecoul>
-7.00851

> <r_i_glide_eff_state_penalty>
0

> <r_i_glide_einternal>
8.0274

> <r_i_glide_emodel>
-59.6952

> <r_i_glide_energy>
-43.5121

> <r_i_glide_erotb>
0.887032

> <r_i_glide_esite>
-0.0887733

> <r_i_glide_evdw>
-36.5036

> <r_i_glide_gscore>
-5.85778

> <r_i_glide_hbond>
-0.412027

> <r_i_glide_ligand_efficiency>
-0.216955

> <r_i_glide_ligand_efficiency_ln>
-1.36359

> <r_i_glide_ligand_efficiency_sa>
-0.650864

> <r_i_glide_lipo>
-2.07046

> <r_i_glide_metal>
0

> <r_i_glide_rewards>
-1.29709

> <s_i_glide_gridfile>
wee1_glide-grid

> <s_m_Source_File>
wee1_decoys_glide_SP.sdf

> <s_m_Source_Path>
/Users/zhangxujun/Desktop

> <s_m_entry_id>
5303

> <s_m_entry_name>
wee1_decoys_glide_SP.5028

> <s_m_subgroup_title>
wee1_decoys_glide_SP

> <s_m_subgroupid>
wee1_decoys_glide_SP


$$$$
