ZINC63479832_1260
                    3D
 Schrodinger Suite 2024-2.
 61 67  0  0  1  0            999 V2000
    5.3619   54.0996   25.8511 C   0  0  0  0  0  0
    5.4800   54.3759   24.3645 C   0  0  0  0  0  0
    6.6701   54.8869   23.8482 C   0  0  0  0  0  0
    6.7933   55.1270   22.4817 C   0  0  0  0  0  0
    5.7263   54.8552   21.6148 C   0  0  0  0  0  0
    4.5331   54.3327   22.1428 C   0  0  0  0  0  0
    4.4134   54.0968   23.5109 C   0  0  0  0  0  0
    5.8564   55.0961   20.2183 N   0  0  0  0  0  0
    5.4903   54.1931   19.2685 C   0  0  0  0  0  0
    4.9816   53.0888   19.4592 O   0  0  0  0  0  0
    5.7373   54.7856   17.8843 C   0  0  2  0  0  0
    4.7697   54.8336   17.3818 H   0  0  0  0  0  0
    6.7944   54.0513   17.0135 C   0  0  1  0  0  0
    6.5516   54.2774   15.9751 H   0  0  0  0  0  0
    8.0431   54.7431   17.2752 N   0  0  0  0  0  0
    7.7037   56.1611   17.3876 C   0  0  2  0  0  0
    6.3261   56.1477   18.1553 C   0  0  2  0  0  0
    5.6577   56.9271   17.7852 H   0  0  0  0  0  0
    6.3445   56.2511   19.6870 C   0  0  0  0  0  0
    6.7006   57.2627   20.3009 O   0  0  0  0  0  0
    7.6668   56.9330   16.0886 C   0  0  0  0  0  0
    6.8244   56.8428   14.9747 C   0  0  0  0  0  0
    6.9948   57.7250   13.9046 C   0  0  0  0  0  0
    7.9990   58.6954   13.9458 C   0  0  0  0  0  0
    8.8371   58.7921   15.0603 C   0  0  0  0  0  0
    8.6508   57.9048   16.1194 C   0  0  0  0  0  0
    9.3469   57.8214   17.3092 N   0  0  0  0  0  0
    8.8985   56.8449   18.1137 C   0  0  0  0  0  0
    9.3554   56.5464   19.2136 O   0  0  0  0  0  0
    6.8677   52.5033   17.0517 C   0  0  0  0  0  0
    8.1061   51.8882   16.4165 C   0  0  0  0  0  0
    8.3569   51.4894   15.1561 C   0  0  0  0  0  0
    7.5326   51.5625   13.9420 C   0  0  0  0  0  0
    7.9924   51.0845   12.7663 C   0  0  0  0  0  0
    9.3256   50.4964   12.7409 C   0  0  0  0  0  0
   10.0970   50.4128   13.8555 C   0  0  0  0  0  0
    9.6255   50.9007   15.0810 C   0  0  0  0  0  0
   10.2033   50.9011   16.2580 N   0  3  0  0  0  0
    9.3144   51.5226   17.2521 C   0  0  0  0  0  0
    6.3029   53.7103   26.2436 H   0  0  0  0  0  0
    5.1172   55.0144   26.3920 H   0  0  0  0  0  0
    4.6008   53.3462   26.0609 H   0  0  0  0  0  0
    7.5047   55.0980   24.4980 H   0  0  0  0  0  0
    7.7292   55.5166   22.1051 H   0  0  0  0  0  0
    3.6889   54.1213   21.4985 H   0  0  0  0  0  0
    3.4888   53.6979   23.9026 H   0  0  0  0  0  0
    8.6846   54.6028   16.5070 H   0  0  0  0  0  0
    6.0266   56.1160   14.9304 H   0  0  0  0  0  0
    6.3413   57.6624   13.0468 H   0  0  0  0  0  0
    8.1205   59.3794   13.1185 H   0  0  0  0  0  0
    9.6082   59.5485   15.0875 H   0  0  0  0  0  0
   10.1316   58.4024   17.5542 H   0  0  0  0  0  0
    5.9777   52.0965   16.5706 H   0  0  0  0  0  0
    6.8363   52.1280   18.0729 H   0  0  0  0  0  0
    6.5426   51.9956   13.9633 H   0  0  0  0  0  0
    7.3898   51.1347   11.8715 H   0  0  0  0  0  0
    9.7269   50.1153   11.8105 H   0  0  0  0  0  0
   11.0776   49.9626   13.7650 H   0  0  0  0  0  0
    9.1055   50.7868   18.0314 H   0  0  0  0  0  0
    9.8328   52.3826   17.6818 H   0  0  0  0  0  0
   11.1266   50.5293   16.4684 H   0  0  0  0  0  0
  1  2  1  0  0  0
  1 40  1  0  0  0
  1 41  1  0  0  0
  1 42  1  0  0  0
  2  7  2  0  0  0
  2  3  1  0  0  0
  3  4  2  0  0  0
  3 43  1  0  0  0
  4  5  1  0  0  0
  4 44  1  0  0  0
  5  6  2  0  0  0
  5  8  1  0  0  0
  6  7  1  0  0  0
  6 45  1  0  0  0
  7 46  1  0  0  0
  8 19  1  0  0  0
  8  9  1  0  0  0
  9 10  2  0  0  0
  9 11  1  0  0  0
 11 12  1  0  0  0
 11 17  1  0  0  0
 11 13  1  0  0  0
 13 14  1  0  0  0
 13 15  1  0  0  0
 13 30  1  0  0  0
 15 16  1  0  0  0
 15 47  1  0  0  0
 16 28  1  0  0  0
 16 17  1  0  0  0
 16 21  1  0  0  0
 17 18  1  0  0  0
 17 19  1  0  0  0
 19 20  2  0  0  0
 21 26  2  0  0  0
 21 22  1  0  0  0
 22 23  2  0  0  0
 22 48  1  0  0  0
 23 24  1  0  0  0
 23 49  1  0  0  0
 24 25  2  0  0  0
 24 50  1  0  0  0
 25 26  1  0  0  0
 25 51  1  0  0  0
 26 27  1  0  0  0
 27 28  1  0  0  0
 27 52  1  0  0  0
 28 29  2  0  0  0
 30 31  1  0  0  0
 30 53  1  0  0  0
 30 54  1  0  0  0
 31 39  1  0  0  0
 31 32  2  0  0  0
 32 37  1  0  0  0
 32 33  1  0  0  0
 33 34  2  0  0  0
 33 55  1  0  0  0
 34 35  1  0  0  0
 34 56  1  0  0  0
 35 36  2  0  0  0
 35 57  1  0  0  0
 36 37  1  0  0  0
 36 58  1  0  0  0
 37 38  2  0  0  0
 38 39  1  0  0  0
 38 61  1  0  0  0
 39 59  1  0  0  0
 39 60  1  0  0  0
M  CHG  1  38   1
M  END
> <i_i_glide_confnum>
15

> <i_i_glide_lignum>
1261

> <i_i_glide_posenum>
351

> <i_i_glide_rotatable_bonds>
3

> <i_m_Source_File_Index>
4715

> <b_m_subgroup_collapsed>
0

> <r_i_docking_score>
-4.94686

> <r_i_glide_ecoul>
-7.27824

> <r_i_glide_eff_state_penalty>
0

> <r_i_glide_einternal>
2.53508

> <r_i_glide_emodel>
-52.4034

> <r_i_glide_energy>
-39.7957

> <r_i_glide_erotb>
0.266505

> <r_i_glide_esite>
-0.0113461

> <r_i_glide_evdw>
-32.5174

> <r_i_glide_gscore>
-4.94686

> <r_i_glide_hbond>
-0.32

> <r_i_glide_ligand_efficiency>
-0.137413

> <r_i_glide_ligand_efficiency_ln>
-1.07927

> <r_i_glide_ligand_efficiency_sa>
-0.453727

> <r_i_glide_lipo>
-1.71204

> <r_i_glide_metal>
0

> <r_i_glide_rewards>
-0.452365

> <s_i_glide_gridfile>
wee1_glide-grid

> <s_m_Source_File>
wee1_decoys_glide_SP.sdf

> <s_m_Source_Path>
/Users/zhangxujun/Desktop

> <s_m_entry_id>
4990

> <s_m_entry_name>
wee1_decoys_glide_SP.4715

> <s_m_subgroup_title>
wee1_decoys_glide_SP

> <s_m_subgroupid>
wee1_decoys_glide_SP


$$$$
