ZINC13154799_1345
                    3D
 Schrodinger Suite 2024-2.
 42 44  0  0  1  0            999 V2000
   -3.8670   52.7520   25.7301 C   0  0  0  0  0  0
   -3.5148   51.6185   26.7065 C   0  0  0  0  0  0
   -2.4354   50.9344   26.6938 N   0  0  0  0  0  0
   -1.4962   51.2219   25.7449 N   0  3  0  0  0  0
   -0.4590   50.4104   25.5001 C   0  0  0  0  0  0
   -0.2693   49.2243   26.0816 N   0  0  0  0  0  0
    0.7082   50.8862   24.3006 S   0  0  0  0  0  0
    0.8471   52.7050   24.4536 C   0  0  2  0  0  0
   -0.1258   53.1398   24.6767 H   0  0  0  0  0  0
    1.4215   53.3455   23.2334 C   0  0  0  0  0  0
    2.7453   53.9209   23.6728 C   0  0  0  0  0  0
    3.4941   54.4966   22.8860 O   0  0  0  0  0  0
    2.9206   53.6968   25.0141 N   0  0  0  0  0  0
    1.8340   53.0516   25.5542 C   0  0  0  0  0  0
    1.6338   52.7345   26.7288 O   0  0  0  0  0  0
    4.1158   54.0422   25.7439 C   0  0  0  0  0  0
    5.3679   54.0970   25.0945 C   0  0  0  0  0  0
    6.5411   54.3593   25.7910 C   0  0  0  0  0  0
    6.4927   54.5422   27.1660 C   0  0  0  0  0  0
    5.2785   54.4969   27.8412 C   0  0  0  0  0  0
    4.0981   54.2732   27.1345 C   0  0  0  0  0  0
   -4.5149   51.3353   27.7477 C   0  0  0  0  0  0
   -5.8665   51.6974   27.7732 C   0  0  0  0  0  0
   -6.5329   51.3020   28.9395 C   0  0  0  0  0  0
   -5.7032   50.6324   29.8264 C   0  0  0  0  0  0
   -4.0957   50.4774   29.2120 S   0  0  0  0  0  0
   -4.4782   53.5191   26.2146 H   0  0  0  0  0  0
   -2.9852   53.2892   25.3736 H   0  0  0  0  0  0
   -4.4206   52.3684   24.8665 H   0  0  0  0  0  0
   -0.8960   48.9144   26.8296 H   0  0  0  0  0  0
    1.5650   52.6590   22.3967 H   0  0  0  0  0  0
    0.7987   54.1657   22.8823 H   0  0  0  0  0  0
    5.4753   53.8991   24.0422 H   0  0  0  0  0  0
    7.4836   54.3887   25.2625 H   0  0  0  0  0  0
    7.4065   54.7262   27.7103 H   0  0  0  0  0  0
    5.2517   54.6587   28.9087 H   0  0  0  0  0  0
    3.1781   54.2808   27.6972 H   0  0  0  0  0  0
   -6.3628   52.2298   26.9746 H   0  0  0  0  0  0
   -7.5808   51.4930   29.1231 H   0  0  0  0  0  0
   -5.9526   50.2165   30.7925 H   0  0  0  0  0  0
    0.5189   48.6395   25.8412 H   0  0  0  0  0  0
   -1.6145   52.0633   25.2016 H   0  0  0  0  0  0
  1  2  1  0  0  0
  1 27  1  0  0  0
  1 28  1  0  0  0
  1 29  1  0  0  0
  2  3  2  0  0  0
  2 22  1  0  0  0
  3  4  1  0  0  0
  4  5  2  0  0  0
  4 42  1  0  0  0
  5  6  1  0  0  0
  5  7  1  0  0  0
  6 30  1  0  0  0
  6 41  1  0  0  0
  7  8  1  0  0  0
  8  9  1  0  0  0
  8 14  1  0  0  0
  8 10  1  0  0  0
 10 11  1  0  0  0
 10 31  1  0  0  0
 10 32  1  0  0  0
 11 12  2  0  0  0
 11 13  1  0  0  0
 13 14  1  0  0  0
 13 16  1  0  0  0
 14 15  2  0  0  0
 16 21  2  0  0  0
 16 17  1  0  0  0
 17 18  2  0  0  0
 17 33  1  0  0  0
 18 19  1  0  0  0
 18 34  1  0  0  0
 19 20  2  0  0  0
 19 35  1  0  0  0
 20 21  1  0  0  0
 20 36  1  0  0  0
 21 37  1  0  0  0
 22 26  1  0  0  0
 22 23  2  0  0  0
 23 24  1  0  0  0
 23 38  1  0  0  0
 24 25  2  0  0  0
 24 39  1  0  0  0
 25 26  1  0  0  0
 25 40  1  0  0  0
M  CHG  1   4   1
M  END
> <i_i_glide_confnum>
47

> <i_i_glide_lignum>
1346

> <i_i_glide_posenum>
102

> <i_i_glide_rotatable_bonds>
5

> <i_m_Source_File_Index>
3902

> <b_m_subgroup_collapsed>
0

> <r_i_docking_score>
-5.77979

> <r_i_glide_ecoul>
-1.41815

> <r_i_glide_eff_state_penalty>
0

> <r_i_glide_einternal>
7.80562

> <r_i_glide_emodel>
-48.3807

> <r_i_glide_energy>
-36.1367

> <r_i_glide_erotb>
0.554203

> <r_i_glide_esite>
-0.192754

> <r_i_glide_evdw>
-34.7185

> <r_i_glide_gscore>
-5.77979

> <r_i_glide_hbond>
-0.2

> <r_i_glide_ligand_efficiency>
-0.231192

> <r_i_glide_ligand_efficiency_ln>
-1.36998

> <r_i_glide_ligand_efficiency_sa>
-0.676009

> <r_i_glide_lipo>
-2.15092

> <r_i_glide_metal>
0

> <r_i_glide_rewards>
-1.84167

> <s_i_glide_gridfile>
wee1_glide-grid

> <s_m_Source_File>
wee1_decoys_glide_SP.sdf

> <s_m_Source_Path>
/Users/zhangxujun/Desktop

> <s_m_entry_id>
4177

> <s_m_entry_name>
wee1_decoys_glide_SP.3902

> <s_m_subgroup_title>
wee1_decoys_glide_SP

> <s_m_subgroupid>
wee1_decoys_glide_SP


$$$$
