ZINC39676895_3688
                    3D
 Schrodinger Suite 2024-2.
 68 71  0  0  1  0            999 V2000
    1.6670   51.8925   27.7498 C   0  0  0  0  0  0
    0.2857   51.4778   27.2835 C   0  0  0  0  0  0
   -0.8500   52.0846   27.8172 C   0  0  0  0  0  0
   -2.1175   51.6682   27.4130 C   0  0  0  0  0  0
   -2.2705   50.6589   26.4641 C   0  0  0  0  0  0
   -1.1318   50.0421   25.9135 C   0  0  0  0  0  0
    0.1391   50.4608   26.3375 C   0  0  0  0  0  0
   -1.2995   48.8657   24.9408 C   0  0  0  0  0  0
   -0.0957   48.4815   24.0525 C   0  0  0  0  0  0
    0.5080   49.6076   23.3387 N   0  0  0  0  0  0
   -0.0933   50.3649   22.4006 C   0  0  0  0  0  0
   -1.2427   50.1539   22.0166 O   0  0  0  0  0  0
    0.6815   51.5507   21.7675 C   0  0  1  0  0  0
    0.0051   52.4067   21.7616 H   0  0  0  0  0  0
    1.8913   51.9663   22.6354 C   0  0  0  0  0  0
    2.7141   52.7391   21.7018 N   0  0  0  0  0  0
    2.3668   52.4120   20.3137 C   0  0  0  0  0  0
    1.2994   51.2782   20.3720 C   0  0  0  0  0  0
    0.2862   51.3334   19.2004 C   0  0  0  0  0  0
    1.0109   51.2488   17.8354 C   0  0  0  0  0  0
    1.7994   49.9169   17.7683 N   0  3  0  0  0  0
    2.7044   49.6459   18.9860 C   0  0  0  0  0  0
    1.9194   49.8466   20.2825 C   0  0  0  0  0  0
    3.6757   53.6647   21.9854 C   0  0  0  0  0  0
    4.3083   54.2357   21.0950 O   0  0  0  0  0  0
    4.0667   53.9385   23.4228 C   0  0  0  0  0  0
    3.1182   54.1816   24.4237 C   0  0  0  0  0  0
    3.5175   54.3014   25.7515 C   0  0  0  0  0  0
    4.8696   54.2187   26.0957 C   0  0  0  0  0  0
    5.8258   54.0972   25.0848 C   0  0  0  0  0  0
    5.4264   53.9632   23.7583 C   0  0  0  0  0  0
    5.3018   54.2710   27.5613 C   0  0  0  0  0  0
    4.4048   54.8959   28.3255 F   0  0  0  0  0  0
    5.4418   53.0293   28.0211 F   0  0  0  0  0  0
    6.4708   54.8967   27.6813 F   0  0  0  0  0  0
   -3.6824   50.2160   26.0984 C   0  0  0  0  0  0
    1.6423   52.7928   28.3663 H   0  0  0  0  0  0
    2.3034   52.0991   26.8906 H   0  0  0  0  0  0
    2.1293   51.0849   28.3191 H   0  0  0  0  0  0
   -0.7534   52.8548   28.5689 H   0  0  0  0  0  0
   -2.9969   52.0955   27.8674 H   0  0  0  0  0  0
    1.0228   49.9705   25.9637 H   0  0  0  0  0  0
   -1.6139   47.9962   25.5202 H   0  0  0  0  0  0
   -2.1245   49.0918   24.2659 H   0  0  0  0  0  0
    0.7028   48.0960   24.6875 H   0  0  0  0  0  0
   -0.3787   47.7024   23.3425 H   0  0  0  0  0  0
    1.4602   49.8210   23.5950 H   0  0  0  0  0  0
    1.5373   52.4682   23.5306 H   0  0  0  0  0  0
    2.4953   51.1018   22.9125 H   0  0  0  0  0  0
    3.2126   52.2133   19.6577 H   0  0  0  0  0  0
    1.8722   53.2961   19.9107 H   0  0  0  0  0  0
   -0.4921   50.5760   19.3017 H   0  0  0  0  0  0
   -0.2346   52.2907   19.2336 H   0  0  0  0  0  0
    0.3204   51.2403   16.9891 H   0  0  0  0  0  0
    1.7420   52.0456   17.6857 H   0  0  0  0  0  0
    1.1564   49.1446   17.6684 H   0  0  0  0  0  0
    3.1042   48.6373   18.8713 H   0  0  0  0  0  0
    3.5043   50.3615   18.8825 H   0  0  0  0  0  0
    2.6256   49.6968   21.1006 H   0  0  0  0  0  0
    1.1700   49.0609   20.3952 H   0  0  0  0  0  0
    2.0666   54.2791   24.1914 H   0  0  0  0  0  0
    2.7642   54.4292   26.5164 H   0  0  0  0  0  0
    6.8781   54.0576   25.3224 H   0  0  0  0  0  0
    6.1850   53.8269   22.9995 H   0  0  0  0  0  0
   -3.7820   49.1367   26.2219 H   0  0  0  0  0  0
   -4.4416   50.6815   26.7287 H   0  0  0  0  0  0
   -3.8986   50.4557   25.0569 H   0  0  0  0  0  0
    2.4183   49.8849   16.9569 H   0  0  0  0  0  0
  1  2  1  0  0  0
  1 37  1  0  0  0
  1 38  1  0  0  0
  1 39  1  0  0  0
  2  7  2  0  0  0
  2  3  1  0  0  0
  3  4  2  0  0  0
  3 40  1  0  0  0
  4  5  1  0  0  0
  4 41  1  0  0  0
  5  6  2  0  0  0
  5 36  1  0  0  0
  6  7  1  0  0  0
  6  8  1  0  0  0
  7 42  1  0  0  0
  8  9  1  0  0  0
  8 43  1  0  0  0
  8 44  1  0  0  0
  9 10  1  0  0  0
  9 45  1  0  0  0
  9 46  1  0  0  0
 10 11  1  0  0  0
 10 47  1  0  0  0
 11 12  2  0  0  0
 11 13  1  0  0  0
 13 14  1  0  0  0
 13 18  1  0  0  0
 13 15  1  0  0  0
 15 16  1  0  0  0
 15 48  1  0  0  0
 15 49  1  0  0  0
 16 17  1  0  0  0
 16 24  1  0  0  0
 17 18  1  0  0  0
 17 50  1  0  0  0
 17 51  1  0  0  0
 18 23  1  0  0  0
 18 19  1  0  0  0
 19 20  1  0  0  0
 19 52  1  0  0  0
 19 53  1  0  0  0
 20 21  1  0  0  0
 20 54  1  0  0  0
 20 55  1  0  0  0
 21 22  1  0  0  0
 21 56  1  0  0  0
 21 68  1  0  0  0
 22 23  1  0  0  0
 22 57  1  0  0  0
 22 58  1  0  0  0
 23 59  1  0  0  0
 23 60  1  0  0  0
 24 25  2  0  0  0
 24 26  1  0  0  0
 26 31  2  0  0  0
 26 27  1  0  0  0
 27 28  2  0  0  0
 27 61  1  0  0  0
 28 29  1  0  0  0
 28 62  1  0  0  0
 29 30  2  0  0  0
 29 32  1  0  0  0
 30 31  1  0  0  0
 30 63  1  0  0  0
 31 64  1  0  0  0
 32 33  1  0  0  0
 32 34  1  0  0  0
 32 35  1  0  0  0
 36 65  1  0  0  0
 36 66  1  0  0  0
 36 67  1  0  0  0
M  CHG  1  21   1
M  END
> <i_i_glide_confnum>
320

> <i_i_glide_lignum>
3689

> <i_i_glide_posenum>
253

> <i_i_glide_rotatable_bonds>
8

> <i_m_Source_File_Index>
5421

> <b_m_subgroup_collapsed>
0

> <r_i_docking_score>
-5.19062

> <r_i_glide_ecoul>
-2.98368

> <r_i_glide_eff_state_penalty>
0

> <r_i_glide_einternal>
5.25005

> <r_i_glide_emodel>
-52.6588

> <r_i_glide_energy>
-38.3175

> <r_i_glide_erotb>
0.596413

> <r_i_glide_esite>
-0.0984555

> <r_i_glide_evdw>
-35.3338

> <r_i_glide_gscore>
-5.19062

> <r_i_glide_hbond>
-0.139352

> <r_i_glide_ligand_efficiency>
-0.148303

> <r_i_glide_ligand_efficiency_ln>
-1.13946

> <r_i_glide_ligand_efficiency_sa>
-0.48511

> <r_i_glide_lipo>
-2.13056

> <r_i_glide_metal>
0

> <r_i_glide_rewards>
-1.20442

> <s_i_glide_gridfile>
wee1_glide-grid

> <s_m_Source_File>
wee1_decoys_glide_SP.sdf

> <s_m_Source_Path>
/Users/zhangxujun/Desktop

> <s_m_entry_id>
5696

> <s_m_entry_name>
wee1_decoys_glide_SP.5421

> <s_m_subgroup_title>
wee1_decoys_glide_SP

> <s_m_subgroupid>
wee1_decoys_glide_SP


$$$$
