ZINC40723738_1842
                    3D
 Schrodinger Suite 2024-2.
 42 44  0  0  1  0            999 V2000
    1.5570   51.6877   19.4547 C   0  0  0  0  0  0
    0.2726   51.5975   19.9881 C   0  0  0  0  0  0
    0.0768   50.9590   21.2099 C   0  0  0  0  0  0
    1.1674   50.4192   21.8992 C   0  0  0  0  0  0
    2.4515   50.5139   21.3558 C   0  0  0  0  0  0
    2.6478   51.1464   20.1310 C   0  0  0  0  0  0
    0.9589   49.7210   23.2397 C   0  0  0  0  0  0
    0.3566   50.6200   24.3460 C   0  0  0  0  0  0
    0.1700   49.8624   25.6750 C   0  0  0  0  0  0
   -0.4486   50.7529   26.7746 C   0  0  0  0  0  0
    0.3443   51.9732   27.0057 N   0  0  0  0  0  0
    0.5213   52.7351   25.7532 C   0  0  0  0  0  0
    1.1649   51.9040   24.6283 C   0  0  0  0  0  0
    0.9749   52.2869   28.2144 C   0  0  0  0  0  0
    0.3780   52.1414   29.4966 C   0  0  0  0  0  0
    1.1707   52.4843   30.6141 C   0  0  0  0  0  0
    2.4569   52.8966   30.4817 N   0  0  0  0  0  0
    2.9342   53.0178   29.2219 C   0  0  0  0  0  0
    2.2521   52.7469   28.0860 N   0  0  0  0  0  0
    0.7045   52.3925   31.9342 N   0  0  0  0  0  0
   -0.9422   51.6968   29.6733 N   0  0  0  0  0  0
    1.7113   52.1796   18.5057 H   0  0  0  0  0  0
   -0.5659   52.0184   19.4530 H   0  0  0  0  0  0
   -0.9197   50.8854   21.6201 H   0  0  0  0  0  0
    3.2972   50.0966   21.8796 H   0  0  0  0  0  0
    3.6384   51.2157   19.7015 H   0  0  0  0  0  0
    0.3059   48.8641   23.0691 H   0  0  0  0  0  0
    1.9037   49.2984   23.5861 H   0  0  0  0  0  0
   -0.6398   50.9412   24.0363 H   0  0  0  0  0  0
   -0.4661   48.9908   25.5127 H   0  0  0  0  0  0
    1.1044   49.4298   26.0320 H   0  0  0  0  0  0
   -1.4718   51.0309   26.5180 H   0  0  0  0  0  0
   -0.4956   50.1568   27.6815 H   0  0  0  0  0  0
   -0.4667   53.0550   25.4210 H   0  0  0  0  0  0
    1.1041   53.6418   25.9265 H   0  0  0  0  0  0
    2.2022   51.6969   24.8765 H   0  0  0  0  0  0
    1.2387   52.5044   23.7207 H   0  0  0  0  0  0
    3.9540   53.3576   29.1092 H   0  0  0  0  0  0
   -0.2513   52.0970   32.1628 H   0  0  0  0  0  0
    1.3642   52.4990   32.6917 H   0  0  0  0  0  0
   -1.2229   51.4210   30.6074 H   0  0  0  0  0  0
   -1.3750   51.2209   28.8925 H   0  0  0  0  0  0
  1  6  2  0  0  0
  1  2  1  0  0  0
  1 22  1  0  0  0
  2  3  2  0  0  0
  2 23  1  0  0  0
  3  4  1  0  0  0
  3 24  1  0  0  0
  4  5  2  0  0  0
  4  7  1  0  0  0
  5  6  1  0  0  0
  5 25  1  0  0  0
  6 26  1  0  0  0
  7  8  1  0  0  0
  7 27  1  0  0  0
  7 28  1  0  0  0
  8 13  1  0  0  0
  8  9  1  0  0  0
  8 29  1  0  0  0
  9 10  1  0  0  0
  9 30  1  0  0  0
  9 31  1  0  0  0
 10 11  1  0  0  0
 10 32  1  0  0  0
 10 33  1  0  0  0
 11 12  1  0  0  0
 11 14  1  0  0  0
 12 13  1  0  0  0
 12 34  1  0  0  0
 12 35  1  0  0  0
 13 36  1  0  0  0
 13 37  1  0  0  0
 14 19  2  0  0  0
 14 15  1  0  0  0
 15 16  2  0  0  0
 15 21  1  0  0  0
 16 17  1  0  0  0
 16 20  1  0  0  0
 17 18  2  0  0  0
 18 19  1  0  0  0
 18 38  1  0  0  0
 20 39  1  0  0  0
 20 40  1  0  0  0
 21 41  1  0  0  0
 21 42  1  0  0  0
M  END
> <i_i_glide_confnum>
21

> <i_i_glide_lignum>
1843

> <i_i_glide_posenum>
381

> <i_i_glide_rotatable_bonds>
3

> <i_m_Source_File_Index>
313

> <b_m_subgroup_collapsed>
0

> <r_i_docking_score>
-4.79593

> <r_i_glide_ecoul>
-8.27575

> <r_i_glide_eff_state_penalty>
0

> <r_i_glide_einternal>
1.838

> <r_i_glide_emodel>
-42.3988

> <r_i_glide_energy>
-33.2676

> <r_i_glide_erotb>
0.676568

> <r_i_glide_esite>
-0.164993

> <r_i_glide_evdw>
-24.9919

> <r_i_glide_gscore>
-4.79593

> <r_i_glide_hbond>
-0.466953

> <r_i_glide_ligand_efficiency>
-0.228378

> <r_i_glide_ligand_efficiency_ln>
-1.18578

> <r_i_glide_ligand_efficiency_sa>
-0.630076

> <r_i_glide_lipo>
-0.570554

> <r_i_glide_metal>
0

> <r_i_glide_rewards>
-1.77904

> <s_i_glide_gridfile>
wee1_glide-grid

> <s_m_Source_File>
wee1_decoys_glide_SP.sdf

> <s_m_Source_Path>
/Users/zhangxujun/Desktop

> <s_m_entry_id>
588

> <s_m_entry_name>
wee1_decoys_glide_SP.313

> <s_m_subgroup_title>
wee1_decoys_glide_SP

> <s_m_subgroupid>
wee1_decoys_glide_SP


$$$$
