ZINC02762599_1875
                    3D
 Schrodinger Suite 2024-2.
 43 45  0  0  1  0            999 V2000
    4.4406   52.6211   29.0202 C   0  0  0  0  0  0
    3.0296   52.8568   29.5949 C   0  0  0  0  0  0
    1.8855   52.6787   28.5713 C   0  0  0  0  0  0
    1.6988   53.8218   27.5506 C   0  0  0  0  0  0
    2.7537   53.9015   26.4504 C   0  0  0  0  0  0
    4.0756   54.3704   26.5156 C   0  0  0  0  0  0
    4.7678   54.3039   25.2652 C   0  0  0  0  0  0
    3.9198   53.8484   24.2302 C   0  0  0  0  0  0
    2.3387   53.4385   24.8367 S   0  0  0  0  0  0
    4.2668   53.6966   22.8821 N   0  0  0  0  0  0
    3.5738   53.1128   21.8797 C   0  0  0  0  0  0
    2.4384   52.6488   21.9834 O   0  0  0  0  0  0
    4.3687   52.9019   20.5758 C   0  0  0  0  0  0
    3.5040   52.7548   19.3088 C   0  0  0  0  0  0
    4.5995   53.5560   18.5845 C   0  0  0  0  0  0
    4.9494   54.1812   19.9465 C   0  0  0  0  0  0
    6.1514   54.7481   25.0671 C   0  0  0  0  0  0
    6.6655   55.6780   25.6821 O   0  0  0  0  0  0
    6.8534   54.0980   24.1376 N   0  0  0  0  0  0
    4.6315   54.8967   27.8294 C   0  0  0  0  0  0
    5.2843   53.8714   28.7465 C   0  0  0  0  0  0
    4.9987   51.9603   29.6841 H   0  0  0  0  0  0
    4.3605   52.0967   28.0756 H   0  0  0  0  0  0
    2.9604   53.8312   30.0796 H   0  0  0  0  0  0
    2.8678   52.1333   30.3948 H   0  0  0  0  0  0
    0.9559   52.5885   29.1362 H   0  0  0  0  0  0
    1.9896   51.7256   28.0496 H   0  0  0  0  0  0
    1.6330   54.7701   28.0847 H   0  0  0  0  0  0
    0.7116   53.6916   27.1065 H   0  0  0  0  0  0
    5.1868   54.0316   22.6406 H   0  0  0  0  0  0
    5.0889   52.0868   20.6799 H   0  0  0  0  0  0
    2.5508   53.2892   19.3297 H   0  0  0  0  0  0
    3.3465   51.7340   18.9551 H   0  0  0  0  0  0
    4.2492   54.2498   17.8191 H   0  0  0  0  0  0
    5.3902   52.9274   18.1655 H   0  0  0  0  0  0
    6.0071   54.3719   20.1301 H   0  0  0  0  0  0
    4.3735   55.0886   20.1328 H   0  0  0  0  0  0
    6.5284   53.2116   23.7847 H   0  0  0  0  0  0
    7.7895   54.4202   23.9232 H   0  0  0  0  0  0
    5.3505   55.6963   27.6748 H   0  0  0  0  0  0
    3.8341   55.3791   28.3923 H   0  0  0  0  0  0
    5.5046   54.3877   29.6816 H   0  0  0  0  0  0
    6.2477   53.5709   28.3297 H   0  0  0  0  0  0
  1 21  1  0  0  0
  1  2  1  0  0  0
  1 22  1  0  0  0
  1 23  1  0  0  0
  2  3  1  0  0  0
  2 24  1  0  0  0
  2 25  1  0  0  0
  3  4  1  0  0  0
  3 26  1  0  0  0
  3 27  1  0  0  0
  4  5  1  0  0  0
  4 28  1  0  0  0
  4 29  1  0  0  0
  5  9  1  0  0  0
  5  6  2  0  0  0
  6  7  1  0  0  0
  6 20  1  0  0  0
  7  8  2  0  0  0
  7 17  1  0  0  0
  8  9  1  0  0  0
  8 10  1  0  0  0
 10 11  1  0  0  0
 10 30  1  0  0  0
 11 12  2  0  0  0
 11 13  1  0  0  0
 13 16  1  0  0  0
 13 14  1  0  0  0
 13 31  1  0  0  0
 14 15  1  0  0  0
 14 32  1  0  0  0
 14 33  1  0  0  0
 15 16  1  0  0  0
 15 34  1  0  0  0
 15 35  1  0  0  0
 16 36  1  0  0  0
 16 37  1  0  0  0
 17 18  2  0  0  0
 17 19  1  0  0  0
 19 38  1  0  0  0
 19 39  1  0  0  0
 20 21  1  0  0  0
 20 40  1  0  0  0
 20 41  1  0  0  0
 21 42  1  0  0  0
 21 43  1  0  0  0
M  END
> <i_i_glide_confnum>
13

> <i_i_glide_lignum>
1876

> <i_i_glide_posenum>
262

> <i_i_glide_rotatable_bonds>
4

> <i_m_Source_File_Index>
4560

> <b_m_subgroup_collapsed>
0

> <r_i_docking_score>
-6.48925

> <r_i_glide_ecoul>
-3.13393

> <r_i_glide_eff_state_penalty>
0

> <r_i_glide_einternal>
3.60525

> <r_i_glide_emodel>
-51.7539

> <r_i_glide_energy>
-37.0413

> <r_i_glide_erotb>
0.590181

> <r_i_glide_esite>
0

> <r_i_glide_evdw>
-33.9074

> <r_i_glide_gscore>
-6.48925

> <r_i_glide_hbond>
-0.608

> <r_i_glide_ligand_efficiency>
-0.309012

> <r_i_glide_ligand_efficiency_ln>
-1.60445

> <r_i_glide_ligand_efficiency_sa>
-0.85254

> <r_i_glide_lipo>
-2.39713

> <r_i_glide_metal>
0

> <r_i_glide_rewards>
-1.90884

> <s_i_glide_gridfile>
wee1_glide-grid

> <s_m_Source_File>
wee1_decoys_glide_SP.sdf

> <s_m_Source_Path>
/Users/zhangxujun/Desktop

> <s_m_entry_id>
4835

> <s_m_entry_name>
wee1_decoys_glide_SP.4560

> <s_m_subgroup_title>
wee1_decoys_glide_SP

> <s_m_subgroupid>
wee1_decoys_glide_SP


$$$$
