ZINC00218408_4666
                    3D
 Schrodinger Suite 2024-2.
 37 39  0  0  1  0            999 V2000
    5.5745   54.4949   20.7742 C   0  0  0  0  0  0
    5.5290   54.0408   22.2478 C   0  0  1  0  0  0
    5.8315   52.9921   22.2669 H   0  0  0  0  0  0
    6.5075   54.8636   23.1182 C   0  0  0  0  0  0
    6.5635   54.3846   24.5830 C   0  0  0  0  0  0
    5.1518   54.1352   25.1410 C   0  0  0  0  0  0
    4.0500   53.9873   24.2768 C   0  0  0  0  0  0
    2.5707   53.6970   25.1168 S   0  0  0  0  0  0
    3.3697   53.8804   26.6342 C   0  0  0  0  0  0
    4.7612   54.0973   26.5164 C   0  0  0  0  0  0
    5.6268   54.3571   27.6578 C   0  0  0  0  0  0
    5.2213   54.8954   28.6847 O   0  0  0  0  0  0
    6.8909   53.9559   27.5508 N   0  0  0  0  0  0
    2.5460   53.7965   27.7436 N   0  0  0  0  0  0
    2.7510   52.9576   28.7797 C   0  0  0  0  0  0
    3.6754   52.1485   28.8817 O   0  0  0  0  0  0
    1.7819   53.0857   29.8231 C   0  0  0  0  0  0
    0.9100   54.1152   30.1776 C   0  0  0  0  0  0
    0.3044   53.7246   31.3714 C   0  0  0  0  0  0
    0.8424   52.4967   31.6997 C   0  0  0  0  0  0
    1.7542   52.1163   30.7760 O   0  0  0  0  0  0
    4.0733   54.1017   22.7609 C   0  0  0  0  0  0
    5.1936   55.5086   20.6600 H   0  0  0  0  0  0
    6.5911   54.4968   20.3795 H   0  0  0  0  0  0
    4.9732   53.8441   20.1385 H   0  0  0  0  0  0
    6.3044   55.9311   23.0769 H   0  0  0  0  0  0
    7.5048   54.7934   22.6837 H   0  0  0  0  0  0
    7.1454   53.4648   24.6416 H   0  0  0  0  0  0
    7.1020   55.1279   25.1688 H   0  0  0  0  0  0
    7.1719   53.3645   26.7833 H   0  0  0  0  0  0
    7.5038   54.1148   28.3368 H   0  0  0  0  0  0
    1.6436   54.2410   27.6818 H   0  0  0  0  0  0
    0.7512   55.0442   29.6516 H   0  0  0  0  0  0
   -0.4169   54.2690   31.9582 H   0  0  0  0  0  0
    0.7045   51.8213   32.5308 H   0  0  0  0  0  0
    3.6101   55.0452   22.4730 H   0  0  0  0  0  0
    3.4816   53.3051   22.3057 H   0  0  0  0  0  0
  1  2  1  0  0  0
  1 23  1  0  0  0
  1 24  1  0  0  0
  1 25  1  0  0  0
  2  3  1  0  0  0
  2 22  1  0  0  0
  2  4  1  0  0  0
  4  5  1  0  0  0
  4 26  1  0  0  0
  4 27  1  0  0  0
  5  6  1  0  0  0
  5 28  1  0  0  0
  5 29  1  0  0  0
  6 10  1  0  0  0
  6  7  2  0  0  0
  7  8  1  0  0  0
  7 22  1  0  0  0
  8  9  1  0  0  0
  9 10  2  0  0  0
  9 14  1  0  0  0
 10 11  1  0  0  0
 11 12  2  0  0  0
 11 13  1  0  0  0
 13 30  1  0  0  0
 13 31  1  0  0  0
 14 15  1  0  0  0
 14 32  1  0  0  0
 15 16  2  0  0  0
 15 17  1  0  0  0
 17 21  1  0  0  0
 17 18  2  0  0  0
 18 19  1  0  0  0
 18 33  1  0  0  0
 19 20  2  0  0  0
 19 34  1  0  0  0
 20 21  1  0  0  0
 20 35  1  0  0  0
 22 36  1  0  0  0
 22 37  1  0  0  0
M  END
> <i_i_glide_confnum>
7

> <i_i_glide_lignum>
4667

> <i_i_glide_posenum>
301

> <i_i_glide_rotatable_bonds>
4

> <i_m_Source_File_Index>
3549

> <b_m_subgroup_collapsed>
0

> <r_i_docking_score>
-6.84623

> <r_i_glide_ecoul>
-1.46103

> <r_i_glide_eff_state_penalty>
0

> <r_i_glide_einternal>
7.98395

> <r_i_glide_emodel>
-56.9334

> <r_i_glide_energy>
-41.9223

> <r_i_glide_erotb>
0.597199

> <r_i_glide_esite>
0

> <r_i_glide_evdw>
-40.4612

> <r_i_glide_gscore>
-6.84623

> <r_i_glide_hbond>
-0.138435

> <r_i_glide_ligand_efficiency>
-0.326011

> <r_i_glide_ligand_efficiency_ln>
-1.69272

> <r_i_glide_ligand_efficiency_sa>
-0.89944

> <r_i_glide_lipo>
-2.72242

> <r_i_glide_metal>
0

> <r_i_glide_rewards>
-2.34037

> <s_i_glide_gridfile>
wee1_glide-grid

> <s_m_Source_File>
wee1_decoys_glide_SP.sdf

> <s_m_Source_Path>
/Users/zhangxujun/Desktop

> <s_m_entry_id>
3824

> <s_m_entry_name>
wee1_decoys_glide_SP.3549

> <s_m_subgroup_title>
wee1_decoys_glide_SP

> <s_m_subgroupid>
wee1_decoys_glide_SP


$$$$
