ZINC08926601_6086
                    3D
 Schrodinger Suite 2024-2.
 49 51  0  0  1  0            999 V2000
   -0.4941   54.0823   28.2664 C   0  0  0  0  0  0
   -0.2515   52.6855   27.7925 C   0  0  0  0  0  0
   -1.1694   51.8287   27.0822 C   0  0  0  0  0  0
   -0.4995   50.6600   26.7249 C   0  0  0  0  0  0
    1.1026   50.5694   27.2817 S   0  0  0  0  0  0
    0.9943   52.0989   27.9972 C   0  0  0  0  0  0
    2.1542   52.6288   28.6547 C   0  0  0  0  0  0
    2.3024   52.4253   29.8572 O   0  0  0  0  0  0
    3.0421   53.3962   27.9807 N   0  0  0  0  0  0
    3.2643   53.6672   26.6087 C   0  0  0  0  0  0
    2.3978   53.2974   25.5644 C   0  0  0  0  0  0
    2.7544   53.4756   24.2251 C   0  0  0  0  0  0
    3.9675   54.0961   23.9173 C   0  0  0  0  0  0
    4.8232   54.5003   24.9377 C   0  0  0  0  0  0
    4.4857   54.2839   26.2741 C   0  0  0  0  0  0
    5.6287   54.7700   27.4849 Cl  0  0  0  0  0  0
    1.8505   52.9142   23.1325 C   0  0  0  0  0  0
    1.9047   51.5840   23.1794 F   0  0  0  0  0  0
    2.2304   53.2966   21.9151 F   0  0  0  0  0  0
    0.5908   53.2968   23.3319 F   0  0  0  0  0  0
   -0.9728   49.5661   26.0439 N   0  0  0  0  0  0
   -1.1129   49.5428   24.7051 C   0  0  0  0  0  0
   -0.7224   50.4478   23.9620 O   0  0  0  0  0  0
   -1.7677   48.3116   24.1295 C   0  0  0  0  0  0
   -2.7054   47.5798   24.8749 C   0  0  0  0  0  0
   -3.3432   46.4821   24.3086 C   0  0  0  0  0  0
   -3.0370   46.0964   23.0061 C   0  0  0  0  0  0
   -2.1070   46.8089   22.2580 C   0  0  0  0  0  0
   -1.4789   47.9179   22.8154 C   0  0  0  0  0  0
   -3.6369   45.0085   22.4669 F   0  0  0  0  0  0
   -2.5961   52.0232   26.7380 C   0  0  0  0  0  0
   -3.4078   51.0975   26.6480 O   0  0  0  0  0  0
   -2.9001   53.2964   26.4818 O   0  0  0  0  0  0
   -4.2070   53.6760   26.0695 C   0  0  0  0  0  0
   -1.2959   54.4975   27.6826 H   0  0  0  0  0  0
   -0.7362   54.0972   29.3287 H   0  0  0  0  0  0
    0.3588   54.7446   28.1088 H   0  0  0  0  0  0
    3.7758   53.7557   28.5724 H   0  0  0  0  0  0
    1.4496   52.8269   25.7353 H   0  0  0  0  0  0
    4.2665   54.2414   22.8895 H   0  0  0  0  0  0
    5.7644   54.9675   24.6871 H   0  0  0  0  0  0
   -1.2933   48.8035   26.6380 H   0  0  0  0  0  0
   -2.9613   47.8633   25.8873 H   0  0  0  0  0  0
   -4.0763   45.9360   24.8845 H   0  0  0  0  0  0
   -1.8805   46.5057   21.2464 H   0  0  0  0  0  0
   -0.7659   48.4711   22.2202 H   0  0  0  0  0  0
   -4.2422   54.7531   25.9029 H   0  0  0  0  0  0
   -4.4825   53.1780   25.1376 H   0  0  0  0  0  0
   -4.9493   53.4243   26.8292 H   0  0  0  0  0  0
  1  2  1  0  0  0
  1 35  1  0  0  0
  1 36  1  0  0  0
  1 37  1  0  0  0
  2  6  2  0  0  0
  2  3  1  0  0  0
  3  4  2  0  0  0
  3 31  1  0  0  0
  4  5  1  0  0  0
  4 21  1  0  0  0
  5  6  1  0  0  0
  6  7  1  0  0  0
  7  8  2  0  0  0
  7  9  1  0  0  0
  9 10  1  0  0  0
  9 38  1  0  0  0
 10 15  2  0  0  0
 10 11  1  0  0  0
 11 12  2  0  0  0
 11 39  1  0  0  0
 12 13  1  0  0  0
 12 17  1  0  0  0
 13 14  2  0  0  0
 13 40  1  0  0  0
 14 15  1  0  0  0
 14 41  1  0  0  0
 15 16  1  0  0  0
 17 18  1  0  0  0
 17 19  1  0  0  0
 17 20  1  0  0  0
 21 22  1  0  0  0
 21 42  1  0  0  0
 22 23  2  0  0  0
 22 24  1  0  0  0
 24 29  2  0  0  0
 24 25  1  0  0  0
 25 26  2  0  0  0
 25 43  1  0  0  0
 26 27  1  0  0  0
 26 44  1  0  0  0
 27 28  2  0  0  0
 27 30  1  0  0  0
 28 29  1  0  0  0
 28 45  1  0  0  0
 29 46  1  0  0  0
 31 32  2  0  0  0
 31 33  1  0  0  0
 33 34  1  0  0  0
 34 47  1  0  0  0
 34 48  1  0  0  0
 34 49  1  0  0  0
M  END
> <i_i_glide_confnum>
70

> <i_i_glide_lignum>
6087

> <i_i_glide_posenum>
369

> <i_i_glide_rotatable_bonds>
9

> <i_m_Source_File_Index>
2917

> <b_m_subgroup_collapsed>
0

> <r_i_docking_score>
-2.52327

> <r_i_glide_ecoul>
-5.15378

> <r_i_glide_eff_state_penalty>
0

> <r_i_glide_einternal>
24.424

> <r_i_glide_emodel>
-6.65688

> <r_i_glide_energy>
-22.2085

> <r_i_glide_erotb>
0.541715

> <r_i_glide_esite>
-0.216674

> <r_i_glide_evdw>
-17.0547

> <r_i_glide_gscore>
-2.52327

> <r_i_glide_hbond>
-0.133166

> <r_i_glide_ligand_efficiency>
-0.0742139

> <r_i_glide_ligand_efficiency_ln>
-0.557461

> <r_i_glide_ligand_efficiency_sa>
-0.240424

> <r_i_glide_lipo>
-2.06556

> <r_i_glide_metal>
0

> <r_i_glide_rewards>
0.976222

> <s_i_glide_gridfile>
wee1_glide-grid

> <s_m_Source_File>
wee1_decoys_glide_SP.sdf

> <s_m_Source_Path>
/Users/zhangxujun/Desktop

> <s_m_entry_id>
3192

> <s_m_entry_name>
wee1_decoys_glide_SP.2917

> <s_m_subgroup_title>
wee1_decoys_glide_SP

> <s_m_subgroupid>
wee1_decoys_glide_SP


$$$$
