ZINC16741976_4177
                    3D
 Schrodinger Suite 2024-2.
 63 66  0  0  1  0            999 V2000
    0.9674   54.4891   28.2818 C   0  0  0  0  0  0
    2.1506   53.7774   28.9069 C   0  0  0  0  0  0
    1.9510   52.9812   30.0372 C   0  0  0  0  0  0
    3.0185   52.2925   30.6024 C   0  0  0  0  0  0
    4.2873   52.3912   30.0371 C   0  0  0  0  0  0
    4.5149   53.2211   28.9351 C   0  0  0  0  0  0
    3.4358   53.9043   28.3547 C   0  0  0  0  0  0
    3.6371   54.6842   27.2399 O   0  0  0  0  0  0
    3.4587   53.9912   26.0039 C   0  0  0  0  0  0
    4.5078   54.4340   24.9741 C   0  0  0  0  0  0
    5.4357   55.1847   25.2796 O   0  0  0  0  0  0
    4.2829   53.9313   23.7453 N   0  0  0  0  0  0
    4.9798   54.1104   22.5548 C   0  0  0  0  0  0
    4.5533   53.6618   21.2877 C   0  0  0  0  0  0
    5.3929   54.1718   20.2509 C   0  0  0  0  0  0
    6.4828   54.9039   20.7607 C   0  0  0  0  0  0
    6.5235   54.9057   22.4844 S   0  0  0  0  0  0
    7.5391   55.6256   19.9318 C   0  0  0  0  0  0
    7.4975   55.0799   18.4876 C   0  0  1  0  0  0
    7.9080   54.0678   18.4829 H   0  0  0  0  0  0
    6.0407   55.0786   17.9793 C   0  0  0  0  0  0
    5.1801   54.0428   18.7333 C   0  0  0  0  0  0
    8.4117   55.9204   17.5799 C   0  0  0  0  0  0
    3.3224   52.8960   21.1035 C   0  0  0  0  0  0
    2.4351   52.8906   21.9595 O   0  0  0  0  0  0
    3.2150   52.1941   19.9618 N   0  0  0  0  0  0
    2.0118   51.4659   19.5690 C   0  0  2  0  0  0
    1.6550   50.8003   20.3623 H   0  0  0  0  0  0
    2.3099   50.5825   18.3404 C   0  0  0  0  0  0
    0.9862   50.0565   17.7669 C   0  0  0  0  0  0
   -0.2133   51.4818   17.9826 S   0  0  0  0  0  0
   -0.3513   52.2350   16.7322 O   0  0  0  0  0  0
   -1.4007   51.0073   18.7018 O   0  0  0  0  0  0
    0.8906   52.4347   19.1510 C   0  0  0  0  0  0
    5.9362   53.3851   28.4077 C   0  0  0  0  0  0
    0.7664   54.0391   27.3115 H   0  0  0  0  0  0
    0.0705   54.4211   28.8961 H   0  0  0  0  0  0
    1.1912   55.5443   28.1230 H   0  0  0  0  0  0
    0.9668   52.8883   30.4742 H   0  0  0  0  0  0
    2.8616   51.6928   31.4864 H   0  0  0  0  0  0
    5.1020   51.8430   30.4832 H   0  0  0  0  0  0
    3.5296   52.9043   26.1150 H   0  0  0  0  0  0
    2.4661   54.2245   25.6221 H   0  0  0  0  0  0
    3.4294   53.4022   23.6193 H   0  0  0  0  0  0
    7.3249   56.6941   19.9299 H   0  0  0  0  0  0
    8.5352   55.4963   20.3605 H   0  0  0  0  0  0
    5.6157   56.0832   18.0254 H   0  0  0  0  0  0
    6.0273   54.8296   16.9171 H   0  0  0  0  0  0
    5.4501   53.0369   18.4036 H   0  0  0  0  0  0
    4.1332   54.1906   18.4615 H   0  0  0  0  0  0
    8.0783   56.9560   17.5208 H   0  0  0  0  0  0
    9.4383   55.9235   17.9503 H   0  0  0  0  0  0
    8.4322   55.5213   16.5636 H   0  0  0  0  0  0
    4.0382   52.0373   19.3972 H   0  0  0  0  0  0
    2.8391   51.1610   17.5805 H   0  0  0  0  0  0
    2.9982   49.7736   18.6001 H   0  0  0  0  0  0
    0.9920   49.7030   16.7359 H   0  0  0  0  0  0
    0.6395   49.2412   18.4012 H   0  0  0  0  0  0
    0.3712   53.0030   19.9167 H   0  0  0  0  0  0
    1.3546   53.1737   18.4964 H   0  0  0  0  0  0
    6.0083   54.0993   27.5896 H   0  0  0  0  0  0
    6.5970   53.7466   29.1938 H   0  0  0  0  0  0
    6.3338   52.4341   28.0666 H   0  0  0  0  0  0
  1  2  1  0  0  0
  1 36  1  0  0  0
  1 37  1  0  0  0
  1 38  1  0  0  0
  2  7  2  0  0  0
  2  3  1  0  0  0
  3  4  2  0  0  0
  3 39  1  0  0  0
  4  5  1  0  0  0
  4 40  1  0  0  0
  5  6  2  0  0  0
  5 41  1  0  0  0
  6  7  1  0  0  0
  6 35  1  0  0  0
  7  8  1  0  0  0
  8  9  1  0  0  0
  9 10  1  0  0  0
  9 42  1  0  0  0
  9 43  1  0  0  0
 10 11  2  0  0  0
 10 12  1  0  0  0
 12 13  1  0  0  0
 12 44  1  0  0  0
 13 17  1  0  0  0
 13 14  2  0  0  0
 14 15  1  0  0  0
 14 24  1  0  0  0
 15 22  1  0  0  0
 15 16  2  0  0  0
 16 17  1  0  0  0
 16 18  1  0  0  0
 18 19  1  0  0  0
 18 45  1  0  0  0
 18 46  1  0  0  0
 19 20  1  0  0  0
 19 21  1  0  0  0
 19 23  1  0  0  0
 21 22  1  0  0  0
 21 47  1  0  0  0
 21 48  1  0  0  0
 22 49  1  0  0  0
 22 50  1  0  0  0
 23 51  1  0  0  0
 23 52  1  0  0  0
 23 53  1  0  0  0
 24 25  2  0  0  0
 24 26  1  0  0  0
 26 27  1  0  0  0
 26 54  1  0  0  0
 27 28  1  0  0  0
 27 34  1  0  0  0
 27 29  1  0  0  0
 29 30  1  0  0  0
 29 55  1  0  0  0
 29 56  1  0  0  0
 30 31  1  0  0  0
 30 57  1  0  0  0
 30 58  1  0  0  0
 31 32  2  0  0  0
 31 33  2  0  0  0
 31 34  1  0  0  0
 34 59  1  0  0  0
 34 60  1  0  0  0
 35 61  1  0  0  0
 35 62  1  0  0  0
 35 63  1  0  0  0
M  END
> <i_i_glide_confnum>
341

> <i_i_glide_lignum>
4178

> <i_i_glide_posenum>
54

> <i_i_glide_rotatable_bonds>
8

> <i_m_Source_File_Index>
1090

> <b_m_subgroup_collapsed>
0

> <r_i_docking_score>
-5.17618

> <r_i_glide_ecoul>
-3.98366

> <r_i_glide_eff_state_penalty>
0

> <r_i_glide_einternal>
6.45195

> <r_i_glide_emodel>
-59.3093

> <r_i_glide_energy>
-45.1279

> <r_i_glide_erotb>
0.676355

> <r_i_glide_esite>
-0.0442065

> <r_i_glide_evdw>
-41.1442

> <r_i_glide_gscore>
-5.17618

> <r_i_glide_hbond>
0

> <r_i_glide_ligand_efficiency>
-0.156854

> <r_i_glide_ligand_efficiency_ln>
-1.15116

> <r_i_glide_ligand_efficiency_sa>
-0.503114

> <r_i_glide_lipo>
-2.72814

> <r_i_glide_metal>
0

> <r_i_glide_rewards>
-0.425432

> <s_i_glide_gridfile>
wee1_glide-grid

> <s_m_Source_File>
wee1_decoys_glide_SP.sdf

> <s_m_Source_Path>
/Users/zhangxujun/Desktop

> <s_m_entry_id>
1365

> <s_m_entry_name>
wee1_decoys_glide_SP.1090

> <s_m_subgroup_title>
wee1_decoys_glide_SP

> <s_m_subgroupid>
wee1_decoys_glide_SP


$$$$
