ZINC62794671_1817
                    3D
 Schrodinger Suite 2024-2.
 41 43  0  0  1  0            999 V2000
    0.2526   51.7009   24.9310 C   0  0  0  0  0  0
    1.1650   52.5773   25.5143 C   0  0  0  0  0  0
    1.2082   52.7601   26.9012 C   0  0  0  0  0  0
    0.3259   52.0034   27.6976 C   0  0  0  0  0  0
   -0.5996   51.1425   27.1023 C   0  0  0  0  0  0
   -0.6568   50.9736   25.7121 C   0  0  0  0  0  0
   -1.6313   50.0408   25.0796 C   0  0  0  0  0  0
   -2.3950   50.3135   24.0875 N   0  0  0  0  0  0
   -2.3865   51.6540   23.6469 O   0  0  0  0  0  0
   -1.5946   48.8030   25.6817 N   0  0  0  0  0  0
    0.3596   52.0691   29.4298 Cl  0  0  0  0  0  0
    2.1571   53.6067   27.4630 N   0  0  0  0  0  0
    1.8014   54.7668   28.2944 C   0  0  0  0  0  0
    2.7410   54.9071   29.5101 C   0  0  0  0  0  0
    4.1120   54.8797   29.1126 O   0  0  0  0  0  0
    4.4452   53.6848   28.4064 C   0  0  1  0  0  0
    4.2409   52.8107   29.0309 H   0  0  0  0  0  0
    3.5893   53.6001   27.1092 C   0  0  2  0  0  0
    3.8170   52.6240   26.6827 H   0  0  0  0  0  0
    3.9970   54.6773   26.0650 C   0  0  0  0  0  0
    5.4999   54.6123   25.7389 C   0  0  0  0  0  0
    6.3705   54.6976   27.0058 C   0  0  0  0  0  0
    5.9570   53.6731   28.0766 C   0  0  0  0  0  0
    0.2568   51.5887   23.8546 H   0  0  0  0  0  0
    1.8396   53.1139   24.8673 H   0  0  0  0  0  0
   -1.2702   50.5827   27.7405 H   0  0  0  0  0  0
   -3.0231   51.6291   22.9261 H   0  0  0  0  0  0
   -2.2184   48.0940   25.3373 H   0  0  0  0  0  0
   -1.2955   48.7021   26.6535 H   0  0  0  0  0  0
    1.8271   55.6719   27.6904 H   0  0  0  0  0  0
    0.7744   54.6754   28.6513 H   0  0  0  0  0  0
    2.5338   55.8381   30.0369 H   0  0  0  0  0  0
    2.5432   54.0928   30.2081 H   0  0  0  0  0  0
    3.4264   54.5643   25.1433 H   0  0  0  0  0  0
    3.7701   55.6802   26.4323 H   0  0  0  0  0  0
    5.7640   55.4178   25.0532 H   0  0  0  0  0  0
    5.7164   53.6832   25.2106 H   0  0  0  0  0  0
    6.3045   55.6965   27.4361 H   0  0  0  0  0  0
    7.4192   54.5489   26.7458 H   0  0  0  0  0  0
    6.5511   53.8055   28.9796 H   0  0  0  0  0  0
    6.2118   52.6849   27.6915 H   0  0  0  0  0  0
  1  6  2  0  0  0
  1  2  1  0  0  0
  1 24  1  0  0  0
  2  3  2  0  0  0
  2 25  1  0  0  0
  3  4  1  0  0  0
  3 12  1  0  0  0
  4  5  2  0  0  0
  4 11  1  0  0  0
  5  6  1  0  0  0
  5 26  1  0  0  0
  6  7  1  0  0  0
  7  8  2  0  0  0
  7 10  1  0  0  0
  8  9  1  0  0  0
  9 27  1  0  0  0
 10 28  1  0  0  0
 10 29  1  0  0  0
 12 18  1  0  0  0
 12 13  1  0  0  0
 13 14  1  0  0  0
 13 30  1  0  0  0
 13 31  1  0  0  0
 14 15  1  0  0  0
 14 32  1  0  0  0
 14 33  1  0  0  0
 15 16  1  0  0  0
 16 17  1  0  0  0
 16 23  1  0  0  0
 16 18  1  0  0  0
 18 19  1  0  0  0
 18 20  1  0  0  0
 20 21  1  0  0  0
 20 34  1  0  0  0
 20 35  1  0  0  0
 21 22  1  0  0  0
 21 36  1  0  0  0
 21 37  1  0  0  0
 22 23  1  0  0  0
 22 38  1  0  0  0
 22 39  1  0  0  0
 23 40  1  0  0  0
 23 41  1  0  0  0
M  END
> <i_i_glide_confnum>
19

> <i_i_glide_lignum>
1818

> <i_i_glide_posenum>
111

> <i_i_glide_rotatable_bonds>
3

> <i_m_Source_File_Index>
3826

> <b_m_subgroup_collapsed>
0

> <r_i_docking_score>
-6.00498

> <r_i_glide_ecoul>
-4.13395

> <r_i_glide_eff_state_penalty>
0

> <r_i_glide_einternal>
3.05965

> <r_i_glide_emodel>
-49.0666

> <r_i_glide_energy>
-36.1823

> <r_i_glide_erotb>
0.57897

> <r_i_glide_esite>
-0.136155

> <r_i_glide_evdw>
-32.0484

> <r_i_glide_gscore>
-6.00498

> <r_i_glide_hbond>
-0.16

> <r_i_glide_ligand_efficiency>
-0.285951

> <r_i_glide_ligand_efficiency_ln>
-1.48472

> <r_i_glide_ligand_efficiency_sa>
-0.788918

> <r_i_glide_lipo>
-2.41197

> <r_i_glide_metal>
0

> <r_i_glide_rewards>
-1.65331

> <s_i_glide_gridfile>
wee1_glide-grid

> <s_m_Source_File>
wee1_decoys_glide_SP.sdf

> <s_m_Source_Path>
/Users/zhangxujun/Desktop

> <s_m_entry_id>
4101

> <s_m_entry_name>
wee1_decoys_glide_SP.3826

> <s_m_subgroup_title>
wee1_decoys_glide_SP

> <s_m_subgroupid>
wee1_decoys_glide_SP


$$$$
