ZINC38574741_5249
                    3D
 Schrodinger Suite 2024-2.
 72 75  0  0  1  0            999 V2000
   -1.5494   50.9322   22.0995 C   0  0  0  0  0  0
   -0.7562   50.7189   23.4083 C   0  0  2  0  0  0
   -0.3767   49.6978   23.3277 H   0  0  0  0  0  0
   -1.6223   50.6724   24.7463 C   0  0  2  0  0  0
   -1.8087   49.6126   24.9379 H   0  0  0  0  0  0
   -3.0210   51.2815   24.5967 C   0  0  0  0  0  0
   -4.2513   50.6192   24.5948 C   0  0  0  0  0  0
   -5.3650   51.4594   24.5381 C   0  0  0  0  0  0
   -5.0127   52.7938   24.4817 C   0  0  0  0  0  0
   -3.2970   52.9987   24.4406 S   0  0  0  0  0  0
   -0.9264   51.1604   25.9639 N   0  0  0  0  0  0
    0.2399   50.3312   26.3094 C   0  0  0  0  0  0
    1.1019   51.0423   27.3686 C   0  0  0  0  0  0
    0.2498   51.2967   28.6294 N   0  3  0  0  0  0
   -1.0246   52.0833   28.2778 C   0  0  0  0  0  0
   -1.7811   51.3427   27.1581 C   0  0  0  0  0  0
    1.0446   51.9324   29.7942 C   0  0  0  0  0  0
    1.4559   53.3851   29.6189 C   0  0  0  0  0  0
    2.5863   53.7075   28.8636 C   0  0  0  0  0  0
    2.9576   55.0383   28.7126 C   0  0  0  0  0  0
    2.2095   56.0391   29.3293 C   0  0  0  0  0  0
    1.1044   55.7219   30.1139 C   0  0  0  0  0  0
    0.7259   54.3912   30.2590 C   0  0  0  0  0  0
    0.5008   51.4948   23.3714 N   0  0  0  0  0  0
    0.7056   52.7861   23.6819 C   0  0  0  0  0  0
   -0.1716   53.5441   24.0817 O   0  0  0  0  0  0
    2.1328   53.2539   23.5784 C   0  0  0  0  0  0
    2.7038   53.9666   24.6349 C   0  0  0  0  0  0
    4.0237   54.4029   24.5592 C   0  0  0  0  0  0
    4.8014   54.1594   23.4147 C   0  0  0  0  0  0
    4.2156   53.4450   22.3579 C   0  0  0  0  0  0
    2.8999   52.9939   22.4367 C   0  0  0  0  0  0
    6.2731   54.6519   23.3072 C   0  0  0  0  0  0
    6.5641   55.3021   21.9236 C   0  0  0  0  0  0
    7.2201   53.4458   23.4510 C   0  0  0  0  0  0
    6.6520   55.6754   24.4166 C   0  0  0  0  0  0
   -2.4898   50.3808   22.1089 H   0  0  0  0  0  0
   -1.7928   51.9835   21.9455 H   0  0  0  0  0  0
   -0.9920   50.5693   21.2354 H   0  0  0  0  0  0
   -4.3359   49.5441   24.6696 H   0  0  0  0  0  0
   -6.3865   51.1065   24.5459 H   0  0  0  0  0  0
   -5.6700   53.6489   24.4224 H   0  0  0  0  0  0
   -0.1182   49.3742   26.6973 H   0  0  0  0  0  0
    0.8611   50.1067   25.4449 H   0  0  0  0  0  0
    1.4958   51.9957   27.0130 H   0  0  0  0  0  0
    1.9044   50.3789   27.6821 H   0  0  0  0  0  0
   -0.7294   53.0922   27.9851 H   0  0  0  0  0  0
   -1.6227   52.0948   29.1900 H   0  0  0  0  0  0
   -2.6792   51.9205   26.9490 H   0  0  0  0  0  0
   -2.0959   50.3562   27.5020 H   0  0  0  0  0  0
    0.3926   51.8080   30.6631 H   0  0  0  0  0  0
    1.9180   51.2968   29.9233 H   0  0  0  0  0  0
    3.1756   52.9349   28.3889 H   0  0  0  0  0  0
    3.8249   55.2949   28.1214 H   0  0  0  0  0  0
    2.4965   57.0738   29.2194 H   0  0  0  0  0  0
    0.5508   56.5067   30.6080 H   0  0  0  0  0  0
   -0.1234   54.1451   30.8784 H   0  0  0  0  0  0
    1.3102   50.9864   23.0507 H   0  0  0  0  0  0
    2.1294   54.1717   25.5278 H   0  0  0  0  0  0
    4.4194   54.9385   25.4072 H   0  0  0  0  0  0
    4.7780   53.2249   21.4634 H   0  0  0  0  0  0
    2.4805   52.4565   21.5965 H   0  0  0  0  0  0
    7.5825   55.6916   21.8776 H   0  0  0  0  0  0
    5.9042   56.1320   21.6818 H   0  0  0  0  0  0
    6.4779   54.5874   21.1055 H   0  0  0  0  0  0
    7.3260   53.1519   24.4943 H   0  0  0  0  0  0
    6.8616   52.5882   22.8817 H   0  0  0  0  0  0
    8.2233   53.6653   23.0885 H   0  0  0  0  0  0
    6.6724   55.2113   25.4037 H   0  0  0  0  0  0
    7.6419   56.0967   24.2547 H   0  0  0  0  0  0
    5.9524   56.5064   24.4814 H   0  0  0  0  0  0
   -0.0700   50.3861   28.9357 H   0  0  0  0  0  0
  1  2  1  0  0  0
  1 37  1  0  0  0
  1 38  1  0  0  0
  1 39  1  0  0  0
  2  3  1  0  0  0
  2  4  1  0  0  0
  2 24  1  0  0  0
  4  5  1  0  0  0
  4  6  1  0  0  0
  4 11  1  0  0  0
  6 10  1  0  0  0
  6  7  2  0  0  0
  7  8  1  0  0  0
  7 40  1  0  0  0
  8  9  2  0  0  0
  8 41  1  0  0  0
  9 10  1  0  0  0
  9 42  1  0  0  0
 11 16  1  0  0  0
 11 12  1  0  0  0
 12 13  1  0  0  0
 12 43  1  0  0  0
 12 44  1  0  0  0
 13 14  1  0  0  0
 13 45  1  0  0  0
 13 46  1  0  0  0
 14 15  1  0  0  0
 14 17  1  0  0  0
 14 72  1  0  0  0
 15 16  1  0  0  0
 15 47  1  0  0  0
 15 48  1  0  0  0
 16 49  1  0  0  0
 16 50  1  0  0  0
 17 18  1  0  0  0
 17 51  1  0  0  0
 17 52  1  0  0  0
 18 23  2  0  0  0
 18 19  1  0  0  0
 19 20  2  0  0  0
 19 53  1  0  0  0
 20 21  1  0  0  0
 20 54  1  0  0  0
 21 22  2  0  0  0
 21 55  1  0  0  0
 22 23  1  0  0  0
 22 56  1  0  0  0
 23 57  1  0  0  0
 24 25  1  0  0  0
 24 58  1  0  0  0
 25 26  2  0  0  0
 25 27  1  0  0  0
 27 32  2  0  0  0
 27 28  1  0  0  0
 28 29  2  0  0  0
 28 59  1  0  0  0
 29 30  1  0  0  0
 29 60  1  0  0  0
 30 31  2  0  0  0
 30 33  1  0  0  0
 31 32  1  0  0  0
 31 61  1  0  0  0
 32 62  1  0  0  0
 33 34  1  0  0  0
 33 35  1  0  0  0
 33 36  1  0  0  0
 34 63  1  0  0  0
 34 64  1  0  0  0
 34 65  1  0  0  0
 35 66  1  0  0  0
 35 67  1  0  0  0
 35 68  1  0  0  0
 36 69  1  0  0  0
 36 70  1  0  0  0
 36 71  1  0  0  0
M  CHG  1  14   1
M  END
> <i_i_glide_confnum>
253

> <i_i_glide_lignum>
5250

> <i_i_glide_posenum>
124

> <i_i_glide_rotatable_bonds>
9

> <i_m_Source_File_Index>
4374

> <b_m_subgroup_collapsed>
0

> <r_i_docking_score>
-5.54526

> <r_i_glide_ecoul>
-0.711091

> <r_i_glide_eff_state_penalty>
0

> <r_i_glide_einternal>
15.4383

> <r_i_glide_emodel>
-51.0982

> <r_i_glide_energy>
-43.4477

> <r_i_glide_erotb>
0.71296

> <r_i_glide_esite>
-0.0252395

> <r_i_glide_evdw>
-42.7366

> <r_i_glide_gscore>
-5.54526

> <r_i_glide_hbond>
0

> <r_i_glide_ligand_efficiency>
-0.163096

> <r_i_glide_ligand_efficiency_ln>
-1.2251

> <r_i_glide_ligand_efficiency_sa>
-0.528367

> <r_i_glide_lipo>
-3.6244

> <r_i_glide_metal>
0

> <r_i_glide_rewards>
-0.365085

> <s_i_glide_gridfile>
wee1_glide-grid

> <s_m_Source_File>
wee1_decoys_glide_SP.sdf

> <s_m_Source_Path>
/Users/zhangxujun/Desktop

> <s_m_entry_id>
4649

> <s_m_entry_name>
wee1_decoys_glide_SP.4374

> <s_m_subgroup_title>
wee1_decoys_glide_SP

> <s_m_subgroupid>
wee1_decoys_glide_SP


$$$$
