ZINC30574858_4539
                    3D
 Schrodinger Suite 2024-2.
 68 72  0  0  1  0            999 V2000
   -5.0371   48.8030   29.4498 C   0  0  0  0  0  0
   -4.9416   49.4429   28.0578 C   0  0  2  0  0  0
   -5.1189   50.5203   28.0800 H   0  0  0  0  0  0
   -5.4869   48.6538   26.8849 C   0  0  0  0  0  0
   -3.9881   48.8701   27.0301 C   0  0  1  0  0  0
   -3.3806   47.9988   27.2816 H   0  0  0  0  0  0
   -3.2960   49.9093   26.1363 C   0  0  0  0  0  0
   -3.9590   50.7715   25.5537 O   0  0  0  0  0  0
   -1.9534   49.7897   26.0663 N   0  0  0  0  0  0
   -1.0569   50.5390   25.2758 C   0  0  0  0  0  0
    0.1345   49.9218   24.8876 C   0  0  0  0  0  0
    1.0470   50.5984   24.0753 C   0  0  0  0  0  0
    0.7997   51.9215   23.6677 C   0  0  0  0  0  0
   -0.3860   52.5383   24.0905 C   0  0  0  0  0  0
   -1.3030   51.8613   24.8858 C   0  0  0  0  0  0
    1.7718   52.7125   22.8087 C   0  0  0  0  0  0
    1.5041   53.8629   22.4821 O   0  0  0  0  0  0
    2.9450   52.1484   22.4803 N   0  0  0  0  0  0
    4.0482   52.7783   21.7247 C   0  0  0  0  0  0
    4.5539   54.1919   22.1797 C   0  0  1  0  0  0
    3.7142   54.8837   22.0748 H   0  0  0  0  0  0
    4.9014   54.2288   23.6837 C   0  0  0  0  0  0
    6.1920   53.9863   24.1515 C   0  0  0  0  0  0
    6.4837   54.0967   25.5049 C   0  0  0  0  0  0
    5.4886   54.3683   26.4521 C   0  0  0  0  0  0
    4.1841   54.5636   25.9813 C   0  0  0  0  0  0
    3.9011   54.4997   24.6214 C   0  0  0  0  0  0
    5.7983   54.4355   27.8379 N   0  0  0  0  0  0
    7.0997   53.9563   28.3037 C   0  0  0  0  0  0
    4.7267   54.4943   28.8316 C   0  0  0  0  0  0
    5.6113   54.7756   21.2137 C   0  0  0  0  0  0
    6.8713   55.3089   21.4795 C   0  0  0  0  0  0
    7.5027   55.6983   20.3303 N   0  0  0  0  0  0
    8.4424   56.0717   20.3136 H   0  0  0  0  0  0
    6.6615   55.5206   19.2631 C   0  0  0  0  0  0
    5.4471   54.9672   19.7847 C   0  0  0  0  0  0
    4.3903   54.7404   18.8813 C   0  0  0  0  0  0
    4.5644   55.0388   17.5321 C   0  0  0  0  0  0
    5.7658   55.5534   17.0583 C   0  0  0  0  0  0
    6.8429   55.8052   17.9056 C   0  0  0  0  0  0
   -4.9215   47.7186   29.4106 H   0  0  0  0  0  0
   -5.9974   49.0227   29.9182 H   0  0  0  0  0  0
   -4.2483   49.1881   30.1004 H   0  0  0  0  0  0
   -5.8909   47.6564   27.0566 H   0  0  0  0  0  0
   -6.0412   49.1837   26.1079 H   0  0  0  0  0  0
   -1.5540   49.0586   26.6501 H   0  0  0  0  0  0
    0.3502   48.9072   25.1906 H   0  0  0  0  0  0
    1.9472   50.0762   23.7838 H   0  0  0  0  0  0
   -0.6110   53.5574   23.8106 H   0  0  0  0  0  0
   -2.1939   52.3815   25.1982 H   0  0  0  0  0  0
    3.0733   51.1787   22.7182 H   0  0  0  0  0  0
    4.8927   52.0885   21.7495 H   0  0  0  0  0  0
    3.7353   52.7963   20.6824 H   0  0  0  0  0  0
    6.9840   53.6846   23.4843 H   0  0  0  0  0  0
    7.4973   53.9178   25.8058 H   0  0  0  0  0  0
    3.3680   54.7821   26.6483 H   0  0  0  0  0  0
    2.8931   54.7139   24.3072 H   0  0  0  0  0  0
    7.2180   52.8954   28.0825 H   0  0  0  0  0  0
    7.9051   54.4965   27.8122 H   0  0  0  0  0  0
    7.2288   54.0962   29.3728 H   0  0  0  0  0  0
    4.1732   53.5554   28.8429 H   0  0  0  0  0  0
    5.1133   54.6747   29.8326 H   0  0  0  0  0  0
    4.0158   55.2925   28.6131 H   0  0  0  0  0  0
    7.4047   55.4463   22.4061 H   0  0  0  0  0  0
    3.4409   54.3595   19.2230 H   0  0  0  0  0  0
    3.7522   54.8655   16.8428 H   0  0  0  0  0  0
    5.8621   55.7712   16.0032 H   0  0  0  0  0  0
    7.7662   56.2186   17.5258 H   0  0  0  0  0  0
  1  2  1  0  0  0
  1 41  1  0  0  0
  1 42  1  0  0  0
  1 43  1  0  0  0
  2  3  1  0  0  0
  2  5  1  0  0  0
  2  4  1  0  0  0
  4  5  1  0  0  0
  4 44  1  0  0  0
  4 45  1  0  0  0
  5  6  1  0  0  0
  5  7  1  0  0  0
  7  8  2  0  0  0
  7  9  1  0  0  0
  9 10  1  0  0  0
  9 46  1  0  0  0
 10 15  2  0  0  0
 10 11  1  0  0  0
 11 12  2  0  0  0
 11 47  1  0  0  0
 12 13  1  0  0  0
 12 48  1  0  0  0
 13 14  2  0  0  0
 13 16  1  0  0  0
 14 15  1  0  0  0
 14 49  1  0  0  0
 15 50  1  0  0  0
 16 17  2  0  0  0
 16 18  1  0  0  0
 18 19  1  0  0  0
 18 51  1  0  0  0
 19 20  1  0  0  0
 19 52  1  0  0  0
 19 53  1  0  0  0
 20 21  1  0  0  0
 20 22  1  0  0  0
 20 31  1  0  0  0
 22 27  2  0  0  0
 22 23  1  0  0  0
 23 24  2  0  0  0
 23 54  1  0  0  0
 24 25  1  0  0  0
 24 55  1  0  0  0
 25 26  2  0  0  0
 25 28  1  0  0  0
 26 27  1  0  0  0
 26 56  1  0  0  0
 27 57  1  0  0  0
 28 29  1  0  0  0
 28 30  1  0  0  0
 29 58  1  0  0  0
 29 59  1  0  0  0
 29 60  1  0  0  0
 30 61  1  0  0  0
 30 62  1  0  0  0
 30 63  1  0  0  0
 31 36  1  0  0  0
 31 32  2  0  0  0
 32 33  1  0  0  0
 32 64  1  0  0  0
 33 34  1  0  0  0
 33 35  1  0  0  0
 35 40  2  0  0  0
 35 36  1  0  0  0
 36 37  2  0  0  0
 37 38  1  0  0  0
 37 65  1  0  0  0
 38 39  2  0  0  0
 38 66  1  0  0  0
 39 40  1  0  0  0
 39 67  1  0  0  0
 40 68  1  0  0  0
M  END
> <i_i_glide_confnum>
301

> <i_i_glide_lignum>
4540

> <i_i_glide_posenum>
243

> <i_i_glide_rotatable_bonds>
10

> <i_m_Source_File_Index>
3589

> <b_m_subgroup_collapsed>
0

> <r_i_docking_score>
-5.99408

> <r_i_glide_ecoul>
-3.85887

> <r_i_glide_eff_state_penalty>
0

> <r_i_glide_einternal>
5.52744

> <r_i_glide_emodel>
-61.3597

> <r_i_glide_energy>
-45.1651

> <r_i_glide_erotb>
0.790218

> <r_i_glide_esite>
-0.157381

> <r_i_glide_evdw>
-41.3063

> <r_i_glide_gscore>
-5.99408

> <r_i_glide_hbond>
-0.145386

> <r_i_glide_ligand_efficiency>
-0.166502

> <r_i_glide_ligand_efficiency_ln>
-1.30775

> <r_i_glide_ligand_efficiency_sa>
-0.549778

> <r_i_glide_lipo>
-3.08776

> <r_i_glide_metal>
0

> <r_i_glide_rewards>
-0.749623

> <s_i_glide_gridfile>
wee1_glide-grid

> <s_m_Source_File>
wee1_decoys_glide_SP.sdf

> <s_m_Source_Path>
/Users/zhangxujun/Desktop

> <s_m_entry_id>
3864

> <s_m_entry_name>
wee1_decoys_glide_SP.3589

> <s_m_subgroup_title>
wee1_decoys_glide_SP

> <s_m_subgroupid>
wee1_decoys_glide_SP


$$$$
