ZINC63293935_1204
                    3D
 Schrodinger Suite 2024-2.
 61 64  0  0  1  0            999 V2000
    5.2442   52.5439   14.4817 C   0  0  0  0  0  0
    4.5799   52.6843   15.8629 C   0  0  1  0  0  0
    5.3067   52.5063   16.6597 H   0  0  0  0  0  0
    3.8340   53.9948   16.0647 C   0  0  0  0  0  0
    2.5443   53.6864   16.3031 C   0  0  0  0  0  0
    1.3855   54.5425   16.5909 C   0  0  0  0  0  0
    0.1705   54.0231   16.8580 C   0  0  0  0  0  0
    0.0562   52.5583   16.8313 C   0  0  0  0  0  0
    1.1170   51.7512   16.5721 C   0  0  0  0  0  0
    2.3713   52.3023   16.3038 C   0  0  0  0  0  0
    3.5047   51.6967   16.0557 N   0  3  0  0  0  0
   -0.8382   54.8901   17.1365 O   0  0  0  0  0  0
   -2.1427   54.3954   17.4088 C   0  0  0  0  0  0
   -2.8955   55.4537   17.6795 F   0  0  0  0  0  0
   -2.6637   53.7657   16.3540 F   0  0  0  0  0  0
   -2.1634   53.5979   18.4803 F   0  0  0  0  0  0
    4.5512   55.3389   16.0498 C   0  0  0  0  0  0
    4.3689   56.1945   17.3184 C   0  0  0  0  0  0
    4.6942   55.4453   18.5344 N   0  0  0  0  0  0
    5.6700   55.7623   19.4019 C   0  0  0  0  0  0
    6.4167   56.7266   19.2222 O   0  0  0  0  0  0
    5.9024   54.8055   20.5971 C   0  0  0  0  0  0
    6.8671   55.4456   21.6370 C   0  0  0  0  0  0
    7.0188   54.6612   22.9642 C   0  0  0  0  0  0
    5.6861   54.2423   23.4459 N   0  0  0  0  0  0
    4.9288   53.4273   22.4767 C   0  0  0  0  0  0
    4.5880   54.3345   21.2738 C   0  0  0  0  0  0
    5.2924   54.5821   24.7130 C   0  0  0  0  0  0
    6.0165   55.2566   25.4525 O   0  0  0  0  0  0
    3.9548   54.1264   25.2701 C   0  0  0  0  0  0
    2.7793   54.1426   24.4975 C   0  0  0  0  0  0
    1.5739   53.6788   25.0160 C   0  0  0  0  0  0
    1.5046   53.2432   26.3361 C   0  0  0  0  0  0
    2.6422   53.2745   27.1369 C   0  0  0  0  0  0
    3.8614   53.6999   26.6097 C   0  0  0  0  0  0
    4.9449   53.6753   27.4223 F   0  0  0  0  0  0
    6.0386   53.2785   14.3502 H   0  0  0  0  0  0
    5.6939   51.5566   14.3606 H   0  0  0  0  0  0
    4.5261   52.6814   13.6722 H   0  0  0  0  0  0
    1.4697   55.6184   16.5998 H   0  0  0  0  0  0
   -0.8955   52.0824   17.0171 H   0  0  0  0  0  0
    0.9707   50.6804   16.5670 H   0  0  0  0  0  0
    4.2233   55.8969   15.1727 H   0  0  0  0  0  0
    5.6174   55.1668   15.9036 H   0  0  0  0  0  0
    3.3343   56.5208   17.4191 H   0  0  0  0  0  0
    4.9508   57.1152   17.2224 H   0  0  0  0  0  0
    4.0910   54.6664   18.7582 H   0  0  0  0  0  0
    6.3043   53.9164   20.1198 H   0  0  0  0  0  0
    6.4754   56.4158   21.9418 H   0  0  0  0  0  0
    7.8724   55.5604   21.2276 H   0  0  0  0  0  0
    7.5047   55.3258   23.6753 H   0  0  0  0  0  0
    7.6374   53.7713   22.8386 H   0  0  0  0  0  0
    5.5894   52.6228   22.1502 H   0  0  0  0  0  0
    4.0818   52.8951   22.8924 H   0  0  0  0  0  0
    3.9755   53.7368   20.5969 H   0  0  0  0  0  0
    4.0185   55.1711   21.6813 H   0  0  0  0  0  0
    2.7783   54.5256   23.4884 H   0  0  0  0  0  0
    0.6858   53.6810   24.3989 H   0  0  0  0  0  0
    0.5629   52.8994   26.7437 H   0  0  0  0  0  0
    2.5865   52.9443   28.1649 H   0  0  0  0  0  0
    3.6633   50.6815   16.0816 H   0  0  0  0  0  0
  1  2  1  0  0  0
  1 37  1  0  0  0
  1 38  1  0  0  0
  1 39  1  0  0  0
  2  3  1  0  0  0
  2 11  1  0  0  0
  2  4  1  0  0  0
  4  5  2  0  0  0
  4 17  1  0  0  0
  5 10  1  0  0  0
  5  6  1  0  0  0
  6  7  2  0  0  0
  6 40  1  0  0  0
  7  8  1  0  0  0
  7 12  1  0  0  0
  8  9  2  0  0  0
  8 41  1  0  0  0
  9 10  1  0  0  0
  9 42  1  0  0  0
 10 11  2  0  0  0
 11 61  1  0  0  0
 12 13  1  0  0  0
 13 14  1  0  0  0
 13 15  1  0  0  0
 13 16  1  0  0  0
 17 18  1  0  0  0
 17 43  1  0  0  0
 17 44  1  0  0  0
 18 19  1  0  0  0
 18 45  1  0  0  0
 18 46  1  0  0  0
 19 20  1  0  0  0
 19 47  1  0  0  0
 20 21  2  0  0  0
 20 22  1  0  0  0
 22 27  1  0  0  0
 22 23  1  0  0  0
 22 48  1  0  0  0
 23 24  1  0  0  0
 23 49  1  0  0  0
 23 50  1  0  0  0
 24 25  1  0  0  0
 24 51  1  0  0  0
 24 52  1  0  0  0
 25 26  1  0  0  0
 25 28  1  0  0  0
 26 27  1  0  0  0
 26 53  1  0  0  0
 26 54  1  0  0  0
 27 55  1  0  0  0
 27 56  1  0  0  0
 28 29  2  0  0  0
 28 30  1  0  0  0
 30 35  2  0  0  0
 30 31  1  0  0  0
 31 32  2  0  0  0
 31 57  1  0  0  0
 32 33  1  0  0  0
 32 58  1  0  0  0
 33 34  2  0  0  0
 33 59  1  0  0  0
 34 35  1  0  0  0
 34 60  1  0  0  0
 35 36  1  0  0  0
M  CHG  1  11   1
M  END
> <i_i_glide_confnum>
132

> <i_i_glide_lignum>
1205

> <i_i_glide_posenum>
238

> <i_i_glide_rotatable_bonds>
9

> <i_m_Source_File_Index>
217

> <b_m_subgroup_collapsed>
0

> <r_i_docking_score>
-5.41426

> <r_i_glide_ecoul>
-6.61272

> <r_i_glide_eff_state_penalty>
0

> <r_i_glide_einternal>
7.57512

> <r_i_glide_emodel>
-52.1344

> <r_i_glide_energy>
-39.2306

> <r_i_glide_erotb>
0.671714

> <r_i_glide_esite>
-0.178444

> <r_i_glide_evdw>
-32.6178

> <r_i_glide_gscore>
-5.41426

> <r_i_glide_hbond>
-0.2

> <r_i_glide_ligand_efficiency>
-0.154693

> <r_i_glide_ligand_efficiency_ln>
-1.18855

> <r_i_glide_ligand_efficiency_sa>
-0.506011

> <r_i_glide_lipo>
-1.87778

> <r_i_glide_metal>
0

> <r_i_glide_rewards>
-1.20694

> <s_i_glide_gridfile>
wee1_glide-grid

> <s_m_Source_File>
wee1_decoys_glide_SP.sdf

> <s_m_Source_Path>
/Users/zhangxujun/Desktop

> <s_m_entry_id>
492

> <s_m_entry_name>
wee1_decoys_glide_SP.217

> <s_m_subgroup_title>
wee1_decoys_glide_SP

> <s_m_subgroupid>
wee1_decoys_glide_SP


$$$$
