ZINC39425997_4400
                    3D
 Schrodinger Suite 2024-2.
 56 59  0  0  1  0            999 V2000
    6.0781   53.2528   28.0138 C   0  0  0  0  0  0
    5.0359   54.3590   27.8075 C   0  0  0  0  0  0
    4.3654   54.2477   26.4245 C   0  0  0  0  0  0
    3.8900   54.5150   29.2229 S   0  0  0  0  0  0
    2.6835   53.3197   28.7863 C   0  0  0  0  0  0
    2.8590   52.0287   28.8913 N   0  0  0  0  0  0
    1.7549   51.2968   28.4817 N   0  0  0  0  0  0
    0.7586   52.0581   28.0966 C   0  0  0  0  0  0
    1.1084   53.7598   28.1877 S   0  0  0  0  0  0
   -0.5133   51.5948   27.7813 N   0  0  0  0  0  0
   -0.7837   51.1546   26.4701 C   0  0  0  0  0  0
   -1.9620   50.5203   26.1819 C   0  0  0  0  0  0
   -3.1355   50.4932   27.1965 C   0  0  1  0  0  0
   -3.4970   49.4615   27.2187 H   0  0  0  0  0  0
   -2.6775   50.8967   28.5912 C   0  0  0  0  0  0
   -1.4418   51.4025   28.8223 C   0  0  0  0  0  0
   -0.9892   51.6967   30.0959 N   0  0  0  0  0  0
   -3.6169   50.6508   29.6449 C   0  0  0  0  0  0
   -4.4356   50.4967   30.4505 N   0  0  0  0  0  0
   -4.3532   51.2983   26.7455 C   0  0  0  0  0  0
   -5.6597   50.8851   27.0361 C   0  0  0  0  0  0
   -6.7492   51.6171   26.5562 C   0  0  0  0  0  0
   -6.5374   52.7531   25.7715 C   0  0  0  0  0  0
   -5.2331   53.1612   25.4944 C   0  0  0  0  0  0
   -4.1554   52.4620   26.0042 C   0  0  0  0  0  0
   -4.8954   54.4967   24.4817 Cl  0  0  0  0  0  0
   -2.2268   49.9088   24.8520 C   0  0  0  0  0  0
   -3.3425   49.5219   24.5052 O   0  0  0  0  0  0
   -1.0805   49.9154   23.8316 C   0  0  0  0  0  0
    0.3255   50.0193   24.4663 C   0  0  0  0  0  0
    0.3194   51.2699   25.3906 C   0  0  0  0  0  0
    1.3292   50.2500   23.3167 C   0  0  0  0  0  0
    0.6435   48.7386   25.2827 C   0  0  0  0  0  0
    6.7452   53.1606   27.1561 H   0  0  0  0  0  0
    6.7020   53.4615   28.8817 H   0  0  0  0  0  0
    5.5989   52.2880   28.1695 H   0  0  0  0  0  0
    5.5888   55.2972   27.7999 H   0  0  0  0  0  0
    5.1031   54.3102   25.6237 H   0  0  0  0  0  0
    3.8420   53.2989   26.3019 H   0  0  0  0  0  0
    3.6476   55.0530   26.2675 H   0  0  0  0  0  0
   -1.5048   51.4129   30.9253 H   0  0  0  0  0  0
   -0.0507   52.0329   30.2454 H   0  0  0  0  0  0
   -5.8308   49.9926   27.6213 H   0  0  0  0  0  0
   -7.7553   51.2905   26.7745 H   0  0  0  0  0  0
   -7.3768   53.3022   25.3706 H   0  0  0  0  0  0
   -3.1568   52.8053   25.7768 H   0  0  0  0  0  0
   -1.2493   50.8036   23.2222 H   0  0  0  0  0  0
   -1.1814   49.0525   23.1730 H   0  0  0  0  0  0
    0.1577   52.1973   24.8392 H   0  0  0  0  0  0
    1.3182   51.2968   25.8123 H   0  0  0  0  0  0
    1.3203   49.4177   22.6117 H   0  0  0  0  0  0
    1.1090   51.1578   22.7536 H   0  0  0  0  0  0
    2.3489   50.3360   23.6866 H   0  0  0  0  0  0
    0.7044   47.8638   24.6358 H   0  0  0  0  0  0
    1.5956   48.8315   25.8014 H   0  0  0  0  0  0
   -0.0964   48.5080   26.0501 H   0  0  0  0  0  0
  1  2  1  0  0  0
  1 34  1  0  0  0
  1 35  1  0  0  0
  1 36  1  0  0  0
  2  3  1  0  0  0
  2  4  1  0  0  0
  2 37  1  0  0  0
  3 38  1  0  0  0
  3 39  1  0  0  0
  3 40  1  0  0  0
  4  5  1  0  0  0
  5  9  1  0  0  0
  5  6  2  0  0  0
  6  7  1  0  0  0
  7  8  2  0  0  0
  8  9  1  0  0  0
  8 10  1  0  0  0
 10 16  1  0  0  0
 10 11  1  0  0  0
 11 31  1  0  0  0
 11 12  2  0  0  0
 12 13  1  0  0  0
 12 27  1  0  0  0
 13 14  1  0  0  0
 13 15  1  0  0  0
 13 20  1  0  0  0
 15 16  2  0  0  0
 15 18  1  0  0  0
 16 17  1  0  0  0
 17 41  1  0  0  0
 17 42  1  0  0  0
 18 19  3  0  0  0
 20 25  2  0  0  0
 20 21  1  0  0  0
 21 22  2  0  0  0
 21 43  1  0  0  0
 22 23  1  0  0  0
 22 44  1  0  0  0
 23 24  2  0  0  0
 23 45  1  0  0  0
 24 25  1  0  0  0
 24 26  1  0  0  0
 25 46  1  0  0  0
 27 28  2  0  0  0
 27 29  1  0  0  0
 29 30  1  0  0  0
 29 47  1  0  0  0
 29 48  1  0  0  0
 30 31  1  0  0  0
 30 32  1  0  0  0
 30 33  1  0  0  0
 31 49  1  0  0  0
 31 50  1  0  0  0
 32 51  1  0  0  0
 32 52  1  0  0  0
 32 53  1  0  0  0
 33 54  1  0  0  0
 33 55  1  0  0  0
 33 56  1  0  0  0
M  END
> <i_i_glide_confnum>
9

> <i_i_glide_lignum>
4401

> <i_i_glide_posenum>
128

> <i_i_glide_rotatable_bonds>
5

> <i_m_Source_File_Index>
884

> <b_m_subgroup_collapsed>
0

> <r_i_docking_score>
-4.18474

> <r_i_glide_ecoul>
-2.94441

> <r_i_glide_eff_state_penalty>
0

> <r_i_glide_einternal>
6.41084

> <r_i_glide_emodel>
-45.1882

> <r_i_glide_energy>
-37.9223

> <r_i_glide_erotb>
0.258027

> <r_i_glide_esite>
-0.250836

> <r_i_glide_evdw>
-34.9779

> <r_i_glide_gscore>
-4.18474

> <r_i_glide_hbond>
-0.0888038

> <r_i_glide_ligand_efficiency>
-0.130773

> <r_i_glide_ligand_efficiency_ln>
-0.937078

> <r_i_glide_ligand_efficiency_sa>
-0.415179

> <r_i_glide_lipo>
-1.81749

> <r_i_glide_metal>
0

> <r_i_glide_rewards>
-0.0950846

> <s_i_glide_gridfile>
wee1_glide-grid

> <s_m_Source_File>
wee1_decoys_glide_SP.sdf

> <s_m_Source_Path>
/Users/zhangxujun/Desktop

> <s_m_entry_id>
1159

> <s_m_entry_name>
wee1_decoys_glide_SP.884

> <s_m_subgroup_title>
wee1_decoys_glide_SP

> <s_m_subgroupid>
wee1_decoys_glide_SP


$$$$
