ZINC22190668_22
                    3D
 Schrodinger Suite 2024-2.
 55 58  0  0  1  0            999 V2000
   -1.1537   50.5343   19.6323 C   0  0  0  0  0  0
   -0.1898   49.3300   19.7659 C   0  0  2  0  0  0
   -0.6049   48.4894   19.2089 H   0  0  0  0  0  0
   -0.1205   48.8986   21.2651 C   0  0  0  0  0  0
   -0.9170   48.0951   21.7573 O   0  0  0  0  0  0
    0.8934   49.5283   21.9381 N   0  0  0  0  0  0
    1.7163   50.5308   21.3598 C   0  0  0  0  0  0
    2.4644   51.4648   22.0919 C   0  0  0  0  0  0
    3.3114   52.3647   21.4413 C   0  0  0  0  0  0
    3.4380   52.3287   20.0521 C   0  0  0  0  0  0
    2.7034   51.4068   19.3072 C   0  0  0  0  0  0
    1.8411   50.5334   19.9653 C   0  0  0  0  0  0
    1.1190   49.6211   19.2271 O   0  0  0  0  0  0
    1.0293   49.2583   23.3946 C   0  0  0  0  0  0
    0.1220   50.1303   24.2852 C   0  0  0  0  0  0
   -0.6829   50.9273   23.7909 O   0  0  0  0  0  0
    0.3045   49.9523   25.6112 N   0  0  0  0  0  0
   -0.6278   50.5059   26.4819 N   0  0  0  0  0  0
   -0.3046   51.4680   27.3798 C   0  0  0  0  0  0
   -1.0720   51.6978   28.3134 O   0  0  0  0  0  0
    0.8819   52.2998   27.2480 C   0  0  0  0  0  0
    1.5346   52.9324   28.2982 C   0  0  0  0  0  0
    2.5429   53.8286   27.9180 C   0  0  0  0  0  0
    2.6977   53.8843   26.5293 C   0  0  0  0  0  0
    1.5043   52.8948   25.7368 S   0  0  0  0  0  0
    3.6851   54.7081   25.7257 C   0  0  0  0  0  0
    5.0768   54.0588   25.5992 C   0  0  0  0  0  0
    5.6680   53.4160   26.8774 C   0  0  0  0  0  0
    5.8103   54.3431   28.1038 C   0  0  0  0  0  0
    4.7460   54.1665   29.2129 C   0  0  0  0  0  0
    3.3256   54.6734   28.9038 C   0  0  0  0  0  0
   -2.1535   50.2918   19.9958 H   0  0  0  0  0  0
   -0.8047   51.4079   20.1848 H   0  0  0  0  0  0
   -1.2504   50.8292   18.5873 H   0  0  0  0  0  0
    2.3957   51.5108   23.1673 H   0  0  0  0  0  0
    3.8789   53.0829   22.0147 H   0  0  0  0  0  0
    4.1078   53.0108   19.5490 H   0  0  0  0  0  0
    2.8159   51.3594   18.2333 H   0  0  0  0  0  0
    0.7946   48.2128   23.6008 H   0  0  0  0  0  0
    2.0763   49.3243   23.6894 H   0  0  0  0  0  0
    0.7848   49.1540   26.0025 H   0  0  0  0  0  0
   -1.3892   49.8698   26.6791 H   0  0  0  0  0  0
    1.2592   52.7729   29.3316 H   0  0  0  0  0  0
    3.2960   54.8991   24.7245 H   0  0  0  0  0  0
    3.8024   55.6946   26.1699 H   0  0  0  0  0  0
    5.0279   53.2973   24.8215 H   0  0  0  0  0  0
    5.7761   54.8043   25.2172 H   0  0  0  0  0  0
    5.0992   52.5260   27.1486 H   0  0  0  0  0  0
    6.6597   53.0405   26.6206 H   0  0  0  0  0  0
    6.7790   54.1330   28.5616 H   0  0  0  0  0  0
    5.8725   55.3857   27.7939 H   0  0  0  0  0  0
    4.7042   53.1237   29.5317 H   0  0  0  0  0  0
    5.0977   54.7270   30.0813 H   0  0  0  0  0  0
    3.3819   55.6966   28.5448 H   0  0  0  0  0  0
    2.7706   54.7523   29.8391 H   0  0  0  0  0  0
  1  2  1  0  0  0
  1 32  1  0  0  0
  1 33  1  0  0  0
  1 34  1  0  0  0
  2  3  1  0  0  0
  2 13  1  0  0  0
  2  4  1  0  0  0
  4  5  2  0  0  0
  4  6  1  0  0  0
  6  7  1  0  0  0
  6 14  1  0  0  0
  7 12  2  0  0  0
  7  8  1  0  0  0
  8  9  2  0  0  0
  8 35  1  0  0  0
  9 10  1  0  0  0
  9 36  1  0  0  0
 10 11  2  0  0  0
 10 37  1  0  0  0
 11 12  1  0  0  0
 11 38  1  0  0  0
 12 13  1  0  0  0
 14 15  1  0  0  0
 14 39  1  0  0  0
 14 40  1  0  0  0
 15 16  2  0  0  0
 15 17  1  0  0  0
 17 18  1  0  0  0
 17 41  1  0  0  0
 18 19  1  0  0  0
 18 42  1  0  0  0
 19 20  2  0  0  0
 19 21  1  0  0  0
 21 25  1  0  0  0
 21 22  2  0  0  0
 22 23  1  0  0  0
 22 43  1  0  0  0
 23 31  1  0  0  0
 23 24  2  0  0  0
 24 25  1  0  0  0
 24 26  1  0  0  0
 26 27  1  0  0  0
 26 44  1  0  0  0
 26 45  1  0  0  0
 27 28  1  0  0  0
 27 46  1  0  0  0
 27 47  1  0  0  0
 28 29  1  0  0  0
 28 48  1  0  0  0
 28 49  1  0  0  0
 29 30  1  0  0  0
 29 50  1  0  0  0
 29 51  1  0  0  0
 30 31  1  0  0  0
 30 52  1  0  0  0
 30 53  1  0  0  0
 31 54  1  0  0  0
 31 55  1  0  0  0
M  END
> <i_i_glide_confnum>
48

> <i_i_glide_lignum>
23

> <i_i_glide_posenum>
239

> <i_i_glide_rotatable_bonds>
6

> <i_m_Source_File_Index>
1451

> <b_m_subgroup_collapsed>
0

> <r_i_docking_score>
-5.1531

> <r_i_glide_ecoul>
-3.29333

> <r_i_glide_eff_state_penalty>
0

> <r_i_glide_einternal>
7.99126

> <r_i_glide_emodel>
-50.1676

> <r_i_glide_energy>
-41.025

> <r_i_glide_erotb>
0.543182

> <r_i_glide_esite>
-0.170403

> <r_i_glide_evdw>
-37.7316

> <r_i_glide_gscore>
-5.1531

> <r_i_glide_hbond>
-0.0312325

> <r_i_glide_ligand_efficiency>
-0.17177

> <r_i_glide_ligand_efficiency_ln>
-1.17084

> <r_i_glide_ligand_efficiency_sa>
-0.53373

> <r_i_glide_lipo>
-2.44391

> <r_i_glide_metal>
0

> <r_i_glide_rewards>
-0.67016

> <s_i_glide_gridfile>
wee1_glide-grid

> <s_m_Source_File>
wee1_decoys_glide_SP.sdf

> <s_m_Source_Path>
/Users/zhangxujun/Desktop

> <s_m_entry_id>
1726

> <s_m_entry_name>
wee1_decoys_glide_SP.1451

> <s_m_subgroup_title>
wee1_decoys_glide_SP

> <s_m_subgroupid>
wee1_decoys_glide_SP


$$$$
