ZINC11328334_3371
                    3D
 Schrodinger Suite 2024-2.
 56 59  0  0  1  0            999 V2000
    0.3043   53.7271   31.0481 C   0  0  0  0  0  0
    0.9431   54.8269   30.4818 C   0  0  0  0  0  0
    1.4870   54.7273   29.2064 C   0  0  0  0  0  0
    1.3829   53.5337   28.4680 C   0  0  0  0  0  0
    0.7110   52.4513   29.0491 C   0  0  0  0  0  0
    0.1800   52.5395   30.3333 C   0  0  0  0  0  0
    1.8591   53.3883   27.1577 N   0  0  0  0  0  0
    2.8786   54.0969   26.8727 N   0  0  0  0  0  0
    3.2778   54.0546   25.5268 C   0  0  0  0  0  0
    4.5874   54.4398   25.2206 C   0  0  0  0  0  0
    5.0517   54.4500   23.9065 C   0  0  0  0  0  0
    4.1843   54.0969   22.8647 C   0  0  0  0  0  0
    2.8777   53.7091   23.1486 C   0  0  0  0  0  0
    2.4298   53.6927   24.4634 C   0  0  0  0  0  0
    4.5460   54.0706   21.5124 N   0  0  0  0  0  0
    5.5073   54.7622   20.8640 C   0  0  0  0  0  0
    6.3027   55.5414   21.3953 O   0  0  0  0  0  0
    5.5936   54.4733   19.3841 C   0  0  0  0  0  0
    6.8178   54.5981   18.7112 C   0  0  0  0  0  0
    6.9212   54.2686   17.3591 C   0  0  0  0  0  0
    5.8051   53.8085   16.6618 C   0  0  0  0  0  0
    4.5750   53.6968   17.3133 C   0  0  0  0  0  0
    4.4689   54.0493   18.6581 C   0  0  0  0  0  0
    3.1387   53.0484   16.4690 S   0  0  0  0  0  0
    3.5708   52.5964   15.1422 O   0  0  0  0  0  0
    2.0831   54.0561   16.6173 O   0  0  0  0  0  0
    2.7044   51.6175   17.4035 N   0  0  0  0  0  0
    1.3300   51.3972   17.9030 C   0  0  1  0  0  0
    0.7129   51.2536   17.0137 H   0  0  0  0  0  0
    1.3492   50.0761   18.7070 C   0  0  0  0  0  0
    0.0316   49.9542   19.4913 C   0  0  0  0  0  0
   -0.3579   51.6969   20.0502 S   0  0  0  0  0  0
    0.1240   51.9237   21.4156 O   0  0  0  0  0  0
   -1.7384   52.0361   19.6857 O   0  0  0  0  0  0
    0.8318   52.4969   18.8556 C   0  0  0  0  0  0
   -0.1070   53.7923   32.0453 H   0  0  0  0  0  0
    1.0255   55.7515   31.0352 H   0  0  0  0  0  0
    1.9746   55.5926   28.7806 H   0  0  0  0  0  0
    0.5957   51.5279   28.4984 H   0  0  0  0  0  0
   -0.3370   51.6967   30.7743 H   0  0  0  0  0  0
    5.2598   54.7249   26.0169 H   0  0  0  0  0  0
    6.0763   54.7315   23.7140 H   0  0  0  0  0  0
    2.1939   53.4324   22.3583 H   0  0  0  0  0  0
    1.4062   53.4035   24.6507 H   0  0  0  0  0  0
    3.9666   53.4835   20.9355 H   0  0  0  0  0  0
    7.7035   54.9292   19.2358 H   0  0  0  0  0  0
    7.8733   54.3529   16.8558 H   0  0  0  0  0  0
    5.9020   53.5303   15.6221 H   0  0  0  0  0  0
    3.5018   53.9730   19.1315 H   0  0  0  0  0  0
    3.1649   50.7625   17.0533 H   0  0  0  0  0  0
    2.1874   50.0724   19.4073 H   0  0  0  0  0  0
    1.4884   49.2168   18.0477 H   0  0  0  0  0  0
   -0.0057   49.2597   20.3293 H   0  0  0  0  0  0
   -0.7477   49.6709   18.7851 H   0  0  0  0  0  0
    0.4800   53.4438   18.4503 H   0  0  0  0  0  0
    1.6787   52.7672   19.4817 H   0  0  0  0  0  0
  1  6  2  0  0  0
  1  2  1  0  0  0
  1 36  1  0  0  0
  2  3  2  0  0  0
  2 37  1  0  0  0
  3  4  1  0  0  0
  3 38  1  0  0  0
  4  5  2  0  0  0
  4  7  1  0  0  0
  5  6  1  0  0  0
  5 39  1  0  0  0
  6 40  1  0  0  0
  7  8  2  0  0  0
  8  9  1  0  0  0
  9 14  2  0  0  0
  9 10  1  0  0  0
 10 11  2  0  0  0
 10 41  1  0  0  0
 11 12  1  0  0  0
 11 42  1  0  0  0
 12 13  2  0  0  0
 12 15  1  0  0  0
 13 14  1  0  0  0
 13 43  1  0  0  0
 14 44  1  0  0  0
 15 16  1  0  0  0
 15 45  1  0  0  0
 16 17  2  0  0  0
 16 18  1  0  0  0
 18 23  2  0  0  0
 18 19  1  0  0  0
 19 20  2  0  0  0
 19 46  1  0  0  0
 20 21  1  0  0  0
 20 47  1  0  0  0
 21 22  2  0  0  0
 21 48  1  0  0  0
 22 23  1  0  0  0
 22 24  1  0  0  0
 23 49  1  0  0  0
 24 25  2  0  0  0
 24 26  2  0  0  0
 24 27  1  0  0  0
 27 28  1  0  0  0
 27 50  1  0  0  0
 28 29  1  0  0  0
 28 35  1  0  0  0
 28 30  1  0  0  0
 30 31  1  0  0  0
 30 51  1  0  0  0
 30 52  1  0  0  0
 31 32  1  0  0  0
 31 53  1  0  0  0
 31 54  1  0  0  0
 32 33  2  0  0  0
 32 34  2  0  0  0
 32 35  1  0  0  0
 35 55  1  0  0  0
 35 56  1  0  0  0
M  END
> <i_i_glide_confnum>
248

> <i_i_glide_lignum>
3372

> <i_i_glide_posenum>
155

> <i_i_glide_rotatable_bonds>
8

> <i_m_Source_File_Index>
1092

> <b_m_subgroup_collapsed>
0

> <r_i_docking_score>
-4.56074

> <r_i_glide_ecoul>
-8.46966

> <r_i_glide_eff_state_penalty>
0

> <r_i_glide_einternal>
7.55948

> <r_i_glide_emodel>
-61.0977

> <r_i_glide_energy>
-52.7032

> <r_i_glide_erotb>
0.656757

> <r_i_glide_esite>
-0.198331

> <r_i_glide_evdw>
-44.2335

> <r_i_glide_gscore>
-4.56074

> <r_i_glide_hbond>
-0.16

> <r_i_glide_ligand_efficiency>
-0.13414

> <r_i_glide_ligand_efficiency_ln>
-1.0076

> <r_i_glide_ligand_efficiency_sa>
-0.43456

> <r_i_glide_lipo>
-2.34262

> <r_i_glide_metal>
0

> <r_i_glide_rewards>
0.965578

> <s_i_glide_gridfile>
wee1_glide-grid

> <s_m_Source_File>
wee1_decoys_glide_SP.sdf

> <s_m_Source_Path>
/Users/zhangxujun/Desktop

> <s_m_entry_id>
1367

> <s_m_entry_name>
wee1_decoys_glide_SP.1092

> <s_m_subgroup_title>
wee1_decoys_glide_SP

> <s_m_subgroupid>
wee1_decoys_glide_SP


$$$$
