ZINC64982849_861
                    3D
 Schrodinger Suite 2024-2.
 59 61  0  0  1  0            999 V2000
   -0.6301   51.7491   27.4206 C   0  0  0  0  0  0
    0.5689   51.9203   26.4670 C   0  0  1  0  0  0
    1.3145   51.1794   26.7564 H   0  0  0  0  0  0
    0.1344   51.7201   24.9920 C   0  0  0  0  0  0
   -0.6624   52.5037   24.4716 O   0  0  0  0  0  0
    0.7452   50.7081   24.3400 N   0  0  0  0  0  0
    0.7069   50.3787   22.9755 C   0  0  0  0  0  0
    1.8080   49.6753   22.4810 C   0  0  0  0  0  0
    1.8484   49.2724   21.1492 C   0  0  0  0  0  0
    0.7723   49.5584   20.3106 C   0  0  0  0  0  0
   -0.3234   50.2784   20.7898 C   0  0  0  0  0  0
   -0.3593   50.6893   22.1201 C   0  0  0  0  0  0
    0.7927   48.9861   18.6115 S   0  0  0  0  0  0
    1.4258   47.6641   18.6196 O   0  0  0  0  0  0
   -0.5474   49.1727   18.0432 O   0  0  0  0  0  0
    1.9044   50.0631   17.7591 N   0  0  0  0  0  0
    1.6643   51.4171   17.5052 C   0  0  0  0  0  0
    2.6812   52.1597   16.8972 C   0  0  0  0  0  0
    2.4710   53.5158   16.6397 C   0  0  0  0  0  0
    1.2532   54.0973   16.9939 C   0  0  0  0  0  0
    0.2857   53.2964   17.6034 C   0  0  0  0  0  0
    0.4764   51.9791   17.8604 N   0  0  0  0  0  0
    1.1042   53.2369   26.7086 O   0  0  0  0  0  0
    2.3665   53.5710   26.2509 C   0  0  0  0  0  0
    2.5875   53.7006   24.8708 C   0  0  0  0  0  0
    3.8208   54.0994   24.3720 C   0  0  0  0  0  0
    4.8578   54.3831   25.2504 C   0  0  0  0  0  0
    4.6529   54.2793   26.6224 C   0  0  0  0  0  0
    3.4104   53.8853   27.1611 C   0  0  0  0  0  0
    3.2007   53.8352   28.7072 C   0  0  0  0  0  0
    2.0600   54.7969   29.1286 C   0  0  0  0  0  0
    4.4611   54.2676   29.5029 C   0  0  0  0  0  0
    2.8844   52.3950   29.1776 C   0  0  0  0  0  0
   -1.0625   50.7503   27.3495 H   0  0  0  0  0  0
   -0.3377   51.9017   28.4595 H   0  0  0  0  0  0
   -1.4190   52.4712   27.2033 H   0  0  0  0  0  0
    1.4282   50.1863   24.8659 H   0  0  0  0  0  0
    2.6396   49.4267   23.1246 H   0  0  0  0  0  0
    2.7030   48.7261   20.7778 H   0  0  0  0  0  0
   -1.1532   50.5055   20.1374 H   0  0  0  0  0  0
   -1.2283   51.2215   22.4752 H   0  0  0  0  0  0
    2.8252   49.6965   17.5064 H   0  0  0  0  0  0
    3.6218   51.6957   16.6371 H   0  0  0  0  0  0
    3.2473   54.1065   16.1729 H   0  0  0  0  0  0
    1.0713   55.1457   16.8090 H   0  0  0  0  0  0
   -0.6651   53.7140   17.8996 H   0  0  0  0  0  0
    1.7965   53.5366   24.1603 H   0  0  0  0  0  0
    3.9687   54.1983   23.3065 H   0  0  0  0  0  0
    5.8187   54.6916   24.8664 H   0  0  0  0  0  0
    5.4926   54.5262   27.2499 H   0  0  0  0  0  0
    1.0873   54.4982   28.7443 H   0  0  0  0  0  0
    1.9519   54.8454   30.2124 H   0  0  0  0  0  0
    2.2477   55.8123   28.7784 H   0  0  0  0  0  0
    5.3123   53.6254   29.2816 H   0  0  0  0  0  0
    4.7529   55.2966   29.2844 H   0  0  0  0  0  0
    4.3043   54.2056   30.5790 H   0  0  0  0  0  0
    3.6685   51.6970   28.8811 H   0  0  0  0  0  0
    2.7967   52.3401   30.2628 H   0  0  0  0  0  0
    1.9443   52.0181   28.7871 H   0  0  0  0  0  0
  1  2  1  0  0  0
  1 34  1  0  0  0
  1 35  1  0  0  0
  1 36  1  0  0  0
  2  3  1  0  0  0
  2  4  1  0  0  0
  2 23  1  0  0  0
  4  5  2  0  0  0
  4  6  1  0  0  0
  6  7  1  0  0  0
  6 37  1  0  0  0
  7 12  2  0  0  0
  7  8  1  0  0  0
  8  9  2  0  0  0
  8 38  1  0  0  0
  9 10  1  0  0  0
  9 39  1  0  0  0
 10 11  2  0  0  0
 10 13  1  0  0  0
 11 12  1  0  0  0
 11 40  1  0  0  0
 12 41  1  0  0  0
 13 14  2  0  0  0
 13 15  2  0  0  0
 13 16  1  0  0  0
 16 17  1  0  0  0
 16 42  1  0  0  0
 17 22  2  0  0  0
 17 18  1  0  0  0
 18 19  2  0  0  0
 18 43  1  0  0  0
 19 20  1  0  0  0
 19 44  1  0  0  0
 20 21  2  0  0  0
 20 45  1  0  0  0
 21 22  1  0  0  0
 21 46  1  0  0  0
 23 24  1  0  0  0
 24 29  2  0  0  0
 24 25  1  0  0  0
 25 26  2  0  0  0
 25 47  1  0  0  0
 26 27  1  0  0  0
 26 48  1  0  0  0
 27 28  2  0  0  0
 27 49  1  0  0  0
 28 29  1  0  0  0
 28 50  1  0  0  0
 29 30  1  0  0  0
 30 31  1  0  0  0
 30 32  1  0  0  0
 30 33  1  0  0  0
 31 51  1  0  0  0
 31 52  1  0  0  0
 31 53  1  0  0  0
 32 54  1  0  0  0
 32 55  1  0  0  0
 32 56  1  0  0  0
 33 57  1  0  0  0
 33 58  1  0  0  0
 33 59  1  0  0  0
M  END
> <i_i_glide_confnum>
35

> <i_i_glide_lignum>
862

> <i_i_glide_posenum>
284

> <i_i_glide_rotatable_bonds>
9

> <i_m_Source_File_Index>
5983

> <b_m_subgroup_collapsed>
0

> <r_i_docking_score>
-4.79584

> <r_i_glide_ecoul>
-4.99567

> <r_i_glide_eff_state_penalty>
0

> <r_i_glide_einternal>
9.06665

> <r_i_glide_emodel>
-48.8492

> <r_i_glide_energy>
-40.653

> <r_i_glide_erotb>
0.780667

> <r_i_glide_esite>
-0.172391

> <r_i_glide_evdw>
-35.6573

> <r_i_glide_gscore>
-4.79584

> <r_i_glide_hbond>
-0.16

> <r_i_glide_ligand_efficiency>
-0.14987

> <r_i_glide_ligand_efficiency_ln>
-1.07392

> <r_i_glide_ligand_efficiency_sa>
-0.475808

> <r_i_glide_lipo>
-2.45201

> <r_i_glide_metal>
0

> <r_i_glide_rewards>
-0.259896

> <s_i_glide_gridfile>
wee1_glide-grid

> <s_m_Source_File>
wee1_decoys_glide_SP.sdf

> <s_m_Source_Path>
/Users/zhangxujun/Desktop

> <s_m_entry_id>
6258

> <s_m_entry_name>
wee1_decoys_glide_SP.5983

> <s_m_subgroup_title>
wee1_decoys_glide_SP

> <s_m_subgroupid>
wee1_decoys_glide_SP


$$$$
