ZINC16013194_2520
                    3D
 Schrodinger Suite 2024-2.
 56 60  0  0  1  0            999 V2000
    2.9602   54.2219   29.2216 C   0  0  0  0  0  0
    2.3707   53.5719   27.9775 C   0  0  0  0  0  0
    2.7008   54.0965   26.7213 C   0  0  0  0  0  0
    2.1468   53.5630   25.5563 C   0  0  0  0  0  0
    1.2882   52.4678   25.6445 C   0  0  0  0  0  0
    1.0027   51.9158   26.8807 C   0  0  0  0  0  0
    1.5054   52.4638   28.0666 C   0  0  0  0  0  0
    1.1505   51.8550   29.4150 C   0  0  0  0  0  0
    0.2669   50.7518   26.6976 N   0  0  0  0  0  0
    0.0619   50.4587   25.4052 C   0  0  0  0  0  0
   -0.4360   49.4266   24.9564 O   0  0  0  0  0  0
    0.5252   51.7127   24.5891 C   0  0  1  0  0  0
   -0.6388   52.5359   23.9153 C   0  0  1  0  0  0
   -0.4167   53.6048   23.9262 H   0  0  0  0  0  0
   -0.7127   52.0636   22.4854 C   0  0  1  0  0  0
   -0.5426   52.8965   21.8049 H   0  0  0  0  0  0
    0.3788   50.9872   22.3521 C   0  0  2  0  0  0
   -0.0610   50.0070   22.5640 H   0  0  0  0  0  0
    1.3128   51.2727   23.4340 N   0  0  0  0  0  0
    0.9969   50.8777   20.9395 C   0  0  0  0  0  0
    1.9037   49.6597   20.7260 C   0  0  0  0  0  0
    2.2027   48.9042   21.6469 O   0  0  0  0  0  0
    2.3561   49.4544   19.4929 N   0  0  0  0  0  0
   -2.1162   51.4973   22.3305 C   0  0  0  0  0  0
   -2.5509   50.9830   21.3000 O   0  0  0  0  0  0
   -2.7685   51.6837   23.5045 N   0  0  0  0  0  0
   -2.0575   52.3333   24.4560 C   0  0  0  0  0  0
   -2.4407   52.6831   25.5726 O   0  0  0  0  0  0
   -4.1148   51.1490   23.7601 C   0  0  0  0  0  0
   -4.0765   49.6820   24.1776 C   0  0  0  0  0  0
   -4.4329   48.6880   23.2623 C   0  0  0  0  0  0
   -4.3542   47.3464   23.6295 C   0  0  0  0  0  0
   -3.9309   47.0021   24.9117 C   0  0  0  0  0  0
   -3.6060   47.9904   25.8383 C   0  0  0  0  0  0
   -3.6846   49.3325   25.4740 C   0  0  0  0  0  0
   -3.8281   45.6971   25.2542 F   0  0  0  0  0  0
    2.1696   54.4498   29.9361 H   0  0  0  0  0  0
    3.6658   53.5463   29.7045 H   0  0  0  0  0  0
    3.4720   55.1581   28.9953 H   0  0  0  0  0  0
    3.3722   54.9389   26.6431 H   0  0  0  0  0  0
    2.3898   53.9992   24.5983 H   0  0  0  0  0  0
    0.6475   50.8964   29.2896 H   0  0  0  0  0  0
    2.0453   51.6856   30.0126 H   0  0  0  0  0  0
    0.4956   52.5225   29.9750 H   0  0  0  0  0  0
    0.0024   50.1112   27.4337 H   0  0  0  0  0  0
    1.8814   50.4579   23.6380 H   0  0  0  0  0  0
    0.1949   50.8234   20.2026 H   0  0  0  0  0  0
    1.5676   51.7802   20.7164 H   0  0  0  0  0  0
    2.1838   50.1119   18.7472 H   0  0  0  0  0  0
    2.9795   48.6792   19.3222 H   0  0  0  0  0  0
   -4.6112   51.7187   24.5480 H   0  0  0  0  0  0
   -4.7396   51.2625   22.8735 H   0  0  0  0  0  0
   -4.7415   48.9514   22.2605 H   0  0  0  0  0  0
   -4.6101   46.5745   22.9199 H   0  0  0  0  0  0
   -3.2752   47.7193   26.8321 H   0  0  0  0  0  0
   -3.4064   50.0914   26.1924 H   0  0  0  0  0  0
  1  2  1  0  0  0
  1 37  1  0  0  0
  1 38  1  0  0  0
  1 39  1  0  0  0
  2  7  2  0  0  0
  2  3  1  0  0  0
  3  4  2  0  0  0
  3 40  1  0  0  0
  4  5  1  0  0  0
  4 41  1  0  0  0
  5 12  1  0  0  0
  5  6  2  0  0  0
  6  7  1  0  0  0
  6  9  1  0  0  0
  7  8  1  0  0  0
  8 42  1  0  0  0
  8 43  1  0  0  0
  8 44  1  0  0  0
  9 10  1  0  0  0
  9 45  1  0  0  0
 10 11  2  0  0  0
 10 12  1  0  0  0
 12 19  1  0  0  0
 12 13  1  0  0  0
 13 14  1  0  0  0
 13 27  1  0  0  0
 13 15  1  0  0  0
 15 16  1  0  0  0
 15 17  1  0  0  0
 15 24  1  0  0  0
 17 18  1  0  0  0
 17 19  1  0  0  0
 17 20  1  0  0  0
 19 46  1  0  0  0
 20 21  1  0  0  0
 20 47  1  0  0  0
 20 48  1  0  0  0
 21 22  2  0  0  0
 21 23  1  0  0  0
 23 49  1  0  0  0
 23 50  1  0  0  0
 24 25  2  0  0  0
 24 26  1  0  0  0
 26 27  1  0  0  0
 26 29  1  0  0  0
 27 28  2  0  0  0
 29 30  1  0  0  0
 29 51  1  0  0  0
 29 52  1  0  0  0
 30 35  2  0  0  0
 30 31  1  0  0  0
 31 32  2  0  0  0
 31 53  1  0  0  0
 32 33  1  0  0  0
 32 54  1  0  0  0
 33 34  2  0  0  0
 33 36  1  0  0  0
 34 35  1  0  0  0
 34 55  1  0  0  0
 35 56  1  0  0  0
M  END
> <i_i_glide_confnum>
22

> <i_i_glide_lignum>
2521

> <i_i_glide_posenum>
144

> <i_i_glide_rotatable_bonds>
4

> <i_m_Source_File_Index>
5672

> <b_m_subgroup_collapsed>
0

> <r_i_docking_score>
-3.68217

> <r_i_glide_ecoul>
-2.10224

> <r_i_glide_eff_state_penalty>
0

> <r_i_glide_einternal>
0.367318

> <r_i_glide_emodel>
-44.1867

> <r_i_glide_energy>
-35.3613

> <r_i_glide_erotb>
0.296416

> <r_i_glide_esite>
-0.229275

> <r_i_glide_evdw>
-33.2591

> <r_i_glide_gscore>
-3.68217

> <r_i_glide_hbond>
0

> <r_i_glide_ligand_efficiency>
-0.111581

> <r_i_glide_ligand_efficiency_ln>
-0.818895

> <r_i_glide_ligand_efficiency_sa>
-0.3579

> <r_i_glide_lipo>
-1.34571

> <r_i_glide_metal>
0

> <r_i_glide_rewards>
-0.425311

> <s_i_glide_gridfile>
wee1_glide-grid

> <s_m_Source_File>
wee1_decoys_glide_SP.sdf

> <s_m_Source_Path>
/Users/zhangxujun/Desktop

> <s_m_entry_id>
5947

> <s_m_entry_name>
wee1_decoys_glide_SP.5672

> <s_m_subgroup_title>
wee1_decoys_glide_SP

> <s_m_subgroupid>
wee1_decoys_glide_SP


$$$$
