ZINC39665391_5544
                    3D
 Schrodinger Suite 2024-2.
 70 74  0  0  1  0            999 V2000
    3.7985   51.3035   20.2069 C   0  0  0  0  0  0
    2.4120   50.8415   19.7403 C   0  0  2  0  0  0
    2.5057   50.5456   18.6921 H   0  0  0  0  0  0
    1.3312   51.9441   19.8412 C   0  0  0  0  0  0
    1.2239   52.4964   21.1921 N   0  0  0  0  0  0
    0.2949   52.1907   22.1132 C   0  0  0  0  0  0
   -0.7029   51.5256   21.8391 O   0  0  0  0  0  0
    0.4495   52.7754   23.5474 C   0  0  2  0  0  0
   -0.1961   53.6518   23.6106 H   0  0  0  0  0  0
    1.8996   53.2515   23.7785 C   0  0  0  0  0  0
    2.0712   53.2033   25.2286 N   0  0  0  0  0  0
    0.9454   52.5147   25.8705 C   0  0  0  0  0  0
    0.1731   51.8016   24.7253 C   0  0  0  0  0  0
   -1.3392   51.6205   25.0074 C   0  0  0  0  0  0
   -1.5819   50.7863   26.2789 C   0  0  0  0  0  0
   -0.9389   49.3957   26.0817 N   0  3  0  0  0  0
    0.5566   49.4303   25.6938 C   0  0  0  0  0  0
    0.7145   50.3536   24.4655 C   0  0  0  0  0  0
    3.1167   53.6939   25.9540 C   0  0  0  0  0  0
    3.0872   53.7303   27.1863 O   0  0  0  0  0  0
    4.3403   54.0986   25.2760 C   0  0  0  0  0  0
    5.5650   54.4929   25.8071 C   0  0  0  0  0  0
    6.4191   54.7424   24.7307 C   0  0  0  0  0  0
    5.6857   54.5319   23.5714 C   0  0  0  0  0  0
    4.4373   54.1190   23.9171 O   0  0  0  0  0  0
    5.9657   54.7578   22.1202 C   0  0  0  0  0  0
    5.0192   54.4423   21.1401 C   0  0  0  0  0  0
    5.2826   54.7103   19.7982 C   0  0  0  0  0  0
    6.4916   55.2960   19.4337 C   0  0  0  0  0  0
    7.4373   55.6239   20.4005 C   0  0  0  0  0  0
    7.1714   55.3544   21.7402 C   0  0  0  0  0  0
    6.7468   55.5561   18.1325 F   0  0  0  0  0  0
    2.0536   49.7453   20.5824 O   0  0  0  0  0  0
    1.3262   48.7444   19.9895 C   0  0  0  0  0  0
    0.0471   48.4747   20.4737 C   0  0  0  0  0  0
   -0.7096   47.4541   19.9036 C   0  0  0  0  0  0
   -0.1776   46.7043   18.8552 C   0  0  0  0  0  0
    1.1036   46.9656   18.3719 C   0  0  0  0  0  0
    1.8588   47.9865   18.9423 C   0  0  0  0  0  0
    4.1606   52.1269   19.5944 H   0  0  0  0  0  0
    3.8047   51.6086   21.2525 H   0  0  0  0  0  0
    4.5157   50.4967   20.1007 H   0  0  0  0  0  0
    1.5787   52.7633   19.1641 H   0  0  0  0  0  0
    0.3725   51.5479   19.4998 H   0  0  0  0  0  0
    1.9034   53.2053   21.4205 H   0  0  0  0  0  0
    2.6088   52.5238   23.3771 H   0  0  0  0  0  0
    2.0586   54.2475   23.3601 H   0  0  0  0  0  0
    0.3031   53.2940   26.2802 H   0  0  0  0  0  0
    1.2059   51.8601   26.7007 H   0  0  0  0  0  0
   -1.7967   52.5990   25.1630 H   0  0  0  0  0  0
   -1.8608   51.1943   24.1486 H   0  0  0  0  0  0
   -1.1315   51.2102   27.1782 H   0  0  0  0  0  0
   -2.6406   50.6034   26.4707 H   0  0  0  0  0  0
   -1.0606   48.8880   26.9733 H   0  0  0  0  0  0
    1.1015   49.7561   26.5795 H   0  0  0  0  0  0
    0.8421   48.3986   25.4800 H   0  0  0  0  0  0
    0.2365   49.8877   23.6033 H   0  0  0  0  0  0
    1.7720   50.3914   24.1993 H   0  0  0  0  0  0
    5.8079   54.5740   26.8574 H   0  0  0  0  0  0
    7.4452   55.0739   24.7809 H   0  0  0  0  0  0
    4.0711   54.0039   21.4125 H   0  0  0  0  0  0
    4.5515   54.4727   19.0393 H   0  0  0  0  0  0
    8.3738   56.0774   20.1087 H   0  0  0  0  0  0
    7.9043   55.6280   22.4823 H   0  0  0  0  0  0
   -0.3555   49.0565   21.2880 H   0  0  0  0  0  0
   -1.7033   47.2466   20.2722 H   0  0  0  0  0  0
   -0.7645   45.9144   18.4099 H   0  0  0  0  0  0
    1.5120   46.3837   17.5583 H   0  0  0  0  0  0
    2.8549   48.1916   18.5728 H   0  0  0  0  0  0
   -1.4592   48.8772   25.3895 H   0  0  0  0  0  0
  1  2  1  0  0  0
  1 40  1  0  0  0
  1 41  1  0  0  0
  1 42  1  0  0  0
  2  3  1  0  0  0
  2  4  1  0  0  0
  2 33  1  0  0  0
  4  5  1  0  0  0
  4 43  1  0  0  0
  4 44  1  0  0  0
  5  6  1  0  0  0
  5 45  1  0  0  0
  6  7  2  0  0  0
  6  8  1  0  0  0
  8  9  1  0  0  0
  8 13  1  0  0  0
  8 10  1  0  0  0
 10 11  1  0  0  0
 10 46  1  0  0  0
 10 47  1  0  0  0
 11 12  1  0  0  0
 11 19  1  0  0  0
 12 13  1  0  0  0
 12 48  1  0  0  0
 12 49  1  0  0  0
 13 18  1  0  0  0
 13 14  1  0  0  0
 14 15  1  0  0  0
 14 50  1  0  0  0
 14 51  1  0  0  0
 15 16  1  0  0  0
 15 52  1  0  0  0
 15 53  1  0  0  0
 16 17  1  0  0  0
 16 54  1  0  0  0
 16 70  1  0  0  0
 17 18  1  0  0  0
 17 55  1  0  0  0
 17 56  1  0  0  0
 18 57  1  0  0  0
 18 58  1  0  0  0
 19 20  2  0  0  0
 19 21  1  0  0  0
 21 25  1  0  0  0
 21 22  2  0  0  0
 22 23  1  0  0  0
 22 59  1  0  0  0
 23 24  2  0  0  0
 23 60  1  0  0  0
 24 25  1  0  0  0
 24 26  1  0  0  0
 26 31  2  0  0  0
 26 27  1  0  0  0
 27 28  2  0  0  0
 27 61  1  0  0  0
 28 29  1  0  0  0
 28 62  1  0  0  0
 29 30  2  0  0  0
 29 32  1  0  0  0
 30 31  1  0  0  0
 30 63  1  0  0  0
 31 64  1  0  0  0
 33 34  1  0  0  0
 34 39  2  0  0  0
 34 35  1  0  0  0
 35 36  2  0  0  0
 35 65  1  0  0  0
 36 37  1  0  0  0
 36 66  1  0  0  0
 37 38  2  0  0  0
 37 67  1  0  0  0
 38 39  1  0  0  0
 38 68  1  0  0  0
 39 69  1  0  0  0
M  CHG  1  16   1
M  END
> <i_i_glide_confnum>
332

> <i_i_glide_lignum>
5545

> <i_i_glide_posenum>
371

> <i_i_glide_rotatable_bonds>
9

> <i_m_Source_File_Index>
2609

> <b_m_subgroup_collapsed>
0

> <r_i_docking_score>
-4.67314

> <r_i_glide_ecoul>
-8.50485

> <r_i_glide_eff_state_penalty>
0

> <r_i_glide_einternal>
15.9905

> <r_i_glide_emodel>
-55.276

> <r_i_glide_energy>
-50.1436

> <r_i_glide_erotb>
0.637833

> <r_i_glide_esite>
-0.126891

> <r_i_glide_evdw>
-41.6388

> <r_i_glide_gscore>
-4.67314

> <r_i_glide_hbond>
-0.2

> <r_i_glide_ligand_efficiency>
-0.126301

> <r_i_glide_ligand_efficiency_ln>
-1.0135

> <r_i_glide_ligand_efficiency_sa>
-0.420864

> <r_i_glide_lipo>
-2.30168

> <r_i_glide_metal>
0

> <r_i_glide_rewards>
0.675264

> <s_i_glide_gridfile>
wee1_glide-grid

> <s_m_Source_File>
wee1_decoys_glide_SP.sdf

> <s_m_Source_Path>
/Users/zhangxujun/Desktop

> <s_m_entry_id>
2884

> <s_m_entry_name>
wee1_decoys_glide_SP.2609

> <s_m_subgroup_title>
wee1_decoys_glide_SP

> <s_m_subgroupid>
wee1_decoys_glide_SP


$$$$
