ZINC12246357_1072
                    3D
 Schrodinger Suite 2024-2.
 70 75  0  0  1  0            999 V2000
   10.9821   55.9467   14.9168 C   0  0  0  0  0  0
   11.3398   57.2118   17.1127 C   0  0  0  0  0  0
    9.9040   57.6694   17.3066 C   0  0  0  0  0  0
    9.3768   58.7281   16.5616 C   0  0  0  0  0  0
    8.0598   59.1383   16.7680 C   0  0  0  0  0  0
    7.2695   58.4964   17.7208 C   0  0  0  0  0  0
    7.7830   57.4464   18.4832 C   0  0  0  0  0  0
    9.1094   57.0387   18.2651 C   0  0  0  0  0  0
    6.9505   56.8921   19.4368 O   0  0  0  0  0  0
    7.4898   55.9329   20.3437 C   0  0  0  0  0  0
    6.4341   55.5467   21.3941 C   0  0  1  0  0  0
    5.9046   56.4526   21.6814 H   0  0  0  0  0  0
    5.3780   54.5699   20.8387 C   0  0  0  0  0  0
    4.4199   54.0927   21.9391 C   0  0  0  0  0  0
    5.1881   53.5187   23.1433 C   0  0  0  0  0  0
    6.0904   54.5736   23.6540 N   0  0  0  0  0  0
    7.1107   55.0436   22.6938 C   0  0  0  0  0  0
    6.1933   54.9595   24.9633 C   0  0  0  0  0  0
    7.1038   55.6871   25.3744 O   0  0  0  0  0  0
    5.2071   54.4899   25.9189 C   0  0  0  0  0  0
    3.8156   54.4962   25.7482 C   0  0  0  0  0  0
    3.2938   53.9820   26.9177 N   0  0  0  0  0  0
    2.0735   53.6443   27.4784 C   0  0  0  0  0  0
    2.2233   53.1554   28.7615 C   0  0  0  0  0  0
    3.9045   53.1210   29.2830 S   0  0  0  0  0  0
    4.3896   53.7726   27.7271 C   0  0  0  0  0  0
    5.5198   54.1131   27.1511 N   0  0  0  0  0  0
   12.8870   55.2585   16.5221 C   0  0  0  0  0  0
   13.0636   53.8846   15.8929 C   0  0  0  0  0  0
   13.5388   53.7821   14.5829 C   0  0  0  0  0  0
   13.7146   52.5400   13.9798 C   0  0  0  0  0  0
   13.4270   51.3575   14.6970 C   0  0  0  0  0  0
   12.9558   51.4521   16.0440 C   0  0  0  0  0  0
   12.7797   52.7307   16.6283 C   0  0  0  0  0  0
   12.6883   50.2445   16.7381 C   0  0  0  0  0  0
   12.8914   49.0261   16.0892 C   0  0  0  0  0  0
   13.3409   49.0270   14.7702 C   0  0  0  0  0  0
   13.6127   50.1590   14.0789 N   0  0  0  0  0  0
   11.6645   56.6041   14.3762 H   0  0  0  0  0  0
   10.9809   54.9394   14.4980 H   0  0  0  0  0  0
    9.9648   56.3421   14.9201 H   0  0  0  0  0  0
   11.9346   57.9224   16.5351 H   0  0  0  0  0  0
   11.8208   57.0759   18.0829 H   0  0  0  0  0  0
    9.9800   59.2360   15.8231 H   0  0  0  0  0  0
    7.6455   59.9627   16.2034 H   0  0  0  0  0  0
    6.2554   58.8361   17.8816 H   0  0  0  0  0  0
    9.5438   56.2348   18.8405 H   0  0  0  0  0  0
    8.3626   56.3583   20.8437 H   0  0  0  0  0  0
    7.8308   55.0430   19.8111 H   0  0  0  0  0  0
    5.8882   53.6976   20.4255 H   0  0  0  0  0  0
    4.8435   55.0113   19.9960 H   0  0  0  0  0  0
    3.7595   53.3262   21.5316 H   0  0  0  0  0  0
    3.7610   54.8987   22.2629 H   0  0  0  0  0  0
    5.8118   52.6878   22.8112 H   0  0  0  0  0  0
    4.4975   53.1183   23.8785 H   0  0  0  0  0  0
    7.6778   55.8896   23.0869 H   0  0  0  0  0  0
    7.7905   54.2184   22.4812 H   0  0  0  0  0  0
    3.2008   54.7889   24.9097 H   0  0  0  0  0  0
    1.1591   53.7628   26.9159 H   0  0  0  0  0  0
    1.4442   52.8087   29.4275 H   0  0  0  0  0  0
   13.5625   55.9949   16.0804 H   0  0  0  0  0  0
   13.0756   55.2157   17.5979 H   0  0  0  0  0  0
   13.7697   54.6739   14.0174 H   0  0  0  0  0  0
   14.0709   52.4678   12.9613 H   0  0  0  0  0  0
   12.4210   52.7968   17.6464 H   0  0  0  0  0  0
   12.3290   50.2760   17.7578 H   0  0  0  0  0  0
   12.7044   48.0962   16.6004 H   0  0  0  0  0  0
   13.4942   48.1032   14.2284 H   0  0  0  0  0  0
   11.4646   55.8539   16.3832 N   0  3  2  0  0  0
   10.8406   55.2107   16.8553 H   0  0  0  0  0  0
  1 39  1  0  0  0
  1 40  1  0  0  0
  1 41  1  0  0  0
  1 69  1  0  0  0
  2  3  1  0  0  0
  2 42  1  0  0  0
  2 43  1  0  0  0
  2 69  1  0  0  0
  3  8  2  0  0  0
  3  4  1  0  0  0
  4  5  2  0  0  0
  4 44  1  0  0  0
  5  6  1  0  0  0
  5 45  1  0  0  0
  6  7  2  0  0  0
  6 46  1  0  0  0
  7  8  1  0  0  0
  7  9  1  0  0  0
  8 47  1  0  0  0
  9 10  1  0  0  0
 10 11  1  0  0  0
 10 48  1  0  0  0
 10 49  1  0  0  0
 11 12  1  0  0  0
 11 17  1  0  0  0
 11 13  1  0  0  0
 13 14  1  0  0  0
 13 50  1  0  0  0
 13 51  1  0  0  0
 14 15  1  0  0  0
 14 52  1  0  0  0
 14 53  1  0  0  0
 15 16  1  0  0  0
 15 54  1  0  0  0
 15 55  1  0  0  0
 16 17  1  0  0  0
 16 18  1  0  0  0
 17 56  1  0  0  0
 17 57  1  0  0  0
 18 19  2  0  0  0
 18 20  1  0  0  0
 20 27  1  0  0  0
 20 21  2  0  0  0
 21 22  1  0  0  0
 21 58  1  0  0  0
 22 26  1  0  0  0
 22 23  1  0  0  0
 23 24  2  0  0  0
 23 59  1  0  0  0
 24 25  1  0  0  0
 24 60  1  0  0  0
 25 26  1  0  0  0
 26 27  2  0  0  0
 28 29  1  0  0  0
 28 61  1  0  0  0
 28 62  1  0  0  0
 28 69  1  0  0  0
 29 34  2  0  0  0
 29 30  1  0  0  0
 30 31  2  0  0  0
 30 63  1  0  0  0
 31 32  1  0  0  0
 31 64  1  0  0  0
 32 38  2  0  0  0
 32 33  1  0  0  0
 33 34  1  0  0  0
 33 35  2  0  0  0
 34 65  1  0  0  0
 35 36  1  0  0  0
 35 66  1  0  0  0
 36 37  2  0  0  0
 36 67  1  0  0  0
 37 38  1  0  0  0
 37 68  1  0  0  0
 69 70  1  0  0  0
M  CHG  1  69   1
M  END
> <i_i_glide_confnum>
14

> <i_i_glide_lignum>
1073

> <i_i_glide_posenum>
114

> <i_i_glide_rotatable_bonds>
9

> <i_m_Source_File_Index>
2321

> <b_m_subgroup_collapsed>
0

> <r_i_docking_score>
-6.68277

> <r_i_glide_ecoul>
-7.44366

> <r_i_glide_eff_state_penalty>
0

> <r_i_glide_einternal>
9.55353

> <r_i_glide_emodel>
-72.5901

> <r_i_glide_energy>
-52.6963

> <r_i_glide_erotb>
0.593845

> <r_i_glide_esite>
-0.00463443

> <r_i_glide_evdw>
-45.2527

> <r_i_glide_gscore>
-6.68277

> <r_i_glide_hbond>
-0.387134

> <r_i_glide_ligand_efficiency>
-0.175862

> <r_i_glide_ligand_efficiency_ln>
-1.441

> <r_i_glide_ligand_efficiency_sa>
-0.591245

> <r_i_glide_lipo>
-2.02433

> <r_i_glide_metal>
0

> <r_i_glide_rewards>
-1.48133

> <s_i_glide_gridfile>
wee1_glide-grid

> <s_m_Source_File>
wee1_decoys_glide_SP.sdf

> <s_m_Source_Path>
/Users/zhangxujun/Desktop

> <s_m_entry_id>
2596

> <s_m_entry_name>
wee1_decoys_glide_SP.2321

> <s_m_subgroup_title>
wee1_decoys_glide_SP

> <s_m_subgroupid>
wee1_decoys_glide_SP


$$$$
