ZINC21810410_480
                    3D
 Schrodinger Suite 2024-2.
 58 61  0  0  1  0            999 V2000
    7.8817   56.0436   21.0248 C   0  0  0  0  0  0
    6.6771   55.2964   21.5750 C   0  0  0  0  0  0
    6.5105   55.2205   22.7904 O   0  0  0  0  0  0
    5.9042   54.7059   20.6419 N   0  0  0  0  0  0
    4.7907   53.8657   20.8115 C   0  0  0  0  0  0
    3.9464   53.8868   21.9324 C   0  0  0  0  0  0
    2.8234   53.0614   21.9688 C   0  0  0  0  0  0
    2.5455   52.2055   20.8991 C   0  0  0  0  0  0
    3.4067   52.1678   19.7950 C   0  0  0  0  0  0
    4.5169   53.0000   19.7515 C   0  0  0  0  0  0
    1.3333   51.4957   20.9318 N   0  0  0  0  0  0
    1.0351   50.3291   20.3192 C   0  0  0  0  0  0
    1.8711   49.5989   19.7863 O   0  0  0  0  0  0
   -0.4341   49.8746   20.2945 C   0  0  0  0  0  0
   -1.7110   51.1616   20.6144 S   0  0  0  0  0  0
   -1.7158   51.2799   22.4173 C   0  0  0  0  0  0
   -2.4928   52.1900   22.8806 N   0  5  0  0  0  0
   -2.5576   52.4157   24.1946 C   0  0  0  0  0  0
   -3.2956   53.2345   24.7397 O   0  0  0  0  0  0
   -1.6669   51.6213   25.0659 C   0  0  0  0  0  0
   -0.9164   50.6521   24.4509 C   0  0  0  0  0  0
   -0.9408   50.4918   23.0883 N   0  0  0  0  0  0
    0.0894   49.7976   25.2070 C   0  0  0  0  0  0
    0.5469   50.5037   26.4920 C   0  0  0  0  0  0
   -0.7093   50.8966   27.3033 N   0  3  2  0  0  0
   -1.5694   51.9463   26.5568 C   0  0  0  0  0  0
   -0.3503   51.3985   28.7295 C   0  0  0  0  0  0
    0.7933   52.4053   28.8421 C   0  0  0  0  0  0
    2.1138   51.9540   28.9302 C   0  0  0  0  0  0
    3.1565   52.8650   29.0712 C   0  0  0  0  0  0
    2.8774   54.2272   29.1332 C   0  0  0  0  0  0
    1.5651   54.6861   29.0552 C   0  0  0  0  0  0
    0.5219   53.7724   28.9146 C   0  0  0  0  0  0
    3.8901   55.1081   29.2794 F   0  0  0  0  0  0
    8.5496   55.3521   20.5066 H   0  0  0  0  0  0
    8.4455   56.4963   21.8403 H   0  0  0  0  0  0
    7.5683   56.8138   20.3225 H   0  0  0  0  0  0
    6.2275   54.7816   19.6889 H   0  0  0  0  0  0
    4.1274   54.5605   22.7561 H   0  0  0  0  0  0
    2.1551   53.1136   22.8164 H   0  0  0  0  0  0
    3.2130   51.5294   18.9444 H   0  0  0  0  0  0
    5.1535   52.9638   18.8782 H   0  0  0  0  0  0
    0.6092   51.8902   21.5148 H   0  0  0  0  0  0
   -0.6302   49.4690   19.3020 H   0  0  0  0  0  0
   -0.5464   49.0410   20.9872 H   0  0  0  0  0  0
   -0.3723   48.8391   25.4435 H   0  0  0  0  0  0
    0.9547   49.5697   24.5815 H   0  0  0  0  0  0
    1.1387   49.8208   27.0999 H   0  0  0  0  0  0
    1.1045   51.4197   26.2910 H   0  0  0  0  0  0
   -1.0548   52.8977   26.6768 H   0  0  0  0  0  0
   -2.5376   51.9745   27.0605 H   0  0  0  0  0  0
   -1.2788   51.7736   29.1612 H   0  0  0  0  0  0
   -0.0951   50.4967   29.2802 H   0  0  0  0  0  0
    2.3352   50.8978   28.8834 H   0  0  0  0  0  0
    4.1799   52.5227   29.1253 H   0  0  0  0  0  0
    1.3593   55.7456   29.1051 H   0  0  0  0  0  0
   -0.4961   54.1232   28.8617 H   0  0  0  0  0  0
   -1.2509   50.0415   27.4377 H   0  0  0  0  0  0
  1  2  1  0  0  0
  1 35  1  0  0  0
  1 36  1  0  0  0
  1 37  1  0  0  0
  2  3  2  0  0  0
  2  4  1  0  0  0
  4  5  1  0  0  0
  4 38  1  0  0  0
  5 10  2  0  0  0
  5  6  1  0  0  0
  6  7  2  0  0  0
  6 39  1  0  0  0
  7  8  1  0  0  0
  7 40  1  0  0  0
  8  9  2  0  0  0
  8 11  1  0  0  0
  9 10  1  0  0  0
  9 41  1  0  0  0
 10 42  1  0  0  0
 11 12  1  0  0  0
 11 43  1  0  0  0
 12 13  2  0  0  0
 12 14  1  0  0  0
 14 44  1  0  0  0
 14 45  1  0  0  0
 14 15  1  0  0  0
 15 16  1  0  0  0
 16 22  2  0  0  0
 16 17  1  0  0  0
 17 18  1  0  0  0
 18 19  2  0  0  0
 18 20  1  0  0  0
 20 26  1  0  0  0
 20 21  2  0  0  0
 21 22  1  0  0  0
 21 23  1  0  0  0
 23 24  1  0  0  0
 23 46  1  0  0  0
 23 47  1  0  0  0
 24 25  1  0  0  0
 24 48  1  0  0  0
 24 49  1  0  0  0
 25 26  1  0  0  0
 25 27  1  0  0  0
 25 58  1  0  0  0
 26 50  1  0  0  0
 26 51  1  0  0  0
 27 28  1  0  0  0
 27 52  1  0  0  0
 27 53  1  0  0  0
 28 33  2  0  0  0
 28 29  1  0  0  0
 29 30  2  0  0  0
 29 54  1  0  0  0
 30 31  1  0  0  0
 30 55  1  0  0  0
 31 32  2  0  0  0
 31 34  1  0  0  0
 32 33  1  0  0  0
 32 56  1  0  0  0
 33 57  1  0  0  0
M  CHG  2  17  -1  25   1
M  END
> <i_i_glide_confnum>
244

> <i_i_glide_lignum>
481

> <i_i_glide_posenum>
56

> <i_i_glide_rotatable_bonds>
9

> <i_m_Source_File_Index>
2431

> <b_m_subgroup_collapsed>
0

> <r_i_docking_score>
-4.21295

> <r_i_glide_ecoul>
-0.220407

> <r_i_glide_eff_state_penalty>
0

> <r_i_glide_einternal>
11.924

> <r_i_glide_emodel>
-53.8524

> <r_i_glide_energy>
-42.8175

> <r_i_glide_erotb>
0.699904

> <r_i_glide_esite>
-0.106314

> <r_i_glide_evdw>
-42.5971

> <r_i_glide_gscore>
-4.21295

> <r_i_glide_hbond>
-0.189234

> <r_i_glide_ligand_efficiency>
-0.12391

> <r_i_glide_ligand_efficiency_ln>
-0.930759

> <r_i_glide_ligand_efficiency_sa>
-0.401421

> <r_i_glide_lipo>
-1.85256

> <r_i_glide_metal>
0

> <r_i_glide_rewards>
-0.601836

> <s_i_glide_gridfile>
wee1_glide-grid

> <s_m_Source_File>
wee1_decoys_glide_SP.sdf

> <s_m_Source_Path>
/Users/zhangxujun/Desktop

> <s_m_entry_id>
2706

> <s_m_entry_name>
wee1_decoys_glide_SP.2431

> <s_m_subgroup_title>
wee1_decoys_glide_SP

> <s_m_subgroupid>
wee1_decoys_glide_SP


$$$$
