ZINC59044563_3643
                    3D
 Schrodinger Suite 2024-2.
 52 56  0  0  1  0            999 V2000
    5.6192   58.1397   16.7190 C   0  0  0  0  0  0
    5.9042   57.6515   17.9952 C   0  0  0  0  0  0
    5.7059   56.2980   18.3080 C   0  0  0  0  0  0
    5.2477   55.4375   17.3010 C   0  0  0  0  0  0
    4.9702   55.9232   16.0225 C   0  0  0  0  0  0
    5.1504   57.2750   15.7332 C   0  0  0  0  0  0
    4.3392   54.7384   14.6740 Br  0  0  0  0  0  0
    5.9855   55.8155   19.7015 C   0  0  0  0  0  0
    6.8878   56.3602   20.4798 N   0  0  0  0  0  0
    6.8516   55.6970   21.6967 N   0  0  0  0  0  0
    5.9095   54.7899   21.6355 C   0  0  0  0  0  0
    5.3338   54.7992   20.3805 N   0  0  0  0  0  0
    4.3045   53.9904   19.9278 N   0  0  0  0  0  0
    5.4505   53.6982   22.9588 S   0  0  0  0  0  0
    6.6385   54.1437   24.2923 C   0  0  0  0  0  0
    6.0324   54.5617   25.6404 C   0  0  0  0  0  0
    6.7030   55.2935   26.3691 O   0  0  0  0  0  0
    4.7987   54.1264   25.9745 N   0  0  0  0  0  0
    4.0455   54.5218   27.1781 C   0  0  2  0  0  0
    4.6186   54.0826   28.5606 C   0  0  2  0  0  0
    4.4094   52.5656   28.7388 C   0  0  0  0  0  0
    2.8893   52.2181   28.6993 C   0  0  1  0  0  0
    2.1581   52.9708   29.8408 C   0  0  0  0  0  0
    2.3626   54.4980   29.6653 C   0  0  1  0  0  0
    3.8787   54.8027   29.7127 C   0  0  0  0  0  0
    1.7960   54.9513   28.2925 C   0  0  0  0  0  0
    2.5214   54.1907   27.1452 C   0  0  2  0  0  0
    2.2809   52.6702   27.3458 C   0  0  0  0  0  0
    5.7538   59.1917   16.5024 H   0  0  0  0  0  0
    6.2555   58.3437   18.7472 H   0  0  0  0  0  0
    5.1082   54.3857   17.4985 H   0  0  0  0  0  0
    4.9280   57.6539   14.7452 H   0  0  0  0  0  0
    4.5504   53.0110   19.8868 H   0  0  0  0  0  0
    3.4078   54.1838   20.3565 H   0  0  0  0  0  0
    7.3097   54.9429   23.9838 H   0  0  0  0  0  0
    7.2942   53.2969   24.4755 H   0  0  0  0  0  0
    4.3598   53.4448   25.3735 H   0  0  0  0  0  0
    4.1311   55.6010   27.1358 H   0  0  0  0  0  0
    5.6811   54.3172   28.6217 H   0  0  0  0  0  0
    4.8583   52.2126   29.6691 H   0  0  0  0  0  0
    4.9575   52.0968   27.9317 H   0  0  0  0  0  0
    2.7403   51.1457   28.8271 H   0  0  0  0  0  0
    2.5339   52.6452   30.8121 H   0  0  0  0  0  0
    1.0936   52.7293   29.8366 H   0  0  0  0  0  0
    1.8503   55.0324   30.4677 H   0  0  0  0  0  0
    4.0377   55.8727   29.6815 H   0  0  0  0  0  0
    4.3035   54.4856   30.6623 H   0  0  0  0  0  0
    0.7207   54.7676   28.2545 H   0  0  0  0  0  0
    1.9165   56.0287   28.1713 H   0  0  0  0  0  0
    2.1052   54.4923   26.1851 H   0  0  0  0  0  0
    2.7040   52.1037   26.5241 H   0  0  0  0  0  0
    1.2120   52.4511   27.3217 H   0  0  0  0  0  0
  1  6  2  0  0  0
  1  2  1  0  0  0
  1 29  1  0  0  0
  2  3  2  0  0  0
  2 30  1  0  0  0
  3  4  1  0  0  0
  3  8  1  0  0  0
  4  5  2  0  0  0
  4 31  1  0  0  0
  5  6  1  0  0  0
  5  7  1  0  0  0
  6 32  1  0  0  0
  8 12  1  0  0  0
  8  9  2  0  0  0
  9 10  1  0  0  0
 10 11  2  0  0  0
 11 12  1  0  0  0
 11 14  1  0  0  0
 12 13  1  0  0  0
 13 33  1  0  0  0
 13 34  1  0  0  0
 14 15  1  0  0  0
 15 16  1  0  0  0
 15 35  1  0  0  0
 15 36  1  0  0  0
 16 17  2  0  0  0
 16 18  1  0  0  0
 18 19  1  0  0  0
 18 37  1  0  0  0
 19 27  1  0  0  0
 19 20  1  0  0  0
 19 38  1  0  0  0
 20 25  1  0  0  0
 20 21  1  0  0  0
 20 39  1  0  0  0
 21 22  1  0  0  0
 21 40  1  0  0  0
 21 41  1  0  0  0
 22 28  1  0  0  0
 22 23  1  0  0  0
 22 42  1  0  0  0
 23 24  1  0  0  0
 23 43  1  0  0  0
 23 44  1  0  0  0
 24 25  1  0  0  0
 24 26  1  0  0  0
 24 45  1  0  0  0
 25 46  1  0  0  0
 25 47  1  0  0  0
 26 27  1  0  0  0
 26 48  1  0  0  0
 26 49  1  0  0  0
 27 28  1  0  0  0
 27 50  1  0  0  0
 28 51  1  0  0  0
 28 52  1  0  0  0
M  END
> <i_i_glide_confnum>
70

> <i_i_glide_lignum>
3644

> <i_i_glide_posenum>
334

> <i_i_glide_rotatable_bonds>
6

> <i_m_Source_File_Index>
4070

> <b_m_subgroup_collapsed>
0

> <r_i_docking_score>
-6.18902

> <r_i_glide_ecoul>
-5.60818

> <r_i_glide_eff_state_penalty>
0

> <r_i_glide_einternal>
5.48276

> <r_i_glide_emodel>
-52.6774

> <r_i_glide_energy>
-40.6015

> <r_i_glide_erotb>
0.471043

> <r_i_glide_esite>
-0.00424419

> <r_i_glide_evdw>
-34.9933

> <r_i_glide_gscore>
-6.18902

> <r_i_glide_hbond>
-0.429085

> <r_i_glide_ligand_efficiency>
-0.221037

> <r_i_glide_ligand_efficiency_ln>
-1.42861

> <r_i_glide_ligand_efficiency_sa>
-0.671197

> <r_i_glide_lipo>
-2.33993

> <r_i_glide_metal>
0

> <r_i_glide_rewards>
-1.29592

> <s_i_glide_gridfile>
wee1_glide-grid

> <s_m_Source_File>
wee1_decoys_glide_SP.sdf

> <s_m_Source_Path>
/Users/zhangxujun/Desktop

> <s_m_entry_id>
4345

> <s_m_entry_name>
wee1_decoys_glide_SP.4070

> <s_m_subgroup_title>
wee1_decoys_glide_SP

> <s_m_subgroupid>
wee1_decoys_glide_SP


$$$$
