ZINC49207379_1553
                    3D
 Schrodinger Suite 2024-2.
 53 56  0  0  1  0            999 V2000
   -3.5329   52.7832   16.8205 C   0  0  0  0  0  0
   -2.2221   53.4913   17.1644 C   0  0  0  0  0  0
   -2.1788   54.7110   16.9848 O   0  0  0  0  0  0
   -1.1356   52.7564   17.5320 N   0  0  0  0  0  0
   -1.3006   51.3867   18.0826 C   0  0  0  0  0  0
   -0.0946   50.5295   17.6366 C   0  0  0  0  0  0
    1.2596   51.1572   18.0380 C   0  0  0  0  0  0
    1.3027   52.4828   17.2607 C   0  0  0  0  0  0
    0.1702   53.4500   17.6833 C   0  0  0  0  0  0
    1.4066   51.3980   19.4810 N   0  0  0  0  0  0
    1.4040   50.4586   20.4558 C   0  0  0  0  0  0
    1.2569   49.2571   20.2199 O   0  0  0  0  0  0
    1.5545   50.9495   21.8666 C   0  0  0  0  0  0
    1.2958   50.2038   22.8153 O   0  0  0  0  0  0
    2.0088   52.2210   22.0161 N   0  0  0  0  0  0
    2.3161   52.8639   23.2267 C   0  0  0  0  0  0
    3.4377   53.7163   23.2207 C   0  0  0  0  0  0
    3.8821   54.3310   24.4004 C   0  0  0  0  0  0
    3.1623   54.0874   25.5621 C   0  0  0  0  0  0
    2.0528   53.2965   25.5680 C   0  0  0  0  0  0
    1.5878   52.6678   24.4166 C   0  0  0  0  0  0
    1.5493   53.2422   26.8276 O   0  0  0  0  0  0
    2.4071   53.9916   27.6586 C   0  0  0  0  0  0
    3.4021   54.5328   26.8221 O   0  0  0  0  0  0
    3.0333   53.1174   28.7451 C   0  0  0  0  0  0
    1.9645   53.1370   29.8319 C   0  0  0  0  0  0
    1.4750   54.5744   29.8305 C   0  0  0  0  0  0
    1.6556   55.1026   28.4092 C   0  0  0  0  0  0
   -4.0278   52.4247   17.7252 H   0  0  0  0  0  0
   -3.3529   51.9389   16.1524 H   0  0  0  0  0  0
   -4.2078   53.4691   16.3052 H   0  0  0  0  0  0
   -1.3325   51.4429   19.1713 H   0  0  0  0  0  0
   -2.1769   50.8674   17.6917 H   0  0  0  0  0  0
   -0.1818   49.5305   18.0666 H   0  0  0  0  0  0
   -0.1302   50.3630   16.5575 H   0  0  0  0  0  0
    2.0799   50.5030   17.7264 H   0  0  0  0  0  0
    1.2563   52.3036   16.1848 H   0  0  0  0  0  0
    2.2676   52.9670   17.4189 H   0  0  0  0  0  0
    0.2537   54.3223   17.0308 H   0  0  0  0  0  0
    0.3035   53.7312   18.7276 H   0  0  0  0  0  0
    1.5201   52.3669   19.7268 H   0  0  0  0  0  0
    2.2923   52.7211   21.1879 H   0  0  0  0  0  0
    3.9965   53.8791   22.3107 H   0  0  0  0  0  0
    4.7610   54.9574   24.4053 H   0  0  0  0  0  0
    0.7165   52.0315   24.4494 H   0  0  0  0  0  0
    3.2420   52.1215   28.3544 H   0  0  0  0  0  0
    3.9860   53.5466   29.0620 H   0  0  0  0  0  0
    1.1478   52.4583   29.5797 H   0  0  0  0  0  0
    2.3534   52.8299   30.8035 H   0  0  0  0  0  0
    0.4450   54.6638   30.1823 H   0  0  0  0  0  0
    2.0916   55.1859   30.4857 H   0  0  0  0  0  0
    2.2466   56.0184   28.4009 H   0  0  0  0  0  0
    0.6986   55.2918   27.9275 H   0  0  0  0  0  0
  1  2  1  0  0  0
  1 29  1  0  0  0
  1 30  1  0  0  0
  1 31  1  0  0  0
  2  3  2  0  0  0
  2  4  1  0  0  0
  4  9  1  0  0  0
  4  5  1  0  0  0
  5  6  1  0  0  0
  5 32  1  0  0  0
  5 33  1  0  0  0
  6  7  1  0  0  0
  6 34  1  0  0  0
  6 35  1  0  0  0
  7  8  1  0  0  0
  7 10  1  0  0  0
  7 36  1  0  0  0
  8  9  1  0  0  0
  8 37  1  0  0  0
  8 38  1  0  0  0
  9 39  1  0  0  0
  9 40  1  0  0  0
 10 11  1  0  0  0
 10 41  1  0  0  0
 11 12  2  0  0  0
 11 13  1  0  0  0
 13 14  2  0  0  0
 13 15  1  0  0  0
 15 16  1  0  0  0
 15 42  1  0  0  0
 16 21  2  0  0  0
 16 17  1  0  0  0
 17 18  2  0  0  0
 17 43  1  0  0  0
 18 19  1  0  0  0
 18 44  1  0  0  0
 19 24  1  0  0  0
 19 20  2  0  0  0
 20 21  1  0  0  0
 20 22  1  0  0  0
 21 45  1  0  0  0
 22 23  1  0  0  0
 23 28  1  0  0  0
 23 24  1  0  0  0
 23 25  1  0  0  0
 25 26  1  0  0  0
 25 46  1  0  0  0
 25 47  1  0  0  0
 26 27  1  0  0  0
 26 48  1  0  0  0
 26 49  1  0  0  0
 27 28  1  0  0  0
 27 50  1  0  0  0
 27 51  1  0  0  0
 28 52  1  0  0  0
 28 53  1  0  0  0
M  END
> <i_i_glide_confnum>
136

> <i_i_glide_lignum>
1554

> <i_i_glide_posenum>
212

> <i_i_glide_rotatable_bonds>
6

> <i_m_Source_File_Index>
3784

> <b_m_subgroup_collapsed>
0

> <r_i_docking_score>
-4.63411

> <r_i_glide_ecoul>
-2.6639

> <r_i_glide_eff_state_penalty>
0

> <r_i_glide_einternal>
1.33239

> <r_i_glide_emodel>
-49.3406

> <r_i_glide_energy>
-37.0963

> <r_i_glide_erotb>
0.518945

> <r_i_glide_esite>
-0.0484232

> <r_i_glide_evdw>
-34.4324

> <r_i_glide_gscore>
-4.63411

> <r_i_glide_hbond>
0

> <r_i_glide_ligand_efficiency>
-0.165504

> <r_i_glide_ligand_efficiency_ln>
-1.06969

> <r_i_glide_ligand_efficiency_sa>
-0.502568

> <r_i_glide_lipo>
-1.98167

> <r_i_glide_metal>
0

> <r_i_glide_rewards>
-1.00176

> <s_i_glide_gridfile>
wee1_glide-grid

> <s_m_Source_File>
wee1_decoys_glide_SP.sdf

> <s_m_Source_Path>
/Users/zhangxujun/Desktop

> <s_m_entry_id>
4059

> <s_m_entry_name>
wee1_decoys_glide_SP.3784

> <s_m_subgroup_title>
wee1_decoys_glide_SP

> <s_m_subgroupid>
wee1_decoys_glide_SP


$$$$
