ZINC39843665_5914
                    3D
 Schrodinger Suite 2024-2.
 50 52  0  0  1  0            999 V2000
   -4.5072   54.0715   25.6817 C   0  0  0  0  0  0
   -3.9315   53.4631   24.6347 C   0  0  0  0  0  0
   -3.3707   52.0535   24.6827 C   0  0  0  0  0  0
   -1.9261   51.9840   24.3869 N   0  0  0  0  0  0
   -1.5101   51.8169   23.1087 C   0  0  0  0  0  0
   -2.2283   51.8078   22.1056 O   0  0  0  0  0  0
   -0.0041   51.5927   23.0424 C   0  0  2  0  0  0
    0.1447   50.5133   22.9820 H   0  0  0  0  0  0
    0.6279   52.1050   24.6439 S   0  0  0  0  0  0
   -1.0160   52.1236   25.3952 C   0  0  0  0  0  0
   -1.2068   52.2956   26.6553 N   0  0  0  0  0  0
   -0.1473   52.3909   27.5740 C   0  0  0  0  0  0
    0.6736   51.2957   27.8371 C   0  0  0  0  0  0
    1.7626   51.3992   28.6918 C   0  0  0  0  0  0
    2.0722   52.6185   29.3002 C   0  0  0  0  0  0
    1.2317   53.7161   29.0773 C   0  0  0  0  0  0
    0.1284   53.5894   28.2366 C   0  0  0  0  0  0
    3.2783   52.7445   30.1731 C   0  0  0  0  0  0
    3.8308   51.6967   30.5769 O   0  0  0  0  0  0
    3.6580   53.8971   30.4787 O   0  5  0  0  0  0
    0.6553   52.2668   21.8003 C   0  0  0  0  0  0
    2.1860   52.2914   21.8579 C   0  0  0  0  0  0
    2.8048   51.2518   22.0814 O   0  0  0  0  0  0
    2.7637   53.4909   21.6821 N   0  0  0  0  0  0
    4.0561   53.8352   22.0691 C   0  0  0  0  0  0
    4.4584   53.7025   23.4028 C   0  0  0  0  0  0
    5.7122   54.1587   23.8015 C   0  0  0  0  0  0
    6.5560   54.7673   22.8736 C   0  0  0  0  0  0
    6.1602   54.9126   21.5378 C   0  0  0  0  0  0
    4.9034   54.4383   21.1416 C   0  0  0  0  0  0
    7.0633   55.6162   20.5286 C   0  0  0  0  0  0
    6.9416   55.0789   19.3132 F   0  0  0  0  0  0
    6.7039   56.8977   20.4654 F   0  0  0  0  0  0
    8.3476   55.5608   20.8826 F   0  0  0  0  0  0
   -4.8857   55.0771   25.6031 H   0  0  0  0  0  0
   -4.6041   53.5739   26.6355 H   0  0  0  0  0  0
   -3.8438   53.9839   23.6914 H   0  0  0  0  0  0
   -3.9207   51.4655   23.9450 H   0  0  0  0  0  0
   -3.5818   51.5911   25.6482 H   0  0  0  0  0  0
    0.4651   50.3511   27.3561 H   0  0  0  0  0  0
    2.3633   50.5196   28.8724 H   0  0  0  0  0  0
    1.4318   54.6704   29.5431 H   0  0  0  0  0  0
   -0.5033   54.4486   28.0817 H   0  0  0  0  0  0
    0.3604   51.7584   20.8828 H   0  0  0  0  0  0
    0.3050   53.2965   21.7074 H   0  0  0  0  0  0
    2.2360   54.2000   21.1801 H   0  0  0  0  0  0
    3.7876   53.2863   24.1394 H   0  0  0  0  0  0
    6.0163   54.0619   24.8339 H   0  0  0  0  0  0
    7.5049   55.1480   23.2075 H   0  0  0  0  0  0
    4.5734   54.5574   20.1191 H   0  0  0  0  0  0
  1  2  2  0  0  0
  1 35  1  0  0  0
  1 36  1  0  0  0
  2  3  1  0  0  0
  2 37  1  0  0  0
  3  4  1  0  0  0
  3 38  1  0  0  0
  3 39  1  0  0  0
  4 10  1  0  0  0
  4  5  1  0  0  0
  5  6  2  0  0  0
  5  7  1  0  0  0
  7  8  1  0  0  0
  7  9  1  0  0  0
  7 21  1  0  0  0
  9 10  1  0  0  0
 10 11  2  0  0  0
 11 12  1  0  0  0
 12 17  2  0  0  0
 12 13  1  0  0  0
 13 14  2  0  0  0
 13 40  1  0  0  0
 14 15  1  0  0  0
 14 41  1  0  0  0
 15 16  2  0  0  0
 15 18  1  0  0  0
 16 17  1  0  0  0
 16 42  1  0  0  0
 17 43  1  0  0  0
 18 19  2  0  0  0
 18 20  1  0  0  0
 21 22  1  0  0  0
 21 44  1  0  0  0
 21 45  1  0  0  0
 22 23  2  0  0  0
 22 24  1  0  0  0
 24 25  1  0  0  0
 24 46  1  0  0  0
 25 30  2  0  0  0
 25 26  1  0  0  0
 26 27  2  0  0  0
 26 47  1  0  0  0
 27 28  1  0  0  0
 27 48  1  0  0  0
 28 29  2  0  0  0
 28 49  1  0  0  0
 29 30  1  0  0  0
 29 31  1  0  0  0
 30 50  1  0  0  0
 31 32  1  0  0  0
 31 33  1  0  0  0
 31 34  1  0  0  0
M  CHG  1  20  -1
M  END
> <i_i_glide_confnum>
85

> <i_i_glide_lignum>
5915

> <i_i_glide_posenum>
129

> <i_i_glide_rotatable_bonds>
9

> <i_m_Source_File_Index>
2793

> <b_m_subgroup_collapsed>
0

> <r_i_docking_score>
-6.58002

> <r_i_glide_ecoul>
-11.9289

> <r_i_glide_eff_state_penalty>
0

> <r_i_glide_einternal>
8.368

> <r_i_glide_emodel>
-66.3116

> <r_i_glide_energy>
-49.3965

> <r_i_glide_erotb>
0.624434

> <r_i_glide_esite>
-0.0761186

> <r_i_glide_evdw>
-37.4675

> <r_i_glide_gscore>
-6.58002

> <r_i_glide_hbond>
-0.64

> <r_i_glide_ligand_efficiency>
-0.199395

> <r_i_glide_ligand_efficiency_ln>
-1.46336

> <r_i_glide_ligand_efficiency_sa>
-0.639565

> <r_i_glide_lipo>
-2.51349

> <r_i_glide_metal>
0

> <r_i_glide_rewards>
-0.312134

> <s_i_glide_gridfile>
wee1_glide-grid

> <s_m_Source_File>
wee1_decoys_glide_SP.sdf

> <s_m_Source_Path>
/Users/zhangxujun/Desktop

> <s_m_entry_id>
3068

> <s_m_entry_name>
wee1_decoys_glide_SP.2793

> <s_m_subgroup_title>
wee1_decoys_glide_SP

> <s_m_subgroupid>
wee1_decoys_glide_SP


$$$$
