ZINC16572328_4481
                    3D
 Schrodinger Suite 2024-2.
 55 57  0  0  1  0            999 V2000
    6.0071   58.1488   17.2876 C   0  0  0  0  0  0
    7.4203   58.1765   17.8861 C   0  0  0  0  0  0
    8.2079   56.8490   17.7303 C   0  0  1  0  0  0
    8.3329   56.7210   16.6554 H   0  0  0  0  0  0
    9.6418   57.0009   18.2855 C   0  0  0  0  0  0
    7.4450   55.5606   18.2184 C   0  0  2  0  0  0
    6.5397   55.4710   17.6121 H   0  0  0  0  0  0
    6.9775   55.6191   19.6951 C   0  0  0  0  0  0
    7.5039   56.4082   20.4820 O   0  0  0  0  0  0
    6.0057   54.7373   20.0204 N   0  0  0  0  0  0
    5.4962   54.4971   21.2864 C   0  0  0  0  0  0
    4.3767   53.8414   21.4557 N   0  0  0  0  0  0
    4.0429   53.6975   22.7969 N   0  0  0  0  0  0
    4.9435   54.2022   23.6145 C   0  0  0  0  0  0
    6.3070   54.8957   22.7828 S   0  0  0  0  0  0
    4.8102   54.2508   25.1037 C   0  0  0  0  0  0
    3.5478   54.0965   25.6888 C   0  0  0  0  0  0
    3.4025   54.1401   27.0715 C   0  0  0  0  0  0
    4.5187   54.3446   27.8746 C   0  0  0  0  0  0
    5.7847   54.4966   27.3112 C   0  0  0  0  0  0
    5.9289   54.4502   25.9254 C   0  0  0  0  0  0
    4.3034   54.4272   29.7591 Br  0  0  0  0  0  0
    8.2236   54.3335   18.0187 N   0  0  0  0  0  0
    8.3450   53.6870   16.8509 C   0  0  0  0  0  0
    7.8465   54.0984   15.8029 O   0  0  0  0  0  0
    9.0666   52.5564   16.9884 N   0  0  0  0  0  0
    9.3757   51.5906   16.0142 C   0  0  0  0  0  0
   10.4114   50.6997   16.3236 C   0  0  0  0  0  0
   10.8058   49.7237   15.4077 C   0  0  0  0  0  0
   10.1611   49.6242   14.1764 C   0  0  0  0  0  0
    9.1055   50.4842   13.8660 C   0  0  0  0  0  0
    8.7101   51.4594   14.7835 C   0  0  0  0  0  0
    8.3806   50.3448   12.5417 C   0  0  0  0  0  0
    5.6012   59.1575   17.2127 H   0  0  0  0  0  0
    6.0100   57.7190   16.2858 H   0  0  0  0  0  0
    5.3228   57.5676   17.9058 H   0  0  0  0  0  0
    7.3614   58.4723   18.9346 H   0  0  0  0  0  0
    7.9773   58.9790   17.3992 H   0  0  0  0  0  0
    9.6585   57.1707   19.3616 H   0  0  0  0  0  0
   10.2479   56.1201   18.0831 H   0  0  0  0  0  0
   10.1499   57.8456   17.8195 H   0  0  0  0  0  0
    5.5842   54.2131   19.2685 H   0  0  0  0  0  0
    2.6709   53.9428   25.0784 H   0  0  0  0  0  0
    2.4255   54.0254   27.5189 H   0  0  0  0  0  0
    6.6467   54.6574   27.9452 H   0  0  0  0  0  0
    6.9141   54.5548   25.4967 H   0  0  0  0  0  0
    8.7048   53.9869   18.8358 H   0  0  0  0  0  0
    9.4863   52.3853   17.8892 H   0  0  0  0  0  0
   10.9298   50.7717   17.2724 H   0  0  0  0  0  0
   11.6154   49.0530   15.6520 H   0  0  0  0  0  0
   10.4868   48.8835   13.4629 H   0  0  0  0  0  0
    7.8863   52.1023   14.5212 H   0  0  0  0  0  0
    8.2981   49.2968   12.2490 H   0  0  0  0  0  0
    8.9096   50.8885   11.7549 H   0  0  0  0  0  0
    7.3609   50.7325   12.6064 H   0  0  0  0  0  0
  1  2  1  0  0  0
  1 34  1  0  0  0
  1 35  1  0  0  0
  1 36  1  0  0  0
  2  3  1  0  0  0
  2 37  1  0  0  0
  2 38  1  0  0  0
  3  4  1  0  0  0
  3  5  1  0  0  0
  3  6  1  0  0  0
  5 39  1  0  0  0
  5 40  1  0  0  0
  5 41  1  0  0  0
  6  7  1  0  0  0
  6  8  1  0  0  0
  6 23  1  0  0  0
  8  9  2  0  0  0
  8 10  1  0  0  0
 10 11  1  0  0  0
 10 42  1  0  0  0
 11 15  1  0  0  0
 11 12  2  0  0  0
 12 13  1  0  0  0
 13 14  2  0  0  0
 14 15  1  0  0  0
 14 16  1  0  0  0
 16 21  2  0  0  0
 16 17  1  0  0  0
 17 18  2  0  0  0
 17 43  1  0  0  0
 18 19  1  0  0  0
 18 44  1  0  0  0
 19 20  2  0  0  0
 19 22  1  0  0  0
 20 21  1  0  0  0
 20 45  1  0  0  0
 21 46  1  0  0  0
 23 24  1  0  0  0
 23 47  1  0  0  0
 24 25  2  0  0  0
 24 26  1  0  0  0
 26 27  1  0  0  0
 26 48  1  0  0  0
 27 32  2  0  0  0
 27 28  1  0  0  0
 28 29  2  0  0  0
 28 49  1  0  0  0
 29 30  1  0  0  0
 29 50  1  0  0  0
 30 31  2  0  0  0
 30 51  1  0  0  0
 31 32  1  0  0  0
 31 33  1  0  0  0
 32 52  1  0  0  0
 33 53  1  0  0  0
 33 54  1  0  0  0
 33 55  1  0  0  0
M  END
> <i_i_glide_confnum>
14

> <i_i_glide_lignum>
4482

> <i_i_glide_posenum>
306

> <i_i_glide_rotatable_bonds>
10

> <i_m_Source_File_Index>
2119

> <b_m_subgroup_collapsed>
0

> <r_i_docking_score>
-5.48261

> <r_i_glide_ecoul>
-5.1871

> <r_i_glide_eff_state_penalty>
0

> <r_i_glide_einternal>
8.17057

> <r_i_glide_emodel>
-62.1273

> <r_i_glide_energy>
-49.741

> <r_i_glide_erotb>
0.728499

> <r_i_glide_esite>
0

> <r_i_glide_evdw>
-44.5539

> <r_i_glide_gscore>
-5.48261

> <r_i_glide_hbond>
-0.309251

> <r_i_glide_ligand_efficiency>
-0.176858

> <r_i_glide_ligand_efficiency_ln>
-1.2365

> <r_i_glide_ligand_efficiency_sa>
-0.555579

> <r_i_glide_lipo>
-2.6914

> <r_i_glide_metal>
0

> <r_i_glide_rewards>
-0.204698

> <s_i_glide_gridfile>
wee1_glide-grid

> <s_m_Source_File>
wee1_decoys_glide_SP.sdf

> <s_m_Source_Path>
/Users/zhangxujun/Desktop

> <s_m_entry_id>
2394

> <s_m_entry_name>
wee1_decoys_glide_SP.2119

> <s_m_subgroup_title>
wee1_decoys_glide_SP

> <s_m_subgroupid>
wee1_decoys_glide_SP


$$$$
