ZINC04095177_4693
                    3D
 Schrodinger Suite 2024-2.
 31 33  0  0  1  0            999 V2000
    1.9038   56.2479   29.6823 C   0  0  0  0  0  0
    1.3524   54.8447   29.6646 C   0  0  0  0  0  0
    1.3443   53.8415   28.7037 C   0  0  0  0  0  0
    0.6315   52.7974   29.3137 C   0  0  0  0  0  0
    0.2507   53.0544   30.5379 N   0  0  0  0  0  0
    0.6864   54.3011   30.7365 N   0  0  0  0  0  0
    0.5268   54.7806   31.6121 H   0  0  0  0  0  0
    0.2970   51.6091   28.7120 O   0  0  0  0  0  0
    0.5428   51.5581   27.3723 C   0  0  0  0  0  0
    1.2638   52.4518   26.6511 C   0  0  0  0  0  0
    1.9007   53.6916   27.2848 C   0  0  2  0  0  0
    1.4857   54.4967   26.7044 H   0  0  0  0  0  0
    3.4208   53.8630   27.1062 C   0  0  0  0  0  0
    4.3378   53.4379   28.0851 C   0  0  0  0  0  0
    5.7055   53.6707   27.9211 C   0  0  0  0  0  0
    6.1802   54.2936   26.7699 C   0  0  0  0  0  0
    5.2914   54.6906   25.7771 C   0  0  0  0  0  0
    3.9227   54.4803   25.9423 C   0  0  0  0  0  0
    3.0871   54.8948   24.9621 F   0  0  0  0  0  0
    5.7560   55.2952   24.6583 F   0  0  0  0  0  0
    7.5042   54.5076   26.6154 F   0  0  0  0  0  0
    6.5785   53.2967   28.8811 F   0  0  0  0  0  0
    3.9161   52.8038   29.2048 F   0  0  0  0  0  0
    1.3577   52.3076   25.2323 C   0  0  0  0  0  0
    1.4121   52.1996   24.0815 N   0  0  0  0  0  0
   -0.0952   50.4550   26.8816 N   0  0  0  0  0  0
    1.5007   56.8488   28.8669 H   0  0  0  0  0  0
    2.9872   56.2474   29.5685 H   0  0  0  0  0  0
    1.6810   56.7798   30.6095 H   0  0  0  0  0  0
   -0.0260   50.1961   25.9085 H   0  0  0  0  0  0
   -0.5835   49.8131   27.5024 H   0  0  0  0  0  0
  1  2  1  0  0  0
  1 27  1  0  0  0
  1 28  1  0  0  0
  1 29  1  0  0  0
  2  6  1  0  0  0
  2  3  2  0  0  0
  3 11  1  0  0  0
  3  4  1  0  0  0
  4  5  2  0  0  0
  4  8  1  0  0  0
  5  6  1  0  0  0
  6  7  1  0  0  0
  8  9  1  0  0  0
  9 10  2  0  0  0
  9 26  1  0  0  0
 10 11  1  0  0  0
 10 24  1  0  0  0
 11 12  1  0  0  0
 11 13  1  0  0  0
 13 18  2  0  0  0
 13 14  1  0  0  0
 14 15  2  0  0  0
 14 23  1  0  0  0
 15 16  1  0  0  0
 15 22  1  0  0  0
 16 17  2  0  0  0
 16 21  1  0  0  0
 17 18  1  0  0  0
 17 20  1  0  0  0
 18 19  1  0  0  0
 24 25  3  0  0  0
 26 30  1  0  0  0
 26 31  1  0  0  0
M  END
> <i_i_glide_confnum>
2

> <i_i_glide_lignum>
4694

> <i_i_glide_posenum>
358

> <i_i_glide_rotatable_bonds>
2

> <i_m_Source_File_Index>
5592

> <b_m_subgroup_collapsed>
0

> <r_i_docking_score>
-7.61934

> <r_i_glide_ecoul>
-3.73956

> <r_i_glide_eff_state_penalty>
0

> <r_i_glide_einternal>
3.91088

> <r_i_glide_emodel>
-52.8921

> <r_i_glide_energy>
-39.7113

> <r_i_glide_erotb>
0.161888

> <r_i_glide_esite>
-0.149389

> <r_i_glide_evdw>
-35.9718

> <r_i_glide_gscore>
-7.61934

> <r_i_glide_hbond>
-0.16

> <r_i_glide_ligand_efficiency>
-0.317473

> <r_i_glide_ligand_efficiency_ln>
-1.82366

> <r_i_glide_ligand_efficiency_sa>
-0.91575

> <r_i_glide_lipo>
-2.88107

> <r_i_glide_metal>
0

> <r_i_glide_rewards>
-2.23125

> <s_i_glide_gridfile>
wee1_glide-grid

> <s_m_Source_File>
wee1_decoys_glide_SP.sdf

> <s_m_Source_Path>
/Users/zhangxujun/Desktop

> <s_m_entry_id>
5867

> <s_m_entry_name>
wee1_decoys_glide_SP.5592

> <s_m_subgroup_title>
wee1_decoys_glide_SP

> <s_m_subgroupid>
wee1_decoys_glide_SP


$$$$
