ZINC33113309_2315
                    3D
 Schrodinger Suite 2024-2.
 56 59  0  0  1  0            999 V2000
    8.1991   56.6499   16.7481 C   0  0  0  0  0  0
    7.8108   56.2390   18.1578 C   0  0  0  0  0  0
    6.4674   56.0641   18.4814 C   0  0  0  0  0  0
    6.1081   55.6940   19.7727 C   0  0  0  0  0  0
    7.0918   55.5049   20.7545 C   0  0  0  0  0  0
    8.4325   55.6968   20.4264 C   0  0  0  0  0  0
    8.7938   56.0583   19.1298 C   0  0  0  0  0  0
    6.8037   55.1606   22.0895 N   0  0  0  0  0  0
    5.7158   54.4963   22.5407 C   0  0  0  0  0  0
    4.8744   53.9591   21.8191 O   0  0  0  0  0  0
    5.5713   54.4994   23.9752 C   0  0  0  0  0  0
    6.4396   54.7951   24.9162 N   0  0  0  0  0  0
    5.9087   54.7336   26.1978 N   0  0  0  0  0  0
    4.6408   54.3848   26.2262 C   0  0  0  0  0  0
    4.0052   54.0979   24.6343 S   0  0  0  0  0  0
    3.8178   54.1973   27.4966 C   0  0  2  0  0  0
    3.0293   54.9524   27.5064 H   0  0  0  0  0  0
    4.6324   54.3278   28.8000 C   0  0  0  0  0  0
    3.7002   54.1440   30.0096 C   0  0  0  0  0  0
    2.9328   52.8040   29.9839 C   0  0  0  0  0  0
    2.2522   52.6800   28.6792 N   0  0  0  0  0  0
    3.1492   52.8080   27.5054 C   0  0  0  0  0  0
    0.8954   52.5682   28.6110 C   0  0  0  0  0  0
    0.1695   52.8006   29.5790 O   0  0  0  0  0  0
    0.4201   52.1570   27.4121 N   0  0  0  0  0  0
   -0.8929   51.7850   27.0541 C   0  0  0  0  0  0
   -1.8284   51.2985   27.9862 C   0  0  0  0  0  0
   -3.1306   50.9955   27.5956 C   0  0  0  0  0  0
   -3.5009   51.1232   26.2604 C   0  0  0  0  0  0
   -2.5716   51.5501   25.3146 C   0  0  0  0  0  0
   -1.2665   51.8814   25.6990 C   0  0  0  0  0  0
   -0.2858   52.3373   24.6237 C   0  0  0  0  0  0
   -4.2854   50.4804   28.7677 Cl  0  0  0  0  0  0
    9.1302   57.2175   16.7424 H   0  0  0  0  0  0
    7.4377   57.2956   16.3098 H   0  0  0  0  0  0
    8.3169   55.7709   16.1134 H   0  0  0  0  0  0
    5.6997   56.2109   17.7357 H   0  0  0  0  0  0
    5.0629   55.5692   19.9958 H   0  0  0  0  0  0
    9.2045   55.5672   21.1701 H   0  0  0  0  0  0
    9.8385   56.1925   18.8826 H   0  0  0  0  0  0
    7.4922   55.4341   22.7762 H   0  0  0  0  0  0
    5.4079   53.5611   28.8459 H   0  0  0  0  0  0
    5.1213   55.2965   28.8708 H   0  0  0  0  0  0
    4.3047   54.1757   30.9103 H   0  0  0  0  0  0
    2.9967   54.9769   30.0768 H   0  0  0  0  0  0
    3.6488   51.9846   30.0465 H   0  0  0  0  0  0
    2.2542   52.7047   30.8333 H   0  0  0  0  0  0
    2.7007   52.5010   26.5577 H   0  0  0  0  0  0
    3.9480   52.0968   27.6821 H   0  0  0  0  0  0
    1.0879   52.0993   26.6615 H   0  0  0  0  0  0
   -1.5631   51.1608   29.0234 H   0  0  0  0  0  0
   -4.5074   50.8803   25.9558 H   0  0  0  0  0  0
   -2.8723   51.6260   24.2811 H   0  0  0  0  0  0
   -0.7605   52.4542   23.6491 H   0  0  0  0  0  0
    0.1634   53.2956   24.8860 H   0  0  0  0  0  0
    0.5248   51.6147   24.5227 H   0  0  0  0  0  0
  1  2  1  0  0  0
  1 34  1  0  0  0
  1 35  1  0  0  0
  1 36  1  0  0  0
  2  7  2  0  0  0
  2  3  1  0  0  0
  3  4  2  0  0  0
  3 37  1  0  0  0
  4  5  1  0  0  0
  4 38  1  0  0  0
  5  6  2  0  0  0
  5  8  1  0  0  0
  6  7  1  0  0  0
  6 39  1  0  0  0
  7 40  1  0  0  0
  8  9  1  0  0  0
  8 41  1  0  0  0
  9 10  2  0  0  0
  9 11  1  0  0  0
 11 15  1  0  0  0
 11 12  2  0  0  0
 12 13  1  0  0  0
 13 14  2  0  0  0
 14 15  1  0  0  0
 14 16  1  0  0  0
 16 17  1  0  0  0
 16 22  1  0  0  0
 16 18  1  0  0  0
 18 19  1  0  0  0
 18 42  1  0  0  0
 18 43  1  0  0  0
 19 20  1  0  0  0
 19 44  1  0  0  0
 19 45  1  0  0  0
 20 21  1  0  0  0
 20 46  1  0  0  0
 20 47  1  0  0  0
 21 22  1  0  0  0
 21 23  1  0  0  0
 22 48  1  0  0  0
 22 49  1  0  0  0
 23 24  2  0  0  0
 23 25  1  0  0  0
 25 26  1  0  0  0
 25 50  1  0  0  0
 26 31  2  0  0  0
 26 27  1  0  0  0
 27 28  2  0  0  0
 27 51  1  0  0  0
 28 29  1  0  0  0
 28 33  1  0  0  0
 29 30  2  0  0  0
 29 52  1  0  0  0
 30 31  1  0  0  0
 30 53  1  0  0  0
 31 32  1  0  0  0
 32 54  1  0  0  0
 32 55  1  0  0  0
 32 56  1  0  0  0
M  END
> <i_i_glide_confnum>
182

> <i_i_glide_lignum>
2316

> <i_i_glide_posenum>
111

> <i_i_glide_rotatable_bonds>
7

> <i_m_Source_File_Index>
4477

> <b_m_subgroup_collapsed>
0

> <r_i_docking_score>
-5.06759

> <r_i_glide_ecoul>
-1.19823

> <r_i_glide_eff_state_penalty>
0

> <r_i_glide_einternal>
7.44648

> <r_i_glide_emodel>
-61.6933

> <r_i_glide_energy>
-49.2475

> <r_i_glide_erotb>
0.640195

> <r_i_glide_esite>
0

> <r_i_glide_evdw>
-48.0492

> <r_i_glide_gscore>
-5.06759

> <r_i_glide_hbond>
-0.0449334

> <r_i_glide_ligand_efficiency>
-0.158362

> <r_i_glide_ligand_efficiency_ln>
-1.13477

> <r_i_glide_ligand_efficiency_sa>
-0.502769

> <r_i_glide_lipo>
-2.10859

> <r_i_glide_metal>
0

> <r_i_glide_rewards>
-0.972063

> <s_i_glide_gridfile>
wee1_glide-grid

> <s_m_Source_File>
wee1_decoys_glide_SP.sdf

> <s_m_Source_Path>
/Users/zhangxujun/Desktop

> <s_m_entry_id>
4752

> <s_m_entry_name>
wee1_decoys_glide_SP.4477

> <s_m_subgroup_title>
wee1_decoys_glide_SP

> <s_m_subgroupid>
wee1_decoys_glide_SP


$$$$
