ZINC20452125_314
                    3D
 Schrodinger Suite 2024-2.
 75 79  0  0  1  0            999 V2000
    7.5454   58.2741   18.3952 C   0  0  0  0  0  0
    7.8226   56.7552   18.3027 C   0  0  0  0  0  0
    8.6294   56.2734   19.5262 C   0  0  0  0  0  0
    6.5828   55.8777   18.0635 C   0  0  0  0  0  0
    6.7643   54.5343   17.7168 C   0  0  0  0  0  0
    5.6676   53.6980   17.5236 C   0  0  0  0  0  0
    4.3751   54.2014   17.6781 C   0  0  0  0  0  0
    4.1826   55.5496   17.9841 C   0  0  0  0  0  0
    5.2808   56.3818   18.1793 C   0  0  0  0  0  0
    3.1718   53.2798   17.5407 C   0  0  0  0  0  0
    2.5846   52.8967   18.9114 N   0  3  0  0  0  0
    3.4615   51.9281   19.7253 C   0  0  1  0  0  0
    4.4902   52.1515   19.4394 H   0  0  0  0  0  0
    3.2874   52.0386   21.2434 C   0  0  0  0  0  0
    2.4519   50.8060   21.6666 C   0  0  2  0  0  0
    3.0969   50.1276   22.2371 H   0  0  0  0  0  0
    2.0184   50.1718   20.4161 N   0  0  0  0  0  0
    3.0838   50.4740   19.4676 C   0  0  0  0  0  0
    1.7577   48.7331   20.5583 C   0  0  0  0  0  0
    1.1304   48.1307   19.3090 C   0  0  0  0  0  0
   -0.2542   48.1759   19.1189 C   0  0  0  0  0  0
   -0.8191   47.6667   17.9489 C   0  0  0  0  0  0
   -0.0019   47.1255   16.9547 C   0  0  0  0  0  0
    1.3821   47.1048   17.1262 C   0  0  0  0  0  0
    1.9435   47.6190   18.2927 C   0  0  0  0  0  0
    2.4021   46.4427   15.9017 Cl  0  0  0  0  0  0
    1.2622   51.2419   22.5569 C   0  0  0  0  0  0
    0.3360   51.9201   22.1043 O   0  0  0  0  0  0
    1.3417   50.8820   23.8479 N   0  0  0  0  0  0
    0.4004   51.2615   24.8990 C   0  0  0  0  0  0
    0.4577   52.7533   25.3007 C   0  0  0  0  0  0
    1.8418   53.2927   25.6625 C   0  0  0  0  0  0
    2.6538   53.8770   24.6689 C   0  0  0  0  0  0
    3.9287   54.3741   24.9769 C   0  0  0  0  0  0
    4.3618   54.2630   26.2939 C   0  0  0  0  0  0
    3.5764   53.7085   27.2656 C   0  0  0  0  0  0
    2.3029   53.2181   26.9890 C   0  0  0  0  0  0
    4.2306   53.7639   28.4554 O   0  0  0  0  0  0
    5.5426   54.1568   28.1458 C   0  0  0  0  0  0
    5.5315   54.6827   26.8445 O   0  0  0  0  0  0
    7.0113   58.6410   17.5174 H   0  0  0  0  0  0
    6.9544   58.5312   19.2750 H   0  0  0  0  0  0
    8.4762   58.8391   18.4557 H   0  0  0  0  0  0
    8.4545   56.6182   17.4227 H   0  0  0  0  0  0
    8.9830   55.2489   19.4039 H   0  0  0  0  0  0
    9.5111   56.8946   19.6837 H   0  0  0  0  0  0
    8.0340   56.3047   20.4390 H   0  0  0  0  0  0
    7.7589   54.1294   17.6075 H   0  0  0  0  0  0
    5.8267   52.6548   17.2823 H   0  0  0  0  0  0
    3.1852   55.9499   18.0931 H   0  0  0  0  0  0
    5.1023   57.4155   18.4303 H   0  0  0  0  0  0
    3.4121   52.3346   17.0447 H   0  0  0  0  0  0
    2.3507   53.7680   17.0113 H   0  0  0  0  0  0
    1.6880   52.4436   18.7897 H   0  0  0  0  0  0
    4.2746   51.9968   21.7100 H   0  0  0  0  0  0
    2.8385   52.9996   21.5097 H   0  0  0  0  0  0
    3.9046   49.7961   19.6820 H   0  0  0  0  0  0
    2.7994   50.2597   18.4360 H   0  0  0  0  0  0
    1.0699   48.5808   21.3913 H   0  0  0  0  0  0
    2.6891   48.2087   20.7949 H   0  0  0  0  0  0
   -0.8904   48.6069   19.8769 H   0  0  0  0  0  0
   -1.8887   47.6986   17.8081 H   0  0  0  0  0  0
   -0.4391   46.7341   16.0486 H   0  0  0  0  0  0
    3.0193   47.6256   18.4032 H   0  0  0  0  0  0
    2.1019   50.2809   24.1301 H   0  0  0  0  0  0
   -0.6139   50.9589   24.6306 H   0  0  0  0  0  0
    0.7040   50.6615   25.7589 H   0  0  0  0  0  0
    0.0440   53.3641   24.4960 H   0  0  0  0  0  0
   -0.2225   52.8967   26.1414 H   0  0  0  0  0  0
    2.2899   53.9497   23.6543 H   0  0  0  0  0  0
    4.5449   54.8271   24.2155 H   0  0  0  0  0  0
    1.6913   52.7839   27.7656 H   0  0  0  0  0  0
    6.1960   53.2811   28.1725 H   0  0  0  0  0  0
    5.9034   54.8965   28.8641 H   0  0  0  0  0  0
    2.4149   53.7470   19.4401 H   0  0  0  0  0  0
  1  2  1  0  0  0
  1 41  1  0  0  0
  1 42  1  0  0  0
  1 43  1  0  0  0
  2  3  1  0  0  0
  2  4  1  0  0  0
  2 44  1  0  0  0
  3 45  1  0  0  0
  3 46  1  0  0  0
  3 47  1  0  0  0
  4  9  2  0  0  0
  4  5  1  0  0  0
  5  6  2  0  0  0
  5 48  1  0  0  0
  6  7  1  0  0  0
  6 49  1  0  0  0
  7  8  2  0  0  0
  7 10  1  0  0  0
  8  9  1  0  0  0
  8 50  1  0  0  0
  9 51  1  0  0  0
 10 11  1  0  0  0
 10 52  1  0  0  0
 10 53  1  0  0  0
 11 12  1  0  0  0
 11 54  1  0  0  0
 11 75  1  0  0  0
 12 13  1  0  0  0
 12 18  1  0  0  0
 12 14  1  0  0  0
 14 15  1  0  0  0
 14 55  1  0  0  0
 14 56  1  0  0  0
 15 16  1  0  0  0
 15 17  1  0  0  0
 15 27  1  0  0  0
 17 18  1  0  0  0
 17 19  1  0  0  0
 18 57  1  0  0  0
 18 58  1  0  0  0
 19 20  1  0  0  0
 19 59  1  0  0  0
 19 60  1  0  0  0
 20 25  2  0  0  0
 20 21  1  0  0  0
 21 22  2  0  0  0
 21 61  1  0  0  0
 22 23  1  0  0  0
 22 62  1  0  0  0
 23 24  2  0  0  0
 23 63  1  0  0  0
 24 25  1  0  0  0
 24 26  1  0  0  0
 25 64  1  0  0  0
 27 28  2  0  0  0
 27 29  1  0  0  0
 29 30  1  0  0  0
 29 65  1  0  0  0
 30 31  1  0  0  0
 30 66  1  0  0  0
 30 67  1  0  0  0
 31 32  1  0  0  0
 31 68  1  0  0  0
 31 69  1  0  0  0
 32 37  2  0  0  0
 32 33  1  0  0  0
 33 34  2  0  0  0
 33 70  1  0  0  0
 34 35  1  0  0  0
 34 71  1  0  0  0
 35 40  1  0  0  0
 35 36  2  0  0  0
 36 37  1  0  0  0
 36 38  1  0  0  0
 37 72  1  0  0  0
 38 39  1  0  0  0
 39 40  1  0  0  0
 39 73  1  0  0  0
 39 74  1  0  0  0
M  CHG  1  11   1
M  END
> <i_i_glide_confnum>
198

> <i_i_glide_lignum>
315

> <i_i_glide_posenum>
265

> <i_i_glide_rotatable_bonds>
11

> <i_m_Source_File_Index>
3434

> <b_m_subgroup_collapsed>
0

> <r_i_docking_score>
-4.65408

> <r_i_glide_ecoul>
-5.74104

> <r_i_glide_eff_state_penalty>
0

> <r_i_glide_einternal>
3.09092

> <r_i_glide_emodel>
-62.1313

> <r_i_glide_energy>
-47.5916

> <r_i_glide_erotb>
0.648839

> <r_i_glide_esite>
-0.0099066

> <r_i_glide_evdw>
-41.8506

> <r_i_glide_gscore>
-4.65408

> <r_i_glide_hbond>
0

> <r_i_glide_ligand_efficiency>
-0.122476

> <r_i_glide_ligand_efficiency_ln>
-1.00356

> <r_i_glide_ligand_efficiency_sa>
-0.41176

> <r_i_glide_lipo>
-1.77519

> <r_i_glide_metal>
0

> <r_i_glide_rewards>
-0.564136

> <s_i_glide_gridfile>
wee1_glide-grid

> <s_m_Source_File>
wee1_decoys_glide_SP.sdf

> <s_m_Source_Path>
/Users/zhangxujun/Desktop

> <s_m_entry_id>
3709

> <s_m_entry_name>
wee1_decoys_glide_SP.3434

> <s_m_subgroup_title>
wee1_decoys_glide_SP

> <s_m_subgroupid>
wee1_decoys_glide_SP


$$$$
