ZINC65074856_4106
                    3D
 Schrodinger Suite 2024-2.
 70 74  0  0  1  0            999 V2000
    2.8956   55.8535   15.4467 C   0  0  0  0  0  0
    4.2406   56.5159   15.8049 C   0  0  0  0  0  0
    4.0385   57.7279   16.7333 C   0  0  0  0  0  0
    5.2832   55.5039   16.3482 C   0  0  0  0  0  0
    4.9132   54.8151   17.6603 C   0  0  0  0  0  0
    5.3094   55.3739   18.8775 C   0  0  0  0  0  0
    4.9868   54.7390   20.0738 C   0  0  0  0  0  0
    4.2544   53.5523   20.0554 C   0  0  0  0  0  0
    3.8827   52.9739   18.8412 C   0  0  0  0  0  0
    4.2082   53.6091   17.6450 C   0  0  0  0  0  0
    3.8947   52.7160   21.5924 S   0  0  0  0  0  0
    4.9417   51.6961   21.6810 O   0  0  0  0  0  0
    3.7706   53.7468   22.6302 O   0  0  0  0  0  0
    2.3116   51.9156   21.3839 N   0  0  0  0  0  0
    2.2150   50.4446   21.5487 C   0  0  0  0  0  0
    1.8723   50.0543   23.0091 C   0  0  0  0  0  0
    0.6124   50.7738   23.5824 C   0  0  0  0  0  0
    0.7898   52.3059   23.3289 C   0  0  0  0  0  0
    1.1046   52.6378   21.8486 C   0  0  0  0  0  0
    0.3939   50.3901   25.0567 C   0  0  0  0  0  0
   -0.0839   49.1807   25.3859 N   0  3  0  0  0  0
   -0.6880   48.2442   24.4437 C   0  0  0  0  0  0
   -0.8917   48.8888   23.0508 C   0  0  0  0  0  0
   -0.6642   50.3344   22.9977 N   0  0  0  0  0  0
    0.7010   51.2835   26.0070 N   0  0  0  0  0  0
    0.7041   51.0257   27.4543 C   0  0  0  0  0  0
    0.7970   52.2661   28.3250 C   0  0  0  0  0  0
    0.0882   52.3002   29.5433 C   0  0  0  0  0  0
    0.1501   53.4209   30.3819 C   0  0  0  0  0  0
    0.9097   54.5032   29.9493 C   0  0  0  0  0  0
    1.6151   54.4685   28.7802 C   0  0  0  0  0  0
    1.6027   53.3563   27.9482 C   0  0  0  0  0  0
    2.2975   55.6319   28.6273 O   0  0  0  0  0  0
    1.7933   56.4888   29.6131 C   0  0  0  0  0  0
    1.1069   55.7046   30.5527 O   0  0  0  0  0  0
    2.3806   55.4774   16.3329 H   0  0  0  0  0  0
    3.0390   55.0132   14.7663 H   0  0  0  0  0  0
    2.2275   56.5609   14.9554 H   0  0  0  0  0  0
    4.6517   56.9071   14.8724 H   0  0  0  0  0  0
    3.5949   57.4316   17.6827 H   0  0  0  0  0  0
    4.9841   58.2292   16.9457 H   0  0  0  0  0  0
    3.3771   58.4693   16.2822 H   0  0  0  0  0  0
    5.4780   54.7386   15.5947 H   0  0  0  0  0  0
    6.2478   56.0014   16.4726 H   0  0  0  0  0  0
    5.8674   56.2987   18.8985 H   0  0  0  0  0  0
    5.3003   55.1721   21.0133 H   0  0  0  0  0  0
    3.3650   52.0268   18.8146 H   0  0  0  0  0  0
    3.9200   53.1555   16.7073 H   0  0  0  0  0  0
    1.4083   50.0947   20.9039 H   0  0  0  0  0  0
    3.1278   49.9743   21.1823 H   0  0  0  0  0  0
    1.7747   48.9735   23.0754 H   0  0  0  0  0  0
    2.7043   50.2829   23.6663 H   0  0  0  0  0  0
    1.6055   52.6983   23.9370 H   0  0  0  0  0  0
   -0.1024   52.8479   23.6446 H   0  0  0  0  0  0
    1.2411   53.7040   21.6828 H   0  0  0  0  0  0
    0.2664   52.3145   21.2262 H   0  0  0  0  0  0
   -0.0489   47.3640   24.3937 H   0  0  0  0  0  0
   -1.6423   47.9436   24.8745 H   0  0  0  0  0  0
   -0.2375   48.4038   22.3266 H   0  0  0  0  0  0
   -1.9090   48.6868   22.7131 H   0  0  0  0  0  0
   -1.4423   50.8395   23.3982 H   0  0  0  0  0  0
    1.0203   52.1912   25.6995 H   0  0  0  0  0  0
   -0.2195   50.4929   27.6839 H   0  0  0  0  0  0
    1.5378   50.3578   27.6708 H   0  0  0  0  0  0
   -0.5105   51.4524   29.8502 H   0  0  0  0  0  0
   -0.3856   53.4300   31.3215 H   0  0  0  0  0  0
    2.1856   53.3426   27.0386 H   0  0  0  0  0  0
    1.1060   57.1999   29.1529 H   0  0  0  0  0  0
    2.6038   57.0412   30.0811 H   0  0  0  0  0  0
   -0.1641   48.9627   26.3726 H   0  0  0  0  0  0
  1  2  1  0  0  0
  1 36  1  0  0  0
  1 37  1  0  0  0
  1 38  1  0  0  0
  2  3  1  0  0  0
  2  4  1  0  0  0
  2 39  1  0  0  0
  3 40  1  0  0  0
  3 41  1  0  0  0
  3 42  1  0  0  0
  4  5  1  0  0  0
  4 43  1  0  0  0
  4 44  1  0  0  0
  5 10  2  0  0  0
  5  6  1  0  0  0
  6  7  2  0  0  0
  6 45  1  0  0  0
  7  8  1  0  0  0
  7 46  1  0  0  0
  8  9  2  0  0  0
  8 11  1  0  0  0
  9 10  1  0  0  0
  9 47  1  0  0  0
 10 48  1  0  0  0
 11 12  2  0  0  0
 11 13  2  0  0  0
 11 14  1  0  0  0
 14 19  1  0  0  0
 14 15  1  0  0  0
 15 16  1  0  0  0
 15 49  1  0  0  0
 15 50  1  0  0  0
 16 17  1  0  0  0
 16 51  1  0  0  0
 16 52  1  0  0  0
 17 24  1  0  0  0
 17 18  1  0  0  0
 17 20  1  0  0  0
 18 19  1  0  0  0
 18 53  1  0  0  0
 18 54  1  0  0  0
 19 55  1  0  0  0
 19 56  1  0  0  0
 20 21  2  0  0  0
 20 25  1  0  0  0
 21 22  1  0  0  0
 21 70  1  0  0  0
 22 23  1  0  0  0
 22 57  1  0  0  0
 22 58  1  0  0  0
 23 24  1  0  0  0
 23 59  1  0  0  0
 23 60  1  0  0  0
 24 61  1  0  0  0
 25 26  1  0  0  0
 25 62  1  0  0  0
 26 27  1  0  0  0
 26 63  1  0  0  0
 26 64  1  0  0  0
 27 32  2  0  0  0
 27 28  1  0  0  0
 28 29  2  0  0  0
 28 65  1  0  0  0
 29 30  1  0  0  0
 29 66  1  0  0  0
 30 35  1  0  0  0
 30 31  2  0  0  0
 31 32  1  0  0  0
 31 33  1  0  0  0
 32 67  1  0  0  0
 33 34  1  0  0  0
 34 35  1  0  0  0
 34 68  1  0  0  0
 34 69  1  0  0  0
M  CHG  1  21   1
M  END
> <i_i_glide_confnum>
147

> <i_i_glide_lignum>
4107

> <i_i_glide_posenum>
86

> <i_i_glide_rotatable_bonds>
7

> <i_m_Source_File_Index>
5020

> <b_m_subgroup_collapsed>
0

> <r_i_docking_score>
-3.65037

> <r_i_glide_ecoul>
-4.33889

> <r_i_glide_eff_state_penalty>
0

> <r_i_glide_einternal>
5.13326

> <r_i_glide_emodel>
-51.3332

> <r_i_glide_energy>
-44.745

> <r_i_glide_erotb>
0.490636

> <r_i_glide_esite>
-0.0783661

> <r_i_glide_evdw>
-40.4061

> <r_i_glide_gscore>
-3.65037

> <r_i_glide_hbond>
0

> <r_i_glide_ligand_efficiency>
-0.104296

> <r_i_glide_ligand_efficiency_ln>
-0.801337

> <r_i_glide_ligand_efficiency_sa>
-0.34116

> <r_i_glide_lipo>
-1.32082

> <r_i_glide_metal>
0

> <r_i_glide_rewards>
-0.0706855

> <s_i_glide_gridfile>
wee1_glide-grid

> <s_m_Source_File>
wee1_decoys_glide_SP.sdf

> <s_m_Source_Path>
/Users/zhangxujun/Desktop

> <s_m_entry_id>
5295

> <s_m_entry_name>
wee1_decoys_glide_SP.5020

> <s_m_subgroup_title>
wee1_decoys_glide_SP

> <s_m_subgroupid>
wee1_decoys_glide_SP


$$$$
