ZINC13701820_2246
                    3D
 Schrodinger Suite 2024-2.
 44 47  0  0  1  0            999 V2000
   13.1383   62.5805   17.5116 C   0  0  0  0  0  0
   13.9358   61.5405   17.9894 C   0  0  0  0  0  0
   13.3921   60.2989   18.3215 C   0  0  0  0  0  0
   12.0101   60.1306   18.1643 C   0  0  0  0  0  0
   11.1903   61.1830   17.6787 C   0  0  0  0  0  0
   11.7606   62.4215   17.3509 C   0  0  0  0  0  0
    9.8635   60.8969   17.5909 N   0  0  0  0  0  0
    9.6113   59.6718   17.9512 C   0  0  0  0  0  0
   11.0053   58.7274   18.4826 S   0  0  0  0  0  0
    8.3024   59.2057   17.9223 N   0  0  0  0  0  0
    7.8878   57.9287   18.0816 C   0  0  0  0  0  0
    8.6373   56.9625   18.2231 O   0  0  0  0  0  0
    6.3677   57.7194   18.0654 C   0  0  0  0  0  0
    5.7935   55.9824   18.1503 S   0  0  0  0  0  0
    5.8651   55.3816   19.8177 C   0  0  0  0  0  0
    6.8331   55.8118   20.7281 C   0  0  0  0  0  0
    6.7531   55.3518   22.0424 C   0  0  0  0  0  0
    5.6937   54.4965   22.3821 C   0  0  0  0  0  0
    4.8214   54.0520   21.4382 N   0  0  0  0  0  0
    4.9111   54.4808   20.1683 N   0  0  0  0  0  0
    5.3585   54.1095   23.6893 N   0  0  0  0  0  0
    5.8668   54.5247   24.8708 C   0  0  0  0  0  0
    6.9419   55.1125   25.0032 O   0  0  0  0  0  0
    4.9856   54.2851   26.0812 C   0  0  0  0  0  0
    3.6568   53.8291   25.9669 C   0  0  0  0  0  0
    2.8447   53.6969   27.0935 C   0  0  0  0  0  0
    3.3366   54.0375   28.3506 C   0  0  0  0  0  0
    4.6442   54.4964   28.4793 C   0  0  0  0  0  0
    5.4689   54.5939   27.3621 C   0  0  0  0  0  0
    5.1044   54.8941   29.6817 F   0  0  0  0  0  0
   13.5989   63.5250   17.2579 H   0  0  0  0  0  0
   14.9997   61.6996   18.0956 H   0  0  0  0  0  0
   14.0160   59.4933   18.6817 H   0  0  0  0  0  0
   11.1539   63.2295   16.9695 H   0  0  0  0  0  0
    7.6002   59.9002   17.6872 H   0  0  0  0  0  0
    5.9107   58.2782   18.8811 H   0  0  0  0  0  0
    5.9775   58.1452   17.1401 H   0  0  0  0  0  0
    7.6205   56.4896   20.4456 H   0  0  0  0  0  0
    7.4790   55.6990   22.7620 H   0  0  0  0  0  0
    4.5233   53.5500   23.7450 H   0  0  0  0  0  0
    3.2201   53.5826   25.0102 H   0  0  0  0  0  0
    1.8279   53.3476   26.9884 H   0  0  0  0  0  0
    2.7019   53.9622   29.2206 H   0  0  0  0  0  0
    6.4735   54.9672   27.5062 H   0  0  0  0  0  0
  1  6  2  0  0  0
  1  2  1  0  0  0
  1 31  1  0  0  0
  2  3  2  0  0  0
  2 32  1  0  0  0
  3  4  1  0  0  0
  3 33  1  0  0  0
  4  9  1  0  0  0
  4  5  2  0  0  0
  5  6  1  0  0  0
  5  7  1  0  0  0
  6 34  1  0  0  0
  7  8  2  0  0  0
  8  9  1  0  0  0
  8 10  1  0  0  0
 10 11  1  0  0  0
 10 35  1  0  0  0
 11 12  2  0  0  0
 11 13  1  0  0  0
 13 14  1  0  0  0
 13 36  1  0  0  0
 13 37  1  0  0  0
 14 15  1  0  0  0
 15 20  2  0  0  0
 15 16  1  0  0  0
 16 17  2  0  0  0
 16 38  1  0  0  0
 17 18  1  0  0  0
 17 39  1  0  0  0
 18 19  2  0  0  0
 18 21  1  0  0  0
 19 20  1  0  0  0
 21 22  1  0  0  0
 21 40  1  0  0  0
 22 23  2  0  0  0
 22 24  1  0  0  0
 24 29  2  0  0  0
 24 25  1  0  0  0
 25 26  2  0  0  0
 25 41  1  0  0  0
 26 27  1  0  0  0
 26 42  1  0  0  0
 27 28  2  0  0  0
 27 43  1  0  0  0
 28 29  1  0  0  0
 28 30  1  0  0  0
 29 44  1  0  0  0
M  END
> <i_i_glide_confnum>
128

> <i_i_glide_lignum>
2247

> <i_i_glide_posenum>
227

> <i_i_glide_rotatable_bonds>
8

> <i_m_Source_File_Index>
763

> <b_m_subgroup_collapsed>
0

> <r_i_docking_score>
-5.15816

> <r_i_glide_ecoul>
-2.39442

> <r_i_glide_eff_state_penalty>
0

> <r_i_glide_einternal>
10.734

> <r_i_glide_emodel>
-55.7031

> <r_i_glide_energy>
-42.7539

> <r_i_glide_erotb>
0.723328

> <r_i_glide_esite>
-0.0713141

> <r_i_glide_evdw>
-40.3594

> <r_i_glide_gscore>
-5.15816

> <r_i_glide_hbond>
-0.369763

> <r_i_glide_ligand_efficiency>
-0.171939

> <r_i_glide_ligand_efficiency_ln>
-1.17199

> <r_i_glide_ligand_efficiency_sa>
-0.534253

> <r_i_glide_lipo>
-2.16889

> <r_i_glide_metal>
0

> <r_i_glide_rewards>
-0.894383

> <s_i_glide_gridfile>
wee1_glide-grid

> <s_m_Source_File>
wee1_decoys_glide_SP.sdf

> <s_m_Source_Path>
/Users/zhangxujun/Desktop

> <s_m_entry_id>
1038

> <s_m_entry_name>
wee1_decoys_glide_SP.763

> <s_m_subgroup_title>
wee1_decoys_glide_SP

> <s_m_subgroupid>
wee1_decoys_glide_SP


$$$$
