ZINC32072164_47
                    3D
 Schrodinger Suite 2024-2.
 49 52  0  0  1  0            999 V2000
    5.1047   53.2979   28.8843 C   0  0  0  0  0  0
    3.7136   53.5733   28.4221 C   0  0  0  0  0  0
    3.2719   54.0139   27.1598 C   0  0  0  0  0  0
    1.9605   54.1024   27.1222 N   0  0  0  0  0  0
    1.5272   53.7041   28.3225 N   0  0  0  0  0  0
    2.5602   53.3079   29.1426 C   0  0  0  0  0  0
    2.3723   52.7665   30.3872 N   0  0  0  0  0  0
    1.1992   52.7536   30.8800 C   0  0  0  0  0  0
   -0.0334   53.4037   30.2445 C   0  0  0  0  0  0
    0.1104   53.4787   28.6668 C   0  0  2  0  0  0
   -0.4914   54.2786   28.2381 H   0  0  0  0  0  0
   -0.4419   52.2376   27.9296 C   0  0  0  0  0  0
   -0.8895   51.2959   28.5745 O   0  0  0  0  0  0
   -0.3782   52.2943   26.5793 N   0  0  0  0  0  0
   -0.6852   51.3052   25.6265 C   0  0  0  0  0  0
   -1.4237   50.1468   25.8981 C   0  0  0  0  0  0
   -1.6104   49.1874   24.9103 C   0  0  0  0  0  0
   -1.0843   49.3745   23.6280 C   0  0  0  0  0  0
   -0.3669   50.5487   23.3548 C   0  0  0  0  0  0
   -0.1737   51.5061   24.3468 C   0  0  0  0  0  0
   -1.2886   48.3104   22.5944 C   0  0  0  0  0  0
   -1.8628   47.2414   22.8121 O   0  0  0  0  0  0
   -0.7553   48.5679   21.1873 C   0  0  0  0  0  0
    0.9991   52.0997   32.0682 O   0  0  0  0  0  0
    4.1044   54.3019   25.9471 C   0  0  0  0  0  0
    5.3752   54.8768   26.0725 C   0  0  0  0  0  0
    6.1852   55.0417   24.9532 C   0  0  0  0  0  0
    5.7218   54.6428   23.7030 C   0  0  0  0  0  0
    4.4466   54.1014   23.5562 C   0  0  0  0  0  0
    3.6348   53.9436   24.6767 C   0  0  0  0  0  0
    6.7086   54.8989   22.3145 Cl  0  0  0  0  0  0
    5.1106   52.3205   29.3735 H   0  0  0  0  0  0
    5.8687   53.2509   28.1118 H   0  0  0  0  0  0
    5.3611   54.0368   29.6576 H   0  0  0  0  0  0
   -0.9306   52.8685   30.5489 H   0  0  0  0  0  0
   -0.1118   54.4110   30.6445 H   0  0  0  0  0  0
    0.0957   53.0992   26.2007 H   0  0  0  0  0  0
   -1.8289   49.9433   26.8785 H   0  0  0  0  0  0
   -2.1591   48.2915   25.1699 H   0  0  0  0  0  0
    0.0624   50.7368   22.3815 H   0  0  0  0  0  0
    0.3967   52.3942   24.1119 H   0  0  0  0  0  0
   -1.2505   49.4360   20.7512 H   0  0  0  0  0  0
    0.3132   48.7809   21.2269 H   0  0  0  0  0  0
   -0.8967   47.7021   20.5401 H   0  0  0  0  0  0
    0.0624   52.0994   32.3175 H   0  0  0  0  0  0
    5.7452   55.1933   27.0379 H   0  0  0  0  0  0
    7.1654   55.4845   25.0489 H   0  0  0  0  0  0
    4.0868   53.8123   22.5792 H   0  0  0  0  0  0
    2.6570   53.5010   24.5584 H   0  0  0  0  0  0
  1  2  1  0  0  0
  1 32  1  0  0  0
  1 33  1  0  0  0
  1 34  1  0  0  0
  2  6  2  0  0  0
  2  3  1  0  0  0
  3  4  2  0  0  0
  3 25  1  0  0  0
  4  5  1  0  0  0
  5 10  1  0  0  0
  5  6  1  0  0  0
  6  7  1  0  0  0
  7  8  2  0  0  0
  8  9  1  0  0  0
  8 24  1  0  0  0
  9 10  1  0  0  0
  9 35  1  0  0  0
  9 36  1  0  0  0
 10 11  1  0  0  0
 10 12  1  0  0  0
 12 13  2  0  0  0
 12 14  1  0  0  0
 14 15  1  0  0  0
 14 37  1  0  0  0
 15 20  2  0  0  0
 15 16  1  0  0  0
 16 17  2  0  0  0
 16 38  1  0  0  0
 17 18  1  0  0  0
 17 39  1  0  0  0
 18 19  2  0  0  0
 18 21  1  0  0  0
 19 20  1  0  0  0
 19 40  1  0  0  0
 20 41  1  0  0  0
 21 22  2  0  0  0
 21 23  1  0  0  0
 23 42  1  0  0  0
 23 43  1  0  0  0
 23 44  1  0  0  0
 24 45  1  0  0  0
 25 30  2  0  0  0
 25 26  1  0  0  0
 26 27  2  0  0  0
 26 46  1  0  0  0
 27 28  1  0  0  0
 27 47  1  0  0  0
 28 29  2  0  0  0
 28 31  1  0  0  0
 29 30  1  0  0  0
 29 48  1  0  0  0
 30 49  1  0  0  0
M  END
> <i_i_glide_confnum>
37

> <i_i_glide_lignum>
48

> <i_i_glide_posenum>
321

> <i_i_glide_rotatable_bonds>
6

> <i_m_Source_File_Index>
701

> <b_m_subgroup_collapsed>
0

> <r_i_docking_score>
-6.13138

> <r_i_glide_ecoul>
-4.23664

> <r_i_glide_eff_state_penalty>
0

> <r_i_glide_einternal>
15.002

> <r_i_glide_emodel>
-57.4415

> <r_i_glide_energy>
-46.1512

> <r_i_glide_erotb>
0.443238

> <r_i_glide_esite>
-0.0697658

> <r_i_glide_evdw>
-41.9146

> <r_i_glide_gscore>
-6.13138

> <r_i_glide_hbond>
-0.246426

> <r_i_glide_ligand_efficiency>
-0.204379

> <r_i_glide_ligand_efficiency_ln>
-1.39312

> <r_i_glide_ligand_efficiency_sa>
-0.635054

> <r_i_glide_lipo>
-2.73786

> <r_i_glide_metal>
0

> <r_i_glide_rewards>
-0.789345

> <s_i_glide_gridfile>
wee1_glide-grid

> <s_m_Source_File>
wee1_decoys_glide_SP.sdf

> <s_m_Source_Path>
/Users/zhangxujun/Desktop

> <s_m_entry_id>
976

> <s_m_entry_name>
wee1_decoys_glide_SP.701

> <s_m_subgroup_title>
wee1_decoys_glide_SP

> <s_m_subgroupid>
wee1_decoys_glide_SP


$$$$
