ZINC03336210_3266
                    3D
 Schrodinger Suite 2024-2.
 60 64  0  0  1  0            999 V2000
    5.3361   53.9296   26.2509 C   0  0  0  0  0  0
    5.7256   54.1007   24.8045 C   0  0  0  0  0  0
    6.9248   54.1785   24.1275 C   0  0  0  0  0  0
    6.6486   54.3762   22.7929 C   0  0  0  0  0  0
    5.2805   54.3221   22.6660 C   0  0  0  0  0  0
    4.7179   54.1978   23.9013 O   0  0  0  0  0  0
    4.3390   54.4178   21.4900 C   0  0  2  0  0  0
    3.7447   55.2967   21.6804 H   0  0  0  0  0  0
    3.3473   53.2490   21.5303 C   0  0  0  0  0  0
    3.5162   52.1775   20.7315 C   0  0  0  0  0  0
    4.4133   52.2412   19.6820 N   0  0  0  0  0  0
    5.1014   53.3853   19.3103 C   0  0  0  0  0  0
    5.0720   54.4859   20.1139 C   0  0  0  0  0  0
    5.8507   55.6959   19.7516 C   0  0  0  0  0  0
    6.2785   56.5064   20.5756 O   0  0  0  0  0  0
    6.2789   55.7897   18.2802 C   0  0  0  0  0  0
    6.8827   54.4681   17.7426 C   0  0  0  0  0  0
    5.8789   53.2933   17.9864 C   0  0  0  0  0  0
    8.2328   54.2000   18.4518 C   0  0  0  0  0  0
    7.0601   54.6311   16.2180 C   0  0  0  0  0  0
    2.6206   50.6366   20.9178 S   0  0  0  0  0  0
    2.4945   49.9634   19.2370 C   0  0  0  0  0  0
    1.7701   48.6200   19.1157 C   0  0  0  0  0  0
    1.1589   48.1398   20.0709 O   0  0  0  0  0  0
    1.9036   48.0380   17.9075 N   0  0  0  0  0  0
    1.3977   46.8112   17.4448 C   0  0  0  0  0  0
    0.3756   46.0720   18.0897 C   0  0  0  0  0  0
   -0.0620   44.8467   17.5686 C   0  0  0  0  0  0
    0.5256   44.3987   16.3916 C   0  0  0  0  0  0
    1.5007   45.1144   15.7562 C   0  0  0  0  0  0
    1.9686   46.3251   16.2567 C   0  0  0  0  0  0
    1.9047   44.4393   14.6488 O   0  0  0  0  0  0
    0.9986   43.3768   14.5022 C   0  0  0  0  0  0
    0.2913   43.2482   15.7086 O   0  0  0  0  0  0
    2.3328   53.2590   22.5394 C   0  0  0  0  0  0
    1.5110   53.3039   23.3542 N   0  0  0  0  0  0
    6.2078   53.7818   26.8897 H   0  0  0  0  0  0
    4.6860   53.0654   26.3897 H   0  0  0  0  0  0
    4.8026   54.8020   26.6278 H   0  0  0  0  0  0
    7.9119   54.1059   24.5122 H   0  0  0  0  0  0
    7.3734   54.5018   22.0036 H   0  0  0  0  0  0
    4.6159   51.4042   19.1321 H   0  0  0  0  0  0
    6.9686   56.6268   18.1658 H   0  0  0  0  0  0
    5.3813   56.0508   17.7175 H   0  0  0  0  0  0
    6.4409   52.3625   17.9173 H   0  0  0  0  0  0
    5.1069   53.2456   17.2150 H   0  0  0  0  0  0
    8.9344   55.0191   18.2853 H   0  0  0  0  0  0
    8.1207   54.0968   19.5278 H   0  0  0  0  0  0
    8.7080   53.2939   18.0748 H   0  0  0  0  0  0
    7.7452   55.4455   15.9819 H   0  0  0  0  0  0
    7.4719   53.7261   15.7681 H   0  0  0  0  0  0
    6.1166   54.8449   15.7139 H   0  0  0  0  0  0
    2.0069   50.6926   18.5908 H   0  0  0  0  0  0
    3.5044   49.8076   18.8813 H   0  0  0  0  0  0
    2.5705   48.4904   17.2853 H   0  0  0  0  0  0
   -0.0963   46.4291   18.9923 H   0  0  0  0  0  0
   -0.8330   44.2799   18.0697 H   0  0  0  0  0  0
    2.7534   46.8718   15.7502 H   0  0  0  0  0  0
    1.5274   42.4525   14.2666 H   0  0  0  0  0  0
    0.2971   43.6120   13.6983 H   0  0  0  0  0  0
  1  2  1  0  0  0
  1 37  1  0  0  0
  1 38  1  0  0  0
  1 39  1  0  0  0
  2  6  1  0  0  0
  2  3  2  0  0  0
  3  4  1  0  0  0
  3 40  1  0  0  0
  4  5  2  0  0  0
  4 41  1  0  0  0
  5  6  1  0  0  0
  5  7  1  0  0  0
  7  8  1  0  0  0
  7 13  1  0  0  0
  7  9  1  0  0  0
  9 10  2  0  0  0
  9 35  1  0  0  0
 10 11  1  0  0  0
 10 21  1  0  0  0
 11 12  1  0  0  0
 11 42  1  0  0  0
 12 18  1  0  0  0
 12 13  2  0  0  0
 13 14  1  0  0  0
 14 15  2  0  0  0
 14 16  1  0  0  0
 16 17  1  0  0  0
 16 43  1  0  0  0
 16 44  1  0  0  0
 17 18  1  0  0  0
 17 19  1  0  0  0
 17 20  1  0  0  0
 18 45  1  0  0  0
 18 46  1  0  0  0
 19 47  1  0  0  0
 19 48  1  0  0  0
 19 49  1  0  0  0
 20 50  1  0  0  0
 20 51  1  0  0  0
 20 52  1  0  0  0
 21 22  1  0  0  0
 22 23  1  0  0  0
 22 53  1  0  0  0
 22 54  1  0  0  0
 23 24  2  0  0  0
 23 25  1  0  0  0
 25 26  1  0  0  0
 25 55  1  0  0  0
 26 31  2  0  0  0
 26 27  1  0  0  0
 27 28  2  0  0  0
 27 56  1  0  0  0
 28 29  1  0  0  0
 28 57  1  0  0  0
 29 34  1  0  0  0
 29 30  2  0  0  0
 30 31  1  0  0  0
 30 32  1  0  0  0
 31 58  1  0  0  0
 32 33  1  0  0  0
 33 34  1  0  0  0
 33 59  1  0  0  0
 33 60  1  0  0  0
 35 36  3  0  0  0
M  END
> <i_i_glide_confnum>
91

> <i_i_glide_lignum>
3267

> <i_i_glide_posenum>
397

> <i_i_glide_rotatable_bonds>
7

> <i_m_Source_File_Index>
3362

> <b_m_subgroup_collapsed>
0

> <r_i_docking_score>
-5.32369

> <r_i_glide_ecoul>
-11.9416

> <r_i_glide_eff_state_penalty>
0

> <r_i_glide_einternal>
9.37238

> <r_i_glide_emodel>
-57.1034

> <r_i_glide_energy>
-44.9114

> <r_i_glide_erotb>
0.421271

> <r_i_glide_esite>
-0.237909

> <r_i_glide_evdw>
-32.9698

> <r_i_glide_gscore>
-5.32369

> <r_i_glide_hbond>
-0.304

> <r_i_glide_ligand_efficiency>
-0.152105

> <r_i_glide_ligand_efficiency_ln>
-1.16867

> <r_i_glide_ligand_efficiency_sa>
-0.497547

> <r_i_glide_lipo>
-1.43025

> <r_i_glide_metal>
0

> <r_i_glide_rewards>
-0.333065

> <s_i_glide_gridfile>
wee1_glide-grid

> <s_m_Source_File>
wee1_decoys_glide_SP.sdf

> <s_m_Source_Path>
/Users/zhangxujun/Desktop

> <s_m_entry_id>
3637

> <s_m_entry_name>
wee1_decoys_glide_SP.3362

> <s_m_subgroup_title>
wee1_decoys_glide_SP

> <s_m_subgroupid>
wee1_decoys_glide_SP


$$$$
