ZINC37351700_3824
                    3D
 Schrodinger Suite 2024-2.
 31 33  0  0  1  0            999 V2000
    1.1729   52.4962   32.0622 C   0  0  0  0  0  0
    1.2386   52.5839   30.6074 N   0  0  0  0  0  0
    0.2913   52.2335   29.6811 C   0  0  0  0  0  0
    0.8438   52.5023   28.4227 C   0  0  0  0  0  0
    2.1110   53.0704   28.7470 C   0  0  0  0  0  0
    2.3263   53.1010   30.0458 N   0  0  0  0  0  0
    3.1530   53.5983   27.8723 C   0  0  0  0  0  0
    3.1655   54.2512   26.6469 C   0  0  0  0  0  0
    4.4944   54.4980   26.3130 C   0  0  0  0  0  0
    5.2451   54.0078   27.3619 C   0  0  0  0  0  0
    4.4363   53.4619   28.3018 O   0  0  0  0  0  0
    7.1101   53.9667   27.6815 Br  0  0  0  0  0  0
    0.2079   52.2568   27.0702 C   0  0  0  0  0  0
   -1.1856   52.1878   26.9346 C   0  0  0  0  0  0
   -1.7822   52.0167   25.6879 C   0  0  0  0  0  0
   -0.9866   51.8970   24.5543 C   0  0  0  0  0  0
    0.3987   51.9258   24.6661 C   0  0  0  0  0  0
    0.9856   52.0967   25.9174 C   0  0  0  0  0  0
   -1.5624   51.7501   23.3395 F   0  0  0  0  0  0
   -0.8956   51.6965   30.0815 N   0  0  0  0  0  0
    0.6845   53.3865   32.4586 H   0  0  0  0  0  0
    0.6055   51.6171   32.3622 H   0  0  0  0  0  0
    2.1745   52.4044   32.4814 H   0  0  0  0  0  0
    2.3024   54.4965   26.0491 H   0  0  0  0  0  0
    4.8653   54.9791   25.4200 H   0  0  0  0  0  0
   -1.8286   52.2796   27.7904 H   0  0  0  0  0  0
   -2.8575   51.9780   25.5996 H   0  0  0  0  0  0
    1.0147   51.8140   23.7863 H   0  0  0  0  0  0
    2.0593   52.0967   25.9746 H   0  0  0  0  0  0
   -1.4125   51.0746   29.4734 H   0  0  0  0  0  0
   -1.1415   51.6316   31.0678 H   0  0  0  0  0  0
  1  2  1  0  0  0
  1 21  1  0  0  0
  1 22  1  0  0  0
  1 23  1  0  0  0
  2  6  1  0  0  0
  2  3  1  0  0  0
  3  4  2  0  0  0
  3 20  1  0  0  0
  4  5  1  0  0  0
  4 13  1  0  0  0
  5  6  2  0  0  0
  5  7  1  0  0  0
  7 11  1  0  0  0
  7  8  2  0  0  0
  8  9  1  0  0  0
  8 24  1  0  0  0
  9 10  2  0  0  0
  9 25  1  0  0  0
 10 11  1  0  0  0
 10 12  1  0  0  0
 13 18  2  0  0  0
 13 14  1  0  0  0
 14 15  2  0  0  0
 14 26  1  0  0  0
 15 16  1  0  0  0
 15 27  1  0  0  0
 16 17  2  0  0  0
 16 19  1  0  0  0
 17 18  1  0  0  0
 17 28  1  0  0  0
 18 29  1  0  0  0
 20 30  1  0  0  0
 20 31  1  0  0  0
M  END
> <i_i_glide_confnum>
8

> <i_i_glide_lignum>
3825

> <i_i_glide_posenum>
341

> <i_i_glide_rotatable_bonds>
2

> <i_m_Source_File_Index>
1709

> <b_m_subgroup_collapsed>
0

> <r_i_docking_score>
-4.84747

> <r_i_glide_ecoul>
-3.57329

> <r_i_glide_eff_state_penalty>
0

> <r_i_glide_einternal>
2.19541

> <r_i_glide_emodel>
-44.1721

> <r_i_glide_energy>
-34.361

> <r_i_glide_erotb>
0.3342

> <r_i_glide_esite>
-0.089653

> <r_i_glide_evdw>
-30.7877

> <r_i_glide_gscore>
-4.84747

> <r_i_glide_hbond>
-0.21741

> <r_i_glide_ligand_efficiency>
-0.242373

> <r_i_glide_ligand_efficiency_ln>
-1.21316

> <r_i_glide_ligand_efficiency_sa>
-0.657902

> <r_i_glide_lipo>
-1.61741

> <r_i_glide_metal>
0

> <r_i_glide_rewards>
-1.18182

> <s_i_glide_gridfile>
wee1_glide-grid

> <s_m_Source_File>
wee1_decoys_glide_SP.sdf

> <s_m_Source_Path>
/Users/zhangxujun/Desktop

> <s_m_entry_id>
1984

> <s_m_entry_name>
wee1_decoys_glide_SP.1709

> <s_m_subgroup_title>
wee1_decoys_glide_SP

> <s_m_subgroupid>
wee1_decoys_glide_SP


$$$$
