ZINC28526626_4884
                    3D
 Schrodinger Suite 2024-2.
 62 65  0  0  1  0            999 V2000
    3.7269   54.1141   29.4007 C   0  0  0  0  0  0
    4.3810   54.0929   28.0362 C   0  0  0  0  0  0
    3.5950   54.0940   26.8842 C   0  0  0  0  0  0
    4.1966   54.0978   25.6291 C   0  0  0  0  0  0
    5.5973   54.1001   25.5120 C   0  0  0  0  0  0
    6.3735   54.0976   26.6805 C   0  0  0  0  0  0
    5.7720   54.0968   27.9331 C   0  0  0  0  0  0
    6.2863   54.0965   24.1641 C   0  0  0  0  0  0
    7.4459   53.6971   24.0625 O   0  0  0  0  0  0
    5.5612   54.5398   23.1227 N   0  0  0  0  0  0
    6.0066   54.7800   21.8077 C   0  0  0  0  0  0
    7.2483   55.3920   21.5717 C   0  0  0  0  0  0
    7.6601   55.6952   20.2744 C   0  0  0  0  0  0
    6.8270   55.4027   19.1975 C   0  0  0  0  0  0
    5.5860   54.8029   19.4147 C   0  0  0  0  0  0
    5.1729   54.4829   20.7102 C   0  0  0  0  0  0
    3.9045   53.9119   20.8596 N   0  0  0  0  0  0
    3.6515   52.6483   21.3611 C   0  0  0  0  0  0
    4.4907   51.8038   21.6800 O   0  0  0  0  0  0
    2.3232   52.4954   21.4812 O   0  0  0  0  0  0
    1.7524   51.2787   21.9536 C   0  0  0  0  0  0
    0.2929   51.5442   22.3771 C   0  0  0  0  0  0
   -0.5195   50.2549   22.6098 C   0  0  0  0  0  0
   -1.9806   50.5844   23.0017 C   0  0  0  0  0  0
   -2.0137   51.3660   24.2574 N   0  0  0  0  0  0
   -1.2829   52.6353   24.0513 C   0  0  0  0  0  0
    0.1909   52.3862   23.6631 C   0  0  0  0  0  0
   -2.5707   50.9345   25.4693 C   0  0  0  0  0  0
   -3.4134   49.8076   25.5368 C   0  0  0  0  0  0
   -3.9770   49.4032   26.7514 C   0  0  0  0  0  0
   -3.6956   50.0961   27.8708 N   0  3  0  0  0  0
   -2.8939   51.1759   27.8778 C   0  0  0  0  0  0
   -2.3248   51.6162   26.6790 C   0  0  0  0  0  0
    2.7843   54.6657   29.3762 H   0  0  0  0  0  0
    3.5317   53.1006   29.7536 H   0  0  0  0  0  0
    4.3696   54.6218   30.1182 H   0  0  0  0  0  0
    2.5169   54.0876   26.9593 H   0  0  0  0  0  0
    3.5576   54.0785   24.7598 H   0  0  0  0  0  0
    7.4543   54.0926   26.6292 H   0  0  0  0  0  0
    6.3889   54.1029   28.8206 H   0  0  0  0  0  0
    4.5620   54.4951   23.2354 H   0  0  0  0  0  0
    7.9015   55.6438   22.3943 H   0  0  0  0  0  0
    8.6244   56.1511   20.1074 H   0  0  0  0  0  0
    7.1447   55.6370   18.1910 H   0  0  0  0  0  0
    4.9520   54.5850   18.5687 H   0  0  0  0  0  0
    3.1068   54.4192   20.4957 H   0  0  0  0  0  0
    1.7926   50.5383   21.1542 H   0  0  0  0  0  0
    2.3159   50.8769   22.7965 H   0  0  0  0  0  0
   -0.2075   52.0890   21.5748 H   0  0  0  0  0  0
   -0.5005   49.6367   21.7097 H   0  0  0  0  0  0
   -0.0527   49.6304   23.3745 H   0  0  0  0  0  0
   -2.4423   51.1875   22.2208 H   0  0  0  0  0  0
   -2.5598   49.6664   23.0344 H   0  0  0  0  0  0
   -1.7845   53.1788   23.2460 H   0  0  0  0  0  0
   -1.3418   53.2970   24.9071 H   0  0  0  0  0  0
    0.7172   51.9074   24.4897 H   0  0  0  0  0  0
    0.7107   53.3369   23.5298 H   0  0  0  0  0  0
   -3.6545   49.2311   24.6612 H   0  0  0  0  0  0
   -4.6078   48.5342   26.8784 H   0  0  0  0  0  0
   -2.7032   51.6118   28.8502 H   0  0  0  0  0  0
   -1.6613   52.4612   26.7234 H   0  0  0  0  0  0
   -4.0230   49.7331   28.7576 H   0  0  0  0  0  0
  1  2  1  0  0  0
  1 34  1  0  0  0
  1 35  1  0  0  0
  1 36  1  0  0  0
  2  7  2  0  0  0
  2  3  1  0  0  0
  3  4  2  0  0  0
  3 37  1  0  0  0
  4  5  1  0  0  0
  4 38  1  0  0  0
  5  6  2  0  0  0
  5  8  1  0  0  0
  6  7  1  0  0  0
  6 39  1  0  0  0
  7 40  1  0  0  0
  8  9  2  0  0  0
  8 10  1  0  0  0
 10 11  1  0  0  0
 10 41  1  0  0  0
 11 16  2  0  0  0
 11 12  1  0  0  0
 12 13  2  0  0  0
 12 42  1  0  0  0
 13 14  1  0  0  0
 13 43  1  0  0  0
 14 15  2  0  0  0
 14 44  1  0  0  0
 15 16  1  0  0  0
 15 45  1  0  0  0
 16 17  1  0  0  0
 17 18  1  0  0  0
 17 46  1  0  0  0
 18 19  2  0  0  0
 18 20  1  0  0  0
 20 21  1  0  0  0
 21 22  1  0  0  0
 21 47  1  0  0  0
 21 48  1  0  0  0
 22 27  1  0  0  0
 22 23  1  0  0  0
 22 49  1  0  0  0
 23 24  1  0  0  0
 23 50  1  0  0  0
 23 51  1  0  0  0
 24 25  1  0  0  0
 24 52  1  0  0  0
 24 53  1  0  0  0
 25 26  1  0  0  0
 25 28  1  0  0  0
 26 27  1  0  0  0
 26 54  1  0  0  0
 26 55  1  0  0  0
 27 56  1  0  0  0
 27 57  1  0  0  0
 28 33  2  0  0  0
 28 29  1  0  0  0
 29 30  2  0  0  0
 29 58  1  0  0  0
 30 31  1  0  0  0
 30 59  1  0  0  0
 31 32  2  0  0  0
 31 62  1  0  0  0
 32 33  1  0  0  0
 32 60  1  0  0  0
 33 61  1  0  0  0
M  CHG  1  31   1
M  END
> <i_i_glide_confnum>
15

> <i_i_glide_lignum>
4885

> <i_i_glide_posenum>
43

> <i_i_glide_rotatable_bonds>
9

> <i_m_Source_File_Index>
496

> <b_m_subgroup_collapsed>
0

> <r_i_docking_score>
-5.74456

> <r_i_glide_ecoul>
-2.64004

> <r_i_glide_eff_state_penalty>
0

> <r_i_glide_einternal>
6.25533

> <r_i_glide_emodel>
-60.0803

> <r_i_glide_energy>
-44.9017

> <r_i_glide_erotb>
0.907208

> <r_i_glide_esite>
-0.114916

> <r_i_glide_evdw>
-42.2617

> <r_i_glide_gscore>
-5.74456

> <r_i_glide_hbond>
-0.32

> <r_i_glide_ligand_efficiency>
-0.174078

> <r_i_glide_ligand_efficiency_ln>
-1.27756

> <r_i_glide_ligand_efficiency_sa>
-0.55836

> <r_i_glide_lipo>
-2.75589

> <r_i_glide_metal>
0

> <r_i_glide_rewards>
-0.95187

> <s_i_glide_gridfile>
wee1_glide-grid

> <s_m_Source_File>
wee1_decoys_glide_SP.sdf

> <s_m_Source_Path>
/Users/zhangxujun/Desktop

> <s_m_entry_id>
771

> <s_m_entry_name>
wee1_decoys_glide_SP.496

> <s_m_subgroup_title>
wee1_decoys_glide_SP

> <s_m_subgroupid>
wee1_decoys_glide_SP


$$$$
