ZINC39980655_35
                    3D
 Schrodinger Suite 2024-2.
 44 48  0  0  1  0            999 V2000
    2.9497   53.6972   28.5081 C   0  0  0  0  0  0
    4.0863   53.9571   29.2736 C   0  0  0  0  0  0
    5.3044   54.2941   28.6803 C   0  0  0  0  0  0
    5.3527   54.3504   27.2851 C   0  0  0  0  0  0
    4.2023   54.0970   26.4944 C   0  0  0  0  0  0
    2.9854   53.7681   27.1130 C   0  0  0  0  0  0
    4.3887   54.1997   25.1542 N   0  0  0  0  0  0
    5.6312   54.4978   24.8673 C   0  0  0  0  0  0
    6.7039   54.7151   26.2257 S   0  0  0  0  0  0
    6.1738   54.7076   23.6074 N   0  0  0  0  0  0
    5.5507   54.4922   22.4244 C   0  0  0  0  0  0
    4.4293   53.9905   22.3017 O   0  0  0  0  0  0
    6.3036   54.9235   21.2618 C   0  0  0  0  0  0
    7.6012   55.4812   21.2441 C   0  0  0  0  0  0
    7.9275   55.6577   19.9153 C   0  0  0  0  0  0
    6.8427   55.1877   19.1991 N   0  0  0  0  0  0
    5.8479   54.8241   20.0275 N   0  0  0  0  0  0
    6.6789   55.2509   17.7336 C   0  0  1  0  0  0
    6.1290   56.1691   17.5225 H   0  0  0  0  0  0
    8.0997   55.3882   17.1214 C   0  0  0  0  0  0
    8.9630   56.4276   17.8674 C   0  0  1  0  0  0
    8.4416   57.3852   17.8550 H   0  0  0  0  0  0
    9.0898   56.0256   19.2693 N   0  0  0  0  0  0
   10.3246   56.6187   17.2286 C   0  0  0  0  0  0
   10.9265   57.6585   16.5305 C   0  0  0  0  0  0
   12.2056   57.2272   16.1736 C   0  0  0  0  0  0
   12.3224   55.9300   16.6478 C   0  0  0  0  0  0
   11.1811   55.5614   17.2814 O   0  0  0  0  0  0
    5.8606   54.0880   17.1133 C   0  0  0  0  0  0
    5.8285   54.1870   15.7820 F   0  0  0  0  0  0
    6.4072   52.9050   17.3992 F   0  0  0  0  0  0
    4.5928   54.0727   17.5308 F   0  0  0  0  0  0
    2.0255   53.4327   29.0023 H   0  0  0  0  0  0
    4.0255   53.8877   30.3485 H   0  0  0  0  0  0
    6.1803   54.4968   29.2798 H   0  0  0  0  0  0
    2.1024   53.5675   26.5238 H   0  0  0  0  0  0
    7.1424   54.9963   23.5785 H   0  0  0  0  0  0
    8.2497   55.6901   22.0808 H   0  0  0  0  0  0
    8.5993   54.4177   17.1267 H   0  0  0  0  0  0
    8.0162   55.6501   16.0649 H   0  0  0  0  0  0
    9.8565   56.4728   19.7545 H   0  0  0  0  0  0
   10.4889   58.6203   16.3096 H   0  0  0  0  0  0
   12.9533   57.7855   15.6285 H   0  0  0  0  0  0
   13.1076   55.1867   16.6075 H   0  0  0  0  0  0
  1  6  2  0  0  0
  1  2  1  0  0  0
  1 33  1  0  0  0
  2  3  2  0  0  0
  2 34  1  0  0  0
  3  4  1  0  0  0
  3 35  1  0  0  0
  4  9  1  0  0  0
  4  5  2  0  0  0
  5  6  1  0  0  0
  5  7  1  0  0  0
  6 36  1  0  0  0
  7  8  2  0  0  0
  8  9  1  0  0  0
  8 10  1  0  0  0
 10 11  1  0  0  0
 10 37  1  0  0  0
 11 12  2  0  0  0
 11 13  1  0  0  0
 13 17  2  0  0  0
 13 14  1  0  0  0
 14 15  2  0  0  0
 14 38  1  0  0  0
 15 23  1  0  0  0
 15 16  1  0  0  0
 16 17  1  0  0  0
 16 18  1  0  0  0
 18 19  1  0  0  0
 18 20  1  0  0  0
 18 29  1  0  0  0
 20 21  1  0  0  0
 20 39  1  0  0  0
 20 40  1  0  0  0
 21 22  1  0  0  0
 21 23  1  0  0  0
 21 24  1  0  0  0
 23 41  1  0  0  0
 24 28  1  0  0  0
 24 25  2  0  0  0
 25 26  1  0  0  0
 25 42  1  0  0  0
 26 27  2  0  0  0
 26 43  1  0  0  0
 27 28  1  0  0  0
 27 44  1  0  0  0
 29 30  1  0  0  0
 29 31  1  0  0  0
 29 32  1  0  0  0
M  END
> <i_i_glide_confnum>
10

> <i_i_glide_lignum>
36

> <i_i_glide_posenum>
263

> <i_i_glide_rotatable_bonds>
5

> <i_m_Source_File_Index>
1928

> <b_m_subgroup_collapsed>
0

> <r_i_docking_score>
-5.30196

> <r_i_glide_ecoul>
-1.75037

> <r_i_glide_eff_state_penalty>
0

> <r_i_glide_einternal>
2.37402

> <r_i_glide_emodel>
-53.7504

> <r_i_glide_energy>
-41.4314

> <r_i_glide_erotb>
0.423906

> <r_i_glide_esite>
-0.112695

> <r_i_glide_evdw>
-39.681

> <r_i_glide_gscore>
-5.30196

> <r_i_glide_hbond>
-0.159053

> <r_i_glide_ligand_efficiency>
-0.176732

> <r_i_glide_ligand_efficiency_ln>
-1.20466

> <r_i_glide_ligand_efficiency_sa>
-0.549148

> <r_i_glide_lipo>
-2.33501

> <r_i_glide_metal>
0

> <r_i_glide_rewards>
-0.872502

> <s_i_glide_gridfile>
wee1_glide-grid

> <s_m_Source_File>
wee1_decoys_glide_SP.sdf

> <s_m_Source_Path>
/Users/zhangxujun/Desktop

> <s_m_entry_id>
2203

> <s_m_entry_name>
wee1_decoys_glide_SP.1928

> <s_m_subgroup_title>
wee1_decoys_glide_SP

> <s_m_subgroupid>
wee1_decoys_glide_SP


$$$$
