ZINC39977540_805
                    3D
 Schrodinger Suite 2024-2.
 51 54  0  0  1  0            999 V2000
   -3.4305   46.0967   27.8106 C   0  0  0  0  0  0
   -3.2977   46.4599   26.3393 C   0  0  0  0  0  0
   -3.6956   45.6631   25.4910 O   0  0  0  0  0  0
   -2.7233   47.6501   26.0817 N   0  0  0  0  0  0
   -2.5556   48.3072   24.8467 C   0  0  0  0  0  0
   -1.7627   49.4569   24.8543 C   0  0  0  0  0  0
   -1.5749   50.1887   23.6822 C   0  0  0  0  0  0
   -2.1784   49.7716   22.4916 C   0  0  0  0  0  0
   -2.9676   48.6209   22.4782 C   0  0  0  0  0  0
   -3.1624   47.8969   23.6485 C   0  0  0  0  0  0
   -1.9339   50.7145   20.9794 S   0  0  0  0  0  0
   -2.9820   50.2115   20.0841 O   0  0  0  0  0  0
   -2.0943   52.0969   21.4421 O   0  0  0  0  0  0
   -0.2985   50.1240   20.7104 N   0  0  0  0  0  0
    0.4546   50.7677   19.9089 C   0  0  0  0  0  0
    1.9398   50.2717   19.8066 C   0  0  1  0  0  0
    1.9058   49.2187   19.5198 H   0  0  0  0  0  0
    2.7044   50.8967   18.6743 N   0  3  0  0  0  0
    2.2530   51.9154   17.9595 C   0  0  0  0  0  0
    3.0493   52.4967   16.9730 C   0  0  0  0  0  0
    2.5695   53.5602   16.2758 C   0  0  0  0  0  0
    1.2374   54.1176   16.5221 C   0  0  0  0  0  0
    0.4349   53.5629   17.4626 C   0  0  0  0  0  0
    0.8384   52.4244   18.2623 C   0  0  0  0  0  0
    0.0727   51.8783   19.1424 N   0  0  0  0  0  0
    2.6420   50.2970   21.1007 N   0  0  0  0  0  0
    2.8733   51.5537   21.6817 C   0  0  0  0  0  0
    2.0941   51.9558   22.7699 C   0  0  0  0  0  0
    2.3044   53.2001   23.3647 C   0  0  0  0  0  0
    3.3069   54.0403   22.8816 C   0  0  0  0  0  0
    4.0960   53.6401   21.8026 C   0  0  0  0  0  0
    3.8808   52.3978   21.2044 C   0  0  0  0  0  0
    5.3416   54.6783   21.2129 Cl  0  0  0  0  0  0
   -2.4856   45.7026   28.1849 H   0  0  0  0  0  0
   -4.1950   45.3337   27.9537 H   0  0  0  0  0  0
   -3.6949   46.9694   28.4093 H   0  0  0  0  0  0
   -2.3042   48.0967   26.9071 H   0  0  0  0  0  0
   -1.2955   49.7892   25.7716 H   0  0  0  0  0  0
   -0.9687   51.0824   23.7021 H   0  0  0  0  0  0
   -3.4449   48.2863   21.5685 H   0  0  0  0  0  0
   -3.8056   47.0343   23.5950 H   0  0  0  0  0  0
    4.0366   52.0964   16.7760 H   0  0  0  0  0  0
    3.1910   54.0079   15.5125 H   0  0  0  0  0  0
    0.8995   54.9732   15.9540 H   0  0  0  0  0  0
   -0.5396   54.0006   17.6221 H   0  0  0  0  0  0
    2.2269   49.6497   21.7575 H   0  0  0  0  0  0
    1.3211   51.3071   23.1537 H   0  0  0  0  0  0
    1.6964   53.5094   24.2023 H   0  0  0  0  0  0
    3.4741   54.9987   23.3479 H   0  0  0  0  0  0
    4.5008   52.0902   20.3748 H   0  0  0  0  0  0
    3.6494   50.5453   18.4749 H   0  0  0  0  0  0
  1  2  1  0  0  0
  1 34  1  0  0  0
  1 35  1  0  0  0
  1 36  1  0  0  0
  2  3  2  0  0  0
  2  4  1  0  0  0
  4  5  1  0  0  0
  4 37  1  0  0  0
  5 10  2  0  0  0
  5  6  1  0  0  0
  6  7  2  0  0  0
  6 38  1  0  0  0
  7  8  1  0  0  0
  7 39  1  0  0  0
  8  9  2  0  0  0
  8 11  1  0  0  0
  9 10  1  0  0  0
  9 40  1  0  0  0
 10 41  1  0  0  0
 11 12  2  0  0  0
 11 13  2  0  0  0
 11 14  1  0  0  0
 14 15  2  0  0  0
 15 25  1  0  0  0
 15 16  1  0  0  0
 16 17  1  0  0  0
 16 18  1  0  0  0
 16 26  1  0  0  0
 18 19  2  0  0  0
 18 51  1  0  0  0
 19 24  1  0  0  0
 19 20  1  0  0  0
 20 21  2  0  0  0
 20 42  1  0  0  0
 21 22  1  0  0  0
 21 43  1  0  0  0
 22 23  2  0  0  0
 22 44  1  0  0  0
 23 24  1  0  0  0
 23 45  1  0  0  0
 24 25  2  0  0  0
 26 27  1  0  0  0
 26 46  1  0  0  0
 27 32  2  0  0  0
 27 28  1  0  0  0
 28 29  2  0  0  0
 28 47  1  0  0  0
 29 30  1  0  0  0
 29 48  1  0  0  0
 30 31  2  0  0  0
 30 49  1  0  0  0
 31 32  1  0  0  0
 31 33  1  0  0  0
 32 50  1  0  0  0
M  CHG  1  18   1
M  END
> <i_i_glide_confnum>
2

> <i_i_glide_lignum>
806

> <i_i_glide_posenum>
344

> <i_i_glide_rotatable_bonds>
6

> <i_m_Source_File_Index>
2674

> <b_m_subgroup_collapsed>
0

> <r_i_docking_score>
-3.31193

> <r_i_glide_ecoul>
-14.8453

> <r_i_glide_eff_state_penalty>
0

> <r_i_glide_einternal>
19.5751

> <r_i_glide_emodel>
-41.3274

> <r_i_glide_energy>
-44.0675

> <r_i_glide_erotb>
0.459154

> <r_i_glide_esite>
-0.365944

> <r_i_glide_evdw>
-29.2222

> <r_i_glide_gscore>
-3.31193

> <r_i_glide_hbond>
-0.549126

> <r_i_glide_ligand_efficiency>
-0.103498

> <r_i_glide_ligand_efficiency_ln>
-0.74163

> <r_i_glide_ligand_efficiency_sa>
-0.328585

> <r_i_glide_lipo>
-0.805805

> <r_i_glide_metal>
0

> <r_i_glide_rewards>
1.6377

> <s_i_glide_gridfile>
wee1_glide-grid

> <s_m_Source_File>
wee1_decoys_glide_SP.sdf

> <s_m_Source_Path>
/Users/zhangxujun/Desktop

> <s_m_entry_id>
2949

> <s_m_entry_name>
wee1_decoys_glide_SP.2674

> <s_m_subgroup_title>
wee1_decoys_glide_SP

> <s_m_subgroupid>
wee1_decoys_glide_SP


$$$$
