ZINC49263305_3893
                    3D
 Schrodinger Suite 2024-2.
 37 38  0  0  1  0            999 V2000
    6.7049   53.6985   28.1481 C   0  0  0  0  0  0
    5.8453   54.3415   27.0523 C   0  0  1  0  0  0
    5.6367   55.3741   27.3275 H   0  0  0  0  0  0
    6.5845   54.3642   25.7078 C   0  0  0  0  0  0
    5.7607   55.0498   24.6213 C   0  0  0  0  0  0
    4.4111   54.3386   24.4204 C   0  0  0  0  0  0
    3.6204   54.0966   25.7296 C   0  0  2  0  0  0
    3.2838   55.0900   26.0297 H   0  0  0  0  0  0
    4.4957   53.6188   26.9177 C   0  0  0  0  0  0
    2.4256   53.2965   25.4816 N   0  0  0  0  0  0
    1.4413   53.0347   26.3510 C   0  0  0  0  0  0
    1.3860   53.4884   27.4945 O   0  0  0  0  0  0
    0.5010   52.2616   25.7769 N   0  0  0  0  0  0
   -0.7795   52.0120   26.2898 C   0  0  0  0  0  0
   -0.9624   51.5295   27.5929 C   0  0  0  0  0  0
   -2.2488   51.2966   28.0777 C   0  0  0  0  0  0
   -3.3573   51.5332   27.2677 C   0  0  0  0  0  0
   -3.1827   52.0107   25.9692 C   0  0  0  0  0  0
   -1.8991   52.2510   25.4733 C   0  0  0  0  0  0
   -1.7157   52.9045   23.6868 Br  0  0  0  0  0  0
   -4.6024   51.3066   27.7433 F   0  0  0  0  0  0
    6.9352   52.6554   27.9232 H   0  0  0  0  0  0
    6.1850   53.7268   29.1040 H   0  0  0  0  0  0
    7.6496   54.2274   28.2756 H   0  0  0  0  0  0
    7.5127   54.8965   25.8279 H   0  0  0  0  0  0
    6.8559   53.3505   25.4069 H   0  0  0  0  0  0
    6.3188   55.0675   23.6842 H   0  0  0  0  0  0
    5.5920   56.0927   24.8936 H   0  0  0  0  0  0
    4.6322   53.3718   23.9631 H   0  0  0  0  0  0
    3.8053   54.8968   23.7055 H   0  0  0  0  0  0
    4.7256   52.5649   26.7612 H   0  0  0  0  0  0
    3.9587   53.6653   27.8658 H   0  0  0  0  0  0
    2.4371   52.7732   24.6200 H   0  0  0  0  0  0
    0.6533   51.9566   24.8286 H   0  0  0  0  0  0
   -0.1128   51.3213   28.2275 H   0  0  0  0  0  0
   -2.3846   50.9060   29.0752 H   0  0  0  0  0  0
   -4.0463   52.1927   25.3467 H   0  0  0  0  0  0
  1  2  1  0  0  0
  1 22  1  0  0  0
  1 23  1  0  0  0
  1 24  1  0  0  0
  2  3  1  0  0  0
  2  9  1  0  0  0
  2  4  1  0  0  0
  4  5  1  0  0  0
  4 25  1  0  0  0
  4 26  1  0  0  0
  5  6  1  0  0  0
  5 27  1  0  0  0
  5 28  1  0  0  0
  6  7  1  0  0  0
  6 29  1  0  0  0
  6 30  1  0  0  0
  7  8  1  0  0  0
  7  9  1  0  0  0
  7 10  1  0  0  0
  9 31  1  0  0  0
  9 32  1  0  0  0
 10 11  1  0  0  0
 10 33  1  0  0  0
 11 12  2  0  0  0
 11 13  1  0  0  0
 13 14  1  0  0  0
 13 34  1  0  0  0
 14 19  2  0  0  0
 14 15  1  0  0  0
 15 16  2  0  0  0
 15 35  1  0  0  0
 16 17  1  0  0  0
 16 36  1  0  0  0
 17 18  2  0  0  0
 17 21  1  0  0  0
 18 19  1  0  0  0
 18 37  1  0  0  0
 19 20  1  0  0  0
M  END
> <i_i_glide_confnum>
1

> <i_i_glide_lignum>
3894

> <i_i_glide_posenum>
353

> <i_i_glide_rotatable_bonds>
4

> <i_m_Source_File_Index>
360

> <b_m_subgroup_collapsed>
0

> <r_i_docking_score>
-4.4078

> <r_i_glide_ecoul>
-0.512588

> <r_i_glide_eff_state_penalty>
0

> <r_i_glide_einternal>
0.688482

> <r_i_glide_emodel>
-39.0714

> <r_i_glide_energy>
-28.981

> <r_i_glide_erotb>
0.520175

> <r_i_glide_esite>
-0.0241957

> <r_i_glide_evdw>
-28.4684

> <r_i_glide_gscore>
-4.4078

> <r_i_glide_hbond>
0

> <r_i_glide_ligand_efficiency>
-0.231989

> <r_i_glide_ligand_efficiency_ln>
-1.11747

> <r_i_glide_ligand_efficiency_sa>
-0.619041

> <r_i_glide_lipo>
-1.9348

> <r_i_glide_metal>
0

> <r_i_glide_rewards>
-1.46867

> <s_i_glide_gridfile>
wee1_glide-grid

> <s_m_Source_File>
wee1_decoys_glide_SP.sdf

> <s_m_Source_Path>
/Users/zhangxujun/Desktop

> <s_m_entry_id>
635

> <s_m_entry_name>
wee1_decoys_glide_SP.360

> <s_m_subgroup_title>
wee1_decoys_glide_SP

> <s_m_subgroupid>
wee1_decoys_glide_SP


$$$$
