ZINC39666869_383
                    3D
 Schrodinger Suite 2024-2.
 82 85  0  0  1  0            999 V2000
    0.5459   50.4568   18.6048 C   0  0  0  0  0  0
    0.5623   48.9715   19.0019 C   0  0  0  0  0  0
   -0.6053   48.5067   19.9212 C   0  0  0  0  0  0
   -0.6234   46.9571   19.9963 C   0  0  0  0  0  0
   -1.8508   46.3424   20.6928 C   0  0  0  0  0  0
   -0.5705   49.1703   21.3257 C   0  0  0  0  0  0
   -1.0753   50.5419   21.3157 N   0  0  0  0  0  0
   -1.0898   51.4355   22.3169 C   0  0  0  0  0  0
   -1.6968   52.4933   22.1503 O   0  0  0  0  0  0
   -0.4364   51.1054   23.6911 C   0  0  2  0  0  0
   -0.1930   50.0462   23.7447 H   0  0  0  0  0  0
   -1.5069   51.3914   24.7740 C   0  0  0  0  0  0
   -0.7373   51.7886   25.9568 N   0  0  0  0  0  0
    0.6787   51.9078   25.6597 C   0  0  0  0  0  0
    0.7992   51.9539   24.1222 C   0  0  0  0  0  0
    2.2002   51.4296   23.7518 C   0  0  0  0  0  0
    2.5462   51.4855   22.2670 C   0  0  0  0  0  0
    2.6464   52.9764   21.9318 N   0  3  0  0  0  0
    1.3251   53.6963   22.2386 C   0  0  0  0  0  0
    0.8063   53.4509   23.6835 C   0  0  0  0  0  0
   -1.3143   51.9026   27.1818 C   0  0  0  0  0  0
   -2.5223   51.6967   27.3170 O   0  0  0  0  0  0
   -0.5330   52.3847   28.4429 C   0  0  0  0  0  0
    0.6413   51.4896   28.8851 C   0  0  0  0  0  0
    1.2686   52.0490   30.2006 C   0  0  0  0  0  0
    1.5635   53.4802   29.9874 N   0  0  0  0  0  0
    0.4304   54.3550   29.6963 C   0  0  0  0  0  0
   -0.0822   53.8574   28.3366 C   0  0  0  0  0  0
    2.8495   53.9839   29.7447 C   0  0  0  0  0  0
    3.1174   55.1615   29.5125 O   0  0  0  0  0  0
    3.8123   53.0622   29.8900 O   0  0  0  0  0  0
    4.3096   52.3736   28.7529 C   0  0  0  0  0  0
    4.9825   53.2964   27.7475 C   0  0  0  0  0  0
    6.2846   53.7192   27.9857 C   0  0  0  0  0  0
    6.9084   54.5490   27.0677 C   0  0  0  0  0  0
    6.2443   54.9404   25.9062 C   0  0  0  0  0  0
    4.9376   54.5176   25.6689 C   0  0  0  0  0  0
    4.3034   53.6969   26.5971 C   0  0  0  0  0  0
    1.3148   50.6603   17.8604 H   0  0  0  0  0  0
    0.7482   51.1089   19.4536 H   0  0  0  0  0  0
   -0.4093   50.7508   18.1742 H   0  0  0  0  0  0
    0.5531   48.3922   18.0779 H   0  0  0  0  0  0
    1.5181   48.7447   19.4718 H   0  0  0  0  0  0
   -1.5389   48.7963   19.4342 H   0  0  0  0  0  0
   -0.5845   46.5540   18.9848 H   0  0  0  0  0  0
    0.2838   46.6037   20.4806 H   0  0  0  0  0  0
   -1.8656   45.2604   20.5591 H   0  0  0  0  0  0
   -1.8503   46.5293   21.7672 H   0  0  0  0  0  0
   -2.7802   46.7366   20.2820 H   0  0  0  0  0  0
   -1.2007   48.6204   22.0253 H   0  0  0  0  0  0
    0.4403   49.1194   21.7328 H   0  0  0  0  0  0
   -1.5373   50.8298   20.4659 H   0  0  0  0  0  0
   -2.1129   52.2661   24.5288 H   0  0  0  0  0  0
   -2.1180   50.5056   24.9579 H   0  0  0  0  0  0
    1.1032   50.9684   26.0072 H   0  0  0  0  0  0
    1.2383   52.6906   26.1611 H   0  0  0  0  0  0
    2.8779   52.0914   24.3102 H   0  0  0  0  0  0
    2.3110   50.3963   24.0821 H   0  0  0  0  0  0
    3.5188   51.0478   22.0404 H   0  0  0  0  0  0
    1.7904   51.0453   21.6172 H   0  0  0  0  0  0
    3.4019   53.3984   22.4560 H   0  0  0  0  0  0
    1.5442   54.7408   22.0817 H   0  0  0  0  0  0
    0.6686   53.3196   21.4540 H   0  0  0  0  0  0
   -0.1653   53.9163   23.8671 H   0  0  0  0  0  0
    1.4837   54.0099   24.3332 H   0  0  0  0  0  0
   -1.2838   52.3219   29.2356 H   0  0  0  0  0  0
    0.2702   50.4968   29.1200 H   0  0  0  0  0  0
    1.4346   51.4340   28.1456 H   0  0  0  0  0  0
    0.5076   52.0093   30.9823 H   0  0  0  0  0  0
    2.1170   51.4851   30.5772 H   0  0  0  0  0  0
   -0.3402   54.1843   30.4488 H   0  0  0  0  0  0
    0.6856   55.4163   29.7282 H   0  0  0  0  0  0
    0.7187   54.0165   27.6170 H   0  0  0  0  0  0
   -0.8993   54.4965   28.0821 H   0  0  0  0  0  0
    5.0382   51.6421   29.0995 H   0  0  0  0  0  0
    3.5162   51.8088   28.2657 H   0  0  0  0  0  0
    6.8099   53.4284   28.8820 H   0  0  0  0  0  0
    7.9039   54.8921   27.2852 H   0  0  0  0  0  0
    6.7339   55.5859   25.1920 H   0  0  0  0  0  0
    4.4165   54.8338   24.7780 H   0  0  0  0  0  0
    3.2893   53.3725   26.4216 H   0  0  0  0  0  0
    2.8689   53.1030   20.9518 H   0  0  0  0  0  0
  1  2  1  0  0  0
  1 39  1  0  0  0
  1 40  1  0  0  0
  1 41  1  0  0  0
  2  3  1  0  0  0
  2 42  1  0  0  0
  2 43  1  0  0  0
  3  4  1  0  0  0
  3  6  1  0  0  0
  3 44  1  0  0  0
  4  5  1  0  0  0
  4 45  1  0  0  0
  4 46  1  0  0  0
  5 47  1  0  0  0
  5 48  1  0  0  0
  5 49  1  0  0  0
  6  7  1  0  0  0
  6 50  1  0  0  0
  6 51  1  0  0  0
  7  8  1  0  0  0
  7 52  1  0  0  0
  8  9  2  0  0  0
  8 10  1  0  0  0
 10 11  1  0  0  0
 10 15  1  0  0  0
 10 12  1  0  0  0
 12 13  1  0  0  0
 12 53  1  0  0  0
 12 54  1  0  0  0
 13 14  1  0  0  0
 13 21  1  0  0  0
 14 15  1  0  0  0
 14 55  1  0  0  0
 14 56  1  0  0  0
 15 20  1  0  0  0
 15 16  1  0  0  0
 16 17  1  0  0  0
 16 57  1  0  0  0
 16 58  1  0  0  0
 17 18  1  0  0  0
 17 59  1  0  0  0
 17 60  1  0  0  0
 18 19  1  0  0  0
 18 61  1  0  0  0
 18 82  1  0  0  0
 19 20  1  0  0  0
 19 62  1  0  0  0
 19 63  1  0  0  0
 20 64  1  0  0  0
 20 65  1  0  0  0
 21 22  2  0  0  0
 21 23  1  0  0  0
 23 28  1  0  0  0
 23 24  1  0  0  0
 23 66  1  0  0  0
 24 25  1  0  0  0
 24 67  1  0  0  0
 24 68  1  0  0  0
 25 26  1  0  0  0
 25 69  1  0  0  0
 25 70  1  0  0  0
 26 27  1  0  0  0
 26 29  1  0  0  0
 27 28  1  0  0  0
 27 71  1  0  0  0
 27 72  1  0  0  0
 28 73  1  0  0  0
 28 74  1  0  0  0
 29 30  2  0  0  0
 29 31  1  0  0  0
 31 32  1  0  0  0
 32 33  1  0  0  0
 32 75  1  0  0  0
 32 76  1  0  0  0
 33 38  2  0  0  0
 33 34  1  0  0  0
 34 35  2  0  0  0
 34 77  1  0  0  0
 35 36  1  0  0  0
 35 78  1  0  0  0
 36 37  2  0  0  0
 36 79  1  0  0  0
 37 38  1  0  0  0
 37 80  1  0  0  0
 38 81  1  0  0  0
M  CHG  1  18   1
M  END
> <i_i_glide_confnum>
287

> <i_i_glide_lignum>
384

> <i_i_glide_posenum>
390

> <i_i_glide_rotatable_bonds>
12

> <i_m_Source_File_Index>
3746

> <b_m_subgroup_collapsed>
0

> <r_i_docking_score>
1.77566

> <r_i_glide_ecoul>
-0.672645

> <r_i_glide_eff_state_penalty>
0

> <r_i_glide_einternal>
26.9755

> <r_i_glide_emodel>
-4.22031

> <r_i_glide_energy>
-34.157

> <r_i_glide_erotb>
0.699448

> <r_i_glide_esite>
-0.0792588

> <r_i_glide_evdw>
-33.4844

> <r_i_glide_gscore>
1.77566

> <r_i_glide_hbond>
-0.0345096

> <r_i_glide_ligand_efficiency>
0.0479909

> <r_i_glide_ligand_efficiency_ln>
0.385099

> <r_i_glide_ligand_efficiency_sa>
0.159916

> <r_i_glide_lipo>
-2.47116

> <r_i_glide_metal>
0

> <r_i_glide_rewards>
5.43625

> <s_i_glide_gridfile>
wee1_glide-grid

> <s_m_Source_File>
wee1_decoys_glide_SP.sdf

> <s_m_Source_Path>
/Users/zhangxujun/Desktop

> <s_m_entry_id>
4021

> <s_m_entry_name>
wee1_decoys_glide_SP.3746

> <s_m_subgroup_title>
wee1_decoys_glide_SP

> <s_m_subgroupid>
wee1_decoys_glide_SP


$$$$
