ZINC20701392_4487
                    3D
 Schrodinger Suite 2024-2.
 58 62  0  0  1  0            999 V2000
    6.2843   54.2815   28.6673 C   0  0  0  0  0  0
    4.9700   54.1892   27.9304 C   0  0  0  0  0  0
    3.7708   54.3527   28.6254 C   0  0  0  0  0  0
    2.5569   54.3082   27.9422 C   0  0  0  0  0  0
    2.5549   54.0967   26.5635 C   0  0  0  0  0  0
    3.7462   53.9347   25.8511 C   0  0  0  0  0  0
    4.9542   53.9835   26.5494 C   0  0  0  0  0  0
    3.8014   53.6968   24.4684 N   0  0  0  0  0  0
    2.4229   53.5946   23.3536 S   0  0  0  0  0  0
    1.5044   54.6851   23.6816 O   0  0  0  0  0  0
    3.0188   53.4832   22.0196 O   0  0  0  0  0  0
    1.5720   52.0498   23.6818 C   0  0  0  0  0  0
    1.9043   50.8925   22.9759 C   0  0  0  0  0  0
    1.2421   49.6970   23.2474 C   0  0  0  0  0  0
    0.2606   49.6395   24.2383 C   0  0  0  0  0  0
   -0.0891   50.8050   24.9541 C   0  0  0  0  0  0
    0.5573   52.0015   24.6401 C   0  0  0  0  0  0
   -1.1237   50.6907   26.0634 C   0  0  1  0  0  0
   -0.5950   50.3061   26.9397 H   0  0  0  0  0  0
   -1.9789   51.8699   26.4823 C   0  0  0  0  0  0
   -3.2080   51.4314   26.8235 C   0  0  0  0  0  0
   -3.3561   49.9431   26.5422 C   0  0  0  0  0  0
   -2.1817   49.7167   25.5920 C   0  0  2  0  0  0
   -2.5432   50.0288   24.6063 H   0  0  0  0  0  0
   -1.5513   48.3140   25.3978 C   0  0  2  0  0  0
   -1.1067   47.9651   26.3284 H   0  0  0  0  0  0
   -0.4197   48.4140   24.4481 N   0  0  0  0  0  0
   -2.6365   47.3079   25.0046 C   0  0  0  0  0  0
   -3.0604   47.2522   23.6693 C   0  0  0  0  0  0
   -4.1175   46.4293   23.2899 C   0  0  0  0  0  0
   -4.7690   45.6537   24.2438 C   0  0  0  0  0  0
   -4.3491   45.6794   25.5734 C   0  0  0  0  0  0
   -3.2797   46.5005   25.9625 C   0  0  0  0  0  0
   -2.8957   46.4967   27.2817 O   0  0  0  0  0  0
   -5.1667   44.6661   26.7142 Cl  0  0  0  0  0  0
   -4.6260   46.3799   21.6422 Cl  0  0  0  0  0  0
    1.2435   54.5051   28.6760 C   0  0  0  0  0  0
    7.0144   54.8380   28.0813 H   0  0  0  0  0  0
    6.6948   53.2970   28.8772 H   0  0  0  0  0  0
    6.1512   54.8264   29.6021 H   0  0  0  0  0  0
    3.7852   54.5268   29.6906 H   0  0  0  0  0  0
    1.6105   54.0965   26.0571 H   0  0  0  0  0  0
    5.8883   53.8553   26.0212 H   0  0  0  0  0  0
    4.6988   53.4577   24.0772 H   0  0  0  0  0  0
    2.6730   50.9151   22.2162 H   0  0  0  0  0  0
    1.5064   48.8125   22.6893 H   0  0  0  0  0  0
    0.2536   52.8967   25.1538 H   0  0  0  0  0  0
   -1.5960   52.8726   26.6009 H   0  0  0  0  0  0
   -4.0126   52.0247   27.2322 H   0  0  0  0  0  0
   -4.3024   49.7077   26.0532 H   0  0  0  0  0  0
   -3.2966   49.3350   27.4457 H   0  0  0  0  0  0
    0.0714   47.5475   24.2948 H   0  0  0  0  0  0
   -2.5830   47.8733   22.9246 H   0  0  0  0  0  0
   -5.5984   45.0252   23.9512 H   0  0  0  0  0  0
   -2.3087   47.2150   27.5950 H   0  0  0  0  0  0
    0.6014   53.6336   28.5411 H   0  0  0  0  0  0
    1.3854   54.6677   29.7454 H   0  0  0  0  0  0
    0.7169   55.3665   28.2640 H   0  0  0  0  0  0
  1  2  1  0  0  0
  1 38  1  0  0  0
  1 39  1  0  0  0
  1 40  1  0  0  0
  2  7  2  0  0  0
  2  3  1  0  0  0
  3  4  2  0  0  0
  3 41  1  0  0  0
  4  5  1  0  0  0
  4 37  1  0  0  0
  5  6  2  0  0  0
  5 42  1  0  0  0
  6  7  1  0  0  0
  6  8  1  0  0  0
  7 43  1  0  0  0
  8  9  1  0  0  0
  8 44  1  0  0  0
  9 10  2  0  0  0
  9 11  2  0  0  0
  9 12  1  0  0  0
 12 17  2  0  0  0
 12 13  1  0  0  0
 13 14  2  0  0  0
 13 45  1  0  0  0
 14 15  1  0  0  0
 14 46  1  0  0  0
 15 27  1  0  0  0
 15 16  2  0  0  0
 16 17  1  0  0  0
 16 18  1  0  0  0
 17 47  1  0  0  0
 18 19  1  0  0  0
 18 23  1  0  0  0
 18 20  1  0  0  0
 20 21  2  0  0  0
 20 48  1  0  0  0
 21 22  1  0  0  0
 21 49  1  0  0  0
 22 23  1  0  0  0
 22 50  1  0  0  0
 22 51  1  0  0  0
 23 24  1  0  0  0
 23 25  1  0  0  0
 25 26  1  0  0  0
 25 27  1  0  0  0
 25 28  1  0  0  0
 27 52  1  0  0  0
 28 33  2  0  0  0
 28 29  1  0  0  0
 29 30  2  0  0  0
 29 53  1  0  0  0
 30 31  1  0  0  0
 30 36  1  0  0  0
 31 32  2  0  0  0
 31 54  1  0  0  0
 32 33  1  0  0  0
 32 35  1  0  0  0
 33 34  1  0  0  0
 34 55  1  0  0  0
 37 56  1  0  0  0
 37 57  1  0  0  0
 37 58  1  0  0  0
M  END
> <i_i_glide_confnum>
2

> <i_i_glide_lignum>
4488

> <i_i_glide_posenum>
319

> <i_i_glide_rotatable_bonds>
5

> <i_m_Source_File_Index>
3721

> <b_m_subgroup_collapsed>
0

> <r_i_docking_score>
-4.95147

> <r_i_glide_ecoul>
-6.02794

> <r_i_glide_eff_state_penalty>
0

> <r_i_glide_einternal>
1.31744

> <r_i_glide_emodel>
-53.7384

> <r_i_glide_energy>
-41.6242

> <r_i_glide_erotb>
0.308919

> <r_i_glide_esite>
-0.0449317

> <r_i_glide_evdw>
-35.5963

> <r_i_glide_gscore>
-4.95147

> <r_i_glide_hbond>
-0.16

> <r_i_glide_ligand_efficiency>
-0.145631

> <r_i_glide_ligand_efficiency_ln>
-1.09392

> <r_i_glide_ligand_efficiency_sa>
-0.471789

> <r_i_glide_lipo>
-2.09261

> <r_i_glide_metal>
0

> <r_i_glide_rewards>
-0.278836

> <s_i_glide_gridfile>
wee1_glide-grid

> <s_m_Source_File>
wee1_decoys_glide_SP.sdf

> <s_m_Source_Path>
/Users/zhangxujun/Desktop

> <s_m_entry_id>
3996

> <s_m_entry_name>
wee1_decoys_glide_SP.3721

> <s_m_subgroup_title>
wee1_decoys_glide_SP

> <s_m_subgroupid>
wee1_decoys_glide_SP


$$$$
