ZINC10129856_154
                    3D
 Schrodinger Suite 2024-2.
 73 76  0  0  1  0            999 V2000
    7.0706   55.3932   24.3017 C   0  0  0  0  0  0
    5.9367   54.9152   25.1805 C   0  0  0  0  0  0
    4.7448   54.4967   24.5944 C   0  0  0  0  0  0
    3.6686   54.0906   25.3827 C   0  0  0  0  0  0
    3.7914   54.1006   26.7851 C   0  0  0  0  0  0
    5.0121   54.4847   27.3807 C   0  0  0  0  0  0
    6.0708   54.8967   26.5682 C   0  0  0  0  0  0
    5.2547   54.4078   28.8818 C   0  0  0  0  0  0
    2.6958   53.6552   27.5382 N   0  0  0  0  0  0
    1.9967   54.3780   28.4489 C   0  0  0  0  0  0
    2.3045   55.5180   28.8083 O   0  0  0  0  0  0
    0.7894   53.6963   29.0135 C   0  0  0  0  0  0
    0.2867   54.0694   30.0756 O   0  0  0  0  0  0
    0.2802   52.6803   28.2772 N   0  0  0  0  0  0
   -0.8626   51.8433   28.6411 C   0  0  0  0  0  0
   -1.8465   51.5825   27.4586 C   0  0  1  0  0  0
   -2.4574   52.4709   27.2825 H   0  0  0  0  0  0
   -1.1138   51.2625   26.1464 C   0  0  0  0  0  0
   -1.2548   52.1094   25.0465 C   0  0  0  0  0  0
   -0.5624   51.8507   23.8677 C   0  0  0  0  0  0
    0.2882   50.7395   23.7526 C   0  0  0  0  0  0
    0.4014   49.8842   24.8620 C   0  0  0  0  0  0
   -0.2831   50.1439   26.0462 C   0  0  0  0  0  0
    1.0130   50.4954   22.5516 N   0  0  0  0  0  0
    1.0860   51.5177   21.5045 C   0  0  0  0  0  0
    2.0450   49.4582   22.5162 C   0  0  0  0  0  0
   -3.9856   50.3291   26.7622 C   0  0  0  0  0  0
   -4.7316   49.0170   27.0572 C   0  0  0  0  0  0
   -5.2555   48.9346   28.4862 C   0  0  0  0  0  0
   -6.3193   48.0795   28.8001 C   0  0  0  0  0  0
   -6.7748   47.9429   30.1093 C   0  0  0  0  0  0
   -6.1672   48.6664   31.1292 C   0  0  0  0  0  0
   -5.1190   49.5317   30.8298 C   0  0  0  0  0  0
   -4.6551   49.6873   29.5173 C   0  0  0  0  0  0
   -3.5311   50.6848   29.2459 C   0  0  0  0  0  0
    2.3851   53.6541   24.6842 C   0  0  0  0  0  0
    6.7044   56.0942   23.5520 H   0  0  0  0  0  0
    7.5044   54.5455   23.7722 H   0  0  0  0  0  0
    7.8366   55.9137   24.8746 H   0  0  0  0  0  0
    4.6528   54.4988   23.5176 H   0  0  0  0  0  0
    7.0018   55.1982   27.0259 H   0  0  0  0  0  0
    4.7675   53.5311   29.3081 H   0  0  0  0  0  0
    6.3168   54.3086   29.1067 H   0  0  0  0  0  0
    4.8777   55.2967   29.3857 H   0  0  0  0  0  0
    2.3786   52.7286   27.3073 H   0  0  0  0  0  0
    0.7040   52.4411   27.3945 H   0  0  0  0  0  0
   -0.4541   50.8967   28.9957 H   0  0  0  0  0  0
   -1.3851   52.2724   29.4955 H   0  0  0  0  0  0
   -1.8915   52.9802   25.1009 H   0  0  0  0  0  0
   -0.6950   52.5406   23.0504 H   0  0  0  0  0  0
    1.0346   49.0101   24.8375 H   0  0  0  0  0  0
   -0.1603   49.4687   26.8817 H   0  0  0  0  0  0
    0.0925   51.8208   21.1737 H   0  0  0  0  0  0
    1.5962   52.4074   21.8756 H   0  0  0  0  0  0
    1.6304   51.1680   20.6260 H   0  0  0  0  0  0
    1.6322   48.4967   22.8159 H   0  0  0  0  0  0
    2.4829   49.3374   21.5240 H   0  0  0  0  0  0
    2.8505   49.6972   23.2116 H   0  0  0  0  0  0
   -4.6210   51.2167   26.7677 H   0  0  0  0  0  0
   -3.4912   50.2378   25.7944 H   0  0  0  0  0  0
   -5.5441   48.8825   26.3421 H   0  0  0  0  0  0
   -4.0474   48.1804   26.9001 H   0  0  0  0  0  0
   -6.7895   47.4988   28.0199 H   0  0  0  0  0  0
   -7.5923   47.2729   30.3327 H   0  0  0  0  0  0
   -6.5073   48.5614   32.1492 H   0  0  0  0  0  0
   -4.6572   50.0913   31.6325 H   0  0  0  0  0  0
   -2.7317   50.5479   29.9764 H   0  0  0  0  0  0
   -3.9181   51.6977   29.2817 H   0  0  0  0  0  0
    2.2845   52.5699   24.7331 H   0  0  0  0  0  0
    1.5102   54.0967   25.1612 H   0  0  0  0  0  0
    2.3615   53.9653   23.6389 H   0  0  0  0  0  0
   -2.8956   50.4967   27.8431 N   0  3  2  0  0  0
   -2.3767   49.6089   27.8911 H   0  0  0  0  0  0
  1  2  1  0  0  0
  1 37  1  0  0  0
  1 38  1  0  0  0
  1 39  1  0  0  0
  2  7  2  0  0  0
  2  3  1  0  0  0
  3  4  2  0  0  0
  3 40  1  0  0  0
  4  5  1  0  0  0
  4 36  1  0  0  0
  5  6  2  0  0  0
  5  9  1  0  0  0
  6  7  1  0  0  0
  6  8  1  0  0  0
  7 41  1  0  0  0
  8 42  1  0  0  0
  8 43  1  0  0  0
  8 44  1  0  0  0
  9 10  1  0  0  0
  9 45  1  0  0  0
 10 11  2  0  0  0
 10 12  1  0  0  0
 12 13  2  0  0  0
 12 14  1  0  0  0
 14 15  1  0  0  0
 14 46  1  0  0  0
 15 16  1  0  0  0
 15 47  1  0  0  0
 15 48  1  0  0  0
 16 17  1  0  0  0
 16 18  1  0  0  0
 16 72  1  0  0  0
 18 23  2  0  0  0
 18 19  1  0  0  0
 19 20  2  0  0  0
 19 49  1  0  0  0
 20 21  1  0  0  0
 20 50  1  0  0  0
 21 22  2  0  0  0
 21 24  1  0  0  0
 22 23  1  0  0  0
 22 51  1  0  0  0
 23 52  1  0  0  0
 24 25  1  0  0  0
 24 26  1  0  0  0
 25 53  1  0  0  0
 25 54  1  0  0  0
 25 55  1  0  0  0
 26 56  1  0  0  0
 26 57  1  0  0  0
 26 58  1  0  0  0
 27 28  1  0  0  0
 27 59  1  0  0  0
 27 60  1  0  0  0
 27 72  1  0  0  0
 28 29  1  0  0  0
 28 61  1  0  0  0
 28 62  1  0  0  0
 29 34  2  0  0  0
 29 30  1  0  0  0
 30 31  2  0  0  0
 30 63  1  0  0  0
 31 32  1  0  0  0
 31 64  1  0  0  0
 32 33  2  0  0  0
 32 65  1  0  0  0
 33 34  1  0  0  0
 33 66  1  0  0  0
 34 35  1  0  0  0
 35 67  1  0  0  0
 35 68  1  0  0  0
 35 72  1  0  0  0
 36 69  1  0  0  0
 36 70  1  0  0  0
 36 71  1  0  0  0
 72 73  1  0  0  0
M  CHG  1  72   1
M  END
> <i_i_glide_confnum>
200

> <i_i_glide_lignum>
155

> <i_i_glide_posenum>
28

> <i_i_glide_rotatable_bonds>
9

> <i_m_Source_File_Index>
738

> <b_m_subgroup_collapsed>
0

> <r_i_docking_score>
-5.76198

> <r_i_glide_ecoul>
-3.97474

> <r_i_glide_eff_state_penalty>
0

> <r_i_glide_einternal>
3.97841

> <r_i_glide_emodel>
-73.0537

> <r_i_glide_energy>
-53.8325

> <r_i_glide_erotb>
0.689144

> <r_i_glide_esite>
-0.0941072

> <r_i_glide_evdw>
-49.8577

> <r_i_glide_gscore>
-5.76198

> <r_i_glide_hbond>
-0.2

> <r_i_glide_ligand_efficiency>
-0.160055

> <r_i_glide_ligand_efficiency_ln>
-1.25711

> <r_i_glide_ligand_efficiency_sa>
-0.52849

> <r_i_glide_lipo>
-2.13638

> <r_i_glide_metal>
0

> <r_i_glide_rewards>
-0.93154

> <s_i_glide_gridfile>
wee1_glide-grid

> <s_m_Source_File>
wee1_decoys_glide_SP.sdf

> <s_m_Source_Path>
/Users/zhangxujun/Desktop

> <s_m_entry_id>
1013

> <s_m_entry_name>
wee1_decoys_glide_SP.738

> <s_m_subgroup_title>
wee1_decoys_glide_SP

> <s_m_subgroupid>
wee1_decoys_glide_SP


$$$$
