ZINC08441958_2043
                    3D
 Schrodinger Suite 2024-2.
 54 57  0  0  1  0            999 V2000
    6.1030   55.5960   18.9434 C   0  0  0  0  0  0
    5.1025   54.8055   19.5046 C   0  0  0  0  0  0
    5.1670   54.4601   20.8493 C   0  0  0  0  0  0
    6.2346   54.9052   21.6357 C   0  0  0  0  0  0
    7.2409   55.6884   21.0641 C   0  0  0  0  0  0
    7.1743   56.0351   19.7170 C   0  0  0  0  0  0
    6.3434   54.5421   23.1133 C   0  0  0  0  0  0
    5.0610   54.2964   23.6841 O   0  0  0  0  0  0
    4.8555   54.4157   25.0141 C   0  0  0  0  0  0
    5.7443   54.7649   25.7970 O   0  0  0  0  0  0
    3.5322   54.0947   25.3803 N   0  0  0  0  0  0
    3.2020   54.2439   26.8081 C   0  0  0  0  0  0
    1.9135   53.5108   27.1419 C   0  0  0  0  0  0
    1.1783   52.7358   26.3097 C   0  0  0  0  0  0
    1.6430   52.5560   24.8592 C   0  0  2  0  0  0
    2.2997   51.6972   24.8810 H   0  0  0  0  0  0
    2.4824   53.7784   24.3782 C   0  0  0  0  0  0
    0.4619   52.1889   23.9081 C   0  0  2  0  0  0
   -0.0987   53.1211   23.8073 H   0  0  0  0  0  0
   -0.5420   51.1241   24.4770 C   0  0  0  0  0  0
   -0.7778   51.2593   25.9920 C   0  0  0  0  0  0
    0.0131   52.0010   26.8010 C   0  0  0  0  0  0
   -0.2832   52.0318   28.2045 C   0  0  0  0  0  0
   -0.4939   52.0970   29.3405 N   0  0  0  0  0  0
   -1.8195   50.4951   26.4798 N   0  0  0  0  0  0
   -1.8278   51.2799   23.7653 C   0  0  0  0  0  0
   -2.8325   51.4065   23.2047 N   0  0  0  0  0  0
   -0.0676   49.7499   24.2271 C   0  0  0  0  0  0
    0.3011   48.6720   24.0273 N   0  0  0  0  0  0
    0.9178   51.8347   22.4711 C   0  0  0  0  0  0
    2.0881   51.0981   22.2164 C   0  0  0  0  0  0
    2.4857   50.8084   20.9111 C   0  0  0  0  0  0
    1.7050   51.2263   19.8358 C   0  0  0  0  0  0
    0.5206   51.9248   20.0714 C   0  0  0  0  0  0
    0.1309   52.2172   21.3773 C   0  0  0  0  0  0
   -0.5657   52.4850   18.6121 Br  0  0  0  0  0  0
    6.0469   55.8629   17.8991 H   0  0  0  0  0  0
    4.2749   54.4630   18.8975 H   0  0  0  0  0  0
    4.3873   53.8436   21.2699 H   0  0  0  0  0  0
    8.0814   56.0231   21.6579 H   0  0  0  0  0  0
    7.9528   56.6352   19.2683 H   0  0  0  0  0  0
    6.8429   55.3663   23.6298 H   0  0  0  0  0  0
    6.9751   53.6609   23.2232 H   0  0  0  0  0  0
    3.0983   55.2969   27.0586 H   0  0  0  0  0  0
    4.0047   53.8574   27.4408 H   0  0  0  0  0  0
    1.5926   53.6122   28.1676 H   0  0  0  0  0  0
    2.9260   53.4712   23.4324 H   0  0  0  0  0  0
    1.8944   54.6699   24.1584 H   0  0  0  0  0  0
   -2.3617   49.9053   25.8657 H   0  0  0  0  0  0
   -1.8648   50.2527   27.4658 H   0  0  0  0  0  0
    2.7028   50.7243   23.0219 H   0  0  0  0  0  0
    3.3946   50.2518   20.7280 H   0  0  0  0  0  0
    2.0178   50.9998   18.8244 H   0  0  0  0  0  0
   -0.7944   52.7503   21.5321 H   0  0  0  0  0  0
  1  6  2  0  0  0
  1  2  1  0  0  0
  1 37  1  0  0  0
  2  3  2  0  0  0
  2 38  1  0  0  0
  3  4  1  0  0  0
  3 39  1  0  0  0
  4  5  2  0  0  0
  4  7  1  0  0  0
  5  6  1  0  0  0
  5 40  1  0  0  0
  6 41  1  0  0  0
  7  8  1  0  0  0
  7 42  1  0  0  0
  7 43  1  0  0  0
  8  9  1  0  0  0
  9 10  2  0  0  0
  9 11  1  0  0  0
 11 17  1  0  0  0
 11 12  1  0  0  0
 12 13  1  0  0  0
 12 44  1  0  0  0
 12 45  1  0  0  0
 13 14  2  0  0  0
 13 46  1  0  0  0
 14 22  1  0  0  0
 14 15  1  0  0  0
 15 16  1  0  0  0
 15 17  1  0  0  0
 15 18  1  0  0  0
 17 47  1  0  0  0
 17 48  1  0  0  0
 18 19  1  0  0  0
 18 20  1  0  0  0
 18 30  1  0  0  0
 20 21  1  0  0  0
 20 26  1  0  0  0
 20 28  1  0  0  0
 21 22  2  0  0  0
 21 25  1  0  0  0
 22 23  1  0  0  0
 23 24  3  0  0  0
 25 49  1  0  0  0
 25 50  1  0  0  0
 26 27  3  0  0  0
 28 29  3  0  0  0
 30 35  2  0  0  0
 30 31  1  0  0  0
 31 32  2  0  0  0
 31 51  1  0  0  0
 32 33  1  0  0  0
 32 52  1  0  0  0
 33 34  2  0  0  0
 33 53  1  0  0  0
 34 35  1  0  0  0
 34 36  1  0  0  0
 35 54  1  0  0  0
M  END
> <i_i_glide_confnum>
18

> <i_i_glide_lignum>
2044

> <i_i_glide_posenum>
261

> <i_i_glide_rotatable_bonds>
8

> <i_m_Source_File_Index>
4011

> <b_m_subgroup_collapsed>
0

> <r_i_docking_score>
-5.43366

> <r_i_glide_ecoul>
-2.91537

> <r_i_glide_eff_state_penalty>
0

> <r_i_glide_einternal>
9.54865

> <r_i_glide_emodel>
-56.9774

> <r_i_glide_energy>
-46.6295

> <r_i_glide_erotb>
0.31011

> <r_i_glide_esite>
-0.117734

> <r_i_glide_evdw>
-43.7141

> <r_i_glide_gscore>
-5.43366

> <r_i_glide_hbond>
-0.0685193

> <r_i_glide_ligand_efficiency>
-0.159813

> <r_i_glide_ligand_efficiency_ln>
-1.20045

> <r_i_glide_ligand_efficiency_sa>
-0.517733

> <r_i_glide_lipo>
-2.27226

> <r_i_glide_metal>
0

> <r_i_glide_rewards>
-0.662241

> <s_i_glide_gridfile>
wee1_glide-grid

> <s_m_Source_File>
wee1_decoys_glide_SP.sdf

> <s_m_Source_Path>
/Users/zhangxujun/Desktop

> <s_m_entry_id>
4286

> <s_m_entry_name>
wee1_decoys_glide_SP.4011

> <s_m_subgroup_title>
wee1_decoys_glide_SP

> <s_m_subgroupid>
wee1_decoys_glide_SP


$$$$
