ZINC08310536_258
                    3D
 Schrodinger Suite 2024-2.
 65 68  0  0  1  0            999 V2000
   -0.5842   51.2966   27.6804 C   0  0  0  0  0  0
   -0.3105   52.1886   28.7116 C   0  0  0  0  0  0
    0.6713   53.1682   28.5765 C   0  0  0  0  0  0
    1.3891   53.2536   27.3573 C   0  0  0  0  0  0
    1.1043   52.3473   26.3370 C   0  0  0  0  0  0
    0.1256   51.3619   26.4771 C   0  0  0  0  0  0
   -0.0665   50.3293   25.3610 C   0  0  1  0  0  0
    0.9233   50.0684   24.9800 H   0  0  0  0  0  0
   -0.8123   49.0256   25.6767 C   0  0  0  0  0  0
   -1.1683   48.4825   24.3034 C   0  0  0  0  0  0
   -1.6000   49.7132   23.4942 C   0  0  0  0  0  0
   -0.1440   51.8774   23.1787 C   0  0  0  0  0  0
    1.0698   51.2676   22.4400 C   0  0  0  0  0  0
    1.3032   50.0579   22.5208 O   0  0  0  0  0  0
    1.7996   52.1501   21.7165 N   0  0  0  0  0  0
    3.0154   51.9361   21.1668 C   0  0  0  0  0  0
    3.6651   50.8973   21.2554 O   0  0  0  0  0  0
    3.4988   53.0374   20.5659 N   0  0  0  0  0  0
    4.9121   53.2481   20.2413 C   0  0  0  0  0  0
    5.5715   54.4619   20.9392 C   0  0  0  0  0  0
    5.6785   54.4949   22.4706 C   0  0  0  0  0  0
    4.6811   54.1333   23.3147 C   0  0  0  0  0  0
    4.7415   54.1984   24.8374 C   0  0  0  0  0  0
    6.1710   54.4522   25.3533 C   0  0  0  0  0  0
    6.9152   55.4633   24.4744 C   0  0  0  0  0  0
    7.0310   54.9454   23.0238 C   0  0  0  0  0  0
    2.4102   54.1460   27.1108 O   0  0  0  0  0  0
    3.3108   54.4199   28.1727 C   0  0  0  0  0  0
    2.7645   55.4462   29.1679 C   0  0  0  0  0  0
    1.2567   55.3549   29.3933 C   0  0  0  0  0  0
    0.8324   54.0248   29.6469 O   0  0  0  0  0  0
   -1.3348   50.5434   27.8580 H   0  0  0  0  0  0
   -0.8647   52.1170   29.6386 H   0  0  0  0  0  0
    1.6981   52.3972   25.4363 H   0  0  0  0  0  0
   -1.7348   49.2122   26.2283 H   0  0  0  0  0  0
   -0.2111   48.3420   26.2770 H   0  0  0  0  0  0
   -1.9535   47.7291   24.3580 H   0  0  0  0  0  0
   -0.2960   48.0171   23.8403 H   0  0  0  0  0  0
   -2.6680   49.9130   23.6203 H   0  0  0  0  0  0
   -1.3185   49.6199   22.4425 H   0  0  0  0  0  0
    0.1505   52.7400   23.7767 H   0  0  0  0  0  0
   -0.9117   52.1771   22.4647 H   0  0  0  0  0  0
    1.4381   53.0867   21.6350 H   0  0  0  0  0  0
    2.8575   53.7606   20.2634 H   0  0  0  0  0  0
    4.9836   53.3706   19.1591 H   0  0  0  0  0  0
    5.5049   52.3577   20.4585 H   0  0  0  0  0  0
    5.1044   55.3890   20.6095 H   0  0  0  0  0  0
    6.5861   54.5191   20.5414 H   0  0  0  0  0  0
    3.7301   53.8584   22.9031 H   0  0  0  0  0  0
    4.3352   53.2970   25.2910 H   0  0  0  0  0  0
    4.0843   55.0039   25.1630 H   0  0  0  0  0  0
    6.7243   53.5131   25.3654 H   0  0  0  0  0  0
    6.1445   54.8013   26.3857 H   0  0  0  0  0  0
    6.3817   56.4159   24.4894 H   0  0  0  0  0  0
    7.9036   55.6579   24.8819 H   0  0  0  0  0  0
    7.4865   55.7067   22.3895 H   0  0  0  0  0  0
    7.7144   54.0944   22.9875 H   0  0  0  0  0  0
    4.2400   54.7974   27.7485 H   0  0  0  0  0  0
    3.5924   53.4890   28.6734 H   0  0  0  0  0  0
    3.0031   56.4673   28.8825 H   0  0  0  0  0  0
    3.2910   55.2790   30.0977 H   0  0  0  0  0  0
    0.7131   55.7796   28.5467 H   0  0  0  0  0  0
    0.9781   55.9669   30.2532 H   0  0  0  0  0  0
   -0.8664   50.9057   24.1633 N   0  3  2  0  0  0
   -1.5889   51.4335   24.6332 H   0  0  0  0  0  0
  1  6  2  0  0  0
  1  2  1  0  0  0
  1 32  1  0  0  0
  2  3  2  0  0  0
  2 33  1  0  0  0
  3 31  1  0  0  0
  3  4  1  0  0  0
  4  5  2  0  0  0
  4 27  1  0  0  0
  5  6  1  0  0  0
  5 34  1  0  0  0
  6  7  1  0  0  0
  7  8  1  0  0  0
  7  9  1  0  0  0
  7 64  1  0  0  0
  9 10  1  0  0  0
  9 35  1  0  0  0
  9 36  1  0  0  0
 10 11  1  0  0  0
 10 37  1  0  0  0
 10 38  1  0  0  0
 11 39  1  0  0  0
 11 40  1  0  0  0
 11 64  1  0  0  0
 12 13  1  0  0  0
 12 41  1  0  0  0
 12 42  1  0  0  0
 12 64  1  0  0  0
 13 14  2  0  0  0
 13 15  1  0  0  0
 15 16  1  0  0  0
 15 43  1  0  0  0
 16 17  2  0  0  0
 16 18  1  0  0  0
 18 19  1  0  0  0
 18 44  1  0  0  0
 19 20  1  0  0  0
 19 45  1  0  0  0
 19 46  1  0  0  0
 20 21  1  0  0  0
 20 47  1  0  0  0
 20 48  1  0  0  0
 21 26  1  0  0  0
 21 22  2  0  0  0
 22 23  1  0  0  0
 22 49  1  0  0  0
 23 24  1  0  0  0
 23 50  1  0  0  0
 23 51  1  0  0  0
 24 25  1  0  0  0
 24 52  1  0  0  0
 24 53  1  0  0  0
 25 26  1  0  0  0
 25 54  1  0  0  0
 25 55  1  0  0  0
 26 56  1  0  0  0
 26 57  1  0  0  0
 27 28  1  0  0  0
 28 29  1  0  0  0
 28 58  1  0  0  0
 28 59  1  0  0  0
 29 30  1  0  0  0
 29 60  1  0  0  0
 29 61  1  0  0  0
 30 31  1  0  0  0
 30 62  1  0  0  0
 30 63  1  0  0  0
 64 65  1  0  0  0
M  CHG  1  64   1
M  END
> <i_i_glide_confnum>
94

> <i_i_glide_lignum>
259

> <i_i_glide_posenum>
111

> <i_i_glide_rotatable_bonds>
9

> <i_m_Source_File_Index>
5087

> <b_m_subgroup_collapsed>
0

> <r_i_docking_score>
-5.22667

> <r_i_glide_ecoul>
-4.40861

> <r_i_glide_eff_state_penalty>
0

> <r_i_glide_einternal>
11.4711

> <r_i_glide_emodel>
-53.89

> <r_i_glide_energy>
-44.1083

> <r_i_glide_erotb>
0.865324

> <r_i_glide_esite>
-0.00535019

> <r_i_glide_evdw>
-39.6997

> <r_i_glide_gscore>
-5.22667

> <r_i_glide_hbond>
-0.277436

> <r_i_glide_ligand_efficiency>
-0.168602

> <r_i_glide_ligand_efficiency_ln>
-1.17877

> <r_i_glide_ligand_efficiency_sa>
-0.529644

> <r_i_glide_lipo>
-2.53334

> <r_i_glide_metal>
0

> <r_i_glide_rewards>
-0.629594

> <s_i_glide_gridfile>
wee1_glide-grid

> <s_m_Source_File>
wee1_decoys_glide_SP.sdf

> <s_m_Source_Path>
/Users/zhangxujun/Desktop

> <s_m_entry_id>
5362

> <s_m_entry_name>
wee1_decoys_glide_SP.5087

> <s_m_subgroup_title>
wee1_decoys_glide_SP

> <s_m_subgroupid>
wee1_decoys_glide_SP


$$$$
