ZINC28156588_4625
                    3D
 Schrodinger Suite 2024-2.
 57 61  0  0  1  0            999 V2000
    0.9998   52.5985   31.6714 C   0  0  0  0  0  0
    0.3866   52.4679   30.2899 C   0  0  0  0  0  0
    1.0064   53.0633   29.1933 C   0  0  0  0  0  0
    0.4657   52.8971   27.9213 C   0  0  0  0  0  0
   -0.7049   52.1436   27.7362 C   0  0  0  0  0  0
   -1.3075   51.5420   28.8408 C   0  0  0  0  0  0
   -0.7597   51.6968   30.1037 C   0  0  0  0  0  0
   -1.2751   51.9585   26.3950 C   0  0  0  0  0  0
   -0.7115   52.3343   25.3268 N   0  0  0  0  0  0
   -1.4512   51.9516   24.2000 N   0  0  0  0  0  0
   -2.5885   51.1324   24.6027 C   0  0  2  0  0  0
   -3.5091   51.4814   24.1335 H   0  0  0  0  0  0
   -2.6198   51.3035   26.1204 C   0  0  0  0  0  0
   -2.3433   49.6828   24.1984 C   0  0  0  0  0  0
   -1.3510   48.8141   24.6510 C   0  0  0  0  0  0
   -1.3137   47.5931   23.9881 C   0  0  0  0  0  0
   -2.3214   47.4636   23.0477 C   0  0  0  0  0  0
   -3.2962   48.8910   22.9687 S   0  0  0  0  0  0
   -0.8702   52.0131   22.8927 C   0  0  0  0  0  0
   -1.3654   51.5417   21.8265 N   0  0  0  0  0  0
   -0.5626   51.6597   20.7213 C   0  0  0  0  0  0
   -0.8762   51.2791   19.5969 O   0  0  0  0  0  0
    0.7666   52.3583   21.0121 C   0  0  1  0  0  0
    0.7268   53.2670   20.4217 H   0  0  0  0  0  0
    0.7166   52.8129   22.7543 S   0  0  0  0  0  0
    2.0178   51.5272   20.5828 C   0  0  0  0  0  0
    3.4071   52.0537   21.0036 C   0  0  0  0  0  0
    4.3877   51.3229   20.8848 O   0  0  0  0  0  0
    3.4621   53.3007   21.5092 N   0  0  0  0  0  0
    4.5853   53.9198   22.0327 C   0  0  0  0  0  0
    5.5051   54.5268   21.1765 C   0  0  0  0  0  0
    6.5732   55.2348   21.7133 C   0  0  0  0  0  0
    6.7203   55.3154   23.0973 C   0  0  0  0  0  0
    5.8235   54.6993   23.9775 C   0  0  0  0  0  0
    4.7345   54.0108   23.4223 C   0  0  0  0  0  0
    6.0124   54.8207   25.4629 C   0  0  0  0  0  0
    7.0966   55.2968   25.8809 O   0  0  0  0  0  0
    5.0693   54.4584   26.2028 O   0  5  0  0  0  0
    2.0880   52.5641   31.6103 H   0  0  0  0  0  0
    0.7040   53.5377   32.1399 H   0  0  0  0  0  0
    0.7043   51.7733   32.3216 H   0  0  0  0  0  0
    1.9151   53.6355   29.3171 H   0  0  0  0  0  0
    0.9745   53.3544   27.0836 H   0  0  0  0  0  0
   -2.1830   50.9149   28.7458 H   0  0  0  0  0  0
   -1.2354   51.1955   30.9314 H   0  0  0  0  0  0
   -2.7204   50.3448   26.6342 H   0  0  0  0  0  0
   -3.4355   51.9541   26.4381 H   0  0  0  0  0  0
   -0.6394   49.0830   25.4190 H   0  0  0  0  0  0
   -0.5616   46.8532   24.2053 H   0  0  0  0  0  0
   -2.5242   46.6269   22.3958 H   0  0  0  0  0  0
    2.0336   51.4026   19.4986 H   0  0  0  0  0  0
    1.9310   50.5231   20.9995 H   0  0  0  0  0  0
    2.5878   53.7804   21.6570 H   0  0  0  0  0  0
    5.3796   54.4718   20.1042 H   0  0  0  0  0  0
    7.2859   55.7206   21.0630 H   0  0  0  0  0  0
    7.5338   55.8989   23.4944 H   0  0  0  0  0  0
    4.0018   53.5494   24.0717 H   0  0  0  0  0  0
  1  2  1  0  0  0
  1 39  1  0  0  0
  1 40  1  0  0  0
  1 41  1  0  0  0
  2  7  2  0  0  0
  2  3  1  0  0  0
  3  4  2  0  0  0
  3 42  1  0  0  0
  4  5  1  0  0  0
  4 43  1  0  0  0
  5  6  2  0  0  0
  5  8  1  0  0  0
  6  7  1  0  0  0
  6 44  1  0  0  0
  7 45  1  0  0  0
  8 13  1  0  0  0
  8  9  2  0  0  0
  9 10  1  0  0  0
 10 11  1  0  0  0
 10 19  1  0  0  0
 11 12  1  0  0  0
 11 13  1  0  0  0
 11 14  1  0  0  0
 13 46  1  0  0  0
 13 47  1  0  0  0
 14 18  1  0  0  0
 14 15  2  0  0  0
 15 16  1  0  0  0
 15 48  1  0  0  0
 16 17  2  0  0  0
 16 49  1  0  0  0
 17 18  1  0  0  0
 17 50  1  0  0  0
 19 25  1  0  0  0
 19 20  2  0  0  0
 20 21  1  0  0  0
 21 22  2  0  0  0
 21 23  1  0  0  0
 23 24  1  0  0  0
 23 25  1  0  0  0
 23 26  1  0  0  0
 26 27  1  0  0  0
 26 51  1  0  0  0
 26 52  1  0  0  0
 27 28  2  0  0  0
 27 29  1  0  0  0
 29 30  1  0  0  0
 29 53  1  0  0  0
 30 35  2  0  0  0
 30 31  1  0  0  0
 31 32  2  0  0  0
 31 54  1  0  0  0
 32 33  1  0  0  0
 32 55  1  0  0  0
 33 34  2  0  0  0
 33 56  1  0  0  0
 34 35  1  0  0  0
 34 36  1  0  0  0
 35 57  1  0  0  0
 36 37  2  0  0  0
 36 38  1  0  0  0
M  CHG  1  38  -1
M  END
> <i_i_glide_confnum>
85

> <i_i_glide_lignum>
4626

> <i_i_glide_posenum>
38

> <i_i_glide_rotatable_bonds>
8

> <i_m_Source_File_Index>
4996

> <b_m_subgroup_collapsed>
0

> <r_i_docking_score>
-3.38044

> <r_i_glide_ecoul>
-9.40387

> <r_i_glide_eff_state_penalty>
0

> <r_i_glide_einternal>
7.62383

> <r_i_glide_emodel>
-55.4169

> <r_i_glide_energy>
-51.6146

> <r_i_glide_erotb>
0.536489

> <r_i_glide_esite>
-0.0488464

> <r_i_glide_evdw>
-42.2108

> <r_i_glide_gscore>
-3.38044

> <r_i_glide_hbond>
-0.160804

> <r_i_glide_ligand_efficiency>
-0.0939011

> <r_i_glide_ligand_efficiency_ln>
-0.737521

> <r_i_glide_ligand_efficiency_sa>
-0.310055

> <r_i_glide_lipo>
-1.57754

> <r_i_glide_metal>
0

> <r_i_glide_rewards>
1.39138

> <s_i_glide_gridfile>
wee1_glide-grid

> <s_m_Source_File>
wee1_decoys_glide_SP.sdf

> <s_m_Source_Path>
/Users/zhangxujun/Desktop

> <s_m_entry_id>
5271

> <s_m_entry_name>
wee1_decoys_glide_SP.4996

> <s_m_subgroup_title>
wee1_decoys_glide_SP

> <s_m_subgroupid>
wee1_decoys_glide_SP


$$$$
