ZINC13776212_5138
                    3D
 Schrodinger Suite 2024-2.
 59 63  0  0  1  0            999 V2000
    6.3538   55.0614   25.5368 C   0  0  0  0  0  0
    4.9723   54.4929   25.8006 C   0  0  0  0  0  0
    4.4130   54.2307   27.0983 C   0  0  0  0  0  0
    4.8483   54.3609   28.4283 C   0  0  0  0  0  0
    3.9729   54.0055   29.4596 C   0  0  0  0  0  0
    2.6866   53.5303   29.1993 C   0  0  0  0  0  0
    2.2219   53.3931   27.8919 C   0  0  0  0  0  0
    3.1065   53.7478   26.8677 C   0  0  0  0  0  0
    2.8414   53.6859   25.5381 O   0  0  0  0  0  0
    3.9819   54.0736   24.8921 C   0  0  0  0  0  0
    3.9090   54.0975   23.4517 C   0  0  0  0  0  0
    2.8160   54.1195   22.8798 O   0  0  0  0  0  0
    5.1089   54.0923   22.8307 N   0  0  0  0  0  0
    5.2540   54.2192   21.4576 C   0  0  0  0  0  0
    4.6642   53.5119   20.3896 C   0  0  0  0  0  0
    5.0084   54.0939   19.1381 C   0  0  0  0  0  0
    5.8914   55.1815   19.2826 C   0  0  0  0  0  0
    6.3048   55.4870   20.9325 S   0  0  0  0  0  0
    6.5137   55.9736   18.1375 C   0  0  0  0  0  0
    5.7261   55.6843   16.8383 C   0  0  2  0  0  0
    4.7562   56.1836   16.8957 H   0  0  0  0  0  0
    5.5396   54.1625   16.6730 C   0  0  0  0  0  0
    4.5935   53.5889   17.7479 C   0  0  0  0  0  0
    6.4584   56.2956   15.6300 C   0  0  0  0  0  0
    3.8934   52.2971   20.5626 C   0  0  0  0  0  0
    4.2218   51.4458   21.3900 O   0  0  0  0  0  0
    2.7868   52.2065   19.8051 N   0  0  0  0  0  0
    1.8238   51.1128   19.8967 C   0  0  1  0  0  0
    1.5895   50.8706   20.9377 H   0  0  0  0  0  0
    0.5001   51.5294   19.2198 C   0  0  0  0  0  0
   -0.4075   50.2942   19.1179 C   0  0  0  0  0  0
    0.7640   48.8866   18.7186 S   0  0  0  0  0  0
    0.7475   48.6177   17.2779 O   0  0  0  0  0  0
    0.5396   47.8037   19.6819 O   0  0  0  0  0  0
    2.3054   49.8436   19.1733 C   0  0  0  0  0  0
    6.6740   55.7226   26.3418 H   0  0  0  0  0  0
    7.1007   54.2706   25.4598 H   0  0  0  0  0  0
    6.4037   55.6514   24.6215 H   0  0  0  0  0  0
    5.8405   54.7273   28.6507 H   0  0  0  0  0  0
    4.3043   54.0960   30.4814 H   0  0  0  0  0  0
    2.0391   53.2607   30.0228 H   0  0  0  0  0  0
    1.2297   53.0246   27.6759 H   0  0  0  0  0  0
    5.9171   54.2862   23.4027 H   0  0  0  0  0  0
    6.5078   57.0429   18.3523 H   0  0  0  0  0  0
    7.5547   55.6702   18.0167 H   0  0  0  0  0  0
    5.1124   53.9517   15.6916 H   0  0  0  0  0  0
    6.5055   53.6536   16.6594 H   0  0  0  0  0  0
    4.6067   52.4981   17.6969 H   0  0  0  0  0  0
    3.5664   53.8896   17.5372 H   0  0  0  0  0  0
    7.4493   55.8592   15.4973 H   0  0  0  0  0  0
    5.8999   56.1332   14.7078 H   0  0  0  0  0  0
    6.5827   57.3733   15.7467 H   0  0  0  0  0  0
    2.5247   53.0074   19.2487 H   0  0  0  0  0  0
    0.7010   51.9336   18.2249 H   0  0  0  0  0  0
    0.0191   52.3400   19.7698 H   0  0  0  0  0  0
   -1.2332   50.3208   18.4075 H   0  0  0  0  0  0
   -0.8174   50.0903   20.1072 H   0  0  0  0  0  0
    3.1036   49.2426   19.6033 H   0  0  0  0  0  0
    2.6921   50.1643   18.2033 H   0  0  0  0  0  0
  1  2  1  0  0  0
  1 36  1  0  0  0
  1 37  1  0  0  0
  1 38  1  0  0  0
  2 10  2  0  0  0
  2  3  1  0  0  0
  3  8  2  0  0  0
  3  4  1  0  0  0
  4  5  2  0  0  0
  4 39  1  0  0  0
  5  6  1  0  0  0
  5 40  1  0  0  0
  6  7  2  0  0  0
  6 41  1  0  0  0
  7  8  1  0  0  0
  7 42  1  0  0  0
  8  9  1  0  0  0
  9 10  1  0  0  0
 10 11  1  0  0  0
 11 12  2  0  0  0
 11 13  1  0  0  0
 13 14  1  0  0  0
 13 43  1  0  0  0
 14 18  1  0  0  0
 14 15  2  0  0  0
 15 16  1  0  0  0
 15 25  1  0  0  0
 16 23  1  0  0  0
 16 17  2  0  0  0
 17 18  1  0  0  0
 17 19  1  0  0  0
 19 20  1  0  0  0
 19 44  1  0  0  0
 19 45  1  0  0  0
 20 21  1  0  0  0
 20 22  1  0  0  0
 20 24  1  0  0  0
 22 23  1  0  0  0
 22 46  1  0  0  0
 22 47  1  0  0  0
 23 48  1  0  0  0
 23 49  1  0  0  0
 24 50  1  0  0  0
 24 51  1  0  0  0
 24 52  1  0  0  0
 25 26  2  0  0  0
 25 27  1  0  0  0
 27 28  1  0  0  0
 27 53  1  0  0  0
 28 29  1  0  0  0
 28 35  1  0  0  0
 28 30  1  0  0  0
 30 31  1  0  0  0
 30 54  1  0  0  0
 30 55  1  0  0  0
 31 32  1  0  0  0
 31 56  1  0  0  0
 31 57  1  0  0  0
 32 33  2  0  0  0
 32 34  2  0  0  0
 32 35  1  0  0  0
 35 58  1  0  0  0
 35 59  1  0  0  0
M  END
> <i_i_glide_confnum>
96

> <i_i_glide_lignum>
5139

> <i_i_glide_posenum>
324

> <i_i_glide_rotatable_bonds>
6

> <i_m_Source_File_Index>
2868

> <b_m_subgroup_collapsed>
0

> <r_i_docking_score>
-5.11914

> <r_i_glide_ecoul>
-1.87109

> <r_i_glide_eff_state_penalty>
0

> <r_i_glide_einternal>
11.0695

> <r_i_glide_emodel>
-61.0879

> <r_i_glide_energy>
-49.9089

> <r_i_glide_erotb>
0.514984

> <r_i_glide_esite>
-0.130889

> <r_i_glide_evdw>
-48.0378

> <r_i_glide_gscore>
-5.11914

> <r_i_glide_hbond>
0

> <r_i_glide_ligand_efficiency>
-0.155125

> <r_i_glide_ligand_efficiency_ln>
-1.13847

> <r_i_glide_ligand_efficiency_sa>
-0.49757

> <r_i_glide_lipo>
-2.36624

> <r_i_glide_metal>
0

> <r_i_glide_rewards>
-0.454433

> <s_i_glide_gridfile>
wee1_glide-grid

> <s_m_Source_File>
wee1_decoys_glide_SP.sdf

> <s_m_Source_Path>
/Users/zhangxujun/Desktop

> <s_m_entry_id>
3143

> <s_m_entry_name>
wee1_decoys_glide_SP.2868

> <s_m_subgroup_title>
wee1_decoys_glide_SP

> <s_m_subgroupid>
wee1_decoys_glide_SP


$$$$
