ZINC61603837_1342
                    3D
 Schrodinger Suite 2024-2.
 48 50  0  0  1  0            999 V2000
    8.3000   51.6965   15.8156 C   0  0  0  0  0  0
    9.4318   51.2095   15.1653 C   0  0  0  0  0  0
   10.6888   51.7064   15.5021 C   0  0  0  0  0  0
   10.8231   52.6872   16.4804 C   0  0  0  0  0  0
    9.6922   53.1763   17.1300 C   0  0  0  0  0  0
    8.4211   52.6788   16.7985 C   0  0  0  0  0  0
    7.2332   53.0818   17.4374 N   0  0  0  0  0  0
    6.9990   54.2522   18.0606 C   0  0  0  0  0  0
    7.7831   55.1989   18.1005 O   0  0  0  0  0  0
    5.7872   54.2780   18.6388 N   0  0  0  0  0  0
    5.2585   55.4124   19.4114 C   0  0  0  0  0  0
    6.1011   55.6973   20.6785 C   0  0  0  0  0  0
    6.6956   56.7778   20.7354 O   0  0  0  0  0  0
    6.1734   54.7783   21.6823 N   0  0  0  0  0  0
    7.1042   55.0108   22.7982 C   0  0  0  0  0  0
    6.7643   54.3691   24.1589 C   0  0  0  0  0  0
    5.3823   54.6782   24.7393 C   0  0  0  0  0  0
    4.2321   53.8512   24.1226 N   0  3  2  0  0  0
    4.0133   53.9202   22.5925 C   0  0  0  0  0  0
    5.2798   53.6148   21.7790 C   0  0  0  0  0  0
    2.9256   54.2159   24.8397 C   0  0  0  0  0  0
    1.8290   53.1825   24.9632 C   0  0  0  0  0  0
    2.6210   53.5925   26.1829 C   0  0  0  0  0  0
   12.2382   51.0270   14.6293 Br  0  0  0  0  0  0
    7.3291   51.2967   15.5556 H   0  0  0  0  0  0
    9.3384   50.4443   14.4075 H   0  0  0  0  0  0
   11.8011   53.0609   16.7444 H   0  0  0  0  0  0
    9.8284   53.9149   17.9061 H   0  0  0  0  0  0
    6.4780   52.4123   17.3890 H   0  0  0  0  0  0
    5.1718   53.4900   18.4998 H   0  0  0  0  0  0
    4.2170   55.2410   19.6794 H   0  0  0  0  0  0
    5.2572   56.2974   18.7696 H   0  0  0  0  0  0
    8.0413   54.5517   22.4815 H   0  0  0  0  0  0
    7.2737   56.0782   22.9533 H   0  0  0  0  0  0
    7.5078   54.7036   24.8797 H   0  0  0  0  0  0
    6.9141   53.2967   24.1028 H   0  0  0  0  0  0
    5.1146   55.7249   24.6530 H   0  0  0  0  0  0
    5.3601   54.4028   25.7963 H   0  0  0  0  0  0
    3.2437   53.1727   22.3922 H   0  0  0  0  0  0
    3.5871   54.8985   22.3600 H   0  0  0  0  0  0
    5.8071   52.7311   22.1407 H   0  0  0  0  0  0
    4.9584   53.3058   20.7854 H   0  0  0  0  0  0
    2.7042   55.2681   24.6517 H   0  0  0  0  0  0
    1.9835   52.1894   24.5381 H   0  0  0  0  0  0
    0.7924   53.5103   24.8677 H   0  0  0  0  0  0
    2.1436   54.2064   26.9482 H   0  0  0  0  0  0
    3.3423   52.8966   26.6134 H   0  0  0  0  0  0
    4.4314   52.8873   24.3483 H   0  0  0  0  0  0
  1  6  2  0  0  0
  1  2  1  0  0  0
  1 25  1  0  0  0
  2  3  2  0  0  0
  2 26  1  0  0  0
  3  4  1  0  0  0
  3 24  1  0  0  0
  4  5  2  0  0  0
  4 27  1  0  0  0
  5  6  1  0  0  0
  5 28  1  0  0  0
  6  7  1  0  0  0
  7  8  1  0  0  0
  7 29  1  0  0  0
  8  9  2  0  0  0
  8 10  1  0  0  0
 10 11  1  0  0  0
 10 30  1  0  0  0
 11 12  1  0  0  0
 11 31  1  0  0  0
 11 32  1  0  0  0
 12 13  2  0  0  0
 12 14  1  0  0  0
 14 20  1  0  0  0
 14 15  1  0  0  0
 15 16  1  0  0  0
 15 33  1  0  0  0
 15 34  1  0  0  0
 16 17  1  0  0  0
 16 35  1  0  0  0
 16 36  1  0  0  0
 17 18  1  0  0  0
 17 37  1  0  0  0
 17 38  1  0  0  0
 18 19  1  0  0  0
 18 21  1  0  0  0
 18 48  1  0  0  0
 19 20  1  0  0  0
 19 39  1  0  0  0
 19 40  1  0  0  0
 20 41  1  0  0  0
 20 42  1  0  0  0
 21 23  1  0  0  0
 21 22  1  0  0  0
 21 43  1  0  0  0
 22 23  1  0  0  0
 22 44  1  0  0  0
 22 45  1  0  0  0
 23 46  1  0  0  0
 23 47  1  0  0  0
M  CHG  1  18   1
M  END
> <i_i_glide_confnum>
86

> <i_i_glide_lignum>
1343

> <i_i_glide_posenum>
364

> <i_i_glide_rotatable_bonds>
7

> <i_m_Source_File_Index>
4686

> <b_m_subgroup_collapsed>
0

> <r_i_docking_score>
-4.70292

> <r_i_glide_ecoul>
-4.14716

> <r_i_glide_eff_state_penalty>
0

> <r_i_glide_einternal>
8.51334

> <r_i_glide_emodel>
-40.0893

> <r_i_glide_energy>
-31.1539

> <r_i_glide_erotb>
0.747386

> <r_i_glide_esite>
-0.0398571

> <r_i_glide_evdw>
-27.0067

> <r_i_glide_gscore>
-4.70292

> <r_i_glide_hbond>
-0.335073

> <r_i_glide_ligand_efficiency>
-0.195955

> <r_i_glide_ligand_efficiency_ln>
-1.12563

> <r_i_glide_ligand_efficiency_sa>
-0.565233

> <r_i_glide_lipo>
-1.88258

> <r_i_glide_metal>
0

> <r_i_glide_rewards>
-1.22039

> <s_i_glide_gridfile>
wee1_glide-grid

> <s_m_Source_File>
wee1_decoys_glide_SP.sdf

> <s_m_Source_Path>
/Users/zhangxujun/Desktop

> <s_m_entry_id>
4961

> <s_m_entry_name>
wee1_decoys_glide_SP.4686

> <s_m_subgroup_title>
wee1_decoys_glide_SP

> <s_m_subgroupid>
wee1_decoys_glide_SP


$$$$
