ZINC40325749_6153
                    3D
 Schrodinger Suite 2024-2.
 45 47  0  0  1  0            999 V2000
    5.1882   54.7980   27.5939 C   0  0  0  0  0  0
    4.0129   54.6064   26.6073 C   0  0  1  0  0  0
    3.5047   55.5598   26.4781 H   0  0  0  0  0  0
    4.5366   54.1953   25.2408 C   0  0  0  0  0  0
    3.4464   54.0472   24.1722 C   0  0  0  0  0  0
    2.3874   53.0909   24.6058 N   0  0  0  0  0  0
    1.8324   53.3033   26.0012 C   0  0  2  0  0  0
    1.3075   54.2485   25.8932 H   0  0  0  0  0  0
    2.9516   53.5857   27.0719 C   0  0  2  0  0  0
    3.4645   52.6261   27.1715 H   0  0  0  0  0  0
    2.3821   53.8965   28.4821 C   0  0  0  0  0  0
    1.3724   52.8510   28.9717 C   0  0  0  0  0  0
    0.2161   52.7217   27.9778 C   0  0  0  0  0  0
    0.7068   52.3694   26.5605 C   0  0  0  0  0  0
    1.9016   52.1216   23.7425 C   0  0  0  0  0  0
    1.0213   51.3221   24.0566 O   0  0  0  0  0  0
    2.4667   51.9447   22.4004 C   0  0  0  0  0  0
    2.8539   52.9000   21.4583 C   0  0  0  0  0  0
    3.3027   52.2961   20.2878 C   0  0  0  0  0  0
    3.0843   50.9530   20.4799 C   0  0  0  0  0  0
    2.5604   50.7267   21.7307 N   0  0  0  0  0  0
    2.2449   49.3981   22.2421 C   0  0  0  0  0  0
    3.8242   52.8928   19.1832 N   0  0  0  0  0  0
    5.6560   53.8442   27.8449 H   0  0  0  0  0  0
    5.9647   55.4360   27.1704 H   0  0  0  0  0  0
    4.8709   55.2709   28.5252 H   0  0  0  0  0  0
    5.1261   53.2896   25.3243 H   0  0  0  0  0  0
    5.2628   54.9328   24.8954 H   0  0  0  0  0  0
    4.0409   53.6855   23.3381 H   0  0  0  0  0  0
    2.9956   55.0165   23.9568 H   0  0  0  0  0  0
    1.9209   54.8857   28.4755 H   0  0  0  0  0  0
    3.1872   53.9634   29.2142 H   0  0  0  0  0  0
    1.8655   51.8858   29.0963 H   0  0  0  0  0  0
    0.9901   53.1306   29.9535 H   0  0  0  0  0  0
   -0.4853   51.9606   28.3260 H   0  0  0  0  0  0
   -0.3445   53.6571   27.9542 H   0  0  0  0  0  0
    1.0780   51.3438   26.5960 H   0  0  0  0  0  0
   -0.1660   52.3886   25.9076 H   0  0  0  0  0  0
    2.8424   53.9674   21.6143 H   0  0  0  0  0  0
    3.2636   50.1288   19.8061 H   0  0  0  0  0  0
    2.7041   48.6300   21.6188 H   0  0  0  0  0  0
    2.6196   49.2968   23.2604 H   0  0  0  0  0  0
    1.1640   49.2619   22.2299 H   0  0  0  0  0  0
    4.3015   52.3348   18.4823 H   0  0  0  0  0  0
    3.6287   53.8589   18.9555 H   0  0  0  0  0  0
  1  2  1  0  0  0
  1 24  1  0  0  0
  1 25  1  0  0  0
  1 26  1  0  0  0
  2  3  1  0  0  0
  2  9  1  0  0  0
  2  4  1  0  0  0
  4  5  1  0  0  0
  4 27  1  0  0  0
  4 28  1  0  0  0
  5  6  1  0  0  0
  5 29  1  0  0  0
  5 30  1  0  0  0
  6  7  1  0  0  0
  6 15  1  0  0  0
  7  8  1  0  0  0
  7 14  1  0  0  0
  7  9  1  0  0  0
  9 10  1  0  0  0
  9 11  1  0  0  0
 11 12  1  0  0  0
 11 31  1  0  0  0
 11 32  1  0  0  0
 12 13  1  0  0  0
 12 33  1  0  0  0
 12 34  1  0  0  0
 13 14  1  0  0  0
 13 35  1  0  0  0
 13 36  1  0  0  0
 14 37  1  0  0  0
 14 38  1  0  0  0
 15 16  2  0  0  0
 15 17  1  0  0  0
 17 21  1  0  0  0
 17 18  2  0  0  0
 18 19  1  0  0  0
 18 39  1  0  0  0
 19 20  2  0  0  0
 19 23  1  0  0  0
 20 21  1  0  0  0
 20 40  1  0  0  0
 21 22  1  0  0  0
 22 41  1  0  0  0
 22 42  1  0  0  0
 22 43  1  0  0  0
 23 44  1  0  0  0
 23 45  1  0  0  0
M  END
> <i_i_glide_confnum>
1

> <i_i_glide_lignum>
6154

> <i_i_glide_posenum>
322

> <i_i_glide_rotatable_bonds>
2

> <i_m_Source_File_Index>
4624

> <b_m_subgroup_collapsed>
0

> <r_i_docking_score>
-5.26842

> <r_i_glide_ecoul>
-1.45221

> <r_i_glide_eff_state_penalty>
0

> <r_i_glide_einternal>
0.719006

> <r_i_glide_emodel>
-34.3792

> <r_i_glide_energy>
-25.0181

> <r_i_glide_erotb>
0.473988

> <r_i_glide_esite>
-0.0416009

> <r_i_glide_evdw>
-23.5659

> <r_i_glide_gscore>
-5.26842

> <r_i_glide_hbond>
-0.0544873

> <r_i_glide_ligand_efficiency>
-0.263421

> <r_i_glide_ligand_efficiency_ln>
-1.31851

> <r_i_glide_ligand_efficiency_sa>
-0.715034

> <r_i_glide_lipo>
-2.05181

> <r_i_glide_metal>
0

> <r_i_glide_rewards>
-2.19838

> <s_i_glide_gridfile>
wee1_glide-grid

> <s_m_Source_File>
wee1_decoys_glide_SP.sdf

> <s_m_Source_Path>
/Users/zhangxujun/Desktop

> <s_m_entry_id>
4899

> <s_m_entry_name>
wee1_decoys_glide_SP.4624

> <s_m_subgroup_title>
wee1_decoys_glide_SP

> <s_m_subgroupid>
wee1_decoys_glide_SP


$$$$
