ZINC11730600_963
                    3D
 Schrodinger Suite 2024-2.
 43 46  0  0  1  0            999 V2000
    3.0613   54.0580   24.2414 C   0  0  0  0  0  0
    3.7873   54.0969   25.4297 C   0  0  0  0  0  0
    5.1693   54.3381   25.4186 C   0  0  0  0  0  0
    5.8135   54.5003   24.1805 C   0  0  0  0  0  0
    5.0901   54.4744   22.9789 C   0  0  0  0  0  0
    3.7054   54.2564   23.0233 C   0  0  0  0  0  0
    5.7373   54.7384   21.7424 N   0  0  0  0  0  0
    5.5005   54.2093   20.4816 C   0  0  0  0  0  0
    6.3825   54.9286   19.6637 C   0  0  0  0  0  0
    7.0890   55.7877   20.3712 N   0  0  0  0  0  0
    6.7038   55.6712   21.6853 N   0  0  0  0  0  0
    6.6547   54.8054   17.8727 S   0  0  0  0  0  0
    7.9622   55.4101   17.5920 O   0  0  0  0  0  0
    6.3525   53.4262   17.4772 O   0  0  0  0  0  0
    5.4162   55.8834   17.1595 C   0  0  0  0  0  0
    4.4078   55.3558   16.3492 C   0  0  0  0  0  0
    3.4379   56.2015   15.8180 C   0  0  0  0  0  0
    3.4882   57.5675   16.0854 C   0  0  0  0  0  0
    4.5029   58.0977   16.8788 C   0  0  0  0  0  0
    5.4712   57.2550   17.4189 C   0  0  0  0  0  0
    2.5445   58.3833   15.5653 F   0  0  0  0  0  0
    4.5115   53.1292   20.1799 C   0  0  0  0  0  0
    4.4896   51.9610   20.9482 C   0  0  0  0  0  0
    3.5259   50.9851   20.7106 C   0  0  0  0  0  0
    2.6045   51.1592   19.6826 C   0  0  0  0  0  0
    2.6295   52.3108   18.8999 C   0  0  0  0  0  0
    3.5789   53.2970   19.1549 C   0  0  0  0  0  0
    1.3026   49.8115   19.3516 Br  0  0  0  0  0  0
    5.9374   54.4486   26.6998 C   0  0  0  0  0  0
    5.3657   54.1130   27.7627 O   0  0  0  0  0  0
    1.9946   53.8912   24.2664 H   0  0  0  0  0  0
    3.2643   53.9567   26.3658 H   0  0  0  0  0  0
    6.8806   54.6840   24.1549 H   0  0  0  0  0  0
    3.1092   54.2653   22.1215 H   0  0  0  0  0  0
    4.3686   54.2960   16.1385 H   0  0  0  0  0  0
    2.6496   55.8033   15.1972 H   0  0  0  0  0  0
    4.5367   59.1627   17.0669 H   0  0  0  0  0  0
    6.2586   57.6664   18.0348 H   0  0  0  0  0  0
    5.2052   51.8173   21.7445 H   0  0  0  0  0  0
    3.5033   50.0900   21.3122 H   0  0  0  0  0  0
    1.9105   52.4430   18.1057 H   0  0  0  0  0  0
    3.5674   54.2049   18.5754 H   0  0  0  0  0  0
    7.1044   54.8967   26.6303 O   0  5  0  0  0  0
  1  6  2  0  0  0
  1  2  1  0  0  0
  1 31  1  0  0  0
  2  3  2  0  0  0
  2 32  1  0  0  0
  3  4  1  0  0  0
  3 29  1  0  0  0
  4  5  2  0  0  0
  4 33  1  0  0  0
  5  6  1  0  0  0
  5  7  1  0  0  0
  6 34  1  0  0  0
  7 11  1  0  0  0
  7  8  1  0  0  0
  8  9  2  0  0  0
  8 22  1  0  0  0
  9 10  1  0  0  0
  9 12  1  0  0  0
 10 11  2  0  0  0
 12 13  2  0  0  0
 12 14  2  0  0  0
 12 15  1  0  0  0
 15 20  2  0  0  0
 15 16  1  0  0  0
 16 17  2  0  0  0
 16 35  1  0  0  0
 17 18  1  0  0  0
 17 36  1  0  0  0
 18 19  2  0  0  0
 18 21  1  0  0  0
 19 20  1  0  0  0
 19 37  1  0  0  0
 20 38  1  0  0  0
 22 27  2  0  0  0
 22 23  1  0  0  0
 23 24  2  0  0  0
 23 39  1  0  0  0
 24 25  1  0  0  0
 24 40  1  0  0  0
 25 26  2  0  0  0
 25 28  1  0  0  0
 26 27  1  0  0  0
 26 41  1  0  0  0
 27 42  1  0  0  0
 29 30  2  0  0  0
 29 43  1  0  0  0
M  CHG  1  43  -1
M  END
> <i_i_glide_confnum>
39

> <i_i_glide_lignum>
964

> <i_i_glide_posenum>
181

> <i_i_glide_rotatable_bonds>
5

> <i_m_Source_File_Index>
3991

> <b_m_subgroup_collapsed>
0

> <r_i_docking_score>
-4.44298

> <r_i_glide_ecoul>
-1.72493

> <r_i_glide_eff_state_penalty>
0

> <r_i_glide_einternal>
0.734546

> <r_i_glide_emodel>
-52.3269

> <r_i_glide_energy>
-39.9359

> <r_i_glide_erotb>
0.325108

> <r_i_glide_esite>
-0.0783886

> <r_i_glide_evdw>
-38.211

> <r_i_glide_gscore>
-4.44298

> <r_i_glide_hbond>
-0.154587

> <r_i_glide_ligand_efficiency>
-0.143322

> <r_i_glide_ligand_efficiency_ln>
-1.00203

> <r_i_glide_ligand_efficiency_sa>
-0.450228

> <r_i_glide_lipo>
-1.59238

> <r_i_glide_metal>
0

> <r_i_glide_rewards>
-0.773439

> <s_i_glide_gridfile>
wee1_glide-grid

> <s_m_Source_File>
wee1_decoys_glide_SP.sdf

> <s_m_Source_Path>
/Users/zhangxujun/Desktop

> <s_m_entry_id>
4266

> <s_m_entry_name>
wee1_decoys_glide_SP.3991

> <s_m_subgroup_title>
wee1_decoys_glide_SP

> <s_m_subgroupid>
wee1_decoys_glide_SP


$$$$
