ZINC12229327_6186
                    3D
 Schrodinger Suite 2024-2.
 49 51  0  0  1  0            999 V2000
    9.2858   55.5263   16.5271 C   0  0  0  0  0  0
    8.3146   55.2259   17.6431 C   0  0  0  0  0  0
    8.3062   55.7034   18.9536 C   0  0  0  0  0  0
    7.2238   55.1180   19.6039 C   0  0  0  0  0  0
    6.6509   54.3338   18.6111 N   0  0  0  0  0  0
    7.3111   54.4064   17.4445 N   0  0  0  0  0  0
    5.4875   53.4525   18.6583 C   0  0  0  0  0  0
    6.8499   55.2985   20.9943 C   0  0  0  0  0  0
    7.4822   56.0967   21.6814 O   0  0  0  0  0  0
    5.8241   54.5435   21.4459 N   0  0  0  0  0  0
    5.3453   54.4355   22.7550 C   0  0  0  0  0  0
    4.0835   53.9278   23.1339 C   0  0  0  0  0  0
    3.8873   54.0088   24.5467 C   0  0  0  0  0  0
    5.0235   54.4767   25.2245 C   0  0  0  0  0  0
    6.3038   54.8960   24.1459 S   0  0  0  0  0  0
    5.2050   54.5034   26.7377 C   0  0  0  0  0  0
    2.9410   53.3743   26.8355 C   0  0  0  0  0  0
    2.6527   53.5474   25.3315 C   0  0  0  0  0  0
    3.8318   54.6324   28.9058 C   0  0  0  0  0  0
    2.5345   55.3033   29.3946 C   0  0  0  0  0  0
    4.0990   53.2580   29.5615 C   0  0  0  0  0  0
    3.1648   53.3248   22.1710 C   0  0  0  0  0  0
    3.5517   52.8713   21.0989 O   0  0  0  0  0  0
    1.8706   53.3014   22.4836 N   0  0  0  0  0  0
   10.0719   56.2098   16.8471 H   0  0  0  0  0  0
    9.7777   54.6210   16.1686 H   0  0  0  0  0  0
    8.7892   55.9863   15.6722 H   0  0  0  0  0  0
    9.0271   56.3817   19.3849 H   0  0  0  0  0  0
    4.6046   54.0300   18.9316 H   0  0  0  0  0  0
    5.3041   52.9861   17.6876 H   0  0  0  0  0  0
    5.6599   52.6530   19.3802 H   0  0  0  0  0  0
    5.2641   54.0653   20.7506 H   0  0  0  0  0  0
    5.7362   55.3907   27.0839 H   0  0  0  0  0  0
    5.7100   53.6081   27.1071 H   0  0  0  0  0  0
    3.5415   52.4955   27.0496 H   0  0  0  0  0  0
    2.0085   53.3338   27.3991 H   0  0  0  0  0  0
    2.2648   52.6010   24.9538 H   0  0  0  0  0  0
    1.8601   54.2821   25.1983 H   0  0  0  0  0  0
    4.6705   55.2967   29.1272 H   0  0  0  0  0  0
    2.5366   55.4479   30.4733 H   0  0  0  0  0  0
    1.6488   54.7109   29.1597 H   0  0  0  0  0  0
    2.4010   56.2894   28.9438 H   0  0  0  0  0  0
    4.2542   53.3645   30.6357 H   0  0  0  0  0  0
    3.2628   52.5691   29.4322 H   0  0  0  0  0  0
    4.9941   52.7777   29.1607 H   0  0  0  0  0  0
    1.5262   53.7378   23.3214 H   0  0  0  0  0  0
    1.2244   52.9308   21.8016 H   0  0  0  0  0  0
    3.7828   54.5610   27.3516 N   0  3  1  0  0  0
    3.3335   55.4167   27.0527 H   0  0  0  0  0  0
  1  2  1  0  0  0
  1 25  1  0  0  0
  1 26  1  0  0  0
  1 27  1  0  0  0
  2  6  2  0  0  0
  2  3  1  0  0  0
  3  4  2  0  0  0
  3 28  1  0  0  0
  4  5  1  0  0  0
  4  8  1  0  0  0
  5  6  1  0  0  0
  5  7  1  0  0  0
  7 29  1  0  0  0
  7 30  1  0  0  0
  7 31  1  0  0  0
  8  9  2  0  0  0
  8 10  1  0  0  0
 10 11  1  0  0  0
 10 32  1  0  0  0
 11 15  1  0  0  0
 11 12  2  0  0  0
 12 13  1  0  0  0
 12 22  1  0  0  0
 13 18  1  0  0  0
 13 14  2  0  0  0
 14 15  1  0  0  0
 14 16  1  0  0  0
 16 33  1  0  0  0
 16 34  1  0  0  0
 16 48  1  0  0  0
 17 18  1  0  0  0
 17 35  1  0  0  0
 17 36  1  0  0  0
 17 48  1  0  0  0
 18 37  1  0  0  0
 18 38  1  0  0  0
 19 20  1  0  0  0
 19 21  1  0  0  0
 19 39  1  0  0  0
 19 48  1  0  0  0
 20 40  1  0  0  0
 20 41  1  0  0  0
 20 42  1  0  0  0
 21 43  1  0  0  0
 21 44  1  0  0  0
 21 45  1  0  0  0
 22 23  2  0  0  0
 22 24  1  0  0  0
 24 46  1  0  0  0
 24 47  1  0  0  0
 48 49  1  0  0  0
M  CHG  1  48   1
M  END
> <i_i_glide_confnum>
5

> <i_i_glide_lignum>
6187

> <i_i_glide_posenum>
389

> <i_i_glide_rotatable_bonds>
5

> <i_m_Source_File_Index>
4378

> <b_m_subgroup_collapsed>
0

> <r_i_docking_score>
-5.49225

> <r_i_glide_ecoul>
0.894556

> <r_i_glide_eff_state_penalty>
0

> <r_i_glide_einternal>
1.83265

> <r_i_glide_emodel>
-50.0826

> <r_i_glide_energy>
-35.5723

> <r_i_glide_erotb>
0.43846

> <r_i_glide_esite>
-0.002458

> <r_i_glide_evdw>
-36.4669

> <r_i_glide_gscore>
-5.49225

> <r_i_glide_hbond>
-0.059231

> <r_i_glide_ligand_efficiency>
-0.21969

> <r_i_glide_ligand_efficiency_ln>
-1.30183

> <r_i_glide_ligand_efficiency_sa>
-0.642378

> <r_i_glide_lipo>
-2.80692

> <r_i_glide_metal>
0

> <r_i_glide_rewards>
-1.37294

> <s_i_glide_gridfile>
wee1_glide-grid

> <s_m_Source_File>
wee1_decoys_glide_SP.sdf

> <s_m_Source_Path>
/Users/zhangxujun/Desktop

> <s_m_entry_id>
4653

> <s_m_entry_name>
wee1_decoys_glide_SP.4378

> <s_m_subgroup_title>
wee1_decoys_glide_SP

> <s_m_subgroupid>
wee1_decoys_glide_SP


$$$$
