ZINC00735867_4129
                    3D
 Schrodinger Suite 2024-2.
 73 77  0  0  1  0            999 V2000
    2.7153   53.8627   29.0904 C   0  0  0  0  0  0
    1.4777   54.4560   28.8529 C   0  0  0  0  0  0
    0.3940   53.6627   28.4818 C   0  0  0  0  0  0
    0.5412   52.2800   28.3412 C   0  0  0  0  0  0
    1.7849   51.6964   28.5932 C   0  0  0  0  0  0
    2.8722   52.4842   28.9641 C   0  0  0  0  0  0
   -0.6537   51.4206   27.9093 C   0  0  0  0  0  0
   -0.7197   51.0981   26.3918 C   0  0  0  0  0  0
   -0.7883   52.3270   25.4623 C   0  0  0  0  0  0
   -0.2606   52.1236   24.0301 C   0  0  0  0  0  0
    1.0214   51.3994   24.0411 N   0  0  0  0  0  0
    0.6562   50.0249   24.4218 C   0  0  0  0  0  0
    0.1842   49.9413   25.8982 C   0  0  0  0  0  0
    1.8917   51.6991   22.9882 C   0  0  0  0  0  0
    1.9570   50.8300   21.8869 C   0  0  0  0  0  0
    2.7643   51.1096   20.7862 C   0  0  0  0  0  0
    3.4954   52.2933   20.7341 C   0  0  0  0  0  0
    3.4087   53.1857   21.8060 C   0  0  0  0  0  0
    2.7046   52.8684   22.9749 C   0  0  0  0  0  0
    2.8535   53.7858   24.1818 C   0  0  0  0  0  0
    1.8625   54.0966   24.8353 O   0  0  0  0  0  0
    4.0953   54.2110   24.5565 N   0  0  0  0  0  0
    5.3822   53.9218   23.8979 C   0  0  0  0  0  0
    6.4066   54.1855   24.9994 C   0  0  0  0  0  0
    5.7704   55.2964   25.8063 C   0  0  0  0  0  0
    4.2961   54.8996   25.8397 C   0  0  0  0  0  0
    4.2977   52.4969   19.5969 N   0  0  0  0  0  0
    5.2003   53.4674   19.3482 C   0  0  0  0  0  0
    5.5048   54.3881   20.1079 O   0  0  0  0  0  0
    5.7543   53.2967   18.1393 N   0  0  0  0  0  0
    6.6980   54.2125   17.4925 C   0  0  0  0  0  0
    6.1963   55.6434   17.3030 C   0  0  0  0  0  0
    5.2452   55.9224   16.3160 C   0  0  0  0  0  0
    4.8189   57.2327   16.1095 C   0  0  0  0  0  0
    5.3522   58.2618   16.8826 C   0  0  0  0  0  0
    6.3055   57.9924   17.8633 C   0  0  0  0  0  0
    6.7314   56.6823   18.0727 C   0  0  0  0  0  0
    3.5616   54.4751   29.3656 H   0  0  0  0  0  0
    1.3589   55.5257   28.9455 H   0  0  0  0  0  0
   -0.5562   54.1268   28.2782 H   0  0  0  0  0  0
    1.9143   50.6296   28.4917 H   0  0  0  0  0  0
    3.8347   52.0275   29.1406 H   0  0  0  0  0  0
   -0.6397   50.4968   28.4824 H   0  0  0  0  0  0
   -1.5742   51.9178   28.2182 H   0  0  0  0  0  0
   -1.7079   50.6557   26.2511 H   0  0  0  0  0  0
   -1.7579   52.8241   25.5001 H   0  0  0  0  0  0
   -0.0847   53.0482   25.8579 H   0  0  0  0  0  0
   -0.9937   51.6075   23.4064 H   0  0  0  0  0  0
   -0.1306   53.1096   23.5801 H   0  0  0  0  0  0
   -0.0822   49.5948   23.7423 H   0  0  0  0  0  0
    1.5483   49.4042   24.3254 H   0  0  0  0  0  0
    1.1045   49.9904   26.4630 H   0  0  0  0  0  0
   -0.2282   48.9632   26.1539 H   0  0  0  0  0  0
    1.3708   49.9233   21.8706 H   0  0  0  0  0  0
    2.8039   50.4079   19.9643 H   0  0  0  0  0  0
    3.9238   54.1300   21.7644 H   0  0  0  0  0  0
    5.4774   52.8966   23.5472 H   0  0  0  0  0  0
    5.5626   54.6445   23.0997 H   0  0  0  0  0  0
    6.5279   53.2968   25.6222 H   0  0  0  0  0  0
    7.3905   54.4405   24.6010 H   0  0  0  0  0  0
    5.8882   56.2465   25.2813 H   0  0  0  0  0  0
    6.1963   55.4122   26.8039 H   0  0  0  0  0  0
    3.6313   55.7515   25.9604 H   0  0  0  0  0  0
    4.1255   54.1862   26.6489 H   0  0  0  0  0  0
    4.2629   51.7532   18.9083 H   0  0  0  0  0  0
    5.6630   52.3756   17.7254 H   0  0  0  0  0  0
    7.6478   54.1993   18.0296 H   0  0  0  0  0  0
    6.9236   53.8017   16.5073 H   0  0  0  0  0  0
    4.8380   55.1243   15.7111 H   0  0  0  0  0  0
    4.0820   57.4525   15.3506 H   0  0  0  0  0  0
    5.0273   59.2827   16.7232 H   0  0  0  0  0  0
    6.7088   58.8033   18.4520 H   0  0  0  0  0  0
    7.4726   56.4733   18.8322 H   0  0  0  0  0  0
  1  6  2  0  0  0
  1  2  1  0  0  0
  1 38  1  0  0  0
  2  3  2  0  0  0
  2 39  1  0  0  0
  3  4  1  0  0  0
  3 40  1  0  0  0
  4  5  2  0  0  0
  4  7  1  0  0  0
  5  6  1  0  0  0
  5 41  1  0  0  0
  6 42  1  0  0  0
  7  8  1  0  0  0
  7 43  1  0  0  0
  7 44  1  0  0  0
  8 13  1  0  0  0
  8  9  1  0  0  0
  8 45  1  0  0  0
  9 10  1  0  0  0
  9 46  1  0  0  0
  9 47  1  0  0  0
 10 11  1  0  0  0
 10 48  1  0  0  0
 10 49  1  0  0  0
 11 12  1  0  0  0
 11 14  1  0  0  0
 12 13  1  0  0  0
 12 50  1  0  0  0
 12 51  1  0  0  0
 13 52  1  0  0  0
 13 53  1  0  0  0
 14 19  2  0  0  0
 14 15  1  0  0  0
 15 16  2  0  0  0
 15 54  1  0  0  0
 16 17  1  0  0  0
 16 55  1  0  0  0
 17 18  2  0  0  0
 17 27  1  0  0  0
 18 19  1  0  0  0
 18 56  1  0  0  0
 19 20  1  0  0  0
 20 21  2  0  0  0
 20 22  1  0  0  0
 22 26  1  0  0  0
 22 23  1  0  0  0
 23 24  1  0  0  0
 23 57  1  0  0  0
 23 58  1  0  0  0
 24 25  1  0  0  0
 24 59  1  0  0  0
 24 60  1  0  0  0
 25 26  1  0  0  0
 25 61  1  0  0  0
 25 62  1  0  0  0
 26 63  1  0  0  0
 26 64  1  0  0  0
 27 28  1  0  0  0
 27 65  1  0  0  0
 28 29  2  0  0  0
 28 30  1  0  0  0
 30 31  1  0  0  0
 30 66  1  0  0  0
 31 32  1  0  0  0
 31 67  1  0  0  0
 31 68  1  0  0  0
 32 37  2  0  0  0
 32 33  1  0  0  0
 33 34  2  0  0  0
 33 69  1  0  0  0
 34 35  1  0  0  0
 34 70  1  0  0  0
 35 36  2  0  0  0
 35 71  1  0  0  0
 36 37  1  0  0  0
 36 72  1  0  0  0
 37 73  1  0  0  0
M  END
> <i_i_glide_confnum>
373

> <i_i_glide_lignum>
4130

> <i_i_glide_posenum>
370

> <i_i_glide_rotatable_bonds>
10

> <i_m_Source_File_Index>
412

> <b_m_subgroup_collapsed>
0

> <r_i_docking_score>
-6.22222

> <r_i_glide_ecoul>
-4.92348

> <r_i_glide_eff_state_penalty>
0

> <r_i_glide_einternal>
8.66038

> <r_i_glide_emodel>
-63.8707

> <r_i_glide_energy>
-50.6825

> <r_i_glide_erotb>
0.744131

> <r_i_glide_esite>
-0.205078

> <r_i_glide_evdw>
-45.7591

> <r_i_glide_gscore>
-6.22222

> <r_i_glide_hbond>
-0.258512

> <r_i_glide_ligand_efficiency>
-0.168168

> <r_i_glide_ligand_efficiency_ln>
-1.34945

> <r_i_glide_ligand_efficiency_sa>
-0.560373

> <r_i_glide_lipo>
-2.68641

> <r_i_glide_metal>
0

> <r_i_glide_rewards>
-0.789872

> <s_i_glide_gridfile>
wee1_glide-grid

> <s_m_Source_File>
wee1_decoys_glide_SP.sdf

> <s_m_Source_Path>
/Users/zhangxujun/Desktop

> <s_m_entry_id>
687

> <s_m_entry_name>
wee1_decoys_glide_SP.412

> <s_m_subgroup_title>
wee1_decoys_glide_SP

> <s_m_subgroupid>
wee1_decoys_glide_SP


$$$$
