ZINC21565977_1432
                    3D
 Schrodinger Suite 2024-2.
 51 53  0  0  1  0            999 V2000
    6.5438   54.4071   24.2902 C   0  0  0  0  0  0
    5.4466   54.3050   25.3327 C   0  0  0  0  0  0
    4.1121   54.1686   24.9441 C   0  0  0  0  0  0
    3.1047   54.0965   25.9065 C   0  0  0  0  0  0
    3.4203   54.1680   27.2656 C   0  0  0  0  0  0
    4.7644   54.2948   27.6647 C   0  0  0  0  0  0
    5.7675   54.3592   26.6913 C   0  0  0  0  0  0
    5.1595   54.3699   29.1336 C   0  0  0  0  0  0
    2.3718   54.1834   28.2082 N   0  0  0  0  0  0
    1.5047   53.1851   28.6201 C   0  0  0  0  0  0
    0.7245   53.6572   29.5658 N   0  0  0  0  0  0
    1.1037   54.9789   29.7592 N   0  0  0  0  0  0
    2.1127   55.3103   28.8839 N   0  0  0  0  0  0
    1.5045   51.4974   28.0826 S   0  0  0  0  0  0
   -0.0947   51.2317   27.2223 C   0  0  1  0  0  0
   -0.3944   50.2244   27.4926 H   0  0  0  0  0  0
   -1.2736   52.0966   27.7082 C   0  0  0  0  0  0
    0.1038   51.3407   25.6905 C   0  0  0  0  0  0
    0.1395   52.4767   25.2061 O   0  0  0  0  0  0
    0.4173   50.2378   24.9483 N   0  0  0  0  0  0
    0.7583   50.3980   23.5212 C   0  0  0  0  0  0
   -0.5504   50.2383   22.7146 C   0  0  0  0  0  0
   -1.2414   48.8857   22.9935 C   0  0  0  0  0  0
   -1.3791   48.6439   24.5242 C   0  0  2  0  0  0
   -2.1231   49.3418   24.9160 H   0  0  0  0  0  0
   -0.0323   48.8650   25.2725 C   0  0  0  0  0  0
   -1.9603   47.2491   24.8336 C   0  0  0  0  0  0
   -2.0945   46.3823   23.9722 O   0  0  0  0  0  0
   -2.3504   47.0155   26.0818 N   0  0  0  0  0  0
    7.1675   55.2821   24.4853 H   0  0  0  0  0  0
    7.1893   53.5276   24.3265 H   0  0  0  0  0  0
    6.1401   54.5078   23.2805 H   0  0  0  0  0  0
    3.8455   54.1280   23.8976 H   0  0  0  0  0  0
    2.0776   54.0184   25.5854 H   0  0  0  0  0  0
    6.8006   54.4574   26.9911 H   0  0  0  0  0  0
    6.2385   54.3116   29.2807 H   0  0  0  0  0  0
    4.8079   55.2966   29.5835 H   0  0  0  0  0  0
    4.7099   53.5421   29.6823 H   0  0  0  0  0  0
   -2.2013   51.8327   27.2012 H   0  0  0  0  0  0
   -1.4379   51.9593   28.7774 H   0  0  0  0  0  0
   -1.0887   53.1562   27.5331 H   0  0  0  0  0  0
    1.4640   49.6050   23.2707 H   0  0  0  0  0  0
    1.3197   51.3121   23.3207 H   0  0  0  0  0  0
   -0.3339   50.3300   21.6491 H   0  0  0  0  0  0
   -1.2256   51.0640   22.9465 H   0  0  0  0  0  0
   -0.5882   48.1333   22.5485 H   0  0  0  0  0  0
   -2.2133   48.9029   22.4991 H   0  0  0  0  0  0
   -0.0352   48.6331   26.3375 H   0  0  0  0  0  0
    0.7203   48.1755   24.8852 H   0  0  0  0  0  0
   -2.7705   46.1354   26.3255 H   0  0  0  0  0  0
   -2.0953   47.6551   26.8359 H   0  0  0  0  0  0
  1  2  1  0  0  0
  1 30  1  0  0  0
  1 31  1  0  0  0
  1 32  1  0  0  0
  2  7  2  0  0  0
  2  3  1  0  0  0
  3  4  2  0  0  0
  3 33  1  0  0  0
  4  5  1  0  0  0
  4 34  1  0  0  0
  5  6  2  0  0  0
  5  9  1  0  0  0
  6  7  1  0  0  0
  6  8  1  0  0  0
  7 35  1  0  0  0
  8 36  1  0  0  0
  8 37  1  0  0  0
  8 38  1  0  0  0
  9 13  1  0  0  0
  9 10  1  0  0  0
 10 11  2  0  0  0
 10 14  1  0  0  0
 11 12  1  0  0  0
 12 13  2  0  0  0
 14 15  1  0  0  0
 15 16  1  0  0  0
 15 17  1  0  0  0
 15 18  1  0  0  0
 17 39  1  0  0  0
 17 40  1  0  0  0
 17 41  1  0  0  0
 18 19  2  0  0  0
 18 20  1  0  0  0
 20 26  1  0  0  0
 20 21  1  0  0  0
 21 22  1  0  0  0
 21 42  1  0  0  0
 21 43  1  0  0  0
 22 23  1  0  0  0
 22 44  1  0  0  0
 22 45  1  0  0  0
 23 24  1  0  0  0
 23 46  1  0  0  0
 23 47  1  0  0  0
 24 25  1  0  0  0
 24 26  1  0  0  0
 24 27  1  0  0  0
 26 48  1  0  0  0
 26 49  1  0  0  0
 27 28  2  0  0  0
 27 29  1  0  0  0
 29 50  1  0  0  0
 29 51  1  0  0  0
M  END
> <i_i_glide_confnum>
40

> <i_i_glide_lignum>
1433

> <i_i_glide_posenum>
359

> <i_i_glide_rotatable_bonds>
6

> <i_m_Source_File_Index>
2259

> <b_m_subgroup_collapsed>
0

> <r_i_docking_score>
-6.39238

> <r_i_glide_ecoul>
-7.78187

> <r_i_glide_eff_state_penalty>
0

> <r_i_glide_einternal>
5.22226

> <r_i_glide_emodel>
-66.9069

> <r_i_glide_energy>
-49.5478

> <r_i_glide_erotb>
0.645512

> <r_i_glide_esite>
-0.184011

> <r_i_glide_evdw>
-41.7659

> <r_i_glide_gscore>
-6.39238

> <r_i_glide_hbond>
-0.16

> <r_i_glide_ligand_efficiency>
-0.236755

> <r_i_glide_ligand_efficiency_ln>
-1.48804

> <r_i_glide_ligand_efficiency_sa>
-0.710264

> <r_i_glide_lipo>
-2.13359

> <r_i_glide_metal>
0

> <r_i_glide_rewards>
-1.30471

> <s_i_glide_gridfile>
wee1_glide-grid

> <s_m_Source_File>
wee1_decoys_glide_SP.sdf

> <s_m_Source_Path>
/Users/zhangxujun/Desktop

> <s_m_entry_id>
2534

> <s_m_entry_name>
wee1_decoys_glide_SP.2259

> <s_m_subgroup_title>
wee1_decoys_glide_SP

> <s_m_subgroupid>
wee1_decoys_glide_SP


$$$$
