ZINC00995817_4374
                    3D
 Schrodinger Suite 2024-2.
 48 52  0  0  1  0            999 V2000
   -2.7574   47.5311   20.1537 C   0  0  0  0  0  0
   -2.7384   46.3211   19.4461 C   0  0  0  0  0  0
   -1.5036   45.8434   19.0237 C   0  0  0  0  0  0
   -0.3448   46.5184   19.2821 C   0  0  0  0  0  0
   -0.3326   47.7147   19.9901 C   0  0  0  0  0  0
   -1.5634   48.2295   20.4369 C   0  0  0  0  0  0
   -1.5964   49.5327   21.2476 C   0  0  2  0  0  0
   -2.6421   49.6444   21.5438 H   0  0  0  0  0  0
   -1.2077   50.7507   20.4090 C   0  0  0  0  0  0
   -0.0824   51.4585   20.6431 C   0  0  0  0  0  0
    0.7235   51.2058   21.7652 N   0  0  0  0  0  0
    0.3377   50.2649   22.7421 C   0  0  0  0  0  0
   -0.7744   49.4842   22.5612 C   0  0  0  0  0  0
   -1.2204   48.4953   23.5839 C   0  0  0  0  0  0
   -2.0734   47.6400   23.3474 O   0  0  0  0  0  0
   -0.4586   48.4504   24.9126 C   0  0  0  0  0  0
    0.2014   49.7914   25.2397 C   0  0  0  0  0  0
    1.1044   50.2443   24.0806 C   0  0  0  0  0  0
    1.9462   51.9113   21.9096 C   0  0  0  0  0  0
    3.0911   51.4677   21.2346 C   0  0  0  0  0  0
    4.2708   52.2127   21.2819 C   0  0  0  0  0  0
    4.3176   53.3989   22.0169 C   0  0  0  0  0  0
    3.1876   53.8396   22.7018 C   0  0  0  0  0  0
    2.0038   53.1078   22.6433 C   0  0  0  0  0  0
    0.9133   53.5704   23.2982 F   0  0  0  0  0  0
    5.9108   54.4359   22.0820 Br  0  0  0  0  0  0
    0.3042   52.4967   19.8169 N   0  0  0  0  0  0
   -2.0829   51.1174   19.3401 C   0  0  0  0  0  0
   -2.8063   51.4723   18.5101 N   0  0  0  0  0  0
    0.7044   45.8076   18.7949 O   0  0  0  0  0  0
    0.1361   44.8031   17.9998 C   0  0  0  0  0  0
   -1.2147   44.6916   18.3613 O   0  0  0  0  0  0
   -3.7059   47.9178   20.4974 H   0  0  0  0  0  0
   -3.6540   45.7852   19.2457 H   0  0  0  0  0  0
    0.5925   48.2307   20.2016 H   0  0  0  0  0  0
    0.3260   47.7025   24.7947 H   0  0  0  0  0  0
   -1.1146   48.1001   25.7115 H   0  0  0  0  0  0
    0.7777   49.7035   26.1618 H   0  0  0  0  0  0
   -0.5691   50.5404   25.4367 H   0  0  0  0  0  0
    2.0437   49.6970   24.0026 H   0  0  0  0  0  0
    1.3725   51.2537   24.3857 H   0  0  0  0  0  0
    3.0569   50.5630   20.6432 H   0  0  0  0  0  0
    5.1389   51.8763   20.7337 H   0  0  0  0  0  0
    3.2219   54.7610   23.2640 H   0  0  0  0  0  0
   -0.1927   52.6874   18.9590 H   0  0  0  0  0  0
    1.0065   53.1696   20.0985 H   0  0  0  0  0  0
    0.2069   45.0958   16.9496 H   0  0  0  0  0  0
    0.6596   43.8568   18.1377 H   0  0  0  0  0  0
  1  6  2  0  0  0
  1  2  1  0  0  0
  1 33  1  0  0  0
  2  3  2  0  0  0
  2 34  1  0  0  0
  3 32  1  0  0  0
  3  4  1  0  0  0
  4  5  2  0  0  0
  4 30  1  0  0  0
  5  6  1  0  0  0
  5 35  1  0  0  0
  6  7  1  0  0  0
  7  8  1  0  0  0
  7 13  1  0  0  0
  7  9  1  0  0  0
  9 10  2  0  0  0
  9 28  1  0  0  0
 10 11  1  0  0  0
 10 27  1  0  0  0
 11 12  1  0  0  0
 11 19  1  0  0  0
 12 18  1  0  0  0
 12 13  2  0  0  0
 13 14  1  0  0  0
 14 15  2  0  0  0
 14 16  1  0  0  0
 16 17  1  0  0  0
 16 36  1  0  0  0
 16 37  1  0  0  0
 17 18  1  0  0  0
 17 38  1  0  0  0
 17 39  1  0  0  0
 18 40  1  0  0  0
 18 41  1  0  0  0
 19 24  2  0  0  0
 19 20  1  0  0  0
 20 21  2  0  0  0
 20 42  1  0  0  0
 21 22  1  0  0  0
 21 43  1  0  0  0
 22 23  2  0  0  0
 22 26  1  0  0  0
 23 24  1  0  0  0
 23 44  1  0  0  0
 24 25  1  0  0  0
 27 45  1  0  0  0
 27 46  1  0  0  0
 28 29  3  0  0  0
 30 31  1  0  0  0
 31 32  1  0  0  0
 31 47  1  0  0  0
 31 48  1  0  0  0
M  END
> <i_i_glide_confnum>
2

> <i_i_glide_lignum>
4375

> <i_i_glide_posenum>
9

> <i_i_glide_rotatable_bonds>
3

> <i_m_Source_File_Index>
1384

> <b_m_subgroup_collapsed>
0

> <r_i_docking_score>
-3.40804

> <r_i_glide_ecoul>
-4.15291

> <r_i_glide_eff_state_penalty>
0

> <r_i_glide_einternal>
1.60382

> <r_i_glide_emodel>
-40.0649

> <r_i_glide_energy>
-33.8645

> <r_i_glide_erotb>
0.174473

> <r_i_glide_esite>
-0.0555728

> <r_i_glide_evdw>
-29.7116

> <r_i_glide_gscore>
-3.40804

> <r_i_glide_hbond>
-0.223185

> <r_i_glide_ligand_efficiency>
-0.109937

> <r_i_glide_ligand_efficiency_ln>
-0.768617

> <r_i_glide_ligand_efficiency_sa>
-0.345353

> <r_i_glide_lipo>
-0.844291

> <r_i_glide_metal>
0

> <r_i_glide_rewards>
-0.350943

> <s_i_glide_gridfile>
wee1_glide-grid

> <s_m_Source_File>
wee1_decoys_glide_SP.sdf

> <s_m_Source_Path>
/Users/zhangxujun/Desktop

> <s_m_entry_id>
1659

> <s_m_entry_name>
wee1_decoys_glide_SP.1384

> <s_m_subgroup_title>
wee1_decoys_glide_SP

> <s_m_subgroupid>
wee1_decoys_glide_SP


$$$$
