ZINC35897646_2625
                    3D
 Schrodinger Suite 2024-2.
 62 66  0  0  1  0            999 V2000
   -2.3463   50.3019   24.7169 C   0  0  0  0  0  0
   -1.1318   49.5380   24.1666 C   0  0  0  0  0  0
    0.1973   50.2229   24.5368 C   0  0  0  0  0  0
    0.2428   51.7345   24.1991 C   0  0  0  0  0  0
   -1.0458   52.4967   24.6050 C   0  0  0  0  0  0
   -2.3487   51.7620   24.2346 C   0  0  0  0  0  0
    1.5040   52.3629   24.5938 N   0  0  0  0  0  0
    1.9797   53.5348   24.1483 C   0  0  0  0  0  0
    1.3810   54.2598   23.3538 O   0  0  0  0  0  0
    3.3296   53.8267   24.5775 C   0  0  0  0  0  0
    4.3229   54.2398   23.6538 C   0  0  0  0  0  0
    5.5653   54.4473   24.2595 C   0  0  0  0  0  0
    5.5063   54.2361   25.9693 S   0  0  0  0  0  0
    3.8258   53.7573   25.8997 C   0  0  0  0  0  0
    3.1169   53.4128   27.0539 N   0  0  0  0  0  0
    3.6098   53.0101   28.2516 C   0  0  0  0  0  0
    4.8061   52.8366   28.4827 O   0  0  0  0  0  0
    2.6074   52.8099   29.4272 C   0  0  2  0  0  0
    3.2368   52.5470   30.2815 H   0  0  0  0  0  0
    1.5430   51.6969   29.2335 C   0  0  2  0  0  0
    1.9522   50.6927   29.2819 H   0  0  0  0  0  0
    0.6607   51.8356   27.9929 C   0  0  0  0  0  0
   -0.1041   53.1255   28.2972 C   0  0  0  0  0  0
    0.2874   53.4740   29.7429 C   0  0  1  0  0  0
   -0.4519   54.0728   30.2746 H   0  0  0  0  0  0
    0.5182   52.0966   30.3142 C   0  0  0  0  0  0
    1.7195   54.0395   29.8240 C   0  0  2  0  0  0
    1.8862   54.2000   30.8817 H   0  0  0  0  0  0
    2.0301   55.4381   29.2989 C   0  0  0  0  0  0
    1.1045   56.2081   28.9801 O   0  0  0  0  0  0
    3.2436   55.6968   29.2815 O   0  5  0  0  0  0
    6.8648   54.7248   23.5293 C   0  0  0  0  0  0
    6.5893   55.1470   22.0740 C   0  0  0  0  0  0
    5.5043   54.2809   21.4106 C   0  0  0  0  0  0
    4.1467   54.3549   22.1339 C   0  0  0  0  0  0
   -2.3325   50.2734   25.8077 H   0  0  0  0  0  0
   -3.2679   49.8050   24.4110 H   0  0  0  0  0  0
   -1.1361   48.5154   24.5464 H   0  0  0  0  0  0
   -1.2110   49.4607   23.0811 H   0  0  0  0  0  0
    0.3355   50.0924   25.6109 H   0  0  0  0  0  0
    1.0217   49.7011   24.0485 H   0  0  0  0  0  0
    0.2323   51.7593   23.1065 H   0  0  0  0  0  0
   -1.0582   53.4889   24.1533 H   0  0  0  0  0  0
   -1.0454   52.6370   25.6844 H   0  0  0  0  0  0
   -3.2046   52.2923   24.6550 H   0  0  0  0  0  0
   -2.4798   51.7840   23.1528 H   0  0  0  0  0  0
    2.0437   51.8725   25.2903 H   0  0  0  0  0  0
    2.1119   53.4052   26.9688 H   0  0  0  0  0  0
    1.2039   51.8327   27.0590 H   0  0  0  0  0  0
   -0.0305   50.9918   27.9358 H   0  0  0  0  0  0
   -1.1608   52.8967   28.1751 H   0  0  0  0  0  0
    0.1647   53.9685   27.6817 H   0  0  0  0  0  0
   -0.3873   51.4810   30.3185 H   0  0  0  0  0  0
    0.9180   52.0962   31.3317 H   0  0  0  0  0  0
    7.4567   55.4911   24.0347 H   0  0  0  0  0  0
    7.4728   53.8188   23.5227 H   0  0  0  0  0  0
    6.3045   56.1972   22.0386 H   0  0  0  0  0  0
    7.5163   55.0832   21.5013 H   0  0  0  0  0  0
    5.3788   54.5686   20.3661 H   0  0  0  0  0  0
    5.8300   53.2411   21.4004 H   0  0  0  0  0  0
    3.4904   53.5777   21.7415 H   0  0  0  0  0  0
    3.6473   55.2963   21.9081 H   0  0  0  0  0  0
  1  6  1  0  0  0
  1  2  1  0  0  0
  1 36  1  0  0  0
  1 37  1  0  0  0
  2  3  1  0  0  0
  2 38  1  0  0  0
  2 39  1  0  0  0
  3  4  1  0  0  0
  3 40  1  0  0  0
  3 41  1  0  0  0
  4  5  1  0  0  0
  4  7  1  0  0  0
  4 42  1  0  0  0
  5  6  1  0  0  0
  5 43  1  0  0  0
  5 44  1  0  0  0
  6 45  1  0  0  0
  6 46  1  0  0  0
  7  8  1  0  0  0
  7 47  1  0  0  0
  8  9  2  0  0  0
  8 10  1  0  0  0
 10 14  2  0  0  0
 10 11  1  0  0  0
 11 35  1  0  0  0
 11 12  2  0  0  0
 12 13  1  0  0  0
 12 32  1  0  0  0
 13 14  1  0  0  0
 14 15  1  0  0  0
 15 16  1  0  0  0
 15 48  1  0  0  0
 16 17  2  0  0  0
 16 18  1  0  0  0
 18 19  1  0  0  0
 18 27  1  0  0  0
 18 20  1  0  0  0
 20 21  1  0  0  0
 20 26  1  0  0  0
 20 22  1  0  0  0
 22 23  1  0  0  0
 22 49  1  0  0  0
 22 50  1  0  0  0
 23 24  1  0  0  0
 23 51  1  0  0  0
 23 52  1  0  0  0
 24 25  1  0  0  0
 24 26  1  0  0  0
 24 27  1  0  0  0
 26 53  1  0  0  0
 26 54  1  0  0  0
 27 28  1  0  0  0
 27 29  1  0  0  0
 29 30  2  0  0  0
 29 31  1  0  0  0
 32 33  1  0  0  0
 32 55  1  0  0  0
 32 56  1  0  0  0
 33 34  1  0  0  0
 33 57  1  0  0  0
 33 58  1  0  0  0
 34 35  1  0  0  0
 34 59  1  0  0  0
 34 60  1  0  0  0
 35 61  1  0  0  0
 35 62  1  0  0  0
M  CHG  1  31  -1
M  END
> <i_i_glide_confnum>
134

> <i_i_glide_lignum>
2626

> <i_i_glide_posenum>
210

> <i_i_glide_rotatable_bonds>
7

> <i_m_Source_File_Index>
5050

> <b_m_subgroup_collapsed>
0

> <r_i_docking_score>
-5.7298

> <r_i_glide_ecoul>
0.314039

> <r_i_glide_eff_state_penalty>
0

> <r_i_glide_einternal>
14.6849

> <r_i_glide_emodel>
-54.1994

> <r_i_glide_energy>
-43.6266

> <r_i_glide_erotb>
0.609652

> <r_i_glide_esite>
0

> <r_i_glide_evdw>
-43.9407

> <r_i_glide_gscore>
-5.7298

> <r_i_glide_hbond>
0

> <r_i_glide_ligand_efficiency>
-0.184832

> <r_i_glide_ligand_efficiency_ln>
-1.29225

> <r_i_glide_ligand_efficiency_sa>
-0.580629

> <r_i_glide_lipo>
-2.66049

> <r_i_glide_metal>
0

> <r_i_glide_rewards>
-1.52904

> <s_i_glide_gridfile>
wee1_glide-grid

> <s_m_Source_File>
wee1_decoys_glide_SP.sdf

> <s_m_Source_Path>
/Users/zhangxujun/Desktop

> <s_m_entry_id>
5325

> <s_m_entry_name>
wee1_decoys_glide_SP.5050

> <s_m_subgroup_title>
wee1_decoys_glide_SP

> <s_m_subgroupid>
wee1_decoys_glide_SP


$$$$
