ZINC39637409_5107
                    3D
 Schrodinger Suite 2024-2.
 75 79  0  0  1  0            999 V2000
    0.3170   44.3339   16.9673 C   0  0  0  0  0  0
   -0.2625   45.5650   17.6959 C   0  0  2  0  0  0
   -0.8966   45.1904   18.5048 H   0  0  0  0  0  0
   -1.1471   46.4130   16.7572 C   0  0  0  0  0  0
   -1.8198   47.5708   17.5183 C   0  0  0  0  0  0
   -0.7960   48.4409   18.2794 C   0  0  0  0  0  0
    0.1808   47.6146   19.1656 C   0  0  1  0  0  0
   -0.4582   47.1356   19.9143 H   0  0  0  0  0  0
    0.8314   46.4581   18.3491 C   0  0  2  0  0  0
    1.3163   45.8165   19.0873 H   0  0  0  0  0  0
    1.9297   46.9604   17.3770 C   0  0  0  0  0  0
    1.1560   48.4315   19.8961 N   0  0  0  0  0  0
    0.8707   49.3166   20.8682 C   0  0  0  0  0  0
   -0.2730   49.5064   21.2825 O   0  0  0  0  0  0
    2.0856   50.0378   21.5043 C   0  0  2  0  0  0
    2.9333   49.3502   21.4730 H   0  0  0  0  0  0
    1.7851   50.4996   22.9441 C   0  0  0  0  0  0
    1.3768   51.9053   22.8094 N   0  0  0  0  0  0
    1.5805   52.4153   21.4491 C   0  0  0  0  0  0
    2.4661   51.3541   20.7480 C   0  0  0  0  0  0
    3.9786   51.6559   21.0113 C   0  0  0  0  0  0
    4.4613   52.9788   20.3837 C   0  0  0  0  0  0
    4.2253   52.8968   18.8606 N   0  3  0  0  0  0
    2.7455   52.6369   18.5178 C   0  0  0  0  0  0
    2.3364   51.3146   19.1911 C   0  0  0  0  0  0
    0.9726   52.7184   23.8166 C   0  0  0  0  0  0
    0.8612   53.9378   23.6803 O   0  0  0  0  0  0
    0.6000   52.1154   25.1471 C   0  0  0  0  0  0
   -0.3180   51.0566   25.2289 C   0  0  0  0  0  0
   -0.7171   50.5807   26.4741 C   0  0  0  0  0  0
   -0.2121   51.1960   27.6187 C   0  0  0  0  0  0
    0.6637   52.2243   27.5686 N   0  0  0  0  0  0
    1.0750   52.6670   26.3515 C   0  0  0  0  0  0
    1.9041   53.7673   26.3433 O   0  0  0  0  0  0
    3.1727   53.7095   26.8727 C   0  0  0  0  0  0
    4.2293   54.1076   26.0524 C   0  0  0  0  0  0
    5.5334   54.1084   26.5419 C   0  0  0  0  0  0
    5.7723   53.7008   27.8534 C   0  0  0  0  0  0
    4.7210   53.3040   28.6734 C   0  0  0  0  0  0
    3.4204   53.3230   28.1931 C   0  0  0  0  0  0
    7.3737   53.6967   28.4796 Cl  0  0  0  0  0  0
    0.8847   44.6182   16.0803 H   0  0  0  0  0  0
    0.9797   43.7615   17.6201 H   0  0  0  0  0  0
   -0.4776   43.6616   16.6409 H   0  0  0  0  0  0
   -0.5632   46.7861   15.9140 H   0  0  0  0  0  0
   -1.9127   45.7818   16.3046 H   0  0  0  0  0  0
   -2.3869   48.1895   16.8224 H   0  0  0  0  0  0
   -2.5477   47.1669   18.2250 H   0  0  0  0  0  0
   -0.2210   49.0166   17.5527 H   0  0  0  0  0  0
   -1.3372   49.1699   18.8820 H   0  0  0  0  0  0
    1.5310   47.6272   16.6123 H   0  0  0  0  0  0
    2.4335   46.1391   16.8706 H   0  0  0  0  0  0
    2.7089   47.5128   17.9052 H   0  0  0  0  0  0
    2.1241   48.2772   19.6546 H   0  0  0  0  0  0
    1.0757   49.8373   23.4401 H   0  0  0  0  0  0
    2.7037   50.4382   23.5276 H   0  0  0  0  0  0
    1.9856   53.4206   21.3764 H   0  0  0  0  0  0
    0.6116   52.4065   20.9441 H   0  0  0  0  0  0
    4.1667   51.7120   22.0811 H   0  0  0  0  0  0
    4.6015   50.8362   20.6551 H   0  0  0  0  0  0
    3.9378   53.8677   20.7401 H   0  0  0  0  0  0
    5.5305   53.1305   20.5166 H   0  0  0  0  0  0
    4.5549   53.7365   18.3982 H   0  0  0  0  0  0
    2.1772   53.5016   18.8625 H   0  0  0  0  0  0
    2.6894   52.5786   17.4282 H   0  0  0  0  0  0
    2.9158   50.4870   18.7743 H   0  0  0  0  0  0
    1.3052   51.1158   18.9028 H   0  0  0  0  0  0
   -0.7435   50.6199   24.3349 H   0  0  0  0  0  0
   -1.4113   49.7530   26.5556 H   0  0  0  0  0  0
   -0.5157   50.8637   28.5999 H   0  0  0  0  0  0
    4.0305   54.4234   25.0393 H   0  0  0  0  0  0
    6.3517   54.4151   25.9072 H   0  0  0  0  0  0
    4.9088   52.9808   29.6818 H   0  0  0  0  0  0
    2.6182   53.0431   28.8573 H   0  0  0  0  0  0
    4.7619   52.1120   18.4842 H   0  0  0  0  0  0
  1  2  1  0  0  0
  1 42  1  0  0  0
  1 43  1  0  0  0
  1 44  1  0  0  0
  2  3  1  0  0  0
  2  9  1  0  0  0
  2  4  1  0  0  0
  4  5  1  0  0  0
  4 45  1  0  0  0
  4 46  1  0  0  0
  5  6  1  0  0  0
  5 47  1  0  0  0
  5 48  1  0  0  0
  6  7  1  0  0  0
  6 49  1  0  0  0
  6 50  1  0  0  0
  7  8  1  0  0  0
  7  9  1  0  0  0
  7 12  1  0  0  0
  9 10  1  0  0  0
  9 11  1  0  0  0
 11 51  1  0  0  0
 11 52  1  0  0  0
 11 53  1  0  0  0
 12 13  1  0  0  0
 12 54  1  0  0  0
 13 14  2  0  0  0
 13 15  1  0  0  0
 15 16  1  0  0  0
 15 20  1  0  0  0
 15 17  1  0  0  0
 17 18  1  0  0  0
 17 55  1  0  0  0
 17 56  1  0  0  0
 18 19  1  0  0  0
 18 26  1  0  0  0
 19 20  1  0  0  0
 19 57  1  0  0  0
 19 58  1  0  0  0
 20 25  1  0  0  0
 20 21  1  0  0  0
 21 22  1  0  0  0
 21 59  1  0  0  0
 21 60  1  0  0  0
 22 23  1  0  0  0
 22 61  1  0  0  0
 22 62  1  0  0  0
 23 24  1  0  0  0
 23 63  1  0  0  0
 23 75  1  0  0  0
 24 25  1  0  0  0
 24 64  1  0  0  0
 24 65  1  0  0  0
 25 66  1  0  0  0
 25 67  1  0  0  0
 26 27  2  0  0  0
 26 28  1  0  0  0
 28 33  2  0  0  0
 28 29  1  0  0  0
 29 30  2  0  0  0
 29 68  1  0  0  0
 30 31  1  0  0  0
 30 69  1  0  0  0
 31 32  2  0  0  0
 31 70  1  0  0  0
 32 33  1  0  0  0
 33 34  1  0  0  0
 34 35  1  0  0  0
 35 40  2  0  0  0
 35 36  1  0  0  0
 36 37  2  0  0  0
 36 71  1  0  0  0
 37 38  1  0  0  0
 37 72  1  0  0  0
 38 39  2  0  0  0
 38 41  1  0  0  0
 39 40  1  0  0  0
 39 73  1  0  0  0
 40 74  1  0  0  0
M  CHG  1  23   1
M  END
> <i_i_glide_confnum>
491

> <i_i_glide_lignum>
5108

> <i_i_glide_posenum>
262

> <i_i_glide_rotatable_bonds>
7

> <i_m_Source_File_Index>
3054

> <b_m_subgroup_collapsed>
0

> <r_i_docking_score>
-5.10672

> <r_i_glide_ecoul>
-4.84578

> <r_i_glide_eff_state_penalty>
0

> <r_i_glide_einternal>
8.1238

> <r_i_glide_emodel>
-64.4044

> <r_i_glide_energy>
-49.6959

> <r_i_glide_erotb>
0.520676

> <r_i_glide_esite>
-0.0933091

> <r_i_glide_evdw>
-44.8501

> <r_i_glide_gscore>
-5.10672

> <r_i_glide_hbond>
-0.2

> <r_i_glide_ligand_efficiency>
-0.138019

> <r_i_glide_ligand_efficiency_ln>
-1.10753

> <r_i_glide_ligand_efficiency_sa>
-0.459911

> <r_i_glide_lipo>
-1.94642

> <r_i_glide_metal>
0

> <r_i_glide_rewards>
-0.418294

> <s_i_glide_gridfile>
wee1_glide-grid

> <s_m_Source_File>
wee1_decoys_glide_SP.sdf

> <s_m_Source_Path>
/Users/zhangxujun/Desktop

> <s_m_entry_id>
3329

> <s_m_entry_name>
wee1_decoys_glide_SP.3054

> <s_m_subgroup_title>
wee1_decoys_glide_SP

> <s_m_subgroupid>
wee1_decoys_glide_SP


$$$$
