ZINC59384852_4306
                    3D
 Schrodinger Suite 2024-2.
 43 45  0  0  1  0            999 V2000
    2.7042   50.1373   20.3506 C   0  0  0  0  0  0
    3.1580   51.5400   20.7511 C   0  0  0  0  0  0
    2.6863   52.2564   21.8143 C   0  0  0  0  0  0
    3.2311   53.6972   22.0831 C   0  0  2  0  0  0
    2.3858   54.3733   22.2177 H   0  0  0  0  0  0
    3.9045   54.1706   20.8456 N   0  0  0  0  0  0
    4.3958   53.4045   19.8322 C   0  0  0  0  0  0
    5.3824   54.0537   18.6747 S   0  0  0  0  0  0
    4.0163   52.0968   19.8477 N   0  0  0  0  0  0
    4.0860   53.8885   23.3474 C   0  0  0  0  0  0
    3.4584   54.0964   24.5808 C   0  0  0  0  0  0
    4.2202   54.2878   25.7315 C   0  0  0  0  0  0
    5.6109   54.2829   25.6501 C   0  0  0  0  0  0
    6.2472   54.0969   24.4265 C   0  0  0  0  0  0
    5.4875   53.8829   23.2808 C   0  0  0  0  0  0
    6.6512   54.4965   27.2277 Br  0  0  0  0  0  0
    1.7725   51.6685   22.7830 C   0  0  0  0  0  0
    1.9437   50.5294   23.2306 O   0  0  0  0  0  0
    0.7234   52.4479   23.1200 N   0  0  0  0  0  0
   -0.2206   52.0168   23.9858 N   0  0  0  0  0  0
   -1.1914   52.8167   24.1654 C   0  0  0  0  0  0
   -2.3203   52.4967   25.0496 C   0  0  0  0  0  0
   -2.2024   51.5562   26.0849 C   0  0  0  0  0  0
   -3.2837   51.2763   26.9155 C   0  0  0  0  0  0
   -4.4947   51.9325   26.7164 C   0  0  0  0  0  0
   -4.6296   52.8650   25.6916 C   0  0  0  0  0  0
   -3.5478   53.1463   24.8623 C   0  0  0  0  0  0
   -5.5424   51.6707   27.5278 F   0  0  0  0  0  0
    3.1167   49.3955   21.0342 H   0  0  0  0  0  0
    1.6180   50.0603   20.4003 H   0  0  0  0  0  0
    3.0018   49.8681   19.3345 H   0  0  0  0  0  0
    4.1444   55.1468   20.7652 H   0  0  0  0  0  0
    4.4223   51.5495   19.0897 H   0  0  0  0  0  0
    2.3805   54.1048   24.6561 H   0  0  0  0  0  0
    3.7337   54.4297   26.6853 H   0  0  0  0  0  0
    7.3265   54.0913   24.3695 H   0  0  0  0  0  0
    5.9995   53.7199   22.3425 H   0  0  0  0  0  0
    0.5852   53.3600   22.7116 H   0  0  0  0  0  0
   -1.2542   53.7888   23.6815 H   0  0  0  0  0  0
   -1.2715   51.0320   26.2566 H   0  0  0  0  0  0
   -3.1806   50.5479   27.7078 H   0  0  0  0  0  0
   -5.5757   53.3648   25.5452 H   0  0  0  0  0  0
   -3.6731   53.8740   24.0728 H   0  0  0  0  0  0
  1  2  1  0  0  0
  1 29  1  0  0  0
  1 30  1  0  0  0
  1 31  1  0  0  0
  2  9  1  0  0  0
  2  3  2  0  0  0
  3  4  1  0  0  0
  3 17  1  0  0  0
  4  5  1  0  0  0
  4  6  1  0  0  0
  4 10  1  0  0  0
  6  7  1  0  0  0
  6 32  1  0  0  0
  7  8  2  0  0  0
  7  9  1  0  0  0
  9 33  1  0  0  0
 10 15  2  0  0  0
 10 11  1  0  0  0
 11 12  2  0  0  0
 11 34  1  0  0  0
 12 13  1  0  0  0
 12 35  1  0  0  0
 13 14  2  0  0  0
 13 16  1  0  0  0
 14 15  1  0  0  0
 14 36  1  0  0  0
 15 37  1  0  0  0
 17 18  2  0  0  0
 17 19  1  0  0  0
 19 20  1  0  0  0
 19 38  1  0  0  0
 20 21  2  0  0  0
 21 22  1  0  0  0
 21 39  1  0  0  0
 22 27  2  0  0  0
 22 23  1  0  0  0
 23 24  2  0  0  0
 23 40  1  0  0  0
 24 25  1  0  0  0
 24 41  1  0  0  0
 25 26  2  0  0  0
 25 28  1  0  0  0
 26 27  1  0  0  0
 26 42  1  0  0  0
 27 43  1  0  0  0
M  END
> <i_i_glide_confnum>
17

> <i_i_glide_lignum>
4307

> <i_i_glide_posenum>
118

> <i_i_glide_rotatable_bonds>
5

> <i_m_Source_File_Index>
77

> <b_m_subgroup_collapsed>
0

> <r_i_docking_score>
-5.22658

> <r_i_glide_ecoul>
-1.8555

> <r_i_glide_eff_state_penalty>
0

> <r_i_glide_einternal>
4.18132

> <r_i_glide_emodel>
-54.5549

> <r_i_glide_energy>
-41.6012

> <r_i_glide_erotb>
0.400274

> <r_i_glide_esite>
-0.131385

> <r_i_glide_evdw>
-39.7457

> <r_i_glide_gscore>
-5.22658

> <r_i_glide_hbond>
-0.16

> <r_i_glide_ligand_efficiency>
-0.193577

> <r_i_glide_ligand_efficiency_ln>
-1.21666

> <r_i_glide_ligand_efficiency_sa>
-0.580731

> <r_i_glide_lipo>
-2.30877

> <r_i_glide_metal>
0

> <r_i_glide_rewards>
-0.761094

> <s_i_glide_gridfile>
wee1_glide-grid

> <s_m_Source_File>
wee1_decoys_glide_SP.sdf

> <s_m_Source_Path>
/Users/zhangxujun/Desktop

> <s_m_entry_id>
352

> <s_m_entry_name>
wee1_decoys_glide_SP.77

> <s_m_subgroup_title>
wee1_decoys_glide_SP

> <s_m_subgroupid>
wee1_decoys_glide_SP


$$$$
