ZINC09345498_4408
                    3D
 Schrodinger Suite 2024-2.
 43 46  0  0  1  0            999 V2000
    5.4296   54.4786   28.5095 C   0  0  0  0  0  0
    4.0641   54.1502   28.7524 O   0  0  0  0  0  0
    3.2499   53.8056   27.6867 C   0  0  0  0  0  0
    3.6285   53.9306   26.3401 C   0  0  0  0  0  0
    2.7623   53.5423   25.3182 C   0  0  0  0  0  0
    1.5038   52.9982   25.6044 C   0  0  0  0  0  0
    1.1206   52.8960   26.9481 C   0  0  0  0  0  0
    1.9789   53.2935   27.9765 C   0  0  0  0  0  0
    1.3996   53.1031   29.7838 Br  0  0  0  0  0  0
    0.5957   52.5834   24.5077 C   0  0  0  0  0  0
   -0.7435   52.5907   24.5466 C   0  0  0  0  0  0
   -1.4301   52.0966   23.0000 S   0  0  0  0  0  0
    0.1988   51.8383   22.3067 C   0  0  0  0  0  0
    0.4042   51.4716   21.0967 N   0  0  0  0  0  0
    1.6298   51.0427   20.6374 C   0  0  0  0  0  0
    1.9045   49.4002   20.4463 S   0  0  0  0  0  0
    2.4506   52.0975   20.3275 N   0  0  0  0  0  0
    3.8029   52.1842   20.3817 C   0  0  0  0  0  0
    4.5559   51.3462   20.8832 O   0  0  0  0  0  0
    4.3253   53.4103   19.8351 C   0  0  0  0  0  0
    3.9044   54.1919   18.7618 C   0  0  0  0  0  0
    4.8452   55.2581   18.6359 C   0  0  0  0  0  0
    4.9935   56.3900   17.8177 C   0  0  0  0  0  0
    6.1146   57.2072   18.0033 C   0  0  0  0  0  0
    7.0755   56.9169   18.9742 C   0  0  0  0  0  0
    6.9462   55.8117   19.8178 C   0  0  0  0  0  0
    5.8198   55.0022   19.6278 C   0  0  0  0  0  0
    5.5043   53.8800   20.3420 O   0  0  0  0  0  0
    1.0989   52.1094   23.3218 N   0  0  0  0  0  0
    2.0824   51.9556   23.1729 H   0  0  0  0  0  0
    5.9030   54.7992   29.4376 H   0  0  0  0  0  0
    5.9795   53.6140   28.1343 H   0  0  0  0  0  0
    5.5377   55.2968   27.8001 H   0  0  0  0  0  0
    4.5921   54.3226   26.0608 H   0  0  0  0  0  0
    3.0861   53.6625   24.2940 H   0  0  0  0  0  0
    0.1539   52.4885   27.2067 H   0  0  0  0  0  0
   -1.3760   52.8964   25.3664 H   0  0  0  0  0  0
    1.9715   52.9673   20.1453 H   0  0  0  0  0  0
    3.0220   54.0195   18.1611 H   0  0  0  0  0  0
    4.2648   56.6213   17.0541 H   0  0  0  0  0  0
    6.2425   58.0796   17.3732 H   0  0  0  0  0  0
    7.9377   57.5605   19.0660 H   0  0  0  0  0  0
    7.6848   55.5827   20.5731 H   0  0  0  0  0  0
  1  2  1  0  0  0
  1 31  1  0  0  0
  1 32  1  0  0  0
  1 33  1  0  0  0
  2  3  1  0  0  0
  3  8  2  0  0  0
  3  4  1  0  0  0
  4  5  2  0  0  0
  4 34  1  0  0  0
  5  6  1  0  0  0
  5 35  1  0  0  0
  6  7  2  0  0  0
  6 10  1  0  0  0
  7  8  1  0  0  0
  7 36  1  0  0  0
  8  9  1  0  0  0
 10 29  1  0  0  0
 10 11  2  0  0  0
 11 12  1  0  0  0
 11 37  1  0  0  0
 12 13  1  0  0  0
 13 14  2  0  0  0
 13 29  1  0  0  0
 14 15  1  0  0  0
 15 16  2  0  0  0
 15 17  1  0  0  0
 17 18  1  0  0  0
 17 38  1  0  0  0
 18 19  2  0  0  0
 18 20  1  0  0  0
 20 28  1  0  0  0
 20 21  2  0  0  0
 21 22  1  0  0  0
 21 39  1  0  0  0
 22 27  2  0  0  0
 22 23  1  0  0  0
 23 24  2  0  0  0
 23 40  1  0  0  0
 24 25  1  0  0  0
 24 41  1  0  0  0
 25 26  2  0  0  0
 25 42  1  0  0  0
 26 27  1  0  0  0
 26 43  1  0  0  0
 27 28  1  0  0  0
 29 30  1  0  0  0
M  END
> <i_i_glide_confnum>
21

> <i_i_glide_lignum>
4409

> <i_i_glide_posenum>
114

> <i_i_glide_rotatable_bonds>
6

> <i_m_Source_File_Index>
2366

> <b_m_subgroup_collapsed>
0

> <r_i_docking_score>
-4.65138

> <r_i_glide_ecoul>
-4.36481

> <r_i_glide_eff_state_penalty>
0

> <r_i_glide_einternal>
10.8214

> <r_i_glide_emodel>
-56.2052

> <r_i_glide_energy>
-46.0281

> <r_i_glide_erotb>
0.341045

> <r_i_glide_esite>
-0.0653832

> <r_i_glide_evdw>
-41.6632

> <r_i_glide_gscore>
-4.65138

> <r_i_glide_hbond>
-0.0739989

> <r_i_glide_ligand_efficiency>
-0.160392

> <r_i_glide_ligand_efficiency_ln>
-1.06505

> <r_i_glide_ligand_efficiency_sa>
-0.492776

> <r_i_glide_lipo>
-2.03902

> <r_i_glide_metal>
0

> <r_i_glide_rewards>
-0.0761396

> <s_i_glide_gridfile>
wee1_glide-grid

> <s_m_Source_File>
wee1_decoys_glide_SP.sdf

> <s_m_Source_Path>
/Users/zhangxujun/Desktop

> <s_m_entry_id>
2641

> <s_m_entry_name>
wee1_decoys_glide_SP.2366

> <s_m_subgroup_title>
wee1_decoys_glide_SP

> <s_m_subgroupid>
wee1_decoys_glide_SP


$$$$
