ZINC11667229_6034
                    3D
 Schrodinger Suite 2024-2.
 53 56  0  0  1  0            999 V2000
   -0.6131   49.1744   25.6135 C   0  0  0  0  0  0
    0.6240   49.1359   24.7138 C   0  0  0  0  0  0
    0.8098   50.3989   24.0817 O   0  0  0  0  0  0
    1.7995   50.5672   23.1881 C   0  0  0  0  0  0
    2.5836   49.6974   22.8107 O   0  0  0  0  0  0
    1.8926   52.0139   22.6953 C   0  0  0  0  0  0
    3.6095   53.7048   21.7434 C   0  0  2  0  0  0
    2.7528   54.3788   21.6813 H   0  0  0  0  0  0
    4.5283   53.9953   20.5288 C   0  0  0  0  0  0
    5.5045   55.0063   20.5603 C   0  0  0  0  0  0
    6.4012   55.2030   19.5132 C   0  0  0  0  0  0
    6.3085   54.4249   18.3671 C   0  0  0  0  0  0
    5.3282   53.4439   18.2828 C   0  0  0  0  0  0
    4.4613   53.2220   19.3552 C   0  0  0  0  0  0
    3.5045   52.2166   19.1956 N   0  0  0  0  0  0
    2.4337   52.0696   20.1698 C   0  0  1  0  0  0
    1.7361   52.8966   20.0236 H   0  0  0  0  0  0
    1.6449   50.7661   19.9867 C   0  0  0  0  0  0
    2.3020   49.5734   19.6443 C   0  0  0  0  0  0
    1.5823   48.3953   19.4557 C   0  0  0  0  0  0
    0.1965   48.3917   19.6030 C   0  0  0  0  0  0
   -0.4692   49.5730   19.9292 C   0  0  0  0  0  0
    0.2468   50.7550   20.1133 C   0  0  0  0  0  0
   -0.4266   51.8890   20.4187 F   0  0  0  0  0  0
    7.7818   56.4973   19.6775 Br  0  0  0  0  0  0
    4.2794   53.9294   23.1219 C   0  0  0  0  0  0
    3.5433   54.4966   24.1705 C   0  0  0  0  0  0
    4.1568   54.8184   25.3785 C   0  0  0  0  0  0
    5.5273   54.6292   25.5295 C   0  0  0  0  0  0
    6.2820   54.0956   24.4907 C   0  0  0  0  0  0
    5.6543   53.7086   23.3077 C   0  0  0  0  0  0
   -0.7798   48.2032   26.0800 H   0  0  0  0  0  0
   -0.4983   49.9018   26.4167 H   0  0  0  0  0  0
   -1.5120   49.4321   25.0528 H   0  0  0  0  0  0
    0.5160   48.3504   23.9619 H   0  0  0  0  0  0
    1.5043   48.8954   25.3144 H   0  0  0  0  0  0
    2.1347   52.6033   23.5714 H   0  0  0  0  0  0
    0.9475   52.3798   22.2970 H   0  0  0  0  0  0
    5.6016   55.6357   21.4317 H   0  0  0  0  0  0
    6.9965   54.5729   17.5468 H   0  0  0  0  0  0
    5.2571   52.8324   17.3968 H   0  0  0  0  0  0
    3.7337   51.3972   18.6342 H   0  0  0  0  0  0
    3.3722   49.5549   19.5066 H   0  0  0  0  0  0
    2.1018   47.4885   19.1829 H   0  0  0  0  0  0
   -0.3621   47.4802   19.4504 H   0  0  0  0  0  0
   -1.5441   49.5760   20.0301 H   0  0  0  0  0  0
    2.4941   54.7172   24.0491 H   0  0  0  0  0  0
    3.5801   55.2469   26.1847 H   0  0  0  0  0  0
    6.0067   54.8985   26.4591 H   0  0  0  0  0  0
    7.3462   53.9484   24.6083 H   0  0  0  0  0  0
    6.2559   53.2747   22.5226 H   0  0  0  0  0  0
    2.9875   52.2726   21.6141 N   0  3  2  0  0  0
    3.7357   51.6076   21.7483 H   0  0  0  0  0  0
  1  2  1  0  0  0
  1 32  1  0  0  0
  1 33  1  0  0  0
  1 34  1  0  0  0
  2  3  1  0  0  0
  2 35  1  0  0  0
  2 36  1  0  0  0
  3  4  1  0  0  0
  4  5  2  0  0  0
  4  6  1  0  0  0
  6 37  1  0  0  0
  6 38  1  0  0  0
  6 52  1  0  0  0
  7  8  1  0  0  0
  7  9  1  0  0  0
  7 26  1  0  0  0
  7 52  1  0  0  0
  9 14  2  0  0  0
  9 10  1  0  0  0
 10 11  2  0  0  0
 10 39  1  0  0  0
 11 12  1  0  0  0
 11 25  1  0  0  0
 12 13  2  0  0  0
 12 40  1  0  0  0
 13 14  1  0  0  0
 13 41  1  0  0  0
 14 15  1  0  0  0
 15 16  1  0  0  0
 15 42  1  0  0  0
 16 17  1  0  0  0
 16 18  1  0  0  0
 16 52  1  0  0  0
 18 23  2  0  0  0
 18 19  1  0  0  0
 19 20  2  0  0  0
 19 43  1  0  0  0
 20 21  1  0  0  0
 20 44  1  0  0  0
 21 22  2  0  0  0
 21 45  1  0  0  0
 22 23  1  0  0  0
 22 46  1  0  0  0
 23 24  1  0  0  0
 26 31  2  0  0  0
 26 27  1  0  0  0
 27 28  2  0  0  0
 27 47  1  0  0  0
 28 29  1  0  0  0
 28 48  1  0  0  0
 29 30  2  0  0  0
 29 49  1  0  0  0
 30 31  1  0  0  0
 30 50  1  0  0  0
 31 51  1  0  0  0
 52 53  1  0  0  0
M  CHG  1  52   1
M  END
> <i_i_glide_confnum>
7

> <i_i_glide_lignum>
6035

> <i_i_glide_posenum>
249

> <i_i_glide_rotatable_bonds>
6

> <i_m_Source_File_Index>
2371

> <b_m_subgroup_collapsed>
0

> <r_i_docking_score>
-4.19977

> <r_i_glide_ecoul>
-2.47214

> <r_i_glide_eff_state_penalty>
0

> <r_i_glide_einternal>
9.01931

> <r_i_glide_emodel>
-40.8341

> <r_i_glide_energy>
-35.9225

> <r_i_glide_erotb>
0.456632

> <r_i_glide_esite>
-0.111498

> <r_i_glide_evdw>
-33.4503

> <r_i_glide_gscore>
-4.19977

> <r_i_glide_hbond>
-0.120698

> <r_i_glide_ligand_efficiency>
-0.139992

> <r_i_glide_ligand_efficiency_ln>
-0.954233

> <r_i_glide_ligand_efficiency_sa>
-0.434989

> <r_i_glide_lipo>
-2.02865

> <r_i_glide_metal>
0

> <r_i_glide_rewards>
-0.352215

> <s_i_glide_gridfile>
wee1_glide-grid

> <s_m_Source_File>
wee1_decoys_glide_SP.sdf

> <s_m_Source_Path>
/Users/zhangxujun/Desktop

> <s_m_entry_id>
2646

> <s_m_entry_name>
wee1_decoys_glide_SP.2371

> <s_m_subgroup_title>
wee1_decoys_glide_SP

> <s_m_subgroupid>
wee1_decoys_glide_SP


$$$$
