ZINC38903893_1098
                    3D
 Schrodinger Suite 2024-2.
 79 82  0  0  1  0            999 V2000
    1.3451   47.1763   18.9945 C   0  0  0  0  0  0
   -0.1269   47.1413   18.5322 C   0  0  0  0  0  0
   -1.0597   48.1529   19.2440 C   0  0  1  0  0  0
   -2.0101   48.1547   18.7024 H   0  0  0  0  0  0
   -1.3843   47.7222   20.6867 C   0  0  0  0  0  0
   -0.9506   48.4449   21.8040 C   0  0  0  0  0  0
   -1.2952   48.0368   23.0898 C   0  0  0  0  0  0
   -2.0574   46.8776   23.2940 C   0  0  0  0  0  0
   -2.4975   46.1383   22.1851 C   0  0  0  0  0  0
   -2.1652   46.5791   20.8904 C   0  0  0  0  0  0
   -3.2412   44.9964   22.4341 O   0  0  0  0  0  0
   -3.7407   44.2275   21.3440 C   0  0  0  0  0  0
   -2.3943   46.4000   24.5503 O   0  0  0  0  0  0
   -1.9737   47.1238   25.7048 C   0  0  0  0  0  0
   -0.4912   49.4908   19.0733 N   0  0  0  0  0  0
   -1.0282   50.6822   19.3771 C   0  0  0  0  0  0
   -2.1546   50.8178   19.8505 O   0  0  0  0  0  0
   -0.1559   51.9212   19.0969 C   0  0  2  0  0  0
   -0.4606   52.6205   19.8710 H   0  0  0  0  0  0
   -0.5255   52.4536   17.6925 C   0  0  0  0  0  0
    0.3593   53.6553   17.3204 C   0  0  0  0  0  0
    1.8584   53.3245   17.4248 C   0  0  0  0  0  0
    2.1542   52.8971   18.8824 N   0  3  1  0  0  0
    1.3644   51.6275   19.2780 C   0  0  0  0  0  0
    3.6790   52.7405   19.1152 C   0  0  0  0  0  0
    4.0625   53.2241   20.5066 C   0  0  0  0  0  0
    3.3637   53.2314   21.6141 N   0  0  0  0  0  0
    4.1897   53.8062   22.4736 C   0  0  0  0  0  0
    5.3510   54.1883   21.9729 N   0  0  0  0  0  0
    5.2806   53.8014   20.6379 O   0  0  0  0  0  0
    3.8595   53.9801   23.9330 C   0  0  0  0  0  0
    2.5943   53.6419   24.4248 C   0  0  0  0  0  0
    2.3247   53.6952   25.7906 C   0  0  0  0  0  0
    3.3107   54.0874   26.7072 C   0  0  0  0  0  0
    4.5614   54.4819   26.2052 C   0  0  0  0  0  0
    4.8290   54.4311   24.8397 C   0  0  0  0  0  0
    3.0011   54.0635   28.2287 C   0  0  0  0  0  0
    4.2565   54.3071   29.1081 C   0  0  0  0  0  0
    2.4334   52.6806   28.6468 C   0  0  0  0  0  0
    1.9555   55.1543   28.5612 C   0  0  0  0  0  0
    1.9465   46.4934   18.3986 H   0  0  0  0  0  0
    1.7950   48.1624   18.8737 H   0  0  0  0  0  0
    1.4441   46.8968   20.0431 H   0  0  0  0  0  0
   -0.5195   46.1295   18.6253 H   0  0  0  0  0  0
   -0.1459   47.3480   17.4603 H   0  0  0  0  0  0
   -0.3416   49.3272   21.6943 H   0  0  0  0  0  0
   -0.9423   48.6327   23.9167 H   0  0  0  0  0  0
   -2.5039   46.0334   20.0237 H   0  0  0  0  0  0
   -4.3027   43.3779   21.7311 H   0  0  0  0  0  0
   -4.4164   44.8129   20.7174 H   0  0  0  0  0  0
   -2.9299   43.8321   20.7295 H   0  0  0  0  0  0
   -2.2249   46.5556   26.6015 H   0  0  0  0  0  0
   -0.8972   47.2909   25.7120 H   0  0  0  0  0  0
   -2.4775   48.0881   25.7738 H   0  0  0  0  0  0
    0.3804   49.4993   18.5680 H   0  0  0  0  0  0
   -1.5623   52.7918   17.6479 H   0  0  0  0  0  0
   -0.3296   51.7036   16.9238 H   0  0  0  0  0  0
    0.1267   54.5041   17.9643 H   0  0  0  0  0  0
    0.1347   53.9831   16.3048 H   0  0  0  0  0  0
    2.4449   54.2275   17.2313 H   0  0  0  0  0  0
    2.1829   52.5195   16.7606 H   0  0  0  0  0  0
    1.7547   50.8432   18.6269 H   0  0  0  0  0  0
    1.6122   51.4365   20.3231 H   0  0  0  0  0  0
    4.1831   53.3420   18.3547 H   0  0  0  0  0  0
    3.9061   51.6952   18.9118 H   0  0  0  0  0  0
    1.8179   53.3004   23.7576 H   0  0  0  0  0  0
    1.3450   53.4013   26.1343 H   0  0  0  0  0  0
    5.3546   54.8093   26.8564 H   0  0  0  0  0  0
    5.8142   54.7062   24.4978 H   0  0  0  0  0  0
    4.0279   54.2364   30.1708 H   0  0  0  0  0  0
    4.6807   55.2965   28.9484 H   0  0  0  0  0  0
    5.0402   53.5770   28.9017 H   0  0  0  0  0  0
    1.4880   52.4477   28.1558 H   0  0  0  0  0  0
    3.1299   51.8755   28.4090 H   0  0  0  0  0  0
    2.2422   52.6353   29.7207 H   0  0  0  0  0  0
    1.0094   54.9825   28.0457 H   0  0  0  0  0  0
    1.7332   55.1892   29.6287 H   0  0  0  0  0  0
    2.3044   56.1437   28.2691 H   0  0  0  0  0  0
    1.8609   53.6719   19.4733 H   0  0  0  0  0  0
  1  2  1  0  0  0
  1 41  1  0  0  0
  1 42  1  0  0  0
  1 43  1  0  0  0
  2  3  1  0  0  0
  2 44  1  0  0  0
  2 45  1  0  0  0
  3  4  1  0  0  0
  3  5  1  0  0  0
  3 15  1  0  0  0
  5 10  2  0  0  0
  5  6  1  0  0  0
  6  7  2  0  0  0
  6 46  1  0  0  0
  7  8  1  0  0  0
  7 47  1  0  0  0
  8  9  2  0  0  0
  8 13  1  0  0  0
  9 10  1  0  0  0
  9 11  1  0  0  0
 10 48  1  0  0  0
 11 12  1  0  0  0
 12 49  1  0  0  0
 12 50  1  0  0  0
 12 51  1  0  0  0
 13 14  1  0  0  0
 14 52  1  0  0  0
 14 53  1  0  0  0
 14 54  1  0  0  0
 15 16  1  0  0  0
 15 55  1  0  0  0
 16 17  2  0  0  0
 16 18  1  0  0  0
 18 19  1  0  0  0
 18 24  1  0  0  0
 18 20  1  0  0  0
 20 21  1  0  0  0
 20 56  1  0  0  0
 20 57  1  0  0  0
 21 22  1  0  0  0
 21 58  1  0  0  0
 21 59  1  0  0  0
 22 23  1  0  0  0
 22 60  1  0  0  0
 22 61  1  0  0  0
 23 24  1  0  0  0
 23 25  1  0  0  0
 23 79  1  0  0  0
 24 62  1  0  0  0
 24 63  1  0  0  0
 25 26  1  0  0  0
 25 64  1  0  0  0
 25 65  1  0  0  0
 26 30  1  0  0  0
 26 27  2  0  0  0
 27 28  1  0  0  0
 28 29  2  0  0  0
 28 31  1  0  0  0
 29 30  1  0  0  0
 31 36  2  0  0  0
 31 32  1  0  0  0
 32 33  2  0  0  0
 32 66  1  0  0  0
 33 34  1  0  0  0
 33 67  1  0  0  0
 34 35  2  0  0  0
 34 37  1  0  0  0
 35 36  1  0  0  0
 35 68  1  0  0  0
 36 69  1  0  0  0
 37 38  1  0  0  0
 37 39  1  0  0  0
 37 40  1  0  0  0
 38 70  1  0  0  0
 38 71  1  0  0  0
 38 72  1  0  0  0
 39 73  1  0  0  0
 39 74  1  0  0  0
 39 75  1  0  0  0
 40 76  1  0  0  0
 40 77  1  0  0  0
 40 78  1  0  0  0
M  CHG  1  23   1
M  END
> <i_i_glide_confnum>
74

> <i_i_glide_lignum>
1099

> <i_i_glide_posenum>
302

> <i_i_glide_rotatable_bonds>
11

> <i_m_Source_File_Index>
4954

> <b_m_subgroup_collapsed>
0

> <r_i_docking_score>
-5.30704

> <r_i_glide_ecoul>
-7.48463

> <r_i_glide_eff_state_penalty>
0

> <r_i_glide_einternal>
7.93173

> <r_i_glide_emodel>
-60.045

> <r_i_glide_energy>
-45.7128

> <r_i_glide_erotb>
0.528819

> <r_i_glide_esite>
-0.0172145

> <r_i_glide_evdw>
-38.2282

> <r_i_glide_gscore>
-5.30704

> <r_i_glide_hbond>
-0.0616783

> <r_i_glide_ligand_efficiency>
-0.139659

> <r_i_glide_ligand_efficiency_ln>
-1.14435

> <r_i_glide_ligand_efficiency_sa>
-0.46953

> <r_i_glide_lipo>
-2.38139

> <r_i_glide_metal>
0

> <r_i_glide_rewards>
-0.341468

> <s_i_glide_gridfile>
wee1_glide-grid

> <s_m_Source_File>
wee1_decoys_glide_SP.sdf

> <s_m_Source_Path>
/Users/zhangxujun/Desktop

> <s_m_entry_id>
5229

> <s_m_entry_name>
wee1_decoys_glide_SP.4954

> <s_m_subgroup_title>
wee1_decoys_glide_SP

> <s_m_subgroupid>
wee1_decoys_glide_SP


$$$$
