ZINC19641783_2620
                    3D
 Schrodinger Suite 2024-2.
 62 65  0  0  1  0            999 V2000
    4.7044   54.4072   29.0960 C   0  0  0  0  0  0
    4.3232   54.4967   27.6123 C   0  0  2  0  0  0
    3.7177   55.3874   27.4949 H   0  0  0  0  0  0
    3.4893   53.2967   27.1830 C   0  0  0  0  0  0
    2.9150   53.4700   25.7638 C   0  0  0  0  0  0
    3.9882   53.9784   24.7785 C   0  0  0  0  0  0
    5.2020   54.4951   25.2655 C   0  0  0  0  0  0
    6.3044   54.8967   24.0017 S   0  0  0  0  0  0
    5.1491   54.4274   22.7782 C   0  0  0  0  0  0
    3.9613   53.9026   23.3450 C   0  0  0  0  0  0
    2.9013   53.3013   22.5262 C   0  0  0  0  0  0
    3.0781   53.0447   21.3341 O   0  0  0  0  0  0
    1.7361   53.0407   23.1446 N   0  0  0  0  0  0
    0.5786   52.3664   22.5492 C   0  0  0  0  0  0
    0.8172   50.8555   22.2907 C   0  0  0  0  0  0
    1.0230   50.0587   23.5968 C   0  0  0  0  0  0
   -0.1654   50.2400   24.5641 C   0  0  0  0  0  0
   -0.5225   51.7240   24.7948 C   0  0  0  0  0  0
   -0.6665   52.4967   23.4632 C   0  0  0  0  0  0
    5.3970   54.5776   21.4075 N   0  0  0  0  0  0
    6.4678   55.1062   20.7715 C   0  0  0  0  0  0
    7.4733   55.5294   21.3435 O   0  0  0  0  0  0
    6.4167   55.0855   19.2166 C   0  0  2  0  0  0
    5.7147   54.2818   18.9834 H   0  0  0  0  0  0
    7.7835   54.6961   18.5777 C   0  0  0  0  0  0
    7.7077   54.8073   17.0571 C   0  0  0  0  0  0
    6.7241   55.4448   16.3886 C   0  0  0  0  0  0
    5.5749   56.2003   17.0594 C   0  0  0  0  0  0
    5.8397   56.3960   18.5850 C   0  0  2  0  0  0
    4.8906   56.6757   19.0422 H   0  0  0  0  0  0
    6.7333   57.6414   18.8575 C   0  0  0  0  0  0
    6.7044   58.0967   20.0205 O   0  0  0  0  0  0
    7.5044   58.0609   17.9662 O   0  5  0  0  0  0
    5.5960   54.5961   26.7364 C   0  0  0  0  0  0
    5.2896   53.5065   29.2817 H   0  0  0  0  0  0
    5.3034   55.2642   29.4080 H   0  0  0  0  0  0
    3.8217   54.3728   29.7349 H   0  0  0  0  0  0
    4.1017   52.4080   27.2817 H   0  0  0  0  0  0
    2.6637   53.1425   27.8796 H   0  0  0  0  0  0
    2.0603   54.1449   25.7838 H   0  0  0  0  0  0
    2.5347   52.4967   25.4647 H   0  0  0  0  0  0
    1.7220   53.1249   24.1484 H   0  0  0  0  0  0
    0.3656   52.8705   21.6028 H   0  0  0  0  0  0
    1.6785   50.7167   21.6357 H   0  0  0  0  0  0
   -0.0306   50.4415   21.7431 H   0  0  0  0  0  0
    1.9440   50.3811   24.0817 H   0  0  0  0  0  0
    1.1580   49.0000   23.3713 H   0  0  0  0  0  0
    0.0524   49.7553   25.5174 H   0  0  0  0  0  0
   -1.0363   49.7229   24.1583 H   0  0  0  0  0  0
    0.2403   52.1918   25.4160 H   0  0  0  0  0  0
   -1.4495   51.7934   25.3655 H   0  0  0  0  0  0
   -1.5476   52.1364   22.9298 H   0  0  0  0  0  0
   -0.8629   53.5477   23.6817 H   0  0  0  0  0  0
    4.6424   54.2321   20.8270 H   0  0  0  0  0  0
    8.5813   55.3611   18.9143 H   0  0  0  0  0  0
    8.0840   53.6967   18.8817 H   0  0  0  0  0  0
    8.4837   54.3358   16.4717 H   0  0  0  0  0  0
    6.7707   55.4392   15.3095 H   0  0  0  0  0  0
    4.6604   55.6259   16.9099 H   0  0  0  0  0  0
    5.4134   57.1572   16.5590 H   0  0  0  0  0  0
    6.2757   53.7767   26.9775 H   0  0  0  0  0  0
    6.1337   55.5224   26.9417 H   0  0  0  0  0  0
  1  2  1  0  0  0
  1 35  1  0  0  0
  1 36  1  0  0  0
  1 37  1  0  0  0
  2  3  1  0  0  0
  2 34  1  0  0  0
  2  4  1  0  0  0
  4  5  1  0  0  0
  4 38  1  0  0  0
  4 39  1  0  0  0
  5  6  1  0  0  0
  5 40  1  0  0  0
  5 41  1  0  0  0
  6 10  1  0  0  0
  6  7  2  0  0  0
  7  8  1  0  0  0
  7 34  1  0  0  0
  8  9  1  0  0  0
  9 10  2  0  0  0
  9 20  1  0  0  0
 10 11  1  0  0  0
 11 12  2  0  0  0
 11 13  1  0  0  0
 13 14  1  0  0  0
 13 42  1  0  0  0
 14 19  1  0  0  0
 14 15  1  0  0  0
 14 43  1  0  0  0
 15 16  1  0  0  0
 15 44  1  0  0  0
 15 45  1  0  0  0
 16 17  1  0  0  0
 16 46  1  0  0  0
 16 47  1  0  0  0
 17 18  1  0  0  0
 17 48  1  0  0  0
 17 49  1  0  0  0
 18 19  1  0  0  0
 18 50  1  0  0  0
 18 51  1  0  0  0
 19 52  1  0  0  0
 19 53  1  0  0  0
 20 21  1  0  0  0
 20 54  1  0  0  0
 21 22  2  0  0  0
 21 23  1  0  0  0
 23 24  1  0  0  0
 23 29  1  0  0  0
 23 25  1  0  0  0
 25 26  1  0  0  0
 25 55  1  0  0  0
 25 56  1  0  0  0
 26 27  2  0  0  0
 26 57  1  0  0  0
 27 28  1  0  0  0
 27 58  1  0  0  0
 28 29  1  0  0  0
 28 59  1  0  0  0
 28 60  1  0  0  0
 29 30  1  0  0  0
 29 31  1  0  0  0
 31 32  2  0  0  0
 31 33  1  0  0  0
 34 61  1  0  0  0
 34 62  1  0  0  0
M  CHG  1  33  -1
M  END
> <i_i_glide_confnum>
516

> <i_i_glide_lignum>
2621

> <i_i_glide_posenum>
272

> <i_i_glide_rotatable_bonds>
7

> <i_m_Source_File_Index>
2860

> <b_m_subgroup_collapsed>
0

> <r_i_docking_score>
-5.58842

> <r_i_glide_ecoul>
-3.13566

> <r_i_glide_eff_state_penalty>
0

> <r_i_glide_einternal>
3.39178

> <r_i_glide_emodel>
-61.5214

> <r_i_glide_energy>
-43.0795

> <r_i_glide_erotb>
0.609652

> <r_i_glide_esite>
-0.0298299

> <r_i_glide_evdw>
-39.9439

> <r_i_glide_gscore>
-5.58842

> <r_i_glide_hbond>
-0.16

> <r_i_glide_ligand_efficiency>
-0.180272

> <r_i_glide_ligand_efficiency_ln>
-1.26036

> <r_i_glide_ligand_efficiency_sa>
-0.566302

> <r_i_glide_lipo>
-2.71246

> <r_i_glide_metal>
0

> <r_i_glide_rewards>
-0.828244

> <s_i_glide_gridfile>
wee1_glide-grid

> <s_m_Source_File>
wee1_decoys_glide_SP.sdf

> <s_m_Source_Path>
/Users/zhangxujun/Desktop

> <s_m_entry_id>
3135

> <s_m_entry_name>
wee1_decoys_glide_SP.2860

> <s_m_subgroup_title>
wee1_decoys_glide_SP

> <s_m_subgroupid>
wee1_decoys_glide_SP


$$$$
