ZINC20480364_3567
                    3D
 Schrodinger Suite 2024-2.
 30 32  0  0  1  0            999 V2000
   -0.8345   51.6282   26.7604 C   0  0  0  0  0  0
   -1.8474   51.2969   27.6564 C   0  0  0  0  0  0
   -3.1798   51.4042   27.2735 C   0  0  0  0  0  0
   -3.5100   51.8532   25.9977 C   0  0  0  0  0  0
   -2.5002   52.1969   25.1020 C   0  0  0  0  0  0
   -1.1511   52.0963   25.4736 C   0  0  0  0  0  0
   -0.0725   52.4967   24.4895 C   0  0  0  0  0  0
   -0.3138   52.4946   23.2808 O   0  0  0  0  0  0
    1.0934   52.8972   25.0461 N   0  0  0  0  0  0
    2.2479   53.3407   24.4227 C   0  0  0  0  0  0
    3.2599   53.7008   25.1578 N   0  0  0  0  0  0
    4.3139   54.0968   24.3959 C   0  0  0  0  0  0
    5.5537   54.5102   24.9018 C   0  0  0  0  0  0
    6.5423   54.8970   23.9939 C   0  0  0  0  0  0
    6.3182   54.8754   22.6159 C   0  0  0  0  0  0
    5.1028   54.4390   22.0878 C   0  0  0  0  0  0
    4.1012   54.0519   22.9898 C   0  0  0  0  0  0
    2.4760   53.4575   22.6811 S   0  0  0  0  0  0
    7.3290   55.2997   21.7577 N   0  0  0  0  0  0
   -4.6910   50.8990   28.6273 I   0  0  0  0  0  0
    0.1882   51.5018   27.0834 H   0  0  0  0  0  0
   -1.6000   50.9219   28.6399 H   0  0  0  0  0  0
   -4.5462   51.9303   25.7025 H   0  0  0  0  0  0
   -2.7760   52.5480   24.1195 H   0  0  0  0  0  0
    1.1359   52.8968   26.0520 H   0  0  0  0  0  0
    5.7368   54.5345   25.9652 H   0  0  0  0  0  0
    7.5021   55.2280   24.3689 H   0  0  0  0  0  0
    4.9288   54.4088   21.0232 H   0  0  0  0  0  0
    8.2517   55.4316   22.1531 H   0  0  0  0  0  0
    7.2093   55.2012   20.7596 H   0  0  0  0  0  0
  1  6  2  0  0  0
  1  2  1  0  0  0
  1 21  1  0  0  0
  2  3  2  0  0  0
  2 22  1  0  0  0
  3  4  1  0  0  0
  3 20  1  0  0  0
  4  5  2  0  0  0
  4 23  1  0  0  0
  5  6  1  0  0  0
  5 24  1  0  0  0
  6  7  1  0  0  0
  7  8  2  0  0  0
  7  9  1  0  0  0
  9 10  1  0  0  0
  9 25  1  0  0  0
 10 18  1  0  0  0
 10 11  2  0  0  0
 11 12  1  0  0  0
 12 17  2  0  0  0
 12 13  1  0  0  0
 13 14  2  0  0  0
 13 26  1  0  0  0
 14 15  1  0  0  0
 14 27  1  0  0  0
 15 16  2  0  0  0
 15 19  1  0  0  0
 16 17  1  0  0  0
 16 28  1  0  0  0
 17 18  1  0  0  0
 19 29  1  0  0  0
 19 30  1  0  0  0
M  END
> <i_i_glide_confnum>
1

> <i_i_glide_lignum>
3568

> <i_i_glide_posenum>
197

> <i_i_glide_rotatable_bonds>
3

> <i_m_Source_File_Index>
2511

> <b_m_subgroup_collapsed>
0

> <r_i_docking_score>
-4.47882

> <r_i_glide_ecoul>
-2.39782

> <r_i_glide_eff_state_penalty>
0

> <r_i_glide_einternal>
0.311361

> <r_i_glide_emodel>
-43.6774

> <r_i_glide_energy>
-32.9073

> <r_i_glide_erotb>
0.375536

> <r_i_glide_esite>
0

> <r_i_glide_evdw>
-30.5095

> <r_i_glide_gscore>
-4.47882

> <r_i_glide_hbond>
-0.264767

> <r_i_glide_ligand_efficiency>
-0.223941

> <r_i_glide_ligand_efficiency_ln>
-1.1209

> <r_i_glide_ligand_efficiency_sa>
-0.607869

> <r_i_glide_lipo>
-1.81971

> <r_i_glide_metal>
0

> <r_i_glide_rewards>
-0.884727

> <s_i_glide_gridfile>
wee1_glide-grid

> <s_m_Source_File>
wee1_decoys_glide_SP.sdf

> <s_m_Source_Path>
/Users/zhangxujun/Desktop

> <s_m_entry_id>
2786

> <s_m_entry_name>
wee1_decoys_glide_SP.2511

> <s_m_subgroup_title>
wee1_decoys_glide_SP

> <s_m_subgroupid>
wee1_decoys_glide_SP


$$$$
