ZINC09239324_55
                    3D
 Schrodinger Suite 2024-2.
 52 55  0  0  1  0            999 V2000
   -3.7612   46.6210   27.0707 C   0  0  0  0  0  0
   -2.4284   46.1951   26.4392 C   0  0  0  0  0  0
   -2.2295   46.7789   25.0477 C   0  0  0  0  0  0
   -2.3339   46.1004   23.9299 N   0  0  0  0  0  0
   -2.1477   47.0052   22.8835 N   0  0  0  0  0  0
   -1.9582   48.1915   23.4109 C   0  0  0  0  0  0
   -1.9664   48.1035   24.7787 N   0  0  0  0  0  0
   -1.8113   49.1410   25.6829 N   0  0  0  0  0  0
   -0.8102   50.1298   25.2758 C   0  0  1  0  0  0
    0.0944   49.5752   25.0121 H   0  0  0  0  0  0
   -1.3526   50.8402   23.9834 C   0  0  2  0  0  0
   -2.2635   51.3970   24.2080 H   0  0  0  0  0  0
   -1.7276   49.7184   22.5519 S   0  0  0  0  0  0
   -0.3384   51.8845   23.4615 C   0  0  0  0  0  0
   -0.5471   53.0781   23.6818 O   0  0  0  0  0  0
    0.7467   51.4061   22.8151 N   0  0  0  0  0  0
    1.8412   52.0907   22.2593 C   0  0  0  0  0  0
    2.3053   53.3102   22.7798 C   0  0  0  0  0  0
    3.4159   53.9413   22.2204 C   0  0  0  0  0  0
    4.0754   53.3567   21.1415 C   0  0  0  0  0  0
    3.6231   52.1458   20.6154 C   0  0  0  0  0  0
    2.5045   51.4993   21.1619 C   0  0  0  0  0  0
    2.0061   50.1797   20.5485 C   0  0  0  0  0  0
    2.0756   49.2094   21.4612 F   0  0  0  0  0  0
    0.7357   50.3098   20.1669 F   0  0  0  0  0  0
    2.7053   49.7967   19.4835 F   0  0  0  0  0  0
   -0.3715   51.0784   26.4234 C   0  0  0  0  0  0
   -1.1550   51.2968   27.5650 C   0  0  0  0  0  0
   -0.6838   52.0900   28.6129 C   0  0  0  0  0  0
    0.5737   52.7017   28.5312 C   0  0  0  0  0  0
    1.3384   52.5155   27.3852 C   0  0  0  0  0  0
    0.8711   51.7156   26.3494 C   0  0  0  0  0  0
    1.1353   53.4821   29.5238 O   0  0  0  0  0  0
    0.3923   53.7347   30.7089 C   0  0  0  0  0  0
   -3.8729   46.1822   28.0631 H   0  0  0  0  0  0
   -3.8203   47.7043   27.1873 H   0  0  0  0  0  0
   -4.6089   46.3016   26.4635 H   0  0  0  0  0  0
   -2.3888   45.1076   26.4353 H   0  0  0  0  0  0
   -1.6150   46.4951   27.0967 H   0  0  0  0  0  0
   -1.5510   48.7367   26.5859 H   0  0  0  0  0  0
    0.7287   50.4172   22.6114 H   0  0  0  0  0  0
    1.8224   53.7773   23.6244 H   0  0  0  0  0  0
    3.7548   54.8919   22.6129 H   0  0  0  0  0  0
    4.9321   53.8455   20.6995 H   0  0  0  0  0  0
    4.1473   51.7177   19.7701 H   0  0  0  0  0  0
   -2.1155   50.8141   27.6753 H   0  0  0  0  0  0
   -1.2973   52.1931   29.4949 H   0  0  0  0  0  0
    2.3092   52.9832   27.3069 H   0  0  0  0  0  0
    1.5023   51.5888   25.4833 H   0  0  0  0  0  0
    0.9990   54.3167   31.3994 H   0  0  0  0  0  0
   -0.4953   54.3251   30.4833 H   0  0  0  0  0  0
    0.1020   52.8155   31.2199 H   0  0  0  0  0  0
  1  2  1  0  0  0
  1 35  1  0  0  0
  1 36  1  0  0  0
  1 37  1  0  0  0
  2  3  1  0  0  0
  2 38  1  0  0  0
  2 39  1  0  0  0
  3  7  1  0  0  0
  3  4  2  0  0  0
  4  5  1  0  0  0
  5  6  2  0  0  0
  6 13  1  0  0  0
  6  7  1  0  0  0
  7  8  1  0  0  0
  8  9  1  0  0  0
  8 40  1  0  0  0
  9 10  1  0  0  0
  9 11  1  0  0  0
  9 27  1  0  0  0
 11 12  1  0  0  0
 11 13  1  0  0  0
 11 14  1  0  0  0
 14 15  2  0  0  0
 14 16  1  0  0  0
 16 17  1  0  0  0
 16 41  1  0  0  0
 17 22  2  0  0  0
 17 18  1  0  0  0
 18 19  2  0  0  0
 18 42  1  0  0  0
 19 20  1  0  0  0
 19 43  1  0  0  0
 20 21  2  0  0  0
 20 44  1  0  0  0
 21 22  1  0  0  0
 21 45  1  0  0  0
 22 23  1  0  0  0
 23 24  1  0  0  0
 23 25  1  0  0  0
 23 26  1  0  0  0
 27 32  2  0  0  0
 27 28  1  0  0  0
 28 29  2  0  0  0
 28 46  1  0  0  0
 29 30  1  0  0  0
 29 47  1  0  0  0
 30 31  2  0  0  0
 30 33  1  0  0  0
 31 32  1  0  0  0
 31 48  1  0  0  0
 32 49  1  0  0  0
 33 34  1  0  0  0
 34 50  1  0  0  0
 34 51  1  0  0  0
 34 52  1  0  0  0
M  END
> <i_i_glide_confnum>
15

> <i_i_glide_lignum>
56

> <i_i_glide_posenum>
172

> <i_i_glide_rotatable_bonds>
7

> <i_m_Source_File_Index>
5058

> <b_m_subgroup_collapsed>
0

> <r_i_docking_score>
-4.15546

> <r_i_glide_ecoul>
-6.34121

> <r_i_glide_eff_state_penalty>
0

> <r_i_glide_einternal>
10.6608

> <r_i_glide_emodel>
-46.3455

> <r_i_glide_energy>
-40.3796

> <r_i_glide_erotb>
0.375251

> <r_i_glide_esite>
-0.419127

> <r_i_glide_evdw>
-34.0384

> <r_i_glide_gscore>
-4.15546

> <r_i_glide_hbond>
-0.16

> <r_i_glide_ligand_efficiency>
-0.129858

> <r_i_glide_ligand_efficiency_ln>
-0.93052

> <r_i_glide_ligand_efficiency_sa>
-0.412274

> <r_i_glide_lipo>
-0.890143

> <r_i_glide_metal>
0

> <r_i_glide_rewards>
-0.408336

> <s_i_glide_gridfile>
wee1_glide-grid

> <s_m_Source_File>
wee1_decoys_glide_SP.sdf

> <s_m_Source_Path>
/Users/zhangxujun/Desktop

> <s_m_entry_id>
5333

> <s_m_entry_name>
wee1_decoys_glide_SP.5058

> <s_m_subgroup_title>
wee1_decoys_glide_SP

> <s_m_subgroupid>
wee1_decoys_glide_SP


$$$$
