ZINC43460889_3781
                    3D
 Schrodinger Suite 2024-2.
 36 39  0  0  1  0            999 V2000
    6.5196   54.8969   23.8275 C   0  0  0  0  0  0
    5.8753   54.7657   22.5965 C   0  0  0  0  0  0
    4.5650   54.2755   22.5619 C   0  0  0  0  0  0
    3.8491   53.9367   23.6700 N   0  0  0  0  0  0
    4.4981   54.0432   24.8351 C   0  0  0  0  0  0
    5.8184   54.4918   24.9686 C   0  0  0  0  0  0
    6.1659   54.4284   26.2805 N   0  5  0  0  0  0
    5.1025   53.8812   26.8378 C   0  0  0  0  0  0
    4.0494   53.7018   26.0662 N   0  0  0  0  0  0
    5.0487   53.6361   28.3430 C   0  0  2  0  0  0
    6.0604   53.5679   28.7450 H   0  0  0  0  0  0
    4.1347   52.4997   28.8728 C   0  0  0  0  0  0
    3.3067   53.0817   30.0268 C   0  0  2  0  0  0
    3.9200   53.0816   30.9301 H   0  0  0  0  0  0
    1.9631   52.3713   30.3183 C   0  0  0  0  0  0
    0.8345   52.6731   29.3171 C   0  0  0  0  0  0
    0.6590   54.1792   29.0878 C   0  0  0  0  0  0
    1.9682   54.8368   28.6322 C   0  0  0  0  0  0
    3.1339   54.5518   29.6051 C   0  0  2  0  0  0
    2.9855   55.1761   30.4816 H   0  0  0  0  0  0
    4.5038   54.8967   29.0150 N   0  3  0  0  0  0
    6.7251   55.3525   20.9997 Br  0  0  0  0  0  0
    7.5046   55.3085   23.8990 H   0  0  0  0  0  0
    4.0410   54.1941   21.6201 H   0  0  0  0  0  0
    3.4318   52.2362   28.0815 H   0  0  0  0  0  0
    4.6706   51.5934   29.1518 H   0  0  0  0  0  0
    2.1161   51.2981   30.3499 H   0  0  0  0  0  0
    1.6247   52.6466   31.3193 H   0  0  0  0  0  0
   -0.1000   52.2368   29.6743 H   0  0  0  0  0  0
    1.0478   52.1822   28.3654 H   0  0  0  0  0  0
    0.3063   54.6538   30.0047 H   0  0  0  0  0  0
   -0.1164   54.3452   28.3387 H   0  0  0  0  0  0
    1.8636   55.9080   28.4483 H   0  0  0  0  0  0
    2.1966   54.4146   27.6546 H   0  0  0  0  0  0
    5.1533   55.1978   29.7267 H   0  0  0  0  0  0
    4.4430   55.6428   28.3361 H   0  0  0  0  0  0
  1  2  2  0  0  0
  1 23  1  0  0  0
  1  6  1  0  0  0
  2  3  1  0  0  0
  2 22  1  0  0  0
  3 24  1  0  0  0
  3  4  2  0  0  0
  4  5  1  0  0  0
  5  9  1  0  0  0
  5  6  2  0  0  0
  6  7  1  0  0  0
  7  8  1  0  0  0
  8 10  1  0  0  0
  8  9  2  0  0  0
 10 11  1  0  0  0
 10 21  1  0  0  0
 10 12  1  0  0  0
 12 13  1  0  0  0
 12 25  1  0  0  0
 12 26  1  0  0  0
 13 14  1  0  0  0
 13 19  1  0  0  0
 13 15  1  0  0  0
 15 16  1  0  0  0
 15 27  1  0  0  0
 15 28  1  0  0  0
 16 17  1  0  0  0
 16 29  1  0  0  0
 16 30  1  0  0  0
 17 18  1  0  0  0
 17 31  1  0  0  0
 17 32  1  0  0  0
 18 19  1  0  0  0
 18 33  1  0  0  0
 18 34  1  0  0  0
 19 20  1  0  0  0
 19 21  1  0  0  0
 21 35  1  0  0  0
 21 36  1  0  0  0
M  CHG  2   7  -1  21   1
M  END
> <i_i_glide_confnum>
4

> <i_i_glide_lignum>
3782

> <i_i_glide_posenum>
118

> <i_i_glide_rotatable_bonds>
1

> <i_m_Source_File_Index>
4861

> <b_m_subgroup_collapsed>
0

> <r_i_docking_score>
-5.57305

> <r_i_glide_ecoul>
1.44976

> <r_i_glide_eff_state_penalty>
0

> <r_i_glide_einternal>
2.7476

> <r_i_glide_emodel>
-40.3361

> <r_i_glide_energy>
-29.6493

> <r_i_glide_erotb>
0.181078

> <r_i_glide_esite>
0

> <r_i_glide_evdw>
-31.099

> <r_i_glide_gscore>
-5.57305

> <r_i_glide_hbond>
0

> <r_i_glide_ligand_efficiency>
-0.293318

> <r_i_glide_ligand_efficiency_ln>
-1.41289

> <r_i_glide_ligand_efficiency_sa>
-0.782691

> <r_i_glide_lipo>
-2.41543

> <r_i_glide_metal>
0

> <r_i_glide_rewards>
-2.0012

> <s_i_glide_gridfile>
wee1_glide-grid

> <s_m_Source_File>
wee1_decoys_glide_SP.sdf

> <s_m_Source_Path>
/Users/zhangxujun/Desktop

> <s_m_entry_id>
5136

> <s_m_entry_name>
wee1_decoys_glide_SP.4861

> <s_m_subgroup_title>
wee1_decoys_glide_SP

> <s_m_subgroupid>
wee1_decoys_glide_SP


$$$$
