ZINC09254735_2277
                    3D
 Schrodinger Suite 2024-2.
 51 53  0  0  1  0            999 V2000
   -0.0780   51.4575   27.0694 C   0  0  0  0  0  0
    0.4230   52.0537   25.9127 C   0  0  0  0  0  0
    1.5437   52.8972   25.9658 C   0  0  0  0  0  0
    2.1398   53.1396   27.2155 C   0  0  0  0  0  0
    1.6502   52.5288   28.3781 C   0  0  0  0  0  0
    0.5331   51.6987   28.2972 C   0  0  0  0  0  0
    2.2202   52.7343   29.6116 O   0  0  0  0  0  0
    3.6200   52.5048   29.7026 C   0  0  0  0  0  0
    4.3042   53.6179   29.4378 F   0  0  0  0  0  0
    3.9049   52.0965   30.9389 F   0  0  0  0  0  0
    2.0854   53.5123   24.6944 C   0  0  0  0  0  0
    1.3216   53.7817   23.7667 O   0  0  0  0  0  0
    3.4254   53.6976   24.6709 N   0  0  0  0  0  0
    4.2617   54.0760   23.6030 C   0  0  0  0  0  0
    5.5772   54.4104   23.9358 C   0  0  0  0  0  0
    6.4667   54.8321   22.9494 C   0  0  0  0  0  0
    6.0492   54.9092   21.6182 C   0  0  0  0  0  0
    4.7559   54.4979   21.2731 C   0  0  0  0  0  0
    3.8644   54.0886   22.2589 C   0  0  0  0  0  0
    7.1242   55.6971   20.3973 S   0  0  0  0  0  0
    6.7042   57.0983   20.4816 O   0  0  0  0  0  0
    8.4825   55.4367   20.8898 O   0  0  0  0  0  0
    6.6106   54.7887   18.9709 N   0  0  0  0  0  0
    7.4683   54.4151   18.1080 C   0  0  0  0  0  0
    8.8170   54.7346   18.1893 N   0  0  0  0  0  0
    9.9834   54.0948   17.5919 C   0  0  0  0  0  0
   10.1069   54.2790   16.0691 C   0  0  0  0  0  0
    9.0451   53.5697   15.2177 C   0  0  0  0  0  0
    7.5917   53.9611   15.5195 C   0  0  0  0  0  0
    7.0790   53.5406   16.9150 C   0  0  0  0  0  0
   -0.9337   50.7962   27.0190 H   0  0  0  0  0  0
   -0.0614   51.8445   24.9687 H   0  0  0  0  0  0
    2.9867   53.8038   27.2982 H   0  0  0  0  0  0
    0.1416   51.2311   29.1879 H   0  0  0  0  0  0
    3.9697   51.7130   29.0357 H   0  0  0  0  0  0
    3.9084   53.4976   25.5313 H   0  0  0  0  0  0
    5.9103   54.3788   24.9634 H   0  0  0  0  0  0
    7.4619   55.1470   23.2275 H   0  0  0  0  0  0
    4.4081   54.5555   20.2517 H   0  0  0  0  0  0
    2.8703   53.8072   21.9496 H   0  0  0  0  0  0
   10.8970   54.4209   18.0914 H   0  0  0  0  0  0
    9.8882   53.0283   17.8038 H   0  0  0  0  0  0
   10.1060   55.3474   15.8403 H   0  0  0  0  0  0
   11.0897   53.9192   15.7606 H   0  0  0  0  0  0
    9.2512   53.7761   14.1653 H   0  0  0  0  0  0
    9.1555   52.4888   15.3289 H   0  0  0  0  0  0
    6.9538   53.4947   14.7669 H   0  0  0  0  0  0
    7.4581   55.0353   15.3792 H   0  0  0  0  0  0
    7.3381   52.5017   17.1221 H   0  0  0  0  0  0
    5.9884   53.5242   16.8583 H   0  0  0  0  0  0
    9.0559   55.1376   19.0903 H   0  0  0  0  0  0
  1  6  2  0  0  0
  1  2  1  0  0  0
  1 31  1  0  0  0
  2  3  2  0  0  0
  2 32  1  0  0  0
  3  4  1  0  0  0
  3 11  1  0  0  0
  4  5  2  0  0  0
  4 33  1  0  0  0
  5  6  1  0  0  0
  5  7  1  0  0  0
  6 34  1  0  0  0
  7  8  1  0  0  0
  8  9  1  0  0  0
  8 10  1  0  0  0
  8 35  1  0  0  0
 11 12  2  0  0  0
 11 13  1  0  0  0
 13 14  1  0  0  0
 13 36  1  0  0  0
 14 19  2  0  0  0
 14 15  1  0  0  0
 15 16  2  0  0  0
 15 37  1  0  0  0
 16 17  1  0  0  0
 16 38  1  0  0  0
 17 18  2  0  0  0
 17 20  1  0  0  0
 18 19  1  0  0  0
 18 39  1  0  0  0
 19 40  1  0  0  0
 20 21  2  0  0  0
 20 22  2  0  0  0
 20 23  1  0  0  0
 23 24  2  0  0  0
 24 30  1  0  0  0
 24 25  1  0  0  0
 25 26  1  0  0  0
 25 51  1  0  0  0
 26 27  1  0  0  0
 26 41  1  0  0  0
 26 42  1  0  0  0
 27 28  1  0  0  0
 27 43  1  0  0  0
 27 44  1  0  0  0
 28 29  1  0  0  0
 28 45  1  0  0  0
 28 46  1  0  0  0
 29 30  1  0  0  0
 29 47  1  0  0  0
 29 48  1  0  0  0
 30 49  1  0  0  0
 30 50  1  0  0  0
M  END
> <i_i_glide_confnum>
55

> <i_i_glide_lignum>
2278

> <i_i_glide_posenum>
316

> <i_i_glide_rotatable_bonds>
7

> <i_m_Source_File_Index>
3976

> <b_m_subgroup_collapsed>
0

> <r_i_docking_score>
-5.3133

> <r_i_glide_ecoul>
-8.47773

> <r_i_glide_eff_state_penalty>
0

> <r_i_glide_einternal>
10.1638

> <r_i_glide_emodel>
-58.6196

> <r_i_glide_energy>
-51.1977

> <r_i_glide_erotb>
0.625217

> <r_i_glide_esite>
-0.0675161

> <r_i_glide_evdw>
-42.72

> <r_i_glide_gscore>
-5.3133

> <r_i_glide_hbond>
0

> <r_i_glide_ligand_efficiency>
-0.17711

> <r_i_glide_ligand_efficiency_ln>
-1.20724

> <r_i_glide_ligand_efficiency_sa>
-0.550322

> <r_i_glide_lipo>
-2.20245

> <r_i_glide_metal>
0

> <r_i_glide_rewards>
-0.260894

> <s_i_glide_gridfile>
wee1_glide-grid

> <s_m_Source_File>
wee1_decoys_glide_SP.sdf

> <s_m_Source_Path>
/Users/zhangxujun/Desktop

> <s_m_entry_id>
4251

> <s_m_entry_name>
wee1_decoys_glide_SP.3976

> <s_m_subgroup_title>
wee1_decoys_glide_SP

> <s_m_subgroupid>
wee1_decoys_glide_SP


$$$$
