ZINC35523524_6045
                    3D
 Schrodinger Suite 2024-2.
 66 70  0  0  1  0            999 V2000
    5.5805   53.5184   28.1511 C   0  0  0  0  0  0
    4.4286   54.3926   27.6132 C   0  0  1  0  0  0
    4.4807   55.3063   28.1993 H   0  0  0  0  0  0
    4.6123   54.8519   26.1521 C   0  0  0  0  0  0
    4.7256   53.6974   25.1454 C   0  0  0  0  0  0
    5.0890   54.1281   23.7336 C   0  0  0  0  0  0
    6.3633   54.6418   23.4725 C   0  0  0  0  0  0
    6.7036   55.0368   22.1827 C   0  0  0  0  0  0
    5.7763   54.8971   21.1517 C   0  0  0  0  0  0
    4.5097   54.3726   21.4015 C   0  0  0  0  0  0
    4.1613   53.9949   22.6963 C   0  0  0  0  0  0
    3.1115   53.8010   27.8789 N   0  0  0  0  0  0
    2.5609   53.8016   29.1067 C   0  0  0  0  0  0
    3.1038   54.3218   30.0816 O   0  0  0  0  0  0
    1.3147   53.1106   29.2726 C   0  0  0  0  0  0
    0.6570   52.7908   30.4508 C   0  0  0  0  0  0
   -0.4835   52.0965   30.0879 C   0  0  0  0  0  0
   -0.4975   52.0154   28.7074 C   0  0  0  0  0  0
    0.5876   52.6706   28.2018 O   0  0  0  0  0  0
   -1.5187   51.4047   27.7693 C   0  0  0  0  0  0
   -0.9925   51.0329   26.3510 N   0  3  1  0  0  0
    0.2075   50.0527   26.4243 C   0  0  0  0  0  0
    0.7923   49.8634   25.0117 C   0  0  0  0  0  0
   -0.2570   49.5783   24.0432 N   0  0  0  0  0  0
   -0.0667   49.1269   22.7590 C   0  0  0  0  0  0
   -1.2833   49.0570   22.1118 C   0  0  0  0  0  0
   -2.2356   49.5088   23.0225 C   0  0  0  0  0  0
   -1.6059   49.8430   24.2219 C   0  0  0  0  0  0
   -2.1595   50.3911   25.5379 C   0  0  2  0  0  0
   -2.5153   49.5622   26.1572 H   0  0  0  0  0  0
   -3.2830   51.4134   25.3350 C   0  0  0  0  0  0
   -4.5515   51.1541   25.8699 C   0  0  0  0  0  0
   -5.5809   52.0796   25.7104 C   0  0  0  0  0  0
   -5.3524   53.2684   25.0227 C   0  0  0  0  0  0
   -4.0957   53.5344   24.4859 C   0  0  0  0  0  0
   -3.0620   52.6123   24.6398 C   0  0  0  0  0  0
   -1.8438   52.8963   24.1242 F   0  0  0  0  0  0
   -6.3544   54.1631   24.8813 F   0  0  0  0  0  0
    6.5490   53.9214   27.8586 H   0  0  0  0  0  0
    5.5775   53.4926   29.2432 H   0  0  0  0  0  0
    5.5255   52.4968   27.7826 H   0  0  0  0  0  0
    3.7847   55.5017   25.8634 H   0  0  0  0  0  0
    5.5079   55.4720   26.0952 H   0  0  0  0  0  0
    5.5104   53.0261   25.4839 H   0  0  0  0  0  0
    3.8019   53.1173   25.1414 H   0  0  0  0  0  0
    7.0921   54.7394   24.2635 H   0  0  0  0  0  0
    7.6874   55.4369   21.9834 H   0  0  0  0  0  0
    6.0443   55.1952   20.1485 H   0  0  0  0  0  0
    3.7968   54.2699   20.5957 H   0  0  0  0  0  0
    3.1765   53.5943   22.8863 H   0  0  0  0  0  0
    2.5798   53.4510   27.0951 H   0  0  0  0  0  0
    0.9769   53.0171   31.4601 H   0  0  0  0  0  0
   -1.2203   51.6837   30.7658 H   0  0  0  0  0  0
   -1.9462   50.4967   28.1937 H   0  0  0  0  0  0
   -2.3438   52.0965   27.6194 H   0  0  0  0  0  0
    0.9625   50.4952   27.0729 H   0  0  0  0  0  0
   -0.1187   49.1143   26.8740 H   0  0  0  0  0  0
    1.3190   50.7566   24.6801 H   0  0  0  0  0  0
    1.5042   49.0409   25.0037 H   0  0  0  0  0  0
    0.9319   48.8969   22.4156 H   0  0  0  0  0  0
   -1.4620   48.7298   21.0977 H   0  0  0  0  0  0
   -3.2950   49.5963   22.8310 H   0  0  0  0  0  0
   -4.7424   50.2372   26.4099 H   0  0  0  0  0  0
   -6.5596   51.8773   26.1223 H   0  0  0  0  0  0
   -3.9205   54.4574   23.9530 H   0  0  0  0  0  0
   -0.7006   51.8879   25.8968 H   0  0  0  0  0  0
  1  2  1  0  0  0
  1 39  1  0  0  0
  1 40  1  0  0  0
  1 41  1  0  0  0
  2  3  1  0  0  0
  2  4  1  0  0  0
  2 12  1  0  0  0
  4  5  1  0  0  0
  4 42  1  0  0  0
  4 43  1  0  0  0
  5  6  1  0  0  0
  5 44  1  0  0  0
  5 45  1  0  0  0
  6 11  2  0  0  0
  6  7  1  0  0  0
  7  8  2  0  0  0
  7 46  1  0  0  0
  8  9  1  0  0  0
  8 47  1  0  0  0
  9 10  2  0  0  0
  9 48  1  0  0  0
 10 11  1  0  0  0
 10 49  1  0  0  0
 11 50  1  0  0  0
 12 13  1  0  0  0
 12 51  1  0  0  0
 13 14  2  0  0  0
 13 15  1  0  0  0
 15 19  1  0  0  0
 15 16  2  0  0  0
 16 17  1  0  0  0
 16 52  1  0  0  0
 17 18  2  0  0  0
 17 53  1  0  0  0
 18 19  1  0  0  0
 18 20  1  0  0  0
 20 21  1  0  0  0
 20 54  1  0  0  0
 20 55  1  0  0  0
 21 29  1  0  0  0
 21 22  1  0  0  0
 21 66  1  0  0  0
 22 23  1  0  0  0
 22 56  1  0  0  0
 22 57  1  0  0  0
 23 24  1  0  0  0
 23 58  1  0  0  0
 23 59  1  0  0  0
 24 28  1  0  0  0
 24 25  1  0  0  0
 25 26  2  0  0  0
 25 60  1  0  0  0
 26 27  1  0  0  0
 26 61  1  0  0  0
 27 28  2  0  0  0
 27 62  1  0  0  0
 28 29  1  0  0  0
 29 30  1  0  0  0
 29 31  1  0  0  0
 31 36  2  0  0  0
 31 32  1  0  0  0
 32 33  2  0  0  0
 32 63  1  0  0  0
 33 34  1  0  0  0
 33 64  1  0  0  0
 34 35  2  0  0  0
 34 38  1  0  0  0
 35 36  1  0  0  0
 35 65  1  0  0  0
 36 37  1  0  0  0
M  CHG  1  21   1
M  END
> <i_i_glide_confnum>
48

> <i_i_glide_lignum>
6046

> <i_i_glide_posenum>
332

> <i_i_glide_rotatable_bonds>
9

> <i_m_Source_File_Index>
1724

> <b_m_subgroup_collapsed>
0

> <r_i_docking_score>
-6.28708

> <r_i_glide_ecoul>
-7.84848

> <r_i_glide_eff_state_penalty>
0

> <r_i_glide_einternal>
7.56554

> <r_i_glide_emodel>
-66.9236

> <r_i_glide_energy>
-49.4171

> <r_i_glide_erotb>
0.676539

> <r_i_glide_esite>
-0.0882244

> <r_i_glide_evdw>
-41.5686

> <r_i_glide_gscore>
-6.28708

> <r_i_glide_hbond>
-0.32

> <r_i_glide_ligand_efficiency>
-0.174641

> <r_i_glide_ligand_efficiency_ln>
-1.37167

> <r_i_glide_ligand_efficiency_sa>
-0.576652

> <r_i_glide_lipo>
-2.79089

> <r_i_glide_metal>
0

> <r_i_glide_rewards>
-0.508798

> <s_i_glide_gridfile>
wee1_glide-grid

> <s_m_Source_File>
wee1_decoys_glide_SP.sdf

> <s_m_Source_Path>
/Users/zhangxujun/Desktop

> <s_m_entry_id>
1999

> <s_m_entry_name>
wee1_decoys_glide_SP.1724

> <s_m_subgroup_title>
wee1_decoys_glide_SP

> <s_m_subgroupid>
wee1_decoys_glide_SP


$$$$
