ZINC16609134_6103
                    3D
 Schrodinger Suite 2024-2.
 55 57  0  0  1  0            999 V2000
    6.7945   55.6230   24.8109 C   0  0  0  0  0  0
    6.2717   54.1778   24.8612 C   0  0  0  0  0  0
    4.7799   54.0842   24.8564 N   0  0  0  0  0  0
    4.0481   53.9086   26.0359 C   0  0  0  0  0  0
    2.6939   53.7175   26.0235 C   0  0  0  0  0  0
    1.8811   53.6668   24.7048 C   0  0  1  0  0  0
    1.1051   54.4310   24.7587 H   0  0  0  0  0  0
    2.7854   54.0963   23.6188 N   0  0  0  0  0  0
    4.1493   54.0967   23.6120 C   0  0  0  0  0  0
    4.8318   54.0967   22.0818 S   0  0  0  0  0  0
    1.1366   52.3527   24.4004 C   0  0  0  0  0  0
   -0.1666   52.1587   24.8703 C   0  0  0  0  0  0
   -0.8749   51.0042   24.5420 C   0  0  0  0  0  0
   -0.2911   50.0337   23.7145 C   0  0  0  0  0  0
    1.0105   50.2195   23.2498 C   0  0  0  0  0  0
    1.7088   51.3774   23.5741 C   0  0  0  0  0  0
   -0.9288   48.8459   23.3134 N   0  0  0  0  0  0
   -2.2515   48.5839   23.2241 C   0  0  0  0  0  0
   -3.1443   49.3710   23.5401 O   0  0  0  0  0  0
   -2.6115   47.2160   22.6889 C   0  0  0  0  0  0
   -3.7970   46.5928   23.1074 C   0  0  0  0  0  0
   -4.1598   45.3411   22.6086 C   0  0  0  0  0  0
   -3.3437   44.6958   21.6819 C   0  0  0  0  0  0
   -2.1610   45.2983   21.2581 C   0  0  0  0  0  0
   -1.8025   46.5546   21.7487 C   0  0  0  0  0  0
   -1.1398   44.4848   20.1307 Cl  0  0  0  0  0  0
   -5.6091   44.5800   23.1514 Cl  0  0  0  0  0  0
    1.9214   53.5267   27.2597 C   0  0  0  0  0  0
    1.3731   52.4654   27.5575 O   0  0  0  0  0  0
    1.8631   54.6582   28.0007 O   0  0  0  0  0  0
    1.1337   54.7026   29.2178 C   0  0  0  0  0  0
    1.2972   56.0953   29.8383 C   0  0  0  0  0  0
    4.8787   53.9434   27.3378 C   0  0  0  0  0  0
    7.8810   55.6402   24.8813 H   0  0  0  0  0  0
    6.5347   56.1012   23.8678 H   0  0  0  0  0  0
    6.3994   56.2236   25.6287 H   0  0  0  0  0  0
    6.7063   53.6782   25.7239 H   0  0  0  0  0  0
    6.7125   53.6097   24.0413 H   0  0  0  0  0  0
    2.3916   54.1948   22.6928 H   0  0  0  0  0  0
   -0.6334   52.8969   25.5051 H   0  0  0  0  0  0
   -1.8672   50.8781   24.9472 H   0  0  0  0  0  0
    1.4852   49.4819   22.6184 H   0  0  0  0  0  0
    2.7031   51.5074   23.1741 H   0  0  0  0  0  0
   -0.3065   48.1174   23.0069 H   0  0  0  0  0  0
   -4.4449   47.0798   23.8238 H   0  0  0  0  0  0
   -3.6287   43.7294   21.2923 H   0  0  0  0  0  0
   -0.8955   47.0092   21.3787 H   0  0  0  0  0  0
    0.0796   54.4949   29.0263 H   0  0  0  0  0  0
    1.4996   53.9386   29.9060 H   0  0  0  0  0  0
    0.7155   56.1873   30.7559 H   0  0  0  0  0  0
    2.3386   56.2989   30.0817 H   0  0  0  0  0  0
    0.9667   56.8755   29.1527 H   0  0  0  0  0  0
    4.2924   53.9268   28.2541 H   0  0  0  0  0  0
    5.5302   53.0703   27.3937 H   0  0  0  0  0  0
    5.4881   54.8457   27.3934 H   0  0  0  0  0  0
  1  2  1  0  0  0
  1 34  1  0  0  0
  1 35  1  0  0  0
  1 36  1  0  0  0
  2  3  1  0  0  0
  2 37  1  0  0  0
  2 38  1  0  0  0
  3  9  1  0  0  0
  3  4  1  0  0  0
  4  5  2  0  0  0
  4 33  1  0  0  0
  5  6  1  0  0  0
  5 28  1  0  0  0
  6  7  1  0  0  0
  6  8  1  0  0  0
  6 11  1  0  0  0
  8  9  1  0  0  0
  8 39  1  0  0  0
  9 10  2  0  0  0
 11 16  2  0  0  0
 11 12  1  0  0  0
 12 13  2  0  0  0
 12 40  1  0  0  0
 13 14  1  0  0  0
 13 41  1  0  0  0
 14 15  2  0  0  0
 14 17  1  0  0  0
 15 16  1  0  0  0
 15 42  1  0  0  0
 16 43  1  0  0  0
 17 18  1  0  0  0
 17 44  1  0  0  0
 18 19  2  0  0  0
 18 20  1  0  0  0
 20 25  2  0  0  0
 20 21  1  0  0  0
 21 22  2  0  0  0
 21 45  1  0  0  0
 22 23  1  0  0  0
 22 27  1  0  0  0
 23 24  2  0  0  0
 23 46  1  0  0  0
 24 25  1  0  0  0
 24 26  1  0  0  0
 25 47  1  0  0  0
 28 29  2  0  0  0
 28 30  1  0  0  0
 30 31  1  0  0  0
 31 32  1  0  0  0
 31 48  1  0  0  0
 31 49  1  0  0  0
 32 50  1  0  0  0
 32 51  1  0  0  0
 32 52  1  0  0  0
 33 53  1  0  0  0
 33 54  1  0  0  0
 33 55  1  0  0  0
M  END
> <i_i_glide_confnum>
67

> <i_i_glide_lignum>
6104

> <i_i_glide_posenum>
373

> <i_i_glide_rotatable_bonds>
8

> <i_m_Source_File_Index>
2020

> <b_m_subgroup_collapsed>
0

> <r_i_docking_score>
-5.05759

> <r_i_glide_ecoul>
0.358464

> <r_i_glide_eff_state_penalty>
0

> <r_i_glide_einternal>
5.48324

> <r_i_glide_emodel>
-53.3676

> <r_i_glide_energy>
-41.8183

> <r_i_glide_erotb>
0.503912

> <r_i_glide_esite>
-0.00435234

> <r_i_glide_evdw>
-42.1768

> <r_i_glide_gscore>
-5.05759

> <r_i_glide_hbond>
0

> <r_i_glide_ligand_efficiency>
-0.15805

> <r_i_glide_ligand_efficiency_ln>
-1.13253

> <r_i_glide_ligand_efficiency_sa>
-0.501777

> <r_i_glide_lipo>
-2.36964

> <r_i_glide_metal>
0

> <r_i_glide_rewards>
-1.13244

> <s_i_glide_gridfile>
wee1_glide-grid

> <s_m_Source_File>
wee1_decoys_glide_SP.sdf

> <s_m_Source_Path>
/Users/zhangxujun/Desktop

> <s_m_entry_id>
2295

> <s_m_entry_name>
wee1_decoys_glide_SP.2020

> <s_m_subgroup_title>
wee1_decoys_glide_SP

> <s_m_subgroupid>
wee1_decoys_glide_SP


$$$$
