ZINC00647518_579
                    3D
 Schrodinger Suite 2024-2.
 51 54  0  0  1  0            999 V2000
    6.0945   54.1387   26.3260 C   0  0  0  0  0  0
    5.9010   54.2347   27.7043 C   0  0  0  0  0  0
    4.6071   54.3191   28.2105 C   0  0  0  0  0  0
    3.5101   54.3062   27.3588 C   0  0  0  0  0  0
    3.7033   54.2137   25.9870 C   0  0  0  0  0  0
    4.9973   54.1385   25.4494 C   0  0  0  0  0  0
    5.2354   54.0016   23.9320 C   0  0  1  0  0  0
    5.5831   52.9762   23.8339 H   0  0  0  0  0  0
    3.9448   54.1207   23.0693 C   0  0  0  0  0  0
    4.1486   53.9935   21.5423 C   0  0  1  0  0  0
    3.3267   54.4963   21.0402 H   0  0  0  0  0  0
    5.3663   54.7308   21.2094 N   0  0  0  0  0  0
    6.4012   55.0639   22.0602 C   0  0  0  0  0  0
    7.3355   55.6926   21.2600 C   0  0  0  0  0  0
    6.8175   55.6842   19.9533 C   0  0  0  0  0  0
    5.6388   55.0914   19.9466 N   0  0  0  0  0  0
    7.4586   56.2704   18.7942 C   0  0  0  0  0  0
    8.5157   56.8964   18.8813 O   0  0  0  0  0  0
    6.7962   56.0954   17.6373 N   0  0  0  0  0  0
    7.1534   56.6938   16.3505 C   0  0  0  0  0  0
    6.5264   55.8883   15.1871 C   0  0  0  0  0  0
    4.9777   55.9153   15.2168 C   0  0  0  0  0  0
    4.4366   57.3652   15.2209 C   0  0  0  0  0  0
    5.1064   58.2531   16.2950 C   0  0  0  0  0  0
    6.6488   58.1545   16.2298 C   0  0  0  0  0  0
    6.3219   54.8491   23.4186 N   0  0  0  0  0  0
    4.1270   52.5380   21.0228 C   0  0  0  0  0  0
    2.9814   51.9282   21.3356 F   0  0  0  0  0  0
    4.2430   52.4967   19.6966 F   0  0  0  0  0  0
    5.1043   51.8059   21.5500 F   0  0  0  0  0  0
    4.3036   54.4494   30.0800 Br  0  0  0  0  0  0
    7.0994   54.0567   25.9458 H   0  0  0  0  0  0
    6.7497   54.2465   28.3734 H   0  0  0  0  0  0
    2.5086   54.3691   27.7591 H   0  0  0  0  0  0
    2.8256   54.2070   25.3665 H   0  0  0  0  0  0
    3.4527   55.0726   23.2672 H   0  0  0  0  0  0
    3.2170   53.3714   23.3797 H   0  0  0  0  0  0
    8.2830   56.0998   21.5789 H   0  0  0  0  0  0
    5.8693   55.6963   17.6920 H   0  0  0  0  0  0
    8.2404   56.6593   16.2474 H   0  0  0  0  0  0
    6.8773   54.8555   15.2178 H   0  0  0  0  0  0
    6.8793   56.2893   14.2361 H   0  0  0  0  0  0
    4.6128   55.3846   16.0992 H   0  0  0  0  0  0
    4.5803   55.3700   14.3600 H   0  0  0  0  0  0
    3.3538   57.3606   15.3605 H   0  0  0  0  0  0
    4.6088   57.8091   14.2388 H   0  0  0  0  0  0
    4.7573   57.9584   17.2863 H   0  0  0  0  0  0
    4.7964   59.2923   16.1666 H   0  0  0  0  0  0
    7.0050   58.5904   15.2948 H   0  0  0  0  0  0
    7.0848   58.7669   17.0219 H   0  0  0  0  0  0
    7.1849   54.7131   23.9257 H   0  0  0  0  0  0
  1  6  2  0  0  0
  1  2  1  0  0  0
  1 32  1  0  0  0
  2  3  2  0  0  0
  2 33  1  0  0  0
  3  4  1  0  0  0
  3 31  1  0  0  0
  4  5  2  0  0  0
  4 34  1  0  0  0
  5  6  1  0  0  0
  5 35  1  0  0  0
  6  7  1  0  0  0
  7  8  1  0  0  0
  7 26  1  0  0  0
  7  9  1  0  0  0
  9 10  1  0  0  0
  9 36  1  0  0  0
  9 37  1  0  0  0
 10 11  1  0  0  0
 10 12  1  0  0  0
 10 27  1  0  0  0
 12 16  1  0  0  0
 12 13  1  0  0  0
 13 14  2  0  0  0
 13 26  1  0  0  0
 14 15  1  0  0  0
 14 38  1  0  0  0
 15 16  2  0  0  0
 15 17  1  0  0  0
 17 18  2  0  0  0
 17 19  1  0  0  0
 19 20  1  0  0  0
 19 39  1  0  0  0
 20 25  1  0  0  0
 20 21  1  0  0  0
 20 40  1  0  0  0
 21 22  1  0  0  0
 21 41  1  0  0  0
 21 42  1  0  0  0
 22 23  1  0  0  0
 22 43  1  0  0  0
 22 44  1  0  0  0
 23 24  1  0  0  0
 23 45  1  0  0  0
 23 46  1  0  0  0
 24 25  1  0  0  0
 24 47  1  0  0  0
 24 48  1  0  0  0
 25 49  1  0  0  0
 25 50  1  0  0  0
 26 51  1  0  0  0
 27 28  1  0  0  0
 27 29  1  0  0  0
 27 30  1  0  0  0
M  END
> <i_i_glide_confnum>
62

> <i_i_glide_lignum>
580

> <i_i_glide_posenum>
336

> <i_i_glide_rotatable_bonds>
5

> <i_m_Source_File_Index>
4170

> <b_m_subgroup_collapsed>
0

> <r_i_docking_score>
-5.30704

> <r_i_glide_ecoul>
-2.17114

> <r_i_glide_eff_state_penalty>
0

> <r_i_glide_einternal>
4.62561

> <r_i_glide_emodel>
-51.7317

> <r_i_glide_energy>
-40.1736

> <r_i_glide_erotb>
0.363949

> <r_i_glide_esite>
-0.0679531

> <r_i_glide_evdw>
-38.0024

> <r_i_glide_gscore>
-5.30704

> <r_i_glide_hbond>
0

> <r_i_glide_ligand_efficiency>
-0.183001

> <r_i_glide_ligand_efficiency_ln>
-1.21518

> <r_i_glide_ligand_efficiency_sa>
-0.562239

> <r_i_glide_lipo>
-2.83906

> <r_i_glide_metal>
0

> <r_i_glide_rewards>
-0.538189

> <s_i_glide_gridfile>
wee1_glide-grid

> <s_m_Source_File>
wee1_decoys_glide_SP.sdf

> <s_m_Source_Path>
/Users/zhangxujun/Desktop

> <s_m_entry_id>
4445

> <s_m_entry_name>
wee1_decoys_glide_SP.4170

> <s_m_subgroup_title>
wee1_decoys_glide_SP

> <s_m_subgroupid>
wee1_decoys_glide_SP


$$$$
