ZINC13202573_5933
                    3D
 Schrodinger Suite 2024-2.
 56 59  0  0  1  0            999 V2000
    7.1042   55.4684   22.5273 C   0  0  0  0  0  0
    6.6171   54.1263   23.0885 C   0  0  0  0  0  0
    5.5359   54.2287   24.0964 N   0  0  0  0  0  0
    5.9599   54.4981   25.3835 C   0  0  0  0  0  0
    7.1044   54.8368   25.6818 O   0  0  0  0  0  0
    4.8721   54.3565   26.4174 C   0  0  0  0  0  0
    5.1540   54.4946   27.7785 C   0  0  0  0  0  0
    4.1215   54.3421   28.6999 C   0  0  0  0  0  0
    2.8064   54.0686   28.2835 C   0  0  0  0  0  0
    2.5477   53.9553   26.9051 C   0  0  0  0  0  0
    3.5764   54.0979   25.9804 C   0  0  0  0  0  0
    3.2692   54.0501   24.6182 N   0  0  0  0  0  0
    4.1996   54.0933   23.7359 C   0  0  0  0  0  0
    3.6261   54.0966   22.0313 S   0  0  0  0  0  0
    4.0478   52.4194   21.4519 C   0  0  0  0  0  0
    2.7827   51.5737   21.3123 C   0  0  0  0  0  0
    1.8897   51.9311   20.5465 O   0  0  0  0  0  0
    2.7041   50.4731   22.0817 N   0  0  0  0  0  0
    1.5302   49.6159   22.3007 C   0  0  1  0  0  0
    1.9559   48.7331   22.7764 H   0  0  0  0  0  0
    0.5777   50.2195   23.3478 C   0  0  0  0  0  0
    0.4664   49.6243   24.6115 C   0  0  0  0  0  0
   -0.3422   50.1957   25.5902 C   0  0  0  0  0  0
   -1.0414   51.3727   25.3171 C   0  0  0  0  0  0
   -0.9609   51.9554   24.0511 C   0  0  0  0  0  0
   -0.1598   51.3766   23.0698 C   0  0  0  0  0  0
   -1.9014   52.0050   26.3958 C   0  0  0  0  0  0
    0.8957   49.0948   21.0065 C   0  0  0  0  0  0
    1.5373   48.6841   19.8325 C   0  0  0  0  0  0
    0.6838   48.2472   18.8160 C   0  0  0  0  0  0
   -0.6442   48.2956   19.1903 C   0  0  0  0  0  0
   -0.8301   48.8936   20.8046 S   0  0  0  0  0  0
    1.7086   53.9064   29.2934 C   0  0  0  0  0  0
    0.5238   54.0068   28.8976 O   0  0  0  0  0  0
    7.9029   55.3109   21.8034 H   0  0  0  0  0  0
    6.3055   56.0087   22.0190 H   0  0  0  0  0  0
    7.5043   56.0969   23.3210 H   0  0  0  0  0  0
    7.4713   53.5882   23.5078 H   0  0  0  0  0  0
    6.3037   53.5053   22.2536 H   0  0  0  0  0  0
    6.1525   54.7106   28.1327 H   0  0  0  0  0  0
    4.3508   54.4381   29.7512 H   0  0  0  0  0  0
    1.5455   53.7589   26.5499 H   0  0  0  0  0  0
    4.7945   51.9370   22.0817 H   0  0  0  0  0  0
    4.4691   52.5012   20.4492 H   0  0  0  0  0  0
    3.4585   50.3100   22.7297 H   0  0  0  0  0  0
    1.0178   48.7280   24.8523 H   0  0  0  0  0  0
   -0.4132   49.7265   26.5616 H   0  0  0  0  0  0
   -1.5053   52.8618   23.8312 H   0  0  0  0  0  0
   -0.0958   51.8437   22.0992 H   0  0  0  0  0  0
   -2.3892   51.2347   26.9955 H   0  0  0  0  0  0
   -1.2929   52.6224   27.0581 H   0  0  0  0  0  0
   -2.6918   52.6212   25.9636 H   0  0  0  0  0  0
    2.6101   48.7181   19.7115 H   0  0  0  0  0  0
    1.0295   47.9153   17.8464 H   0  0  0  0  0  0
   -1.5115   48.0246   18.6047 H   0  0  0  0  0  0
    2.0506   53.6968   30.4814 O   0  5  0  0  0  0
  1  2  1  0  0  0
  1 35  1  0  0  0
  1 36  1  0  0  0
  1 37  1  0  0  0
  2  3  1  0  0  0
  2 38  1  0  0  0
  2 39  1  0  0  0
  3 13  1  0  0  0
  3  4  1  0  0  0
  4  5  2  0  0  0
  4  6  1  0  0  0
  6 11  2  0  0  0
  6  7  1  0  0  0
  7  8  2  0  0  0
  7 40  1  0  0  0
  8  9  1  0  0  0
  8 41  1  0  0  0
  9 10  2  0  0  0
  9 33  1  0  0  0
 10 11  1  0  0  0
 10 42  1  0  0  0
 11 12  1  0  0  0
 12 13  2  0  0  0
 13 14  1  0  0  0
 14 15  1  0  0  0
 15 16  1  0  0  0
 15 43  1  0  0  0
 15 44  1  0  0  0
 16 17  2  0  0  0
 16 18  1  0  0  0
 18 19  1  0  0  0
 18 45  1  0  0  0
 19 20  1  0  0  0
 19 21  1  0  0  0
 19 28  1  0  0  0
 21 26  2  0  0  0
 21 22  1  0  0  0
 22 23  2  0  0  0
 22 46  1  0  0  0
 23 24  1  0  0  0
 23 47  1  0  0  0
 24 25  2  0  0  0
 24 27  1  0  0  0
 25 26  1  0  0  0
 25 48  1  0  0  0
 26 49  1  0  0  0
 27 50  1  0  0  0
 27 51  1  0  0  0
 27 52  1  0  0  0
 28 32  1  0  0  0
 28 29  2  0  0  0
 29 30  1  0  0  0
 29 53  1  0  0  0
 30 31  2  0  0  0
 30 54  1  0  0  0
 31 32  1  0  0  0
 31 55  1  0  0  0
 33 34  2  0  0  0
 33 56  1  0  0  0
M  CHG  1  56  -1
M  END
> <i_i_glide_confnum>
9

> <i_i_glide_lignum>
5934

> <i_i_glide_posenum>
267

> <i_i_glide_rotatable_bonds>
9

> <i_m_Source_File_Index>
4229

> <b_m_subgroup_collapsed>
0

> <r_i_docking_score>
-7.46119

> <r_i_glide_ecoul>
-6.50533

> <r_i_glide_eff_state_penalty>
0

> <r_i_glide_einternal>
7.65096

> <r_i_glide_emodel>
-81.5663

> <r_i_glide_energy>
-56.4224

> <r_i_glide_erotb>
0.587518

> <r_i_glide_esite>
0

> <r_i_glide_evdw>
-49.917

> <r_i_glide_gscore>
-7.46119

> <r_i_glide_hbond>
-0.456759

> <r_i_glide_ligand_efficiency>
-0.219447

> <r_i_glide_ligand_efficiency_ln>
-1.64839

> <r_i_glide_ligand_efficiency_sa>
-0.710923

> <r_i_glide_lipo>
-2.55987

> <r_i_glide_metal>
0

> <r_i_glide_rewards>
-1.56043

> <s_i_glide_gridfile>
wee1_glide-grid

> <s_m_Source_File>
wee1_decoys_glide_SP.sdf

> <s_m_Source_Path>
/Users/zhangxujun/Desktop

> <s_m_entry_id>
4504

> <s_m_entry_name>
wee1_decoys_glide_SP.4229

> <s_m_subgroup_title>
wee1_decoys_glide_SP

> <s_m_subgroupid>
wee1_decoys_glide_SP


$$$$
