ZINC00623048_6028
                    3D
 Schrodinger Suite 2024-2.
 58 63  0  0  1  0            999 V2000
    0.3094   53.6946   29.5508 C   0  0  0  0  0  0
    1.2882   54.6163   29.9077 C   0  0  0  0  0  0
    2.3464   54.8970   29.0445 C   0  0  0  0  0  0
    2.4294   54.2550   27.7814 C   0  0  0  0  0  0
    3.5001   54.4977   26.8822 C   0  0  0  0  0  0
    3.5589   53.8776   25.6256 C   0  0  0  0  0  0
    2.5254   53.0153   25.2663 C   0  0  0  0  0  0
    1.4653   52.7374   26.1261 C   0  0  0  0  0  0
    1.4054   53.3372   27.4037 C   0  0  0  0  0  0
    0.3544   53.0582   28.3135 C   0  0  0  0  0  0
    4.7590   54.0967   24.7402 C   0  0  0  0  0  0
    4.8922   54.2005   23.3132 C   0  0  0  0  0  0
    6.2322   54.5253   23.1793 C   0  0  0  0  0  0
    6.8175   54.5084   24.3945 N   0  0  0  0  0  0
    7.7974   54.6919   24.5650 H   0  0  0  0  0  0
    5.9331   54.2428   25.3475 N   0  0  0  0  0  0
    6.9303   54.8979   22.0647 O   0  0  0  0  0  0
    6.1852   54.8972   20.9300 C   0  0  0  0  0  0
    4.8887   54.5149   20.8197 C   0  0  0  0  0  0
    4.0046   54.1458   22.0411 C   0  0  1  0  0  0
    3.2654   54.9460   22.0897 H   0  0  0  0  0  0
    3.1851   52.8729   21.8043 C   0  0  0  0  0  0
    3.7806   51.7177   21.2827 C   0  0  0  0  0  0
    3.0073   50.5876   21.0229 C   0  0  0  0  0  0
    1.6393   50.5953   21.2880 C   0  0  0  0  0  0
    1.0207   51.7465   21.7981 C   0  0  0  0  0  0
    1.8038   52.8767   22.0365 C   0  0  0  0  0  0
   -0.3226   51.8504   22.1057 O   0  0  0  0  0  0
   -1.2135   50.7634   21.8353 C   0  0  0  0  0  0
   -1.2064   49.6765   22.9139 C   0  0  0  0  0  0
   -0.3248   49.7101   24.0051 C   0  0  0  0  0  0
   -0.3677   48.7138   24.9802 C   0  0  0  0  0  0
   -1.2925   47.6768   24.8802 C   0  0  0  0  0  0
   -2.1658   47.6258   23.7957 C   0  0  0  0  0  0
   -2.1219   48.6201   22.8163 C   0  0  0  0  0  0
   -2.9817   48.5607   21.7734 F   0  0  0  0  0  0
    4.3043   54.4987   19.5155 C   0  0  0  0  0  0
    3.9048   54.5104   18.4309 N   0  0  0  0  0  0
    7.0072   55.2958   19.9097 N   0  0  0  0  0  0
   -0.4960   53.4745   30.2356 H   0  0  0  0  0  0
    1.2232   55.1143   30.8653 H   0  0  0  0  0  0
    3.1069   55.6097   29.3274 H   0  0  0  0  0  0
    4.2831   55.1755   27.1893 H   0  0  0  0  0  0
    2.5898   52.4720   24.3441 H   0  0  0  0  0  0
    0.6961   52.0378   25.8319 H   0  0  0  0  0  0
   -0.4165   52.3500   28.0388 H   0  0  0  0  0  0
    4.8398   51.6990   21.0701 H   0  0  0  0  0  0
    3.4637   49.6987   20.6129 H   0  0  0  0  0  0
    1.0797   49.6938   21.0944 H   0  0  0  0  0  0
    1.3240   53.7690   22.4128 H   0  0  0  0  0  0
   -1.0441   50.3348   20.8465 H   0  0  0  0  0  0
   -2.2155   51.1900   21.8013 H   0  0  0  0  0  0
    0.3955   50.5073   24.1093 H   0  0  0  0  0  0
    0.3095   48.7436   25.8235 H   0  0  0  0  0  0
   -1.3282   46.9206   25.6529 H   0  0  0  0  0  0
   -2.8882   46.8274   23.7211 H   0  0  0  0  0  0
    6.6399   55.4099   18.9762 H   0  0  0  0  0  0
    8.0093   55.2351   20.0099 H   0  0  0  0  0  0
  1 10  2  0  0  0
  1  2  1  0  0  0
  1 40  1  0  0  0
  2  3  2  0  0  0
  2 41  1  0  0  0
  3  4  1  0  0  0
  3 42  1  0  0  0
  4  9  2  0  0  0
  4  5  1  0  0  0
  5  6  2  0  0  0
  5 43  1  0  0  0
  6  7  1  0  0  0
  6 11  1  0  0  0
  7  8  2  0  0  0
  7 44  1  0  0  0
  8  9  1  0  0  0
  8 45  1  0  0  0
  9 10  1  0  0  0
 10 46  1  0  0  0
 11 16  2  0  0  0
 11 12  1  0  0  0
 12 20  1  0  0  0
 12 13  2  0  0  0
 13 14  1  0  0  0
 13 17  1  0  0  0
 14 15  1  0  0  0
 14 16  1  0  0  0
 17 18  1  0  0  0
 18 19  2  0  0  0
 18 39  1  0  0  0
 19 20  1  0  0  0
 19 37  1  0  0  0
 20 21  1  0  0  0
 20 22  1  0  0  0
 22 27  2  0  0  0
 22 23  1  0  0  0
 23 24  2  0  0  0
 23 47  1  0  0  0
 24 25  1  0  0  0
 24 48  1  0  0  0
 25 26  2  0  0  0
 25 49  1  0  0  0
 26 27  1  0  0  0
 26 28  1  0  0  0
 27 50  1  0  0  0
 28 29  1  0  0  0
 29 30  1  0  0  0
 29 51  1  0  0  0
 29 52  1  0  0  0
 30 35  2  0  0  0
 30 31  1  0  0  0
 31 32  2  0  0  0
 31 53  1  0  0  0
 32 33  1  0  0  0
 32 54  1  0  0  0
 33 34  2  0  0  0
 33 55  1  0  0  0
 34 35  1  0  0  0
 34 56  1  0  0  0
 35 36  1  0  0  0
 37 38  3  0  0  0
 39 57  1  0  0  0
 39 58  1  0  0  0
M  END
> <i_i_glide_confnum>
65

> <i_i_glide_lignum>
6029

> <i_i_glide_posenum>
66

> <i_i_glide_rotatable_bonds>
6

> <i_m_Source_File_Index>
3227

> <b_m_subgroup_collapsed>
0

> <r_i_docking_score>
-5.75684

> <r_i_glide_ecoul>
-0.328368

> <r_i_glide_eff_state_penalty>
0

> <r_i_glide_einternal>
7.03763

> <r_i_glide_emodel>
-61.9651

> <r_i_glide_energy>
-47.4986

> <r_i_glide_erotb>
0.426095

> <r_i_glide_esite>
-0.0047043

> <r_i_glide_evdw>
-47.1703

> <r_i_glide_gscore>
-5.75684

> <r_i_glide_hbond>
-0.257535

> <r_i_glide_ligand_efficiency>
-0.15559

> <r_i_glide_ligand_efficiency_ln>
-1.24852

> <r_i_glide_ligand_efficiency_sa>
-0.518461

> <r_i_glide_lipo>
-3.37132

> <r_i_glide_metal>
0

> <r_i_glide_rewards>
-0.141605

> <s_i_glide_gridfile>
wee1_glide-grid

> <s_m_Source_File>
wee1_decoys_glide_SP.sdf

> <s_m_Source_Path>
/Users/zhangxujun/Desktop

> <s_m_entry_id>
3502

> <s_m_entry_name>
wee1_decoys_glide_SP.3227

> <s_m_subgroup_title>
wee1_decoys_glide_SP

> <s_m_subgroupid>
wee1_decoys_glide_SP


$$$$
