ZINC02315326_4923
                    3D
 Schrodinger Suite 2024-2.
 59 64  0  0  1  0            999 V2000
   -3.8654   50.5175   19.6339 C   0  0  0  0  0  0
   -3.5281   49.8460   20.8383 O   0  0  0  0  0  0
   -2.8537   50.4755   21.8230 C   0  0  0  0  0  0
   -2.4952   51.6562   21.7709 O   0  0  0  0  0  0
   -2.5909   49.5852   22.9769 C   0  0  0  0  0  0
   -3.3544   48.4363   23.3680 C   0  0  0  0  0  0
   -2.9379   47.8916   24.5966 C   0  0  0  0  0  0
   -1.5651   48.6957   25.2480 S   0  0  0  0  0  0
   -1.5414   49.7770   23.9067 C   0  0  0  0  0  0
   -0.5036   50.6900   23.9665 N   0  0  0  0  0  0
    0.3376   50.9901   22.9546 C   0  0  0  0  0  0
    0.2785   50.5058   21.8209 O   0  0  0  0  0  0
    1.3540   51.9517   23.3299 C   0  0  0  0  0  0
    1.6095   52.5901   24.5944 C   0  0  0  0  0  0
    2.7495   53.4122   24.4671 C   0  0  0  0  0  0
    3.2581   54.0969   25.4985 N   0  0  0  0  0  0
    2.6695   53.9684   26.7172 C   0  0  0  0  0  0
    3.1912   54.6376   27.8467 C   0  0  0  0  0  0
    2.5585   54.5129   29.0819 C   0  0  0  0  0  0
    1.4219   53.7195   29.2239 C   0  0  0  0  0  0
    0.8915   53.0349   28.1326 C   0  0  0  0  0  0
    1.5095   53.1528   26.8650 C   0  0  0  0  0  0
    1.0026   52.4955   25.7863 N   0  0  0  0  0  0
    3.2130   53.3218   23.1570 N   0  0  0  0  0  0
    2.3727   52.4226   22.4845 C   0  0  0  0  0  0
    2.6246   52.0569   21.1840 N   0  0  0  0  0  0
    4.3875   53.9518   22.6412 C   0  0  0  0  0  0
    5.5230   54.0967   23.4499 C   0  0  0  0  0  0
    6.6426   54.7688   22.9754 C   0  0  0  0  0  0
    6.6449   55.2919   21.6860 C   0  0  0  0  0  0
    5.5274   55.1475   20.8694 C   0  0  0  0  0  0
    4.3939   54.4966   21.3519 C   0  0  0  0  0  0
   -3.5593   46.6978   25.3030 C   0  0  0  0  0  0
   -4.9910   46.4999   24.7721 C   0  0  0  0  0  0
   -5.0185   46.4955   23.2384 C   0  0  0  0  0  0
   -4.5601   47.8360   22.6205 C   0  0  0  0  0  0
   -4.3131   49.8115   18.9339 H   0  0  0  0  0  0
   -4.5868   51.3122   19.8232 H   0  0  0  0  0  0
   -2.9806   50.9488   19.1640 H   0  0  0  0  0  0
   -0.1427   50.8896   24.8863 H   0  0  0  0  0  0
    4.0728   55.2533   27.7412 H   0  0  0  0  0  0
    2.9529   55.0437   29.9359 H   0  0  0  0  0  0
    0.9453   53.6301   30.1889 H   0  0  0  0  0  0
    0.0117   52.4152   28.2423 H   0  0  0  0  0  0
    2.0020   51.4111   20.7151 H   0  0  0  0  0  0
    3.4216   52.3884   20.6614 H   0  0  0  0  0  0
    5.5550   53.6876   24.4497 H   0  0  0  0  0  0
    7.5042   54.8810   23.6139 H   0  0  0  0  0  0
    7.5249   55.8047   21.3169 H   0  0  0  0  0  0
    5.5249   55.5623   19.8726 H   0  0  0  0  0  0
    3.5108   54.4507   20.7256 H   0  0  0  0  0  0
   -3.5773   46.8428   26.3845 H   0  0  0  0  0  0
   -2.9640   45.8045   25.1162 H   0  0  0  0  0  0
   -5.6418   47.2919   25.1483 H   0  0  0  0  0  0
   -5.4005   45.5652   25.1577 H   0  0  0  0  0  0
   -6.0258   46.2580   22.8867 H   0  0  0  0  0  0
   -4.3783   45.6898   22.8722 H   0  0  0  0  0  0
   -4.3284   47.6451   21.5734 H   0  0  0  0  0  0
   -5.3873   48.5476   22.6334 H   0  0  0  0  0  0
  1  2  1  0  0  0
  1 37  1  0  0  0
  1 38  1  0  0  0
  1 39  1  0  0  0
  2  3  1  0  0  0
  3  4  2  0  0  0
  3  5  1  0  0  0
  5  9  2  0  0  0
  5  6  1  0  0  0
  6 36  1  0  0  0
  6  7  2  0  0  0
  7  8  1  0  0  0
  7 33  1  0  0  0
  8  9  1  0  0  0
  9 10  1  0  0  0
 10 11  1  0  0  0
 10 40  1  0  0  0
 11 12  2  0  0  0
 11 13  1  0  0  0
 13 25  2  0  0  0
 13 14  1  0  0  0
 14 23  2  0  0  0
 14 15  1  0  0  0
 15 16  2  0  0  0
 15 24  1  0  0  0
 16 17  1  0  0  0
 17 22  2  0  0  0
 17 18  1  0  0  0
 18 19  2  0  0  0
 18 41  1  0  0  0
 19 20  1  0  0  0
 19 42  1  0  0  0
 20 21  2  0  0  0
 20 43  1  0  0  0
 21 22  1  0  0  0
 21 44  1  0  0  0
 22 23  1  0  0  0
 24 25  1  0  0  0
 24 27  1  0  0  0
 25 26  1  0  0  0
 26 45  1  0  0  0
 26 46  1  0  0  0
 27 32  2  0  0  0
 27 28  1  0  0  0
 28 29  2  0  0  0
 28 47  1  0  0  0
 29 30  1  0  0  0
 29 48  1  0  0  0
 30 31  2  0  0  0
 30 49  1  0  0  0
 31 32  1  0  0  0
 31 50  1  0  0  0
 32 51  1  0  0  0
 33 34  1  0  0  0
 33 52  1  0  0  0
 33 53  1  0  0  0
 34 35  1  0  0  0
 34 54  1  0  0  0
 34 55  1  0  0  0
 35 36  1  0  0  0
 35 56  1  0  0  0
 35 57  1  0  0  0
 36 58  1  0  0  0
 36 59  1  0  0  0
M  END
> <i_i_glide_confnum>
168

> <i_i_glide_lignum>
4924

> <i_i_glide_posenum>
118

> <i_i_glide_rotatable_bonds>
6

> <i_m_Source_File_Index>
4380

> <b_m_subgroup_collapsed>
0

> <r_i_docking_score>
-5.1523

> <r_i_glide_ecoul>
-2.44347

> <r_i_glide_eff_state_penalty>
0

> <r_i_glide_einternal>
10.9393

> <r_i_glide_emodel>
-49.7703

> <r_i_glide_energy>
-41.9384

> <r_i_glide_erotb>
0.411997

> <r_i_glide_esite>
-0.00149696

> <r_i_glide_evdw>
-39.495

> <r_i_glide_gscore>
-5.1523

> <r_i_glide_hbond>
0

> <r_i_glide_ligand_efficiency>
-0.143119

> <r_i_glide_ligand_efficiency_ln>
-1.12409

> <r_i_glide_ligand_efficiency_sa>
-0.47257

> <r_i_glide_lipo>
-2.66528

> <r_i_glide_metal>
0

> <r_i_glide_rewards>
-0.556248

> <s_i_glide_gridfile>
wee1_glide-grid

> <s_m_Source_File>
wee1_decoys_glide_SP.sdf

> <s_m_Source_Path>
/Users/zhangxujun/Desktop

> <s_m_entry_id>
4655

> <s_m_entry_name>
wee1_decoys_glide_SP.4380

> <s_m_subgroup_title>
wee1_decoys_glide_SP

> <s_m_subgroupid>
wee1_decoys_glide_SP


$$$$
