ZINC35842796_2196
                    3D
 Schrodinger Suite 2024-2.
 60 63  0  0  1  0            999 V2000
    9.4923   56.3853   18.4058 C   0  0  0  0  0  0
    8.5603   57.2864   17.6035 C   0  0  0  0  0  0
    9.1230   58.3001   16.8193 C   0  0  0  0  0  0
    8.3158   59.1230   16.0333 C   0  0  0  0  0  0
    6.9370   58.9315   16.0130 C   0  0  0  0  0  0
    6.3605   57.9239   16.7820 C   0  0  0  0  0  0
    7.1589   57.1088   17.5911 C   0  0  0  0  0  0
    6.4980   56.1329   18.3500 N   0  0  0  0  0  0
    6.5079   56.0799   19.6933 C   0  0  0  0  0  0
    7.0886   56.8953   20.4148 O   0  0  0  0  0  0
    5.7875   55.0393   20.1564 N   0  0  0  0  0  0
    5.5887   54.7323   21.5107 C   0  0  0  0  0  0
    4.3301   54.2767   21.9144 C   0  0  0  0  0  0
    4.0762   54.0734   23.2739 C   0  0  0  0  0  0
    5.0902   54.2836   24.2299 C   0  0  0  0  0  0
    6.3045   54.6675   23.7703 N   0  3  0  0  0  0
    6.5922   54.8981   22.4775 C   0  0  0  0  0  0
    4.8837   54.1355   25.6555 N   0  0  0  0  0  0
    6.0471   53.7665   26.4902 C   0  0  0  0  0  0
    6.1879   54.6343   27.7427 C   0  0  0  0  0  0
    5.3467   54.1379   28.9303 C   0  0  0  0  0  0
    3.9264   53.8115   28.6832 N   0  0  0  0  0  0
    3.2321   54.5172   27.5896 C   0  0  0  0  0  0
    3.5085   53.9631   26.1693 C   0  0  0  0  0  0
    3.3288   52.8889   29.4992 C   0  0  0  0  0  0
    3.9044   52.3668   30.4573 O   0  0  0  0  0  0
    1.8897   52.4977   29.2747 C   0  0  0  0  0  0
    1.4740   51.9048   28.0763 C   0  0  0  0  0  0
    0.1471   51.5217   27.9042 C   0  0  0  0  0  0
   -0.7612   51.6969   28.9419 C   0  0  0  0  0  0
   -0.3494   52.2499   30.1496 C   0  0  0  0  0  0
    0.9711   52.6500   30.3190 C   0  0  0  0  0  0
   -2.0445   51.2982   28.7874 F   0  0  0  0  0  0
   10.5084   56.4000   18.0114 H   0  0  0  0  0  0
    9.5211   56.6929   19.4507 H   0  0  0  0  0  0
    9.1596   55.3487   18.3627 H   0  0  0  0  0  0
   10.1924   58.4520   16.8148 H   0  0  0  0  0  0
    8.7581   59.9103   15.4406 H   0  0  0  0  0  0
    6.3083   59.5814   15.4205 H   0  0  0  0  0  0
    5.2861   57.8043   16.7666 H   0  0  0  0  0  0
    5.8506   55.5443   17.8488 H   0  0  0  0  0  0
    5.2157   54.5398   19.4930 H   0  0  0  0  0  0
    3.5371   54.1293   21.1926 H   0  0  0  0  0  0
    3.0897   53.7374   23.5518 H   0  0  0  0  0  0
    7.5997   55.2363   22.2717 H   0  0  0  0  0  0
    6.9709   53.7747   25.9144 H   0  0  0  0  0  0
    5.8980   52.7265   26.7785 H   0  0  0  0  0  0
    5.9983   55.6890   27.5246 H   0  0  0  0  0  0
    7.2257   54.6010   28.0764 H   0  0  0  0  0  0
    5.3938   54.9045   29.7053 H   0  0  0  0  0  0
    5.8490   53.2366   29.2812 H   0  0  0  0  0  0
    2.1543   54.5173   27.7572 H   0  0  0  0  0  0
    3.4854   55.5785   27.6460 H   0  0  0  0  0  0
    3.3522   52.8918   26.1411 H   0  0  0  0  0  0
    2.7871   54.4135   25.4893 H   0  0  0  0  0  0
    2.1735   51.6997   27.2843 H   0  0  0  0  0  0
   -0.1756   51.0526   26.9864 H   0  0  0  0  0  0
   -1.0428   52.3407   30.9696 H   0  0  0  0  0  0
    1.2716   53.0616   31.2732 H   0  0  0  0  0  0
    7.0368   54.8241   24.4471 H   0  0  0  0  0  0
  1  2  1  0  0  0
  1 34  1  0  0  0
  1 35  1  0  0  0
  1 36  1  0  0  0
  2  7  2  0  0  0
  2  3  1  0  0  0
  3  4  2  0  0  0
  3 37  1  0  0  0
  4  5  1  0  0  0
  4 38  1  0  0  0
  5  6  2  0  0  0
  5 39  1  0  0  0
  6  7  1  0  0  0
  6 40  1  0  0  0
  7  8  1  0  0  0
  8  9  1  0  0  0
  8 41  1  0  0  0
  9 10  2  0  0  0
  9 11  1  0  0  0
 11 12  1  0  0  0
 11 42  1  0  0  0
 12 17  2  0  0  0
 12 13  1  0  0  0
 13 14  2  0  0  0
 13 43  1  0  0  0
 14 15  1  0  0  0
 14 44  1  0  0  0
 15 16  2  0  0  0
 15 18  1  0  0  0
 16 17  1  0  0  0
 16 60  1  0  0  0
 17 45  1  0  0  0
 18 24  1  0  0  0
 18 19  1  0  0  0
 19 20  1  0  0  0
 19 46  1  0  0  0
 19 47  1  0  0  0
 20 21  1  0  0  0
 20 48  1  0  0  0
 20 49  1  0  0  0
 21 22  1  0  0  0
 21 50  1  0  0  0
 21 51  1  0  0  0
 22 23  1  0  0  0
 22 25  1  0  0  0
 23 24  1  0  0  0
 23 52  1  0  0  0
 23 53  1  0  0  0
 24 54  1  0  0  0
 24 55  1  0  0  0
 25 26  2  0  0  0
 25 27  1  0  0  0
 27 32  2  0  0  0
 27 28  1  0  0  0
 28 29  2  0  0  0
 28 56  1  0  0  0
 29 30  1  0  0  0
 29 57  1  0  0  0
 30 31  2  0  0  0
 30 33  1  0  0  0
 31 32  1  0  0  0
 31 58  1  0  0  0
 32 59  1  0  0  0
M  CHG  1  16   1
M  END
> <i_i_glide_confnum>
151

> <i_i_glide_lignum>
2197

> <i_i_glide_posenum>
12

> <i_i_glide_rotatable_bonds>
7

> <i_m_Source_File_Index>
1111

> <b_m_subgroup_collapsed>
0

> <r_i_docking_score>
-7.04833

> <r_i_glide_ecoul>
-9.77984

> <r_i_glide_eff_state_penalty>
0

> <r_i_glide_einternal>
5.07539

> <r_i_glide_emodel>
-71.4295

> <r_i_glide_energy>
-53.1584

> <r_i_glide_erotb>
0.697113

> <r_i_glide_esite>
-0.098291

> <r_i_glide_evdw>
-43.3785

> <r_i_glide_gscore>
-7.04833

> <r_i_glide_hbond>
-0.316399

> <r_i_glide_ligand_efficiency>
-0.213586

> <r_i_glide_ligand_efficiency_ln>
-1.56751

> <r_i_glide_ligand_efficiency_sa>
-0.685084

> <r_i_glide_lipo>
-2.42761

> <r_i_glide_metal>
0

> <r_i_glide_rewards>
-1.26724

> <s_i_glide_gridfile>
wee1_glide-grid

> <s_m_Source_File>
wee1_decoys_glide_SP.sdf

> <s_m_Source_Path>
/Users/zhangxujun/Desktop

> <s_m_entry_id>
1386

> <s_m_entry_name>
wee1_decoys_glide_SP.1111

> <s_m_subgroup_title>
wee1_decoys_glide_SP

> <s_m_subgroupid>
wee1_decoys_glide_SP


$$$$
