ZINC37064377_3581
                    3D
 Schrodinger Suite 2024-2.
 35 36  0  0  1  0            999 V2000
    6.8672   54.7671   26.6662 C   0  0  0  0  0  0
    5.4160   54.3714   26.4264 C   0  0  0  0  0  0
    4.9240   54.4872   25.1274 C   0  0  0  0  0  0
    3.6179   54.1222   24.8435 C   0  0  0  0  0  0
    2.7947   53.6157   25.8445 C   0  0  0  0  0  0
    3.2620   53.4552   27.1652 C   0  0  0  0  0  0
    4.5825   53.8873   27.4569 C   0  0  0  0  0  0
    5.1137   53.9063   28.8857 C   0  0  0  0  0  0
    2.1643   52.7650   28.4681 S   0  0  0  0  0  0
    2.9938   52.2217   29.5500 O   0  0  0  0  0  0
    1.1722   53.8023   28.7651 O   0  0  0  0  0  0
    1.3201   51.3006   27.8696 N   0  0  0  0  0  0
    0.1214   51.2273   27.1345 C   0  0  0  0  0  0
   -0.8994   52.1800   27.2618 C   0  0  0  0  0  0
   -2.0550   52.0956   26.4819 C   0  0  0  0  0  0
   -2.2175   51.0456   25.5840 C   0  0  0  0  0  0
   -1.2274   50.0752   25.4679 C   0  0  0  0  0  0
   -0.0678   50.1560   26.2408 C   0  0  0  0  0  0
    1.1038   48.8969   26.0802 Cl  0  0  0  0  0  0
   -3.3367   50.9648   24.8306 F   0  0  0  0  0  0
    1.5033   53.2966   25.4528 N   0  0  0  0  0  0
    7.4200   54.8874   25.7332 H   0  0  0  0  0  0
    6.9179   55.6966   27.2337 H   0  0  0  0  0  0
    7.3829   53.9941   27.2388 H   0  0  0  0  0  0
    5.5507   54.8629   24.3327 H   0  0  0  0  0  0
    3.2555   54.2334   23.8306 H   0  0  0  0  0  0
    4.3499   54.2714   29.5721 H   0  0  0  0  0  0
    5.9486   54.5851   29.0322 H   0  0  0  0  0  0
    5.4194   52.9054   29.1908 H   0  0  0  0  0  0
    1.8114   50.4312   28.0057 H   0  0  0  0  0  0
   -0.8307   52.9916   27.9627 H   0  0  0  0  0  0
   -2.8304   52.8402   26.5800 H   0  0  0  0  0  0
   -1.3667   49.2479   24.7886 H   0  0  0  0  0  0
    0.8863   52.8457   26.1119 H   0  0  0  0  0  0
    1.2595   53.3528   24.4740 H   0  0  0  0  0  0
  1  2  1  0  0  0
  1 22  1  0  0  0
  1 23  1  0  0  0
  1 24  1  0  0  0
  2  7  2  0  0  0
  2  3  1  0  0  0
  3  4  2  0  0  0
  3 25  1  0  0  0
  4  5  1  0  0  0
  4 26  1  0  0  0
  5  6  2  0  0  0
  5 21  1  0  0  0
  6  7  1  0  0  0
  6  9  1  0  0  0
  7  8  1  0  0  0
  8 27  1  0  0  0
  8 28  1  0  0  0
  8 29  1  0  0  0
  9 10  2  0  0  0
  9 11  2  0  0  0
  9 12  1  0  0  0
 12 13  1  0  0  0
 12 30  1  0  0  0
 13 18  2  0  0  0
 13 14  1  0  0  0
 14 15  2  0  0  0
 14 31  1  0  0  0
 15 16  1  0  0  0
 15 32  1  0  0  0
 16 17  2  0  0  0
 16 20  1  0  0  0
 17 18  1  0  0  0
 17 33  1  0  0  0
 18 19  1  0  0  0
 21 34  1  0  0  0
 21 35  1  0  0  0
M  END
> <i_i_glide_confnum>
5

> <i_i_glide_lignum>
3582

> <i_i_glide_posenum>
165

> <i_i_glide_rotatable_bonds>
3

> <i_m_Source_File_Index>
1254

> <b_m_subgroup_collapsed>
0

> <r_i_docking_score>
-4.49169

> <r_i_glide_ecoul>
-0.901148

> <r_i_glide_eff_state_penalty>
0

> <r_i_glide_einternal>
1.663

> <r_i_glide_emodel>
-43.0159

> <r_i_glide_energy>
-34.0741

> <r_i_glide_erotb>
0.521343

> <r_i_glide_esite>
-0.00466597

> <r_i_glide_evdw>
-33.173

> <r_i_glide_gscore>
-4.49169

> <r_i_glide_hbond>
0

> <r_i_glide_ligand_efficiency>
-0.21389

> <r_i_glide_ligand_efficiency_ln>
-1.11056

> <r_i_glide_ligand_efficiency_sa>
-0.590106

> <r_i_glide_lipo>
-1.74785

> <r_i_glide_metal>
0

> <r_i_glide_rewards>
-1.46669

> <s_i_glide_gridfile>
wee1_glide-grid

> <s_m_Source_File>
wee1_decoys_glide_SP.sdf

> <s_m_Source_Path>
/Users/zhangxujun/Desktop

> <s_m_entry_id>
1529

> <s_m_entry_name>
wee1_decoys_glide_SP.1254

> <s_m_subgroup_title>
wee1_decoys_glide_SP

> <s_m_subgroupid>
wee1_decoys_glide_SP


$$$$
