ZINC36648024_1102
                    3D
 Schrodinger Suite 2024-2.
 66 69  0  0  1  0            999 V2000
    7.2694   53.3681   27.8000 C   0  0  0  0  0  0
    5.8170   53.6377   28.2099 C   0  0  0  0  0  0
    5.2020   54.9006   27.5688 C   0  0  0  0  0  0
    4.7198   54.7898   26.0937 N   0  3  2  0  0  0
    3.7949   53.5762   25.9210 C   0  0  0  0  0  0
    3.1326   53.5880   24.5284 C   0  0  0  0  0  0
    4.1295   53.9066   23.4041 C   0  0  0  0  0  0
    5.3604   54.4963   23.7121 C   0  0  0  0  0  0
    6.3039   54.8410   22.3191 S   0  0  0  0  0  0
    5.1059   54.0925   21.2923 C   0  0  0  0  0  0
    3.9900   53.6021   22.0113 C   0  0  0  0  0  0
    2.8614   52.8967   21.3611 C   0  0  0  0  0  0
    2.9014   52.4833   20.1995 O   0  0  0  0  0  0
    1.7820   52.7904   22.1622 O   0  0  0  0  0  0
    0.5812   52.1911   21.6994 C   0  0  0  0  0  0
   -0.3928   52.0618   22.8753 C   0  0  0  0  0  0
    5.2635   54.0125   19.9049 N   0  0  0  0  0  0
    6.3062   54.4068   19.1403 C   0  0  0  0  0  0
    7.3499   54.8976   19.5742 O   0  0  0  0  0  0
    6.1474   54.2265   17.6162 C   0  0  2  0  0  0
    5.1091   53.9541   17.4248 H   0  0  0  0  0  0
    7.0522   53.0339   17.2002 C   0  0  0  0  0  0
    6.9957   52.8018   15.6808 C   0  0  0  0  0  0
    7.3576   54.0836   14.9118 C   0  0  0  0  0  0
    6.4774   55.2754   15.3298 C   0  0  0  0  0  0
    6.4371   55.4705   16.8075 N   0  0  0  0  0  0
    5.9272   57.1142   17.3258 S   0  0  0  0  0  0
    5.8878   57.2335   18.7869 O   0  0  0  0  0  0
    6.6478   58.0944   16.5069 O   0  0  0  0  0  0
    4.2041   57.1434   16.7733 C   0  0  0  0  0  0
    3.2241   56.2098   17.0870 C   0  0  0  0  0  0
    1.9958   56.4970   16.4827 C   0  0  0  0  0  0
    2.0322   57.6579   15.7236 C   0  0  0  0  0  0
    3.6004   58.3939   15.7323 S   0  0  0  0  0  0
    5.8986   54.8065   25.0916 C   0  0  0  0  0  0
    7.7622   52.6851   28.4816 H   0  0  0  0  0  0
    7.8598   54.2856   27.7884 H   0  0  0  0  0  0
    7.3521   52.8914   26.8318 H   0  0  0  0  0  0
    5.2048   52.7455   28.0867 H   0  0  0  0  0  0
    5.8125   53.8213   29.2814 H   0  0  0  0  0  0
    4.3126   55.2249   28.1122 H   0  0  0  0  0  0
    5.9333   55.6969   27.5963 H   0  0  0  0  0  0
    4.4453   52.7286   26.0825 H   0  0  0  0  0  0
    3.0367   53.6206   26.7058 H   0  0  0  0  0  0
    2.6591   52.6157   24.3950 H   0  0  0  0  0  0
    2.3299   54.3254   24.5033 H   0  0  0  0  0  0
    0.1470   52.8074   20.9104 H   0  0  0  0  0  0
    0.7846   51.2061   21.2756 H   0  0  0  0  0  0
   -1.3435   51.6419   22.5464 H   0  0  0  0  0  0
    0.0112   51.4035   23.6450 H   0  0  0  0  0  0
   -0.5950   53.0277   23.3390 H   0  0  0  0  0  0
    4.4959   53.5517   19.4326 H   0  0  0  0  0  0
    8.1025   53.2313   17.4296 H   0  0  0  0  0  0
    6.7105   52.0998   17.6493 H   0  0  0  0  0  0
    7.6751   51.9952   15.4014 H   0  0  0  0  0  0
    5.9963   52.4682   15.3968 H   0  0  0  0  0  0
    8.4062   54.3323   15.0821 H   0  0  0  0  0  0
    7.2629   53.9124   13.8387 H   0  0  0  0  0  0
    6.8103   56.1910   14.8396 H   0  0  0  0  0  0
    5.4662   55.0241   15.0067 H   0  0  0  0  0  0
    3.3803   55.3600   17.7311 H   0  0  0  0  0  0
    1.1146   55.8869   16.6115 H   0  0  0  0  0  0
    1.2277   58.1161   15.1683 H   0  0  0  0  0  0
    6.3423   55.8014   25.1669 H   0  0  0  0  0  0
    6.6212   54.0481   25.3543 H   0  0  0  0  0  0
    4.1573   55.6095   25.9075 H   0  0  0  0  0  0
  1  2  1  0  0  0
  1 36  1  0  0  0
  1 37  1  0  0  0
  1 38  1  0  0  0
  2  3  1  0  0  0
  2 39  1  0  0  0
  2 40  1  0  0  0
  3  4  1  0  0  0
  3 41  1  0  0  0
  3 42  1  0  0  0
  4 35  1  0  0  0
  4  5  1  0  0  0
  4 66  1  0  0  0
  5  6  1  0  0  0
  5 43  1  0  0  0
  5 44  1  0  0  0
  6  7  1  0  0  0
  6 45  1  0  0  0
  6 46  1  0  0  0
  7 11  1  0  0  0
  7  8  2  0  0  0
  8  9  1  0  0  0
  8 35  1  0  0  0
  9 10  1  0  0  0
 10 11  2  0  0  0
 10 17  1  0  0  0
 11 12  1  0  0  0
 12 13  2  0  0  0
 12 14  1  0  0  0
 14 15  1  0  0  0
 15 16  1  0  0  0
 15 47  1  0  0  0
 15 48  1  0  0  0
 16 49  1  0  0  0
 16 50  1  0  0  0
 16 51  1  0  0  0
 17 18  1  0  0  0
 17 52  1  0  0  0
 18 19  2  0  0  0
 18 20  1  0  0  0
 20 21  1  0  0  0
 20 26  1  0  0  0
 20 22  1  0  0  0
 22 23  1  0  0  0
 22 53  1  0  0  0
 22 54  1  0  0  0
 23 24  1  0  0  0
 23 55  1  0  0  0
 23 56  1  0  0  0
 24 25  1  0  0  0
 24 57  1  0  0  0
 24 58  1  0  0  0
 25 26  1  0  0  0
 25 59  1  0  0  0
 25 60  1  0  0  0
 26 27  1  0  0  0
 27 28  2  0  0  0
 27 29  2  0  0  0
 27 30  1  0  0  0
 30 34  1  0  0  0
 30 31  2  0  0  0
 31 32  1  0  0  0
 31 61  1  0  0  0
 32 33  2  0  0  0
 32 62  1  0  0  0
 33 34  1  0  0  0
 33 63  1  0  0  0
 35 64  1  0  0  0
 35 65  1  0  0  0
M  CHG  1   4   1
M  END
> <i_i_glide_confnum>
317

> <i_i_glide_lignum>
1103

> <i_i_glide_posenum>
226

> <i_i_glide_rotatable_bonds>
10

> <i_m_Source_File_Index>
4383

> <b_m_subgroup_collapsed>
0

> <r_i_docking_score>
-3.22372

> <r_i_glide_ecoul>
-0.533511

> <r_i_glide_eff_state_penalty>
0

> <r_i_glide_einternal>
9.00824

> <r_i_glide_emodel>
-40.6749

> <r_i_glide_energy>
-37.528

> <r_i_glide_erotb>
0.593759

> <r_i_glide_esite>
-0.0411738

> <r_i_glide_evdw>
-36.9945

> <r_i_glide_gscore>
-3.22372

> <r_i_glide_hbond>
0

> <r_i_glide_ligand_efficiency>
-0.0948153

> <r_i_glide_ligand_efficiency_ln>
-0.71221

> <r_i_glide_ligand_efficiency_sa>
-0.307165

> <r_i_glide_lipo>
-2.59699

> <r_i_glide_metal>
0

> <r_i_glide_rewards>
0.750436

> <s_i_glide_gridfile>
wee1_glide-grid

> <s_m_Source_File>
wee1_decoys_glide_SP.sdf

> <s_m_Source_Path>
/Users/zhangxujun/Desktop

> <s_m_entry_id>
4658

> <s_m_entry_name>
wee1_decoys_glide_SP.4383

> <s_m_subgroup_title>
wee1_decoys_glide_SP

> <s_m_subgroupid>
wee1_decoys_glide_SP


$$$$
