ZINC63819103_1263
                    3D
 Schrodinger Suite 2024-2.
 67 71  0  0  1  0            999 V2000
    6.6838   54.0966   28.4519 C   0  0  0  0  0  0
    5.3762   54.3269   27.8406 N   0  0  0  0  0  0
    4.2115   54.2325   28.7213 C   0  0  0  0  0  0
    5.2122   54.3027   26.4297 C   0  0  0  0  0  0
    3.9548   54.5144   25.8500 C   0  0  0  0  0  0
    3.8018   54.5584   24.4690 C   0  0  0  0  0  0
    4.8877   54.3483   23.6181 C   0  0  0  0  0  0
    6.1409   54.0967   24.1888 C   0  0  0  0  0  0
    6.3006   54.0967   25.5707 C   0  0  0  0  0  0
    4.7141   54.5098   22.0934 C   0  0  1  0  0  0
    3.9222   55.2493   21.9659 H   0  0  0  0  0  0
    5.9895   55.1742   21.4470 C   0  0  0  0  0  0
    5.9045   55.5259   20.0251 N   0  0  0  0  0  0
    6.3044   56.6693   19.4423 C   0  0  0  0  0  0
    6.7044   57.6361   20.0822 O   0  0  0  0  0  0
    6.2552   56.7775   17.9035 C   0  0  0  0  0  0
    6.4056   55.4679   17.2255 N   0  0  0  0  0  0
    7.5952   54.8448   17.0721 C   0  0  0  0  0  0
    8.7005   55.2165   17.4712 O   0  0  0  0  0  0
    7.3134   53.6071   16.2251 C   0  0  0  0  0  0
    7.8835   52.3187   16.8812 C   0  0  0  0  0  0
    8.6464   51.5777   15.7798 C   0  0  0  0  0  0
    9.1968   52.6983   14.9044 C   0  0  0  0  0  0
    8.0583   53.7229   14.8642 C   0  0  0  0  0  0
    5.8796   53.6934   16.1604 N   0  0  0  0  0  0
    5.3465   54.7619   16.7597 C   0  0  0  0  0  0
    4.1673   54.9025   17.0744 O   0  0  0  0  0  0
    4.1387   53.2676   21.3742 C   0  0  0  0  0  0
    3.1914   52.3388   21.6852 C   0  0  0  0  0  0
    2.3044   52.1456   22.8528 C   0  0  0  0  0  0
    1.4966   51.0720   22.9605 C   0  0  0  0  0  0
    1.5108   50.0964   21.8850 C   0  0  0  0  0  0
    2.2850   50.2607   20.7838 C   0  0  0  0  0  0
    3.1106   51.3840   20.6614 C   0  0  0  0  0  0
    3.9044   51.6967   19.6817 N   0  3  0  0  0  0
    4.5866   52.9395   19.9646 C   0  0  0  0  0  0
    7.4875   54.5961   27.9133 H   0  0  0  0  0  0
    6.7029   54.4967   29.4646 H   0  0  0  0  0  0
    6.9124   53.0312   28.4815 H   0  0  0  0  0  0
    3.6618   53.3115   28.5218 H   0  0  0  0  0  0
    4.4934   54.2278   29.7746 H   0  0  0  0  0  0
    3.5300   55.0687   28.5627 H   0  0  0  0  0  0
    3.0846   54.6985   26.4584 H   0  0  0  0  0  0
    2.8358   54.8209   24.0631 H   0  0  0  0  0  0
    7.0163   53.9222   23.5826 H   0  0  0  0  0  0
    7.2870   53.9057   25.9542 H   0  0  0  0  0  0
    6.8360   54.4967   21.5159 H   0  0  0  0  0  0
    6.3044   56.0409   22.0353 H   0  0  0  0  0  0
    5.5805   54.8011   19.4056 H   0  0  0  0  0  0
    7.1009   57.3972   17.6007 H   0  0  0  0  0  0
    5.3531   57.3064   17.5920 H   0  0  0  0  0  0
    7.1050   51.6967   17.3244 H   0  0  0  0  0  0
    8.5926   52.5408   17.6815 H   0  0  0  0  0  0
    7.9674   50.9505   15.1997 H   0  0  0  0  0  0
    9.4321   50.9336   16.1779 H   0  0  0  0  0  0
    9.4840   52.3483   13.9115 H   0  0  0  0  0  0
   10.0821   53.1377   15.3686 H   0  0  0  0  0  0
    8.4122   54.7249   14.6100 H   0  0  0  0  0  0
    7.3840   53.4311   14.0570 H   0  0  0  0  0  0
    5.3607   53.1272   15.5053 H   0  0  0  0  0  0
    2.2443   52.8391   23.6672 H   0  0  0  0  0  0
    0.8513   50.9406   23.8180 H   0  0  0  0  0  0
    0.8871   49.2176   21.9660 H   0  0  0  0  0  0
    2.2598   49.5068   20.0089 H   0  0  0  0  0  0
    4.2315   53.6565   19.2259 H   0  0  0  0  0  0
    5.6546   52.7523   19.8493 H   0  0  0  0  0  0
    4.1112   51.1216   18.8536 H   0  0  0  0  0  0
  1  2  1  0  0  0
  1 37  1  0  0  0
  1 38  1  0  0  0
  1 39  1  0  0  0
  2  3  1  0  0  0
  2  4  1  0  0  0
  3 40  1  0  0  0
  3 41  1  0  0  0
  3 42  1  0  0  0
  4  9  2  0  0  0
  4  5  1  0  0  0
  5  6  2  0  0  0
  5 43  1  0  0  0
  6  7  1  0  0  0
  6 44  1  0  0  0
  7  8  2  0  0  0
  7 10  1  0  0  0
  8  9  1  0  0  0
  8 45  1  0  0  0
  9 46  1  0  0  0
 10 11  1  0  0  0
 10 12  1  0  0  0
 10 28  1  0  0  0
 12 13  1  0  0  0
 12 47  1  0  0  0
 12 48  1  0  0  0
 13 14  1  0  0  0
 13 49  1  0  0  0
 14 15  2  0  0  0
 14 16  1  0  0  0
 16 17  1  0  0  0
 16 50  1  0  0  0
 16 51  1  0  0  0
 17 26  1  0  0  0
 17 18  1  0  0  0
 18 19  2  0  0  0
 18 20  1  0  0  0
 20 24  1  0  0  0
 20 21  1  0  0  0
 20 25  1  0  0  0
 21 22  1  0  0  0
 21 52  1  0  0  0
 21 53  1  0  0  0
 22 23  1  0  0  0
 22 54  1  0  0  0
 22 55  1  0  0  0
 23 24  1  0  0  0
 23 56  1  0  0  0
 23 57  1  0  0  0
 24 58  1  0  0  0
 24 59  1  0  0  0
 25 26  1  0  0  0
 25 60  1  0  0  0
 26 27  2  0  0  0
 28 36  1  0  0  0
 28 29  2  0  0  0
 29 34  1  0  0  0
 29 30  1  0  0  0
 30 31  2  0  0  0
 30 61  1  0  0  0
 31 32  1  0  0  0
 31 62  1  0  0  0
 32 33  2  0  0  0
 32 63  1  0  0  0
 33 34  1  0  0  0
 33 64  1  0  0  0
 34 35  2  0  0  0
 35 36  1  0  0  0
 35 67  1  0  0  0
 36 65  1  0  0  0
 36 66  1  0  0  0
M  CHG  1  35   1
M  END
> <i_i_glide_confnum>
234

> <i_i_glide_lignum>
1264

> <i_i_glide_posenum>
59

> <i_i_glide_rotatable_bonds>
8

> <i_m_Source_File_Index>
1099

> <b_m_subgroup_collapsed>
0

> <r_i_docking_score>
-6.51004

> <r_i_glide_ecoul>
-7.28142

> <r_i_glide_eff_state_penalty>
0

> <r_i_glide_einternal>
7.64575

> <r_i_glide_emodel>
-61.1671

> <r_i_glide_energy>
-44.6222

> <r_i_glide_erotb>
0.539096

> <r_i_glide_esite>
-0.106708

> <r_i_glide_evdw>
-37.3408

> <r_i_glide_gscore>
-6.51004

> <r_i_glide_hbond>
-0.479147

> <r_i_glide_ligand_efficiency>
-0.186001

> <r_i_glide_ligand_efficiency_ln>
-1.4291

> <r_i_glide_ligand_efficiency_sa>
-0.608423

> <r_i_glide_lipo>
-2.79231

> <r_i_glide_metal>
0

> <r_i_glide_rewards>
-0.711722

> <s_i_glide_gridfile>
wee1_glide-grid

> <s_m_Source_File>
wee1_decoys_glide_SP.sdf

> <s_m_Source_Path>
/Users/zhangxujun/Desktop

> <s_m_entry_id>
1374

> <s_m_entry_name>
wee1_decoys_glide_SP.1099

> <s_m_subgroup_title>
wee1_decoys_glide_SP

> <s_m_subgroupid>
wee1_decoys_glide_SP


$$$$
