ZINC60331840_2786
                    3D
 Schrodinger Suite 2024-2.
 57 61  0  0  1  0            999 V2000
   -0.4360   57.3451   16.4799 C   0  0  0  0  0  0
    1.0441   57.0956   16.3266 C   0  0  0  0  0  0
    2.0823   57.9962   16.0795 C   0  0  0  0  0  0
    3.3543   57.4166   16.0343 C   0  0  0  0  0  0
    3.3104   56.0429   16.1861 C   0  0  0  0  0  0
    1.6929   55.4908   16.4799 S   0  0  0  0  0  0
    4.7492   54.9447   16.2009 S   0  0  0  0  0  0
    5.8411   55.7008   16.8256 O   0  0  0  0  0  0
    4.8598   54.4055   14.8418 O   0  0  0  0  0  0
    4.1997   53.6630   17.2932 N   0  0  0  0  0  0
    3.3822   52.5345   16.7808 C   0  0  0  0  0  0
    2.3206   52.1050   17.8280 C   0  0  0  0  0  0
    2.8962   51.9598   19.2630 C   0  0  0  0  0  0
    3.7417   53.2125   19.6249 C   0  0  2  0  0  0
    3.1044   54.0967   19.6424 H   0  0  0  0  0  0
    4.8632   53.4333   18.5932 C   0  0  0  0  0  0
    4.3453   53.0672   21.0316 C   0  0  0  0  0  0
    5.1034   52.1275   21.2859 O   0  0  0  0  0  0
    3.9764   54.0010   21.9293 N   0  0  0  0  0  0
    4.4511   54.0967   23.2390 C   0  0  0  0  0  0
    5.8208   54.2359   23.5034 C   0  0  0  0  0  0
    6.3136   54.3880   24.8018 C   0  0  0  0  0  0
    5.3695   54.3776   25.8317 C   0  0  0  0  0  0
    3.9807   54.2281   25.5839 C   0  0  0  0  0  0
    3.5123   54.0979   24.2698 C   0  0  0  0  0  0
    3.2625   54.2412   26.7464 N   0  0  0  0  0  0
    4.1570   54.4041   27.6888 C   0  0  0  0  0  0
    5.4413   54.4844   27.2032 N   0  0  0  0  0  0
    6.2519   54.5965   27.7947 H   0  0  0  0  0  0
    3.8360   54.4747   29.1762 C   0  0  0  0  0  0
    2.3828   54.8403   29.5483 C   0  0  0  0  0  0
    2.0723   53.3412   29.6801 C   0  0  0  0  0  0
    3.5800   53.1205   29.8699 C   0  0  0  0  0  0
   -1.0139   56.8038   15.7338 H   0  0  0  0  0  0
   -0.7916   57.0335   17.4628 H   0  0  0  0  0  0
   -0.6849   58.4011   16.3784 H   0  0  0  0  0  0
    1.9238   59.0575   15.9639 H   0  0  0  0  0  0
    4.2659   57.9809   15.8808 H   0  0  0  0  0  0
    4.0560   51.7006   16.5958 H   0  0  0  0  0  0
    2.9274   52.8101   15.8282 H   0  0  0  0  0  0
    1.8583   51.1689   17.5148 H   0  0  0  0  0  0
    1.5179   52.8425   17.8376 H   0  0  0  0  0  0
    3.5052   51.0550   19.2578 H   0  0  0  0  0  0
    2.0399   51.8473   19.9316 H   0  0  0  0  0  0
    5.4865   54.2917   18.8337 H   0  0  0  0  0  0
    5.4804   52.5377   18.4779 H   0  0  0  0  0  0
    3.2231   54.6221   21.6708 H   0  0  0  0  0  0
    6.5176   54.2355   22.6780 H   0  0  0  0  0  0
    7.3690   54.4984   24.9819 H   0  0  0  0  0  0
    2.4541   53.9868   24.0720 H   0  0  0  0  0  0
    4.5828   55.0913   29.6803 H   0  0  0  0  0  0
    1.8257   55.4051   28.7986 H   0  0  0  0  0  0
    2.3044   55.3957   30.4822 H   0  0  0  0  0  0
    1.6782   52.8943   28.7655 H   0  0  0  0  0  0
    1.4443   53.0620   30.5273 H   0  0  0  0  0  0
    3.8984   53.1110   30.9156 H   0  0  0  0  0  0
    4.0269   52.2499   29.3853 H   0  0  0  0  0  0
  1  2  1  0  0  0
  1 34  1  0  0  0
  1 35  1  0  0  0
  1 36  1  0  0  0
  2  6  1  0  0  0
  2  3  2  0  0  0
  3  4  1  0  0  0
  3 37  1  0  0  0
  4  5  2  0  0  0
  4 38  1  0  0  0
  5  6  1  0  0  0
  5  7  1  0  0  0
  7  8  2  0  0  0
  7  9  2  0  0  0
  7 10  1  0  0  0
 10 16  1  0  0  0
 10 11  1  0  0  0
 11 12  1  0  0  0
 11 39  1  0  0  0
 11 40  1  0  0  0
 12 13  1  0  0  0
 12 41  1  0  0  0
 12 42  1  0  0  0
 13 14  1  0  0  0
 13 43  1  0  0  0
 13 44  1  0  0  0
 14 15  1  0  0  0
 14 16  1  0  0  0
 14 17  1  0  0  0
 16 45  1  0  0  0
 16 46  1  0  0  0
 17 18  2  0  0  0
 17 19  1  0  0  0
 19 20  1  0  0  0
 19 47  1  0  0  0
 20 25  2  0  0  0
 20 21  1  0  0  0
 21 22  2  0  0  0
 21 48  1  0  0  0
 22 23  1  0  0  0
 22 49  1  0  0  0
 23 28  1  0  0  0
 23 24  2  0  0  0
 24 25  1  0  0  0
 24 26  1  0  0  0
 25 50  1  0  0  0
 26 27  2  0  0  0
 27 28  1  0  0  0
 27 30  1  0  0  0
 28 29  1  0  0  0
 30 33  1  0  0  0
 30 31  1  0  0  0
 30 51  1  0  0  0
 31 32  1  0  0  0
 31 52  1  0  0  0
 31 53  1  0  0  0
 32 33  1  0  0  0
 32 54  1  0  0  0
 32 55  1  0  0  0
 33 56  1  0  0  0
 33 57  1  0  0  0
M  END
> <i_i_glide_confnum>
164

> <i_i_glide_lignum>
2787

> <i_i_glide_posenum>
165

> <i_i_glide_rotatable_bonds>
6

> <i_m_Source_File_Index>
4044

> <b_m_subgroup_collapsed>
0

> <r_i_docking_score>
-4.01073

> <r_i_glide_ecoul>
-4.21752

> <r_i_glide_eff_state_penalty>
0

> <r_i_glide_einternal>
6.36597

> <r_i_glide_emodel>
-54.2561

> <r_i_glide_energy>
-48.743

> <r_i_glide_erotb>
0.573831

> <r_i_glide_esite>
-0.0290879

> <r_i_glide_evdw>
-44.5255

> <r_i_glide_gscore>
-4.01073

> <r_i_glide_hbond>
0

> <r_i_glide_ligand_efficiency>
-0.129378

> <r_i_glide_ligand_efficiency_ln>
-0.904542

> <r_i_glide_ligand_efficiency_sa>
-0.406426

> <r_i_glide_lipo>
-2.20058

> <r_i_glide_metal>
0

> <r_i_glide_rewards>
0.504012

> <s_i_glide_gridfile>
wee1_glide-grid

> <s_m_Source_File>
wee1_decoys_glide_SP.sdf

> <s_m_Source_Path>
/Users/zhangxujun/Desktop

> <s_m_entry_id>
4319

> <s_m_entry_name>
wee1_decoys_glide_SP.4044

> <s_m_subgroup_title>
wee1_decoys_glide_SP

> <s_m_subgroupid>
wee1_decoys_glide_SP


$$$$
