ZINC13994165_2956
                    3D
 Schrodinger Suite 2024-2.
 47 48  0  0  1  0            999 V2000
    6.2142   54.0880   28.8451 C   0  0  0  0  0  0
    5.5179   54.2393   27.5088 C   0  0  0  0  0  0
    6.2810   54.3633   26.3445 C   0  0  0  0  0  0
    5.6532   54.4981   25.1087 C   0  0  0  0  0  0
    4.2632   54.4871   25.0323 C   0  0  0  0  0  0
    3.5006   54.3552   26.1925 C   0  0  0  0  0  0
    4.1162   54.2483   27.4504 C   0  0  0  0  0  0
    3.4314   54.1656   28.6555 O   0  0  0  0  0  0
    1.9992   54.2098   28.7080 C   0  0  2  0  0  0
    1.6103   54.9779   28.0359 H   0  0  0  0  0  0
    1.6320   54.6513   30.1351 C   0  0  0  0  0  0
    1.3923   52.8226   28.3994 C   0  0  0  0  0  0
    2.0605   51.7920   28.5213 O   0  0  0  0  0  0
    0.1062   52.8542   27.9918 N   0  0  0  0  0  0
   -0.5529   51.6727   27.6699 N   0  0  0  0  0  0
   -0.8067   51.4223   26.3681 C   0  0  0  0  0  0
   -0.3718   52.1089   25.4356 O   0  0  0  0  0  0
   -1.7080   50.2113   26.0962 C   0  0  0  0  0  0
   -1.9444   50.1113   24.6937 O   0  0  0  0  0  0
   -2.4931   48.9195   24.2970 C   0  0  0  0  0  0
   -1.6799   47.8028   24.0337 C   0  0  0  0  0  0
   -2.2749   46.6086   23.6131 C   0  0  0  0  0  0
   -3.6570   46.5250   23.4545 C   0  0  0  0  0  0
   -4.4565   47.6350   23.7078 C   0  0  0  0  0  0
   -3.8805   48.8328   24.1235 C   0  0  0  0  0  0
   -4.9979   50.3442   24.4463 Br  0  0  0  0  0  0
   -4.4513   44.8952   22.8774 Br  0  0  0  0  0  0
   -0.1642   47.8756   24.1946 C   0  0  0  0  0  0
    5.9011   53.1428   29.2816 H   0  0  0  0  0  0
    7.3010   54.0957   28.7644 H   0  0  0  0  0  0
    5.9061   54.8908   29.5161 H   0  0  0  0  0  0
    7.3584   54.3505   26.3982 H   0  0  0  0  0  0
    6.2436   54.5927   24.2093 H   0  0  0  0  0  0
    3.7721   54.5762   24.0746 H   0  0  0  0  0  0
    2.4266   54.3362   26.0951 H   0  0  0  0  0  0
    0.5599   54.8284   30.2357 H   0  0  0  0  0  0
    1.9040   53.8954   30.8703 H   0  0  0  0  0  0
    2.1359   55.5838   30.3956 H   0  0  0  0  0  0
   -0.5009   53.6577   28.0505 H   0  0  0  0  0  0
   -0.9897   51.2043   28.4498 H   0  0  0  0  0  0
   -1.2181   49.3146   26.4817 H   0  0  0  0  0  0
   -2.6602   50.3462   26.6156 H   0  0  0  0  0  0
   -1.6664   45.7468   23.3978 H   0  0  0  0  0  0
   -5.5267   47.5724   23.5780 H   0  0  0  0  0  0
    0.2562   46.9094   24.4753 H   0  0  0  0  0  0
    0.3018   48.2211   23.2724 H   0  0  0  0  0  0
    0.1398   48.5570   24.9857 H   0  0  0  0  0  0
  1  2  1  0  0  0
  1 29  1  0  0  0
  1 30  1  0  0  0
  1 31  1  0  0  0
  2  7  2  0  0  0
  2  3  1  0  0  0
  3  4  2  0  0  0
  3 32  1  0  0  0
  4  5  1  0  0  0
  4 33  1  0  0  0
  5  6  2  0  0  0
  5 34  1  0  0  0
  6  7  1  0  0  0
  6 35  1  0  0  0
  7  8  1  0  0  0
  8  9  1  0  0  0
  9 10  1  0  0  0
  9 11  1  0  0  0
  9 12  1  0  0  0
 11 36  1  0  0  0
 11 37  1  0  0  0
 11 38  1  0  0  0
 12 13  2  0  0  0
 12 14  1  0  0  0
 14 15  1  0  0  0
 14 39  1  0  0  0
 15 16  1  0  0  0
 15 40  1  0  0  0
 16 17  2  0  0  0
 16 18  1  0  0  0
 18 19  1  0  0  0
 18 41  1  0  0  0
 18 42  1  0  0  0
 19 20  1  0  0  0
 20 25  2  0  0  0
 20 21  1  0  0  0
 21 22  2  0  0  0
 21 28  1  0  0  0
 22 23  1  0  0  0
 22 43  1  0  0  0
 23 24  2  0  0  0
 23 27  1  0  0  0
 24 25  1  0  0  0
 24 44  1  0  0  0
 25 26  1  0  0  0
 28 45  1  0  0  0
 28 46  1  0  0  0
 28 47  1  0  0  0
M  END
> <i_i_glide_confnum>
269

> <i_i_glide_lignum>
2957

> <i_i_glide_posenum>
138

> <i_i_glide_rotatable_bonds>
9

> <i_m_Source_File_Index>
1741

> <b_m_subgroup_collapsed>
0

> <r_i_docking_score>
-3.72194

> <r_i_glide_ecoul>
-1.37214

> <r_i_glide_eff_state_penalty>
0

> <r_i_glide_einternal>
4.25631

> <r_i_glide_emodel>
-44.9709

> <r_i_glide_energy>
-36.7904

> <r_i_glide_erotb>
0.734512

> <r_i_glide_esite>
-0.087863

> <r_i_glide_evdw>
-35.4183

> <r_i_glide_gscore>
-3.72194

> <r_i_glide_hbond>
0

> <r_i_glide_ligand_efficiency>
-0.13785

> <r_i_glide_ligand_efficiency_ln>
-0.866407

> <r_i_glide_ligand_efficiency_sa>
-0.413549

> <r_i_glide_lipo>
-2.10081

> <r_i_glide_metal>
0

> <r_i_glide_rewards>
-0.291046

> <s_i_glide_gridfile>
wee1_glide-grid

> <s_m_Source_File>
wee1_decoys_glide_SP.sdf

> <s_m_Source_Path>
/Users/zhangxujun/Desktop

> <s_m_entry_id>
2016

> <s_m_entry_name>
wee1_decoys_glide_SP.1741

> <s_m_subgroup_title>
wee1_decoys_glide_SP

> <s_m_subgroupid>
wee1_decoys_glide_SP


$$$$
