ZINC32284616_2113
                    3D
 Schrodinger Suite 2024-2.
 59 62  0  0  1  0            999 V2000
    1.2315   46.5458   17.5330 C   0  0  0  0  0  0
    1.1275   47.5099   18.7009 C   0  0  0  0  0  0
    2.2427   48.2552   19.0931 C   0  0  0  0  0  0
    2.1563   49.1383   20.1660 C   0  0  0  0  0  0
    0.9474   49.3016   20.8482 C   0  0  0  0  0  0
   -0.1713   48.5610   20.4551 C   0  0  0  0  0  0
   -0.0797   47.6648   19.3900 C   0  0  0  0  0  0
   -1.1692   46.9414   19.0328 F   0  0  0  0  0  0
    0.8467   50.4547   22.2151 S   0  0  0  0  0  0
   -0.5367   50.4536   22.6982 O   0  0  0  0  0  0
    1.9719   50.1803   23.1172 O   0  0  0  0  0  0
    1.1180   52.0524   21.5156 N   0  0  0  0  0  0
    2.3992   52.4965   21.1857 C   0  0  0  0  0  0
    2.8374   52.4361   19.8647 C   0  0  0  0  0  0
    4.0994   52.9155   19.5257 C   0  0  0  0  0  0
    4.9230   53.4664   20.5062 C   0  0  0  0  0  0
    4.5090   53.5377   21.8466 C   0  0  0  0  0  0
    3.2248   53.0530   22.1677 C   0  0  0  0  0  0
    5.4540   54.0966   22.8928 C   0  0  0  0  0  0
    6.5725   54.4974   22.5728 O   0  0  0  0  0  0
    5.0257   54.0958   24.1710 N   0  0  0  0  0  0
    5.8472   54.3196   25.3665 C   0  0  1  0  0  0
    6.6314   53.5565   25.3419 H   0  0  0  0  0  0
    6.5308   55.6983   25.4029 C   0  0  0  0  0  0
    5.0417   54.0967   26.6496 C   0  0  0  0  0  0
    5.5610   53.3206   27.6870 C   0  0  0  0  0  0
    4.8217   53.1165   28.8501 C   0  0  0  0  0  0
    3.5708   53.6986   29.0263 C   0  0  0  0  0  0
    3.0335   54.4940   27.9875 C   0  0  0  0  0  0
    3.7725   54.6634   26.8114 C   0  0  0  0  0  0
    1.8409   55.1837   28.0818 O   0  0  0  0  0  0
    1.4659   55.7027   29.3530 C   0  0  0  0  0  0
    0.7949   54.6430   30.2368 C   0  0  0  0  0  0
    1.4992   53.2829   30.1813 C   0  0  0  0  0  0
    2.9167   53.4041   30.2096 O   0  0  0  0  0  0
    2.1883   46.6323   17.0158 H   0  0  0  0  0  0
    0.4410   46.7491   16.8114 H   0  0  0  0  0  0
    1.1050   45.5214   17.8792 H   0  0  0  0  0  0
    3.1823   48.1527   18.5665 H   0  0  0  0  0  0
    3.0321   49.6975   20.4616 H   0  0  0  0  0  0
   -1.1132   48.6655   20.9748 H   0  0  0  0  0  0
    0.3263   52.5229   21.1080 H   0  0  0  0  0  0
    2.2066   52.0160   19.0956 H   0  0  0  0  0  0
    4.4424   52.8522   18.5021 H   0  0  0  0  0  0
    5.8981   53.8279   20.2110 H   0  0  0  0  0  0
    2.8508   53.0887   23.1800 H   0  0  0  0  0  0
    4.1317   53.6633   24.3464 H   0  0  0  0  0  0
    7.0529   55.8561   26.3453 H   0  0  0  0  0  0
    7.2709   55.8160   24.6109 H   0  0  0  0  0  0
    5.7966   56.4964   25.2817 H   0  0  0  0  0  0
    6.5362   52.8603   27.5964 H   0  0  0  0  0  0
    5.2149   52.4954   29.6373 H   0  0  0  0  0  0
    3.3747   55.2861   26.0243 H   0  0  0  0  0  0
    0.7761   56.5312   29.1874 H   0  0  0  0  0  0
    2.3239   56.1589   29.8493 H   0  0  0  0  0  0
   -0.2397   54.4968   29.9279 H   0  0  0  0  0  0
    0.7551   55.0061   31.2640 H   0  0  0  0  0  0
    1.1831   52.7055   29.3105 H   0  0  0  0  0  0
    1.1931   52.6852   31.0397 H   0  0  0  0  0  0
  1  2  1  0  0  0
  1 36  1  0  0  0
  1 37  1  0  0  0
  1 38  1  0  0  0
  2  7  2  0  0  0
  2  3  1  0  0  0
  3  4  2  0  0  0
  3 39  1  0  0  0
  4  5  1  0  0  0
  4 40  1  0  0  0
  5  6  2  0  0  0
  5  9  1  0  0  0
  6  7  1  0  0  0
  6 41  1  0  0  0
  7  8  1  0  0  0
  9 10  2  0  0  0
  9 11  2  0  0  0
  9 12  1  0  0  0
 12 13  1  0  0  0
 12 42  1  0  0  0
 13 18  2  0  0  0
 13 14  1  0  0  0
 14 15  2  0  0  0
 14 43  1  0  0  0
 15 16  1  0  0  0
 15 44  1  0  0  0
 16 17  2  0  0  0
 16 45  1  0  0  0
 17 18  1  0  0  0
 17 19  1  0  0  0
 18 46  1  0  0  0
 19 20  2  0  0  0
 19 21  1  0  0  0
 21 22  1  0  0  0
 21 47  1  0  0  0
 22 23  1  0  0  0
 22 24  1  0  0  0
 22 25  1  0  0  0
 24 48  1  0  0  0
 24 49  1  0  0  0
 24 50  1  0  0  0
 25 30  2  0  0  0
 25 26  1  0  0  0
 26 27  2  0  0  0
 26 51  1  0  0  0
 27 28  1  0  0  0
 27 52  1  0  0  0
 28 35  1  0  0  0
 28 29  2  0  0  0
 29 30  1  0  0  0
 29 31  1  0  0  0
 30 53  1  0  0  0
 31 32  1  0  0  0
 32 33  1  0  0  0
 32 54  1  0  0  0
 32 55  1  0  0  0
 33 34  1  0  0  0
 33 56  1  0  0  0
 33 57  1  0  0  0
 34 35  1  0  0  0
 34 58  1  0  0  0
 34 59  1  0  0  0
M  END
> <i_i_glide_confnum>
40

> <i_i_glide_lignum>
2114

> <i_i_glide_posenum>
61

> <i_i_glide_rotatable_bonds>
7

> <i_m_Source_File_Index>
634

> <b_m_subgroup_collapsed>
0

> <r_i_docking_score>
-5.54823

> <r_i_glide_ecoul>
-1.79193

> <r_i_glide_eff_state_penalty>
0

> <r_i_glide_einternal>
7.30869

> <r_i_glide_emodel>
-62.1052

> <r_i_glide_energy>
-49.4498

> <r_i_glide_erotb>
0.519006

> <r_i_glide_esite>
-2.82955e-05

> <r_i_glide_evdw>
-47.6579

> <r_i_glide_gscore>
-5.54823

> <r_i_glide_hbond>
-0.32

> <r_i_glide_ligand_efficiency>
-0.163183

> <r_i_glide_ligand_efficiency_ln>
-1.22576

> <r_i_glide_ligand_efficiency_sa>
-0.52865

> <r_i_glide_lipo>
-3.07474

> <r_i_glide_metal>
0

> <r_i_glide_rewards>
-0.0207837

> <s_i_glide_gridfile>
wee1_glide-grid

> <s_m_Source_File>
wee1_decoys_glide_SP.sdf

> <s_m_Source_Path>
/Users/zhangxujun/Desktop

> <s_m_entry_id>
909

> <s_m_entry_name>
wee1_decoys_glide_SP.634

> <s_m_subgroup_title>
wee1_decoys_glide_SP

> <s_m_subgroupid>
wee1_decoys_glide_SP


$$$$
