ZINC59660416_5221
                    3D
 Schrodinger Suite 2024-2.
 72 76  0  0  1  0            999 V2000
    5.2145   58.0093   14.2109 C   0  0  0  0  0  0
    4.6801   57.0776   15.3147 C   0  0  0  0  0  0
    5.5640   57.1291   16.5845 N   0  3  0  0  0  0
    5.4668   58.4985   17.3047 C   0  0  0  0  0  0
    6.4531   58.5945   18.4838 C   0  0  0  0  0  0
    5.3845   55.9600   17.4934 C   0  0  0  0  0  0
    6.5359   55.3566   17.9886 C   0  0  0  0  0  0
    6.4043   54.3002   18.8840 C   0  0  0  0  0  0
    5.1387   53.8442   19.2721 C   0  0  0  0  0  0
    3.9950   54.4392   18.7295 C   0  0  0  0  0  0
    4.1081   55.5131   17.8472 C   0  0  0  0  0  0
    5.0352   52.6937   20.2825 C   0  0  1  0  0  0
    5.9053   52.0704   20.0854 H   0  0  0  0  0  0
    5.0817   53.1521   21.7699 C   0  0  1  0  0  0
    5.2474   52.2227   22.3251 H   0  0  0  0  0  0
    6.1126   54.1395   22.3301 C   0  0  0  0  0  0
    5.4457   54.4963   23.6486 C   0  0  0  0  0  0
    4.1277   54.2200   23.6040 C   0  0  0  0  0  0
    3.7626   53.7668   22.2032 C   0  0  2  0  0  0
    3.5012   54.6335   21.5900 H   0  0  0  0  0  0
    2.6594   52.7425   22.0039 C   0  0  0  0  0  0
    1.5094   52.7483   22.7955 C   0  0  0  0  0  0
    0.4951   51.8108   22.6116 C   0  0  0  0  0  0
    0.6327   50.8389   21.6166 C   0  0  0  0  0  0
    1.7606   50.8412   20.7907 C   0  0  0  0  0  0
    2.7653   51.7964   20.9606 C   0  0  0  0  0  0
    3.8931   51.7712   20.1009 N   0  0  0  0  0  0
   -0.9751   51.8977   23.6453 S   0  0  0  0  0  0
   -2.0453   51.2086   22.9154 O   0  0  0  0  0  0
   -1.1315   53.2950   24.0616 O   0  0  0  0  0  0
   -0.6282   50.9439   25.1196 N   0  0  0  0  0  0
   -0.6828   49.4838   25.0373 C   0  0  0  0  0  0
    0.7046   48.8484   24.9566 C   0  0  0  0  0  0
   -0.2316   51.5322   26.3371 C   0  0  0  0  0  0
   -0.9714   51.2964   27.5008 C   0  0  0  0  0  0
   -0.5665   51.8486   28.7123 C   0  0  0  0  0  0
    0.5750   52.6454   28.7602 C   0  0  0  0  0  0
    1.3198   52.8883   27.6099 C   0  0  0  0  0  0
    0.9196   52.3295   26.3991 C   0  0  0  0  0  0
    4.6828   57.8348   13.2748 H   0  0  0  0  0  0
    5.0771   59.0634   14.4566 H   0  0  0  0  0  0
    6.2755   57.8403   14.0177 H   0  0  0  0  0  0
    4.7157   56.0346   14.9881 H   0  0  0  0  0  0
    3.6582   57.3198   15.6193 H   0  0  0  0  0  0
    5.6822   59.2732   16.5668 H   0  0  0  0  0  0
    4.4270   58.5928   17.6194 H   0  0  0  0  0  0
    6.4058   59.5842   18.9355 H   0  0  0  0  0  0
    6.2158   57.8764   19.2675 H   0  0  0  0  0  0
    7.4803   58.4280   18.1620 H   0  0  0  0  0  0
    7.5207   55.7051   17.7107 H   0  0  0  0  0  0
    7.2960   53.8381   19.2828 H   0  0  0  0  0  0
    3.0173   54.0673   19.0070 H   0  0  0  0  0  0
    3.2127   55.9784   17.4619 H   0  0  0  0  0  0
    7.0907   53.6990   22.5003 H   0  0  0  0  0  0
    6.2651   55.0063   21.6843 H   0  0  0  0  0  0
    5.9906   54.9128   24.4837 H   0  0  0  0  0  0
    3.3994   54.4011   24.3796 H   0  0  0  0  0  0
    1.3909   53.5124   23.5491 H   0  0  0  0  0  0
   -0.1433   50.1035   21.4664 H   0  0  0  0  0  0
    1.8485   50.1027   20.0061 H   0  0  0  0  0  0
    4.0031   51.1161   19.3293 H   0  0  0  0  0  0
   -1.2123   49.0773   25.9011 H   0  0  0  0  0  0
   -1.2443   49.1867   24.1496 H   0  0  0  0  0  0
    0.6276   47.7799   24.7602 H   0  0  0  0  0  0
    1.3146   49.2914   24.1680 H   0  0  0  0  0  0
    1.2392   48.9591   25.9016 H   0  0  0  0  0  0
   -1.8487   50.6633   27.4781 H   0  0  0  0  0  0
   -1.1319   51.6426   29.6115 H   0  0  0  0  0  0
    0.8897   53.0673   29.7024 H   0  0  0  0  0  0
    2.2136   53.4949   27.6589 H   0  0  0  0  0  0
    1.5211   52.4945   25.5216 H   0  0  0  0  0  0
    6.5051   57.0911   16.2213 H   0  0  0  0  0  0
  1  2  1  0  0  0
  1 40  1  0  0  0
  1 41  1  0  0  0
  1 42  1  0  0  0
  2  3  1  0  0  0
  2 43  1  0  0  0
  2 44  1  0  0  0
  3  4  1  0  0  0
  3  6  1  0  0  0
  3 72  1  0  0  0
  4  5  1  0  0  0
  4 45  1  0  0  0
  4 46  1  0  0  0
  5 47  1  0  0  0
  5 48  1  0  0  0
  5 49  1  0  0  0
  6 11  2  0  0  0
  6  7  1  0  0  0
  7  8  2  0  0  0
  7 50  1  0  0  0
  8  9  1  0  0  0
  8 51  1  0  0  0
  9 10  2  0  0  0
  9 12  1  0  0  0
 10 11  1  0  0  0
 10 52  1  0  0  0
 11 53  1  0  0  0
 12 13  1  0  0  0
 12 27  1  0  0  0
 12 14  1  0  0  0
 14 15  1  0  0  0
 14 19  1  0  0  0
 14 16  1  0  0  0
 16 17  1  0  0  0
 16 54  1  0  0  0
 16 55  1  0  0  0
 17 18  2  0  0  0
 17 56  1  0  0  0
 18 19  1  0  0  0
 18 57  1  0  0  0
 19 20  1  0  0  0
 19 21  1  0  0  0
 21 26  2  0  0  0
 21 22  1  0  0  0
 22 23  2  0  0  0
 22 58  1  0  0  0
 23 24  1  0  0  0
 23 28  1  0  0  0
 24 25  2  0  0  0
 24 59  1  0  0  0
 25 26  1  0  0  0
 25 60  1  0  0  0
 26 27  1  0  0  0
 27 61  1  0  0  0
 28 29  2  0  0  0
 28 30  2  0  0  0
 28 31  1  0  0  0
 31 32  1  0  0  0
 31 34  1  0  0  0
 32 33  1  0  0  0
 32 62  1  0  0  0
 32 63  1  0  0  0
 33 64  1  0  0  0
 33 65  1  0  0  0
 33 66  1  0  0  0
 34 39  2  0  0  0
 34 35  1  0  0  0
 35 36  2  0  0  0
 35 67  1  0  0  0
 36 37  1  0  0  0
 36 68  1  0  0  0
 37 38  2  0  0  0
 37 69  1  0  0  0
 38 39  1  0  0  0
 38 70  1  0  0  0
 39 71  1  0  0  0
M  CHG  1   3   1
M  END
> <i_i_glide_confnum>
31

> <i_i_glide_lignum>
5222

> <i_i_glide_posenum>
81

> <i_i_glide_rotatable_bonds>
8

> <i_m_Source_File_Index>
1272

> <b_m_subgroup_collapsed>
0

> <r_i_docking_score>
-3.25174

> <r_i_glide_ecoul>
-5.28515

> <r_i_glide_eff_state_penalty>
0

> <r_i_glide_einternal>
3.11173

> <r_i_glide_emodel>
-48.4602

> <r_i_glide_energy>
-43.1989

> <r_i_glide_erotb>
0.404333

> <r_i_glide_esite>
-0.0960728

> <r_i_glide_evdw>
-37.9137

> <r_i_glide_gscore>
-3.25174

> <r_i_glide_hbond>
-0.132185

> <r_i_glide_ligand_efficiency>
-0.0903261

> <r_i_glide_ligand_efficiency_ln>
-0.709442

> <r_i_glide_ligand_efficiency_sa>
-0.29825

> <r_i_glide_lipo>
-1.65577

> <r_i_glide_metal>
0

> <r_i_glide_rewards>
0.916411

> <s_i_glide_gridfile>
wee1_glide-grid

> <s_m_Source_File>
wee1_decoys_glide_SP.sdf

> <s_m_Source_Path>
/Users/zhangxujun/Desktop

> <s_m_entry_id>
1547

> <s_m_entry_name>
wee1_decoys_glide_SP.1272

> <s_m_subgroup_title>
wee1_decoys_glide_SP

> <s_m_subgroupid>
wee1_decoys_glide_SP


$$$$
