ZINC48832367_4691
                    3D
 Schrodinger Suite 2024-2.
 31 32  0  0  1  0            999 V2000
    6.5509   55.2990   25.1393 C   0  0  0  0  0  0
    5.3280   54.4945   24.9778 N   0  0  0  0  0  0
    4.6876   54.1092   26.1996 C   0  0  0  0  0  0
    3.2938   54.1385   26.3589 C   0  0  0  0  0  0
    2.6964   53.7155   27.5432 C   0  0  0  0  0  0
    3.4777   53.2629   28.6158 C   0  0  0  0  0  0
    4.8716   53.2800   28.4788 C   0  0  0  0  0  0
    5.4672   53.6963   27.2909 C   0  0  0  0  0  0
    2.8540   52.7314   29.8901 C   0  0  0  0  0  0
    3.5060   52.1036   30.7211 O   0  0  0  0  0  0
    1.5602   52.9802   30.0966 N   0  0  0  0  0  0
    4.8084   54.1523   23.7436 C   0  0  0  0  0  0
    3.7386   53.5489   23.6135 O   0  0  0  0  0  0
    5.4925   54.4992   22.4961 C   0  0  0  0  0  0
    6.7185   55.1072   22.1751 C   0  0  0  0  0  0
    6.8228   55.2967   20.7939 C   0  0  0  0  0  0
    5.6740   54.7594   20.2475 C   0  0  0  0  0  0
    4.9004   54.2798   21.2708 N   0  0  0  0  0  0
    3.9930   53.8508   21.1525 H   0  0  0  0  0  0
    8.2755   56.0941   19.8617 Br  0  0  0  0  0  0
    6.6725   55.6592   26.1625 H   0  0  0  0  0  0
    7.4374   54.7154   24.8839 H   0  0  0  0  0  0
    6.5076   56.1977   24.5239 H   0  0  0  0  0  0
    2.6550   54.4926   25.5648 H   0  0  0  0  0  0
    1.6167   53.7274   27.5932 H   0  0  0  0  0  0
    5.5068   52.9324   29.2803 H   0  0  0  0  0  0
    6.5433   53.6491   27.2167 H   0  0  0  0  0  0
    1.0159   53.4835   29.4150 H   0  0  0  0  0  0
    1.1115   52.6264   30.9286 H   0  0  0  0  0  0
    7.5038   55.4156   22.8436 H   0  0  0  0  0  0
    5.3411   54.6752   19.2225 H   0  0  0  0  0  0
  1  2  1  0  0  0
  1 21  1  0  0  0
  1 22  1  0  0  0
  1 23  1  0  0  0
  2  3  1  0  0  0
  2 12  1  0  0  0
  3  8  2  0  0  0
  3  4  1  0  0  0
  4  5  2  0  0  0
  4 24  1  0  0  0
  5  6  1  0  0  0
  5 25  1  0  0  0
  6  7  2  0  0  0
  6  9  1  0  0  0
  7  8  1  0  0  0
  7 26  1  0  0  0
  8 27  1  0  0  0
  9 10  2  0  0  0
  9 11  1  0  0  0
 11 28  1  0  0  0
 11 29  1  0  0  0
 12 13  2  0  0  0
 12 14  1  0  0  0
 14 18  1  0  0  0
 14 15  2  0  0  0
 15 16  1  0  0  0
 15 30  1  0  0  0
 16 17  2  0  0  0
 16 20  1  0  0  0
 17 18  1  0  0  0
 17 31  1  0  0  0
 18 19  1  0  0  0
M  END
> <i_i_glide_confnum>
6

> <i_i_glide_lignum>
4692

> <i_i_glide_posenum>
76

> <i_i_glide_rotatable_bonds>
4

> <i_m_Source_File_Index>
3484

> <b_m_subgroup_collapsed>
0

> <r_i_docking_score>
-6.40407

> <r_i_glide_ecoul>
-3.06588

> <r_i_glide_eff_state_penalty>
0

> <r_i_glide_einternal>
0.48039

> <r_i_glide_emodel>
-53.1977

> <r_i_glide_energy>
-38.2807

> <r_i_glide_erotb>
0.540437

> <r_i_glide_esite>
0

> <r_i_glide_evdw>
-35.2149

> <r_i_glide_gscore>
-6.40407

> <r_i_glide_hbond>
-0.2934

> <r_i_glide_ligand_efficiency>
-0.337056

> <r_i_glide_ligand_efficiency_ln>
-1.62357

> <r_i_glide_ligand_efficiency_sa>
-0.899401

> <r_i_glide_lipo>
-2.48871

> <r_i_glide_metal>
0

> <r_i_glide_rewards>
-1.94177

> <s_i_glide_gridfile>
wee1_glide-grid

> <s_m_Source_File>
wee1_decoys_glide_SP.sdf

> <s_m_Source_Path>
/Users/zhangxujun/Desktop

> <s_m_entry_id>
3759

> <s_m_entry_name>
wee1_decoys_glide_SP.3484

> <s_m_subgroup_title>
wee1_decoys_glide_SP

> <s_m_subgroupid>
wee1_decoys_glide_SP


$$$$
