ZINC62535612_6179
                    3D
 Schrodinger Suite 2024-2.
 38 39  0  0  1  0            999 V2000
    5.5845   53.6974   26.2979 C   0  0  0  0  0  0
    4.4843   54.5987   25.7042 C   0  0  1  0  0  0
    4.9169   55.5879   25.5492 H   0  0  0  0  0  0
    4.0713   54.0978   24.2829 C   0  0  0  0  0  0
    4.8198   54.2316   23.3103 O   0  0  0  0  0  0
    2.8385   53.5147   24.2547 N   0  0  0  0  0  0
    2.1113   53.1401   25.4076 C   0  0  0  0  0  0
    1.0796   52.1909   25.3818 C   0  0  0  0  0  0
    0.4017   51.8550   26.5499 C   0  0  0  0  0  0
    0.7211   52.4856   27.7488 C   0  0  0  0  0  0
    1.7222   53.4689   27.8199 C   0  0  0  0  0  0
    2.4217   53.7594   26.6264 C   0  0  0  0  0  0
    3.3876   54.7457   26.6262 O   0  0  0  0  0  0
    2.0355   54.2009   29.1612 C   0  0  0  0  0  0
    3.5111   53.9519   29.5705 C   0  0  0  0  0  0
    1.1415   53.7195   30.3402 C   0  0  0  0  0  0
    1.7751   55.7232   29.0200 C   0  0  0  0  0  0
   -0.5992   50.8882   26.5217 N   0  0  0  0  0  0
    2.3456   53.0514   22.9425 C   0  0  0  0  0  0
    6.4009   53.5196   25.5935 H   0  0  0  0  0  0
    6.0194   54.1570   27.1854 H   0  0  0  0  0  0
    5.1799   52.7337   26.6028 H   0  0  0  0  0  0
    0.8096   51.6835   24.4681 H   0  0  0  0  0  0
    0.1581   52.1977   28.6226 H   0  0  0  0  0  0
    4.2256   54.2984   28.8237 H   0  0  0  0  0  0
    3.7685   54.4838   30.4823 H   0  0  0  0  0  0
    3.7054   52.8904   29.7367 H   0  0  0  0  0  0
    0.0786   53.8528   30.1251 H   0  0  0  0  0  0
    1.3077   52.6664   30.5738 H   0  0  0  0  0  0
    1.3275   54.2802   31.2555 H   0  0  0  0  0  0
    0.7264   55.9257   28.8330 H   0  0  0  0  0  0
    2.0535   56.2689   29.9238 H   0  0  0  0  0  0
    2.3072   56.1867   28.1970 H   0  0  0  0  0  0
   -0.9047   50.4943   27.4048 H   0  0  0  0  0  0
   -0.6399   50.2819   25.7143 H   0  0  0  0  0  0
    2.8620   53.5139   22.0981 H   0  0  0  0  0  0
    2.4624   51.9703   22.8517 H   0  0  0  0  0  0
    1.2866   53.2920   22.8241 H   0  0  0  0  0  0
  1  2  1  0  0  0
  1 20  1  0  0  0
  1 21  1  0  0  0
  1 22  1  0  0  0
  2  3  1  0  0  0
  2 13  1  0  0  0
  2  4  1  0  0  0
  4  5  2  0  0  0
  4  6  1  0  0  0
  6  7  1  0  0  0
  6 19  1  0  0  0
  7 12  2  0  0  0
  7  8  1  0  0  0
  8  9  2  0  0  0
  8 23  1  0  0  0
  9 10  1  0  0  0
  9 18  1  0  0  0
 10 11  2  0  0  0
 10 24  1  0  0  0
 11 12  1  0  0  0
 11 14  1  0  0  0
 12 13  1  0  0  0
 14 15  1  0  0  0
 14 16  1  0  0  0
 14 17  1  0  0  0
 15 25  1  0  0  0
 15 26  1  0  0  0
 15 27  1  0  0  0
 16 28  1  0  0  0
 16 29  1  0  0  0
 16 30  1  0  0  0
 17 31  1  0  0  0
 17 32  1  0  0  0
 17 33  1  0  0  0
 18 34  1  0  0  0
 18 35  1  0  0  0
 19 36  1  0  0  0
 19 37  1  0  0  0
 19 38  1  0  0  0
M  END
> <i_i_glide_confnum>
1

> <i_i_glide_lignum>
6180

> <i_i_glide_posenum>
382

> <i_i_glide_rotatable_bonds>
1

> <i_m_Source_File_Index>
2447

> <b_m_subgroup_collapsed>
0

> <r_i_docking_score>
-5.95695

> <r_i_glide_ecoul>
-1.23723

> <r_i_glide_eff_state_penalty>
0

> <r_i_glide_einternal>
0.0635058

> <r_i_glide_emodel>
-37.8781

> <r_i_glide_energy>
-26.4755

> <r_i_glide_erotb>
0

> <r_i_glide_esite>
-0.0586613

> <r_i_glide_evdw>
-25.2383

> <r_i_glide_gscore>
-5.95695

> <r_i_glide_hbond>
-0.00824018

> <r_i_glide_ligand_efficiency>
-0.330942

> <r_i_glide_ligand_efficiency_ln>
-1.5312

> <r_i_glide_ligand_efficiency_sa>
-0.867312

> <r_i_glide_lipo>
-2.05745

> <r_i_glide_metal>
0

> <r_i_glide_rewards>
-2.3851

> <s_i_glide_gridfile>
wee1_glide-grid

> <s_m_Source_File>
wee1_decoys_glide_SP.sdf

> <s_m_Source_Path>
/Users/zhangxujun/Desktop

> <s_m_entry_id>
2722

> <s_m_entry_name>
wee1_decoys_glide_SP.2447

> <s_m_subgroup_title>
wee1_decoys_glide_SP

> <s_m_subgroupid>
wee1_decoys_glide_SP


$$$$
