ZINC09459295_4521
                    3D
 Schrodinger Suite 2024-2.
 61 65  0  0  1  0            999 V2000
    7.0820   53.7990   28.1891 C   0  0  0  0  0  0
    5.8029   54.5845   27.8477 C   0  0  2  0  0  0
    6.0164   55.6473   27.9823 H   0  0  0  0  0  0
    4.6568   54.2063   28.8099 C   0  0  0  0  0  0
    3.2759   54.8285   28.4848 C   0  0  0  0  0  0
    2.1260   54.1043   29.1632 C   0  0  0  0  0  0
    1.3253   54.7829   30.0819 C   0  0  0  0  0  0
    0.3045   54.1044   30.7406 C   0  0  0  0  0  0
    0.0549   52.7688   30.4412 C   0  0  0  0  0  0
    0.8255   52.0968   29.4986 C   0  0  0  0  0  0
    1.8679   52.7632   28.8596 C   0  0  0  0  0  0
    5.4000   54.3674   26.4612 N   0  0  0  0  0  0
    6.0305   54.7787   25.3514 C   0  0  0  0  0  0
    7.0980   55.3921   25.3588 O   0  0  0  0  0  0
    5.3335   54.4236   24.1309 C   0  0  0  0  0  0
    3.9924   53.9525   23.9330 C   0  0  0  0  0  0
    3.7914   53.7137   22.5511 C   0  0  0  0  0  0
    2.6490   53.2031   22.0798 N   0  0  0  0  0  0
    1.6595   52.8987   22.9571 C   0  0  0  0  0  0
    0.4546   52.3143   22.4977 C   0  0  0  0  0  0
   -0.5506   51.9955   23.4108 C   0  0  0  0  0  0
   -0.3804   52.2437   24.7711 C   0  0  0  0  0  0
    0.7991   52.8169   25.2484 C   0  0  0  0  0  0
    1.8365   53.1534   24.3465 C   0  0  0  0  0  0
    3.0015   53.6976   24.7970 N   0  0  0  0  0  0
    4.9436   54.0962   21.8545 N   0  0  0  0  0  0
    5.8564   54.5132   22.8361 C   0  0  0  0  0  0
    7.1040   54.9599   22.4694 N   0  0  0  0  0  0
    5.2854   54.1207   20.4919 N   0  0  0  0  0  0
    4.4729   53.7127   19.5953 C   0  0  0  0  0  0
    4.7754   53.6959   18.1598 C   0  0  0  0  0  0
    5.8593   54.4030   17.6167 C   0  0  0  0  0  0
    6.1129   54.3630   16.2487 C   0  0  0  0  0  0
    5.2889   53.6133   15.4128 C   0  0  0  0  0  0
    4.2160   52.8995   15.9355 C   0  0  0  0  0  0
    3.9585   52.9445   17.3033 C   0  0  0  0  0  0
    5.5340   53.5779   14.0825 F   0  0  0  0  0  0
    7.3760   53.9567   29.2272 H   0  0  0  0  0  0
    6.9451   52.7251   28.0583 H   0  0  0  0  0  0
    7.9047   54.1290   27.5647 H   0  0  0  0  0  0
    4.9284   54.4958   29.8260 H   0  0  0  0  0  0
    4.5753   53.1171   28.8174 H   0  0  0  0  0  0
    3.0611   54.8209   27.4175 H   0  0  0  0  0  0
    3.2708   55.8757   28.7840 H   0  0  0  0  0  0
    1.5071   55.8217   30.3149 H   0  0  0  0  0  0
   -0.2955   54.6164   31.4809 H   0  0  0  0  0  0
   -0.7424   52.2424   30.9473 H   0  0  0  0  0  0
    0.6198   51.0594   29.2747 H   0  0  0  0  0  0
    2.4725   52.2355   28.1358 H   0  0  0  0  0  0
    4.5339   53.8677   26.3312 H   0  0  0  0  0  0
    0.3228   52.1179   21.4431 H   0  0  0  0  0  0
   -1.4724   51.5461   23.0631 H   0  0  0  0  0  0
   -1.1682   51.9848   25.4665 H   0  0  0  0  0  0
    0.9246   53.0069   26.3046 H   0  0  0  0  0  0
    7.7965   55.2185   23.1702 H   0  0  0  0  0  0
    7.3947   54.9904   21.5032 H   0  0  0  0  0  0
    3.4814   53.3382   19.8221 H   0  0  0  0  0  0
    6.5118   54.9870   18.2501 H   0  0  0  0  0  0
    6.9460   54.9100   15.8305 H   0  0  0  0  0  0
    3.5921   52.3045   15.2869 H   0  0  0  0  0  0
    3.1322   52.3661   17.6907 H   0  0  0  0  0  0
  1  2  1  0  0  0
  1 38  1  0  0  0
  1 39  1  0  0  0
  1 40  1  0  0  0
  2  3  1  0  0  0
  2  4  1  0  0  0
  2 12  1  0  0  0
  4  5  1  0  0  0
  4 41  1  0  0  0
  4 42  1  0  0  0
  5  6  1  0  0  0
  5 43  1  0  0  0
  5 44  1  0  0  0
  6 11  2  0  0  0
  6  7  1  0  0  0
  7  8  2  0  0  0
  7 45  1  0  0  0
  8  9  1  0  0  0
  8 46  1  0  0  0
  9 10  2  0  0  0
  9 47  1  0  0  0
 10 11  1  0  0  0
 10 48  1  0  0  0
 11 49  1  0  0  0
 12 13  1  0  0  0
 12 50  1  0  0  0
 13 14  2  0  0  0
 13 15  1  0  0  0
 15 27  2  0  0  0
 15 16  1  0  0  0
 16 25  2  0  0  0
 16 17  1  0  0  0
 17 18  2  0  0  0
 17 26  1  0  0  0
 18 19  1  0  0  0
 19 24  2  0  0  0
 19 20  1  0  0  0
 20 21  2  0  0  0
 20 51  1  0  0  0
 21 22  1  0  0  0
 21 52  1  0  0  0
 22 23  2  0  0  0
 22 53  1  0  0  0
 23 24  1  0  0  0
 23 54  1  0  0  0
 24 25  1  0  0  0
 26 27  1  0  0  0
 26 29  1  0  0  0
 27 28  1  0  0  0
 28 55  1  0  0  0
 28 56  1  0  0  0
 29 30  2  0  0  0
 30 31  1  0  0  0
 30 57  1  0  0  0
 31 36  2  0  0  0
 31 32  1  0  0  0
 32 33  2  0  0  0
 32 58  1  0  0  0
 33 34  1  0  0  0
 33 59  1  0  0  0
 34 35  2  0  0  0
 34 37  1  0  0  0
 35 36  1  0  0  0
 35 60  1  0  0  0
 36 61  1  0  0  0
M  END
> <i_i_glide_confnum>
81

> <i_i_glide_lignum>
4522

> <i_i_glide_posenum>
286

> <i_i_glide_rotatable_bonds>
8

> <i_m_Source_File_Index>
1843

> <b_m_subgroup_collapsed>
0

> <r_i_docking_score>
-7.86783

> <r_i_glide_ecoul>
-6.99242

> <r_i_glide_eff_state_penalty>
0

> <r_i_glide_einternal>
4.27677

> <r_i_glide_emodel>
-83.8024

> <r_i_glide_energy>
-58.0001

> <r_i_glide_erotb>
0.614765

> <r_i_glide_esite>
-0.00976915

> <r_i_glide_evdw>
-51.0077

> <r_i_glide_gscore>
-7.86783

> <r_i_glide_hbond>
-0.588036

> <r_i_glide_ligand_efficiency>
-0.218551

> <r_i_glide_ligand_efficiency_ln>
-1.71655

> <r_i_glide_ligand_efficiency_sa>
-0.721639

> <r_i_glide_lipo>
-3.2445

> <r_i_glide_metal>
0

> <r_i_glide_rewards>
-1.04105

> <s_i_glide_gridfile>
wee1_glide-grid

> <s_m_Source_File>
wee1_decoys_glide_SP.sdf

> <s_m_Source_Path>
/Users/zhangxujun/Desktop

> <s_m_entry_id>
2118

> <s_m_entry_name>
wee1_decoys_glide_SP.1843

> <s_m_subgroup_title>
wee1_decoys_glide_SP

> <s_m_subgroupid>
wee1_decoys_glide_SP


$$$$
