ZINC58970078_4507
                    3D
 Schrodinger Suite 2024-2.
 58 61  0  0  1  0            999 V2000
    0.0269   53.4419   31.4845 C   0  0  0  0  0  0
    0.8063   53.6027   30.1985 C   0  0  0  0  0  0
    0.7704   52.5864   29.2454 C   0  0  0  0  0  0
    1.4879   52.7265   28.0625 C   0  0  0  0  0  0
    2.2561   53.8749   27.8241 C   0  0  0  0  0  0
    2.2789   54.8899   28.7891 C   0  0  0  0  0  0
    1.5405   54.7650   29.9639 C   0  0  0  0  0  0
    3.0373   54.0061   26.5668 C   0  0  0  0  0  0
    4.3586   54.4683   26.5390 C   0  0  0  0  0  0
    5.0040   54.4928   25.2959 C   0  0  0  0  0  0
    4.3749   54.1215   24.1461 N   0  0  0  0  0  0
    3.0934   53.6979   24.2659 C   0  0  0  0  0  0
    2.3993   53.6193   25.4299 N   0  0  0  0  0  0
    2.2870   53.1768   22.7867 S   0  0  0  0  0  0
    0.6513   52.5687   23.2825 C   0  0  0  0  0  0
   -0.1343   51.8543   22.1730 C   0  0  0  0  0  0
   -1.5503   51.4976   22.6262 C   0  0  0  0  0  0
   -2.4518   52.3232   22.4793 O   0  0  0  0  0  0
   -1.6735   50.2825   23.2002 N   0  0  0  0  0  0
   -2.7878   49.6995   23.8025 C   0  0  0  0  0  0
   -2.8011   48.4652   24.4911 C   0  0  0  0  0  0
   -4.1066   48.1272   24.9453 C   0  0  0  0  0  0
   -5.0488   49.1223   24.6526 C   0  0  0  0  0  0
   -4.3662   50.4364   23.7701 S   0  0  0  0  0  0
   -6.5275   49.0680   24.9995 C   0  0  0  0  0  0
   -6.7363   48.0568   26.1411 C   0  0  0  0  0  0
   -6.0404   46.7206   25.8355 C   0  0  0  0  0  0
   -4.5031   46.8562   25.7096 C   0  0  0  0  0  0
   -1.6443   47.5976   24.6615 C   0  0  0  0  0  0
   -1.7098   46.3723   24.5887 O   0  0  0  0  0  0
   -0.4903   48.2201   24.9075 N   0  0  0  0  0  0
    6.4724   54.8815   25.1522 C   0  0  0  0  0  0
    7.1033   54.8943   26.3307 F   0  0  0  0  0  0
    7.1041   54.0163   24.3586 F   0  0  0  0  0  0
    6.5585   56.0966   24.6186 F   0  0  0  0  0  0
    0.5984   52.8720   32.2193 H   0  0  0  0  0  0
   -0.2510   54.4024   31.9163 H   0  0  0  0  0  0
   -0.8954   52.8963   31.2825 H   0  0  0  0  0  0
    0.1930   51.6886   29.4176 H   0  0  0  0  0  0
    1.4582   51.9272   27.3342 H   0  0  0  0  0  0
    2.8547   55.7874   28.6213 H   0  0  0  0  0  0
    1.5500   55.5657   30.6903 H   0  0  0  0  0  0
    4.8680   54.7490   27.4495 H   0  0  0  0  0  0
    0.0861   53.4177   23.6753 H   0  0  0  0  0  0
    0.7999   51.8808   24.1178 H   0  0  0  0  0  0
    0.4244   50.9963   21.7963 H   0  0  0  0  0  0
   -0.1806   52.4966   21.2930 H   0  0  0  0  0  0
   -0.8364   49.7199   23.2442 H   0  0  0  0  0  0
   -7.1012   48.7587   24.1260 H   0  0  0  0  0  0
   -6.9091   50.0488   25.2870 H   0  0  0  0  0  0
   -7.8037   47.8951   26.3019 H   0  0  0  0  0  0
   -6.3496   48.4644   27.0771 H   0  0  0  0  0  0
   -6.4483   46.3105   24.9097 H   0  0  0  0  0  0
   -6.2764   45.9924   26.6136 H   0  0  0  0  0  0
   -4.0555   46.8842   26.7048 H   0  0  0  0  0  0
   -4.1169   45.9603   25.2247 H   0  0  0  0  0  0
   -0.5052   49.1845   25.1998 H   0  0  0  0  0  0
    0.3186   47.6602   25.1344 H   0  0  0  0  0  0
  1  2  1  0  0  0
  1 36  1  0  0  0
  1 37  1  0  0  0
  1 38  1  0  0  0
  2  7  2  0  0  0
  2  3  1  0  0  0
  3  4  2  0  0  0
  3 39  1  0  0  0
  4  5  1  0  0  0
  4 40  1  0  0  0
  5  6  2  0  0  0
  5  8  1  0  0  0
  6  7  1  0  0  0
  6 41  1  0  0  0
  7 42  1  0  0  0
  8 13  2  0  0  0
  8  9  1  0  0  0
  9 10  2  0  0  0
  9 43  1  0  0  0
 10 11  1  0  0  0
 10 32  1  0  0  0
 11 12  2  0  0  0
 12 13  1  0  0  0
 12 14  1  0  0  0
 14 15  1  0  0  0
 15 16  1  0  0  0
 15 44  1  0  0  0
 15 45  1  0  0  0
 16 17  1  0  0  0
 16 46  1  0  0  0
 16 47  1  0  0  0
 17 18  2  0  0  0
 17 19  1  0  0  0
 19 20  1  0  0  0
 19 48  1  0  0  0
 20 24  1  0  0  0
 20 21  2  0  0  0
 21 22  1  0  0  0
 21 29  1  0  0  0
 22 28  1  0  0  0
 22 23  2  0  0  0
 23 24  1  0  0  0
 23 25  1  0  0  0
 25 26  1  0  0  0
 25 49  1  0  0  0
 25 50  1  0  0  0
 26 27  1  0  0  0
 26 51  1  0  0  0
 26 52  1  0  0  0
 27 28  1  0  0  0
 27 53  1  0  0  0
 27 54  1  0  0  0
 28 55  1  0  0  0
 28 56  1  0  0  0
 29 30  2  0  0  0
 29 31  1  0  0  0
 31 57  1  0  0  0
 31 58  1  0  0  0
 32 33  1  0  0  0
 32 34  1  0  0  0
 32 35  1  0  0  0
M  END
> <i_i_glide_confnum>
155

> <i_i_glide_lignum>
4508

> <i_i_glide_posenum>
296

> <i_i_glide_rotatable_bonds>
9

> <i_m_Source_File_Index>
2799

> <b_m_subgroup_collapsed>
0

> <r_i_docking_score>
-6.26224

> <r_i_glide_ecoul>
-5.68941

> <r_i_glide_eff_state_penalty>
0

> <r_i_glide_einternal>
7.80919

> <r_i_glide_emodel>
-65.5955

> <r_i_glide_energy>
-49.4704

> <r_i_glide_erotb>
0.530836

> <r_i_glide_esite>
-0.145994

> <r_i_glide_evdw>
-43.781

> <r_i_glide_gscore>
-6.26224

> <r_i_glide_hbond>
-0.101666

> <r_i_glide_ligand_efficiency>
-0.178921

> <r_i_glide_ligand_efficiency_ln>
-1.3747

> <r_i_glide_ligand_efficiency_sa>
-0.585263

> <r_i_glide_lipo>
-2.56083

> <r_i_glide_metal>
0

> <r_i_glide_rewards>
-0.942128

> <s_i_glide_gridfile>
wee1_glide-grid

> <s_m_Source_File>
wee1_decoys_glide_SP.sdf

> <s_m_Source_Path>
/Users/zhangxujun/Desktop

> <s_m_entry_id>
3074

> <s_m_entry_name>
wee1_decoys_glide_SP.2799

> <s_m_subgroup_title>
wee1_decoys_glide_SP

> <s_m_subgroupid>
wee1_decoys_glide_SP


$$$$
