ZINC44004504_3282
                    3D
 Schrodinger Suite 2024-2.
 63 66  0  0  1  0            999 V2000
    4.6241   55.8432   16.9485 C   0  0  0  0  0  0
    4.5801   55.0594   18.1079 C   0  0  0  0  0  0
    5.4262   55.5161   19.1140 C   0  0  0  0  0  0
    6.2903   56.9532   18.5986 S   0  0  0  0  0  0
    5.4995   56.9126   17.0578 C   0  0  0  0  0  0
    5.5291   54.9352   20.3758 N   0  0  0  0  0  0
    6.3336   55.2941   21.4058 C   0  0  0  0  0  0
    7.2443   56.1159   21.2822 O   0  0  0  0  0  0
    6.0456   54.7049   22.6074 N   0  0  0  0  0  0
    5.0397   53.6213   22.7765 C   0  0  0  0  0  0
    4.1390   54.0152   23.9631 C   0  0  0  0  0  0
    4.9520   54.2007   25.2649 C   0  0  0  0  0  0
    5.9828   55.3146   25.0057 C   0  0  0  0  0  0
    6.8879   55.0063   23.7915 C   0  0  0  0  0  0
    4.0870   54.4689   26.5190 C   0  0  0  0  0  0
    3.0080   53.4958   26.6829 N   0  0  0  0  0  0
    1.9279   53.6567   27.4657 C   0  0  0  0  0  0
    1.8410   54.5506   28.3063 O   0  0  0  0  0  0
    0.7791   52.7039   27.2126 C   0  0  0  0  0  0
   -0.1569   52.4552   28.2265 C   0  0  0  0  0  0
   -1.2952   51.6981   27.9633 C   0  0  0  0  0  0
   -1.5081   51.1824   26.6836 C   0  0  0  0  0  0
   -0.5500   51.3646   25.6878 C   0  0  0  0  0  0
    0.5820   52.1285   25.9452 C   0  0  0  0  0  0
   -3.0224   50.2992   26.2930 S   0  0  0  0  0  0
   -3.7470   50.0931   27.5524 O   0  0  0  0  0  0
   -2.6396   49.1793   25.4231 O   0  0  0  0  0  0
   -3.9670   51.4405   25.3171 N   0  0  0  0  0  0
   -3.6128   51.6588   23.8904 C   0  0  0  0  0  0
   -3.0411   53.0699   23.6488 C   0  0  0  0  0  0
   -3.9667   54.1560   24.2319 C   0  0  0  0  0  0
   -4.2319   53.9049   25.7335 C   0  0  0  0  0  0
   -4.7857   52.4875   25.9807 C   0  0  0  0  0  0
    4.0323   55.6405   16.0676 H   0  0  0  0  0  0
    3.9474   54.1886   18.2080 H   0  0  0  0  0  0
    5.7162   57.6703   16.3187 H   0  0  0  0  0  0
    4.8611   54.2048   20.5557 H   0  0  0  0  0  0
    5.5760   52.7008   23.0005 H   0  0  0  0  0  0
    4.4024   53.4515   21.9082 H   0  0  0  0  0  0
    3.3966   53.2323   24.1007 H   0  0  0  0  0  0
    3.5422   54.8984   23.7399 H   0  0  0  0  0  0
    5.5309   53.2969   25.4406 H   0  0  0  0  0  0
    5.5039   56.2812   24.8824 H   0  0  0  0  0  0
    6.6012   55.4500   25.8952 H   0  0  0  0  0  0
    7.5084   54.1327   23.9996 H   0  0  0  0  0  0
    7.5081   55.8900   23.6370 H   0  0  0  0  0  0
    3.6132   55.4388   26.3783 H   0  0  0  0  0  0
    4.6996   54.5705   27.4173 H   0  0  0  0  0  0
    3.1091   52.6321   26.1737 H   0  0  0  0  0  0
   -0.0232   52.8736   29.2148 H   0  0  0  0  0  0
   -2.0201   51.5315   28.7483 H   0  0  0  0  0  0
   -0.7005   50.9478   24.7028 H   0  0  0  0  0  0
    1.2757   52.3006   25.1331 H   0  0  0  0  0  0
   -4.5036   51.4677   23.2907 H   0  0  0  0  0  0
   -2.8792   50.9083   23.5928 H   0  0  0  0  0  0
   -2.8839   53.2274   22.5830 H   0  0  0  0  0  0
   -2.0531   53.1559   24.1038 H   0  0  0  0  0  0
   -3.5397   55.1468   24.0809 H   0  0  0  0  0  0
   -4.9105   54.1643   23.6826 H   0  0  0  0  0  0
   -3.3036   54.0258   26.2975 H   0  0  0  0  0  0
   -4.9224   54.6495   26.1284 H   0  0  0  0  0  0
   -5.8160   52.3814   25.6333 H   0  0  0  0  0  0
   -4.8073   52.2913   27.0523 H   0  0  0  0  0  0
  1  5  2  0  0  0
  1  2  1  0  0  0
  1 34  1  0  0  0
  2  3  2  0  0  0
  2 35  1  0  0  0
  3  4  1  0  0  0
  3  6  1  0  0  0
  4  5  1  0  0  0
  5 36  1  0  0  0
  6  7  1  0  0  0
  6 37  1  0  0  0
  7  8  2  0  0  0
  7  9  1  0  0  0
  9 14  1  0  0  0
  9 10  1  0  0  0
 10 11  1  0  0  0
 10 38  1  0  0  0
 10 39  1  0  0  0
 11 12  1  0  0  0
 11 40  1  0  0  0
 11 41  1  0  0  0
 12 13  1  0  0  0
 12 15  1  0  0  0
 12 42  1  0  0  0
 13 14  1  0  0  0
 13 43  1  0  0  0
 13 44  1  0  0  0
 14 45  1  0  0  0
 14 46  1  0  0  0
 15 16  1  0  0  0
 15 47  1  0  0  0
 15 48  1  0  0  0
 16 17  1  0  0  0
 16 49  1  0  0  0
 17 18  2  0  0  0
 17 19  1  0  0  0
 19 24  2  0  0  0
 19 20  1  0  0  0
 20 21  2  0  0  0
 20 50  1  0  0  0
 21 22  1  0  0  0
 21 51  1  0  0  0
 22 23  2  0  0  0
 22 25  1  0  0  0
 23 24  1  0  0  0
 23 52  1  0  0  0
 24 53  1  0  0  0
 25 26  2  0  0  0
 25 27  2  0  0  0
 25 28  1  0  0  0
 28 33  1  0  0  0
 28 29  1  0  0  0
 29 30  1  0  0  0
 29 54  1  0  0  0
 29 55  1  0  0  0
 30 31  1  0  0  0
 30 56  1  0  0  0
 30 57  1  0  0  0
 31 32  1  0  0  0
 31 58  1  0  0  0
 31 59  1  0  0  0
 32 33  1  0  0  0
 32 60  1  0  0  0
 32 61  1  0  0  0
 33 62  1  0  0  0
 33 63  1  0  0  0
M  END
> <i_i_glide_confnum>
305

> <i_i_glide_lignum>
3283

> <i_i_glide_posenum>
361

> <i_i_glide_rotatable_bonds>
9

> <i_m_Source_File_Index>
3506

> <b_m_subgroup_collapsed>
0

> <r_i_docking_score>
-4.74491

> <r_i_glide_ecoul>
-0.411493

> <r_i_glide_eff_state_penalty>
0

> <r_i_glide_einternal>
8.16096

> <r_i_glide_emodel>
-51.5579

> <r_i_glide_energy>
-43.2611

> <r_i_glide_erotb>
0.76089

> <r_i_glide_esite>
-0.231621

> <r_i_glide_evdw>
-42.8496

> <r_i_glide_gscore>
-4.74491

> <r_i_glide_hbond>
-0.0963735

> <r_i_glide_ligand_efficiency>
-0.143785

> <r_i_glide_ligand_efficiency_ln>
-1.05524

> <r_i_glide_ligand_efficiency_sa>
-0.461196

> <r_i_glide_lipo>
-2.25479

> <r_i_glide_metal>
0

> <r_i_glide_rewards>
-0.718809

> <s_i_glide_gridfile>
wee1_glide-grid

> <s_m_Source_File>
wee1_decoys_glide_SP.sdf

> <s_m_Source_Path>
/Users/zhangxujun/Desktop

> <s_m_entry_id>
3781

> <s_m_entry_name>
wee1_decoys_glide_SP.3506

> <s_m_subgroup_title>
wee1_decoys_glide_SP

> <s_m_subgroupid>
wee1_decoys_glide_SP


$$$$
