ZINC00293613_1826
                    3D
 Schrodinger Suite 2024-2.
 35 38  0  0  1  0            999 V2000
    1.5048   52.8351   26.1830 C   0  0  0  0  0  0
    0.3553   52.3038   25.5739 C   0  0  0  0  0  0
    0.2285   52.4224   24.1724 C   0  0  0  0  0  0
    1.1718   52.9963   23.3738 N   0  0  0  0  0  0
    2.2738   53.4385   23.9724 C   0  0  0  0  0  0
    2.5031   53.3937   25.3638 C   0  0  0  0  0  0
    3.7583   53.9052   25.7341 C   0  0  0  0  0  0
    4.5561   54.3251   24.6428 C   0  0  0  0  0  0
    3.6703   54.0962   23.1363 S   0  0  0  0  0  0
    5.8489   54.7928   24.9191 C   0  0  0  0  0  0
    6.3027   54.8539   26.1950 N   0  0  0  0  0  0
    5.4512   54.4294   27.1652 C   0  0  0  0  0  0
    4.1895   53.9499   27.0024 N   0  0  0  0  0  0
    5.9034   54.4969   28.4749 N   0  0  0  0  0  0
    6.7043   55.1714   23.8912 N   0  0  0  0  0  0
   -0.9677   51.8497   23.4167 C   0  0  0  0  0  0
   -2.3256   52.4818   23.7606 C   0  0  0  0  0  0
   -2.9471   51.9540   25.0622 C   0  0  0  0  0  0
   -2.1446   52.2403   26.3421 C   0  0  0  0  0  0
   -0.7306   51.6286   26.4168 C   0  0  0  0  0  0
    1.6421   52.7687   27.2517 H   0  0  0  0  0  0
    6.7465   55.0213   28.6913 H   0  0  0  0  0  0
    5.2653   54.2267   29.2042 H   0  0  0  0  0  0
    6.3882   55.0334   22.9445 H   0  0  0  0  0  0
    7.6893   55.3063   24.0819 H   0  0  0  0  0  0
   -0.8050   51.9664   22.3433 H   0  0  0  0  0  0
   -0.9993   50.7712   23.5771 H   0  0  0  0  0  0
   -3.0211   52.2662   22.9479 H   0  0  0  0  0  0
   -2.2371   53.5698   23.7903 H   0  0  0  0  0  0
   -3.1086   50.8775   24.9757 H   0  0  0  0  0  0
   -3.9422   52.3891   25.1731 H   0  0  0  0  0  0
   -2.7223   51.8572   27.1850 H   0  0  0  0  0  0
   -2.0852   53.3158   26.5003 H   0  0  0  0  0  0
   -0.7550   50.5628   26.1805 H   0  0  0  0  0  0
   -0.4164   51.6607   27.4616 H   0  0  0  0  0  0
  1  6  2  0  0  0
  1  2  1  0  0  0
  1 21  1  0  0  0
  2 20  1  0  0  0
  2  3  2  0  0  0
  3  4  1  0  0  0
  3 16  1  0  0  0
  4  5  2  0  0  0
  5  9  1  0  0  0
  5  6  1  0  0  0
  6  7  1  0  0  0
  7 13  2  0  0  0
  7  8  1  0  0  0
  8  9  1  0  0  0
  8 10  2  0  0  0
 10 11  1  0  0  0
 10 15  1  0  0  0
 11 12  2  0  0  0
 12 13  1  0  0  0
 12 14  1  0  0  0
 14 22  1  0  0  0
 14 23  1  0  0  0
 15 24  1  0  0  0
 15 25  1  0  0  0
 16 17  1  0  0  0
 16 26  1  0  0  0
 16 27  1  0  0  0
 17 18  1  0  0  0
 17 28  1  0  0  0
 17 29  1  0  0  0
 18 19  1  0  0  0
 18 30  1  0  0  0
 18 31  1  0  0  0
 19 20  1  0  0  0
 19 32  1  0  0  0
 19 33  1  0  0  0
 20 34  1  0  0  0
 20 35  1  0  0  0
M  END
> <i_i_glide_confnum>
2

> <i_i_glide_lignum>
1827

> <i_i_glide_posenum>
271

> <i_i_glide_rotatable_bonds>
0

> <i_m_Source_File_Index>
3212

> <b_m_subgroup_collapsed>
0

> <r_i_docking_score>
-7.86959

> <r_i_glide_ecoul>
-4.90886

> <r_i_glide_eff_state_penalty>
0

> <r_i_glide_einternal>
0

> <r_i_glide_emodel>
-56.4197

> <r_i_glide_energy>
-38.8199

> <r_i_glide_erotb>
0

> <r_i_glide_esite>
0

> <r_i_glide_evdw>
-33.911

> <r_i_glide_gscore>
-7.86959

> <r_i_glide_hbond>
-0.608

> <r_i_glide_ligand_efficiency>
-0.39348

> <r_i_glide_ligand_efficiency_ln>
-1.9695

> <r_i_glide_ligand_efficiency_sa>
-1.06807

> <r_i_glide_lipo>
-1.85789

> <r_i_glide_metal>
0

> <r_i_glide_rewards>
-2.97183

> <s_i_glide_gridfile>
wee1_glide-grid

> <s_m_Source_File>
wee1_decoys_glide_SP.sdf

> <s_m_Source_Path>
/Users/zhangxujun/Desktop

> <s_m_entry_id>
3487

> <s_m_entry_name>
wee1_decoys_glide_SP.3212

> <s_m_subgroup_title>
wee1_decoys_glide_SP

> <s_m_subgroupid>
wee1_decoys_glide_SP


$$$$
