ZINC20693524_4276
                    3D
 Schrodinger Suite 2024-2.
 58 61  0  0  1  0            999 V2000
    3.3920   54.1893   17.8700 C   0  0  0  0  0  0
    3.0327   52.6935   17.9079 C   0  0  0  0  0  0
    1.8133   52.3353   18.7870 C   0  0  1  0  0  0
    2.0212   52.6996   19.7947 H   0  0  0  0  0  0
    0.5123   52.9768   18.2634 C   0  0  0  0  0  0
    1.7219   50.8553   18.8659 N   0  0  0  0  0  0
    0.3800   49.9796   19.6032 S   0  0  0  0  0  0
   -0.8905   50.4921   19.0771 O   0  0  0  0  0  0
    0.7022   48.5517   19.5090 O   0  0  0  0  0  0
    0.4516   50.3869   21.3447 C   0  0  0  0  0  0
    1.4803   49.8652   22.1254 C   0  0  0  0  0  0
    1.5020   50.1137   23.4939 C   0  0  0  0  0  0
    0.4924   50.8673   24.0974 C   0  0  0  0  0  0
   -0.5291   51.4487   23.3145 C   0  0  0  0  0  0
   -0.5288   51.1886   21.9360 C   0  0  0  0  0  0
   -1.6261   52.3125   23.9509 C   0  0  1  0  0  0
   -1.5267   53.3241   23.5550 H   0  0  0  0  0  0
   -3.0177   51.7517   23.7187 C   0  0  0  0  0  0
   -3.5063   51.1636   24.8225 C   0  0  0  0  0  0
   -2.5306   51.2684   25.9708 C   0  0  0  0  0  0
   -1.5463   52.3459   25.4877 C   0  0  1  0  0  0
   -1.9638   53.2968   25.8198 H   0  0  0  0  0  0
   -0.0848   52.2911   26.0221 C   0  0  2  0  0  0
    0.4473   53.1405   25.5898 H   0  0  0  0  0  0
    0.5871   51.1123   25.4818 N   0  0  0  0  0  0
    0.0377   52.4681   27.5445 C   0  0  0  0  0  0
   -0.5209   51.5382   28.4243 C   0  0  0  0  0  0
   -0.4525   51.7292   29.7999 C   0  0  0  0  0  0
    0.2217   52.8295   30.3241 C   0  0  0  0  0  0
    0.8015   53.7797   29.4708 C   0  0  0  0  0  0
    0.7033   53.5798   28.0817 C   0  0  0  0  0  0
    1.4305   54.8715   30.0481 O   0  0  0  0  0  0
    1.9268   55.9150   29.2165 C   0  0  0  0  0  0
    0.3044   52.9644   31.6862 O   0  0  0  0  0  0
    4.3305   54.3455   17.3379 H   0  0  0  0  0  0
    3.5115   54.5943   18.8756 H   0  0  0  0  0  0
    2.6319   54.7802   17.3593 H   0  0  0  0  0  0
    2.8832   52.3239   16.8917 H   0  0  0  0  0  0
    3.9048   52.1547   18.2820 H   0  0  0  0  0  0
    0.6261   54.0449   18.0822 H   0  0  0  0  0  0
    0.1871   52.5169   17.3296 H   0  0  0  0  0  0
   -0.2944   52.8843   18.9881 H   0  0  0  0  0  0
    2.6064   50.3453   18.7766 H   0  0  0  0  0  0
    2.2508   49.2521   21.6785 H   0  0  0  0  0  0
    2.3045   49.6967   24.0820 H   0  0  0  0  0  0
   -1.3176   51.6005   21.3235 H   0  0  0  0  0  0
   -3.5041   51.7882   22.7573 H   0  0  0  0  0  0
   -4.4554   50.6561   24.9156 H   0  0  0  0  0  0
   -2.0481   50.3063   26.1511 H   0  0  0  0  0  0
   -3.0251   51.5713   26.8949 H   0  0  0  0  0  0
    1.3728   50.7773   26.0173 H   0  0  0  0  0  0
   -1.0129   50.6505   28.0572 H   0  0  0  0  0  0
   -0.9050   50.9999   30.4583 H   0  0  0  0  0  0
    1.1416   54.2907   27.3991 H   0  0  0  0  0  0
    2.3052   56.7253   29.8398 H   0  0  0  0  0  0
    2.7482   55.5614   28.5913 H   0  0  0  0  0  0
    1.1450   56.3322   28.5792 H   0  0  0  0  0  0
   -0.3333   52.4178   32.1788 H   0  0  0  0  0  0
  1  2  1  0  0  0
  1 35  1  0  0  0
  1 36  1  0  0  0
  1 37  1  0  0  0
  2  3  1  0  0  0
  2 38  1  0  0  0
  2 39  1  0  0  0
  3  4  1  0  0  0
  3  5  1  0  0  0
  3  6  1  0  0  0
  5 40  1  0  0  0
  5 41  1  0  0  0
  5 42  1  0  0  0
  6  7  1  0  0  0
  6 43  1  0  0  0
  7  8  2  0  0  0
  7  9  2  0  0  0
  7 10  1  0  0  0
 10 15  2  0  0  0
 10 11  1  0  0  0
 11 12  2  0  0  0
 11 44  1  0  0  0
 12 13  1  0  0  0
 12 45  1  0  0  0
 13 25  1  0  0  0
 13 14  2  0  0  0
 14 15  1  0  0  0
 14 16  1  0  0  0
 15 46  1  0  0  0
 16 17  1  0  0  0
 16 21  1  0  0  0
 16 18  1  0  0  0
 18 19  2  0  0  0
 18 47  1  0  0  0
 19 20  1  0  0  0
 19 48  1  0  0  0
 20 21  1  0  0  0
 20 49  1  0  0  0
 20 50  1  0  0  0
 21 22  1  0  0  0
 21 23  1  0  0  0
 23 24  1  0  0  0
 23 25  1  0  0  0
 23 26  1  0  0  0
 25 51  1  0  0  0
 26 31  2  0  0  0
 26 27  1  0  0  0
 27 28  2  0  0  0
 27 52  1  0  0  0
 28 29  1  0  0  0
 28 53  1  0  0  0
 29 30  2  0  0  0
 29 34  1  0  0  0
 30 31  1  0  0  0
 30 32  1  0  0  0
 31 54  1  0  0  0
 32 33  1  0  0  0
 33 55  1  0  0  0
 33 56  1  0  0  0
 33 57  1  0  0  0
 34 58  1  0  0  0
M  END
> <i_i_glide_confnum>
43

> <i_i_glide_lignum>
4277

> <i_i_glide_posenum>
91

> <i_i_glide_rotatable_bonds>
7

> <i_m_Source_File_Index>
1448

> <b_m_subgroup_collapsed>
0

> <r_i_docking_score>
-3.42512

> <r_i_glide_ecoul>
-6.79468

> <r_i_glide_eff_state_penalty>
0

> <r_i_glide_einternal>
6.23211

> <r_i_glide_emodel>
-42.1226

> <r_i_glide_energy>
-38.8401

> <r_i_glide_erotb>
0.43266

> <r_i_glide_esite>
-0.069278

> <r_i_glide_evdw>
-32.0455

> <r_i_glide_gscore>
-3.42512

> <r_i_glide_hbond>
-0.0175753

> <r_i_glide_ligand_efficiency>
-0.114171

> <r_i_glide_ligand_efficiency_ln>
-0.778225

> <r_i_glide_ligand_efficiency_sa>
-0.354755

> <r_i_glide_lipo>
-1.07045

> <r_i_glide_metal>
0

> <r_i_glide_rewards>
-0.079006

> <s_i_glide_gridfile>
wee1_glide-grid

> <s_m_Source_File>
wee1_decoys_glide_SP.sdf

> <s_m_Source_Path>
/Users/zhangxujun/Desktop

> <s_m_entry_id>
1723

> <s_m_entry_name>
wee1_decoys_glide_SP.1448

> <s_m_subgroup_title>
wee1_decoys_glide_SP

> <s_m_subgroupid>
wee1_decoys_glide_SP


$$$$
