ZINC34867669_4195
                    3D
 Schrodinger Suite 2024-2.
 69 73  0  0  1  0            999 V2000
    5.4366   54.4414   28.7209 C   0  0  0  0  0  0
    3.9626   53.9743   28.6921 C   0  0  1  0  0  0
    3.7317   52.5859   29.2645 C   0  0  0  0  0  0
    2.3135   52.3107   28.7450 C   0  0  1  0  0  0
    2.1076   51.2420   28.8124 H   0  0  0  0  0  0
    1.2706   53.1269   29.5438 C   0  0  0  0  0  0
    1.5227   54.6656   29.5596 C   0  0  0  0  0  0
    3.0497   54.9935   29.4572 C   0  0  0  0  0  0
    0.8497   55.2992   28.3326 C   0  0  0  0  0  0
    0.9115   55.2447   30.8504 C   0  0  0  0  0  0
    2.3765   52.7773   27.3466 N   0  0  0  0  0  0
    3.5306   53.6962   27.2360 C   0  0  0  0  0  0
    1.5044   52.4660   26.2776 C   0  0  0  0  0  0
    0.3793   51.4898   26.4990 C   0  0  0  0  0  0
   -0.0254   51.1299   27.6053 O   0  0  0  0  0  0
   -0.1579   50.9917   25.3288 N   0  0  0  0  0  0
    0.1758   51.4868   24.0271 C   0  0  0  0  0  0
   -0.4037   51.0409   22.8253 C   0  0  0  0  0  0
    0.0412   51.5403   21.6029 C   0  0  0  0  0  0
    1.0560   52.4932   21.5605 C   0  0  0  0  0  0
    1.6187   52.9718   22.7418 C   0  0  0  0  0  0
    1.1855   52.4704   23.9690 C   0  0  0  0  0  0
    1.8153   52.9550   25.1286 N   0  0  0  0  0  0
   -1.1637   49.9021   25.4401 C   0  0  0  0  0  0
   -2.5650   50.4950   25.6447 C   0  0  0  0  0  0
   -3.1417   51.0328   24.6977 O   0  0  0  0  0  0
   -3.0728   50.3509   26.8824 N   0  0  0  0  0  0
   -4.2859   50.8538   27.3868 C   0  0  0  0  0  0
   -4.8379   50.1829   28.4782 C   0  0  0  0  0  0
   -6.0216   50.6380   29.0569 C   0  0  0  0  0  0
   -6.6475   51.7823   28.5650 C   0  0  0  0  0  0
   -6.0955   52.4935   27.4866 C   0  0  0  0  0  0
   -4.9156   52.0086   26.8972 C   0  0  0  0  0  0
   -6.6878   53.7978   27.0055 C   0  0  0  0  0  0
   -5.9731   54.6552   26.4816 O   0  0  0  0  0  0
   -8.0083   53.9630   27.1897 N   0  0  0  0  0  0
   -8.7333   55.1724   26.8227 C   0  0  0  0  0  0
    5.7291   54.8158   29.6998 H   0  0  0  0  0  0
    6.1284   53.6441   28.4475 H   0  0  0  0  0  0
    5.6009   55.2682   28.0277 H   0  0  0  0  0  0
    3.7994   52.5488   30.3526 H   0  0  0  0  0  0
    4.4472   51.8559   28.8814 H   0  0  0  0  0  0
    0.2298   52.8896   29.3254 H   0  0  0  0  0  0
    1.3981   52.7447   30.5581 H   0  0  0  0  0  0
    3.4289   54.8966   30.4755 H   0  0  0  0  0  0
    3.2277   56.0374   29.1990 H   0  0  0  0  0  0
    0.7216   56.3714   28.4816 H   0  0  0  0  0  0
    1.4280   55.1840   27.4313 H   0  0  0  0  0  0
   -0.1046   54.8413   28.0956 H   0  0  0  0  0  0
    1.2720   56.2515   31.0707 H   0  0  0  0  0  0
   -0.1719   55.2960   30.7787 H   0  0  0  0  0  0
    1.1040   54.6086   31.7015 H   0  0  0  0  0  0
    4.3242   53.1914   26.6810 H   0  0  0  0  0  0
    3.3110   54.6235   26.7072 H   0  0  0  0  0  0
   -1.1908   50.3039   22.8153 H   0  0  0  0  0  0
   -0.4000   51.1846   20.6828 H   0  0  0  0  0  0
    1.4015   52.8765   20.6107 H   0  0  0  0  0  0
    2.4010   53.7175   22.7010 H   0  0  0  0  0  0
   -0.9103   49.2417   26.2749 H   0  0  0  0  0  0
   -1.1508   49.2279   24.5876 H   0  0  0  0  0  0
   -2.5395   49.7682   27.5249 H   0  0  0  0  0  0
   -4.3502   49.3084   28.8849 H   0  0  0  0  0  0
   -6.4457   50.1082   29.8978 H   0  0  0  0  0  0
   -7.5470   52.1229   29.0560 H   0  0  0  0  0  0
   -4.4704   52.5608   26.0828 H   0  0  0  0  0  0
   -8.5517   53.1791   27.5191 H   0  0  0  0  0  0
   -9.7189   55.1768   27.2881 H   0  0  0  0  0  0
   -8.8645   55.2222   25.7392 H   0  0  0  0  0  0
   -8.1979   56.0661   27.1493 H   0  0  0  0  0  0
  1  2  1  0  0  0
  1 38  1  0  0  0
  1 39  1  0  0  0
  1 40  1  0  0  0
  2  8  1  0  0  0
  2 12  1  0  0  0
  2  3  1  0  0  0
  3  4  1  0  0  0
  3 41  1  0  0  0
  3 42  1  0  0  0
  4  5  1  0  0  0
  4  6  1  0  0  0
  4 11  1  0  0  0
  6  7  1  0  0  0
  6 43  1  0  0  0
  6 44  1  0  0  0
  7  8  1  0  0  0
  7  9  1  0  0  0
  7 10  1  0  0  0
  8 45  1  0  0  0
  8 46  1  0  0  0
  9 47  1  0  0  0
  9 48  1  0  0  0
  9 49  1  0  0  0
 10 50  1  0  0  0
 10 51  1  0  0  0
 10 52  1  0  0  0
 11 12  1  0  0  0
 11 13  1  0  0  0
 12 53  1  0  0  0
 12 54  1  0  0  0
 13 23  2  0  0  0
 13 14  1  0  0  0
 14 15  2  0  0  0
 14 16  1  0  0  0
 16 17  1  0  0  0
 16 24  1  0  0  0
 17 22  2  0  0  0
 17 18  1  0  0  0
 18 19  2  0  0  0
 18 55  1  0  0  0
 19 20  1  0  0  0
 19 56  1  0  0  0
 20 21  2  0  0  0
 20 57  1  0  0  0
 21 22  1  0  0  0
 21 58  1  0  0  0
 22 23  1  0  0  0
 24 25  1  0  0  0
 24 59  1  0  0  0
 24 60  1  0  0  0
 25 26  2  0  0  0
 25 27  1  0  0  0
 27 28  1  0  0  0
 27 61  1  0  0  0
 28 33  2  0  0  0
 28 29  1  0  0  0
 29 30  2  0  0  0
 29 62  1  0  0  0
 30 31  1  0  0  0
 30 63  1  0  0  0
 31 32  2  0  0  0
 31 64  1  0  0  0
 32 33  1  0  0  0
 32 34  1  0  0  0
 33 65  1  0  0  0
 34 35  2  0  0  0
 34 36  1  0  0  0
 36 37  1  0  0  0
 36 66  1  0  0  0
 37 67  1  0  0  0
 37 68  1  0  0  0
 37 69  1  0  0  0
M  END
> <i_i_glide_confnum>
74

> <i_i_glide_lignum>
4196

> <i_i_glide_posenum>
14

> <i_i_glide_rotatable_bonds>
7

> <i_m_Source_File_Index>
1428

> <b_m_subgroup_collapsed>
0

> <r_i_docking_score>
-5.51719

> <r_i_glide_ecoul>
-5.82113

> <r_i_glide_eff_state_penalty>
0

> <r_i_glide_einternal>
7.55938

> <r_i_glide_emodel>
-57.3903

> <r_i_glide_energy>
-42.7731

> <r_i_glide_erotb>
0.513077

> <r_i_glide_esite>
-0.140968

> <r_i_glide_evdw>
-36.9519

> <r_i_glide_gscore>
-5.51719

> <r_i_glide_hbond>
-0.456

> <r_i_glide_ligand_efficiency>
-0.153255

> <r_i_glide_ligand_efficiency_ln>
-1.2037

> <r_i_glide_ligand_efficiency_sa>
-0.506038

> <r_i_glide_lipo>
-2.30153

> <r_i_glide_metal>
0

> <r_i_glide_rewards>
-0.411004

> <s_i_glide_gridfile>
wee1_glide-grid

> <s_m_Source_File>
wee1_decoys_glide_SP.sdf

> <s_m_Source_Path>
/Users/zhangxujun/Desktop

> <s_m_entry_id>
1703

> <s_m_entry_name>
wee1_decoys_glide_SP.1428

> <s_m_subgroup_title>
wee1_decoys_glide_SP

> <s_m_subgroupid>
wee1_decoys_glide_SP


$$$$
