ZINC35696573_5955
                    3D
 Schrodinger Suite 2024-2.
 55 58  0  0  1  0            999 V2000
    1.0908   52.4438   31.8319 C   0  0  0  0  0  0
    0.0834   52.7926   30.7174 C   0  0  0  0  0  0
    0.6793   52.8211   29.3019 C   0  0  0  0  0  0
    1.2759   53.8709   28.6479 C   0  0  0  0  0  0
    1.7855   53.6830   27.1854 C   0  0  2  0  0  0
    1.3880   54.4967   26.5915 H   0  0  0  0  0  0
    1.1654   52.4754   26.5775 N   0  0  0  0  0  0
    1.1041   52.1708   25.2224 C   0  0  0  0  0  0
    0.5692   50.9537   25.0107 C   0  0  0  0  0  0
    0.1577   50.0993   26.4816 S   0  0  0  0  0  0
    0.6115   51.5244   27.4285 C   0  0  0  0  0  0
    0.4530   51.6202   28.6917 N   0  0  0  0  0  0
    1.6201   53.0033   24.1416 C   0  0  0  0  0  0
    2.1571   52.5632   22.9853 C   0  0  0  0  0  0
    2.3044   51.3600   22.5508 O   0  5  0  0  0  0
    2.6475   53.4622   22.0661 N   0  0  0  0  0  0
    3.6571   53.2877   21.0162 C   0  0  0  0  0  0
    4.9062   54.1195   21.2706 C   0  0  0  0  0  0
    5.4361   54.8976   20.2345 C   0  0  0  0  0  0
    6.5776   55.6635   20.4797 C   0  0  0  0  0  0
    7.2068   55.6790   21.6802 N   0  0  0  0  0  0
    6.7033   54.8956   22.6686 C   0  0  0  0  0  0
    5.5642   54.1030   22.5064 C   0  0  0  0  0  0
    3.3130   53.7867   27.0398 C   0  0  0  0  0  0
    3.8622   54.5821   26.0272 C   0  0  0  0  0  0
    5.2324   54.8135   25.9779 C   0  0  0  0  0  0
    6.0630   54.2398   26.9327 C   0  0  0  0  0  0
    5.5356   53.4281   27.9339 C   0  0  0  0  0  0
    4.1622   53.2032   27.9886 C   0  0  0  0  0  0
    7.3882   54.4885   26.8898 F   0  0  0  0  0  0
    1.5051   55.2265   29.1882 C   0  0  0  0  0  0
    1.9167   56.1403   28.4819 O   0  0  0  0  0  0
    1.2591   55.3996   30.4832 O   0  0  0  0  0  0
    1.4146   56.6838   31.0716 C   0  0  0  0  0  0
    0.7173   52.7797   32.7999 H   0  0  0  0  0  0
    1.2641   51.3734   31.9212 H   0  0  0  0  0  0
    2.0634   52.8967   31.6629 H   0  0  0  0  0  0
   -0.3898   53.7479   30.9340 H   0  0  0  0  0  0
   -0.7566   52.0928   30.7749 H   0  0  0  0  0  0
    0.4274   50.4715   24.0548 H   0  0  0  0  0  0
    1.5632   54.0699   24.2861 H   0  0  0  0  0  0
    2.3560   54.4222   22.1554 H   0  0  0  0  0  0
    3.2043   53.5742   20.0672 H   0  0  0  0  0  0
    3.9610   52.2457   20.9150 H   0  0  0  0  0  0
    4.9709   54.9155   19.2604 H   0  0  0  0  0  0
    7.0067   56.2743   19.6992 H   0  0  0  0  0  0
    7.2446   54.9039   23.6032 H   0  0  0  0  0  0
    5.1959   53.4918   23.3188 H   0  0  0  0  0  0
    3.2291   55.0639   25.2972 H   0  0  0  0  0  0
    5.6440   55.4566   25.2164 H   0  0  0  0  0  0
    6.1921   52.9894   28.6682 H   0  0  0  0  0  0
    3.7565   52.5879   28.7783 H   0  0  0  0  0  0
    1.5040   56.5905   32.1460 H   0  0  0  0  0  0
    2.3040   57.2090   30.7197 H   0  0  0  0  0  0
    0.5414   57.2964   30.8552 H   0  0  0  0  0  0
  1  2  1  0  0  0
  1 35  1  0  0  0
  1 36  1  0  0  0
  1 37  1  0  0  0
  2  3  1  0  0  0
  2 38  1  0  0  0
  2 39  1  0  0  0
  3 12  1  0  0  0
  3  4  2  0  0  0
  4  5  1  0  0  0
  4 31  1  0  0  0
  5  6  1  0  0  0
  5  7  1  0  0  0
  5 24  1  0  0  0
  7 11  1  0  0  0
  7  8  1  0  0  0
  8  9  2  0  0  0
  8 13  1  0  0  0
  9 10  1  0  0  0
  9 40  1  0  0  0
 10 11  1  0  0  0
 11 12  2  0  0  0
 13 14  2  0  0  0
 13 41  1  0  0  0
 14 15  1  0  0  0
 14 16  1  0  0  0
 16 17  1  0  0  0
 16 42  1  0  0  0
 17 18  1  0  0  0
 17 43  1  0  0  0
 17 44  1  0  0  0
 18 23  2  0  0  0
 18 19  1  0  0  0
 19 20  2  0  0  0
 19 45  1  0  0  0
 20 21  1  0  0  0
 20 46  1  0  0  0
 21 22  2  0  0  0
 22 23  1  0  0  0
 22 47  1  0  0  0
 23 48  1  0  0  0
 24 29  2  0  0  0
 24 25  1  0  0  0
 25 26  2  0  0  0
 25 49  1  0  0  0
 26 27  1  0  0  0
 26 50  1  0  0  0
 27 28  2  0  0  0
 27 30  1  0  0  0
 28 29  1  0  0  0
 28 51  1  0  0  0
 29 52  1  0  0  0
 31 32  2  0  0  0
 31 33  1  0  0  0
 33 34  1  0  0  0
 34 53  1  0  0  0
 34 54  1  0  0  0
 34 55  1  0  0  0
M  CHG  1  15  -1
M  END
> <i_i_glide_confnum>
76

> <i_i_glide_lignum>
5956

> <i_i_glide_posenum>
20

> <i_i_glide_rotatable_bonds>
8

> <i_m_Source_File_Index>
362

> <b_m_subgroup_collapsed>
0

> <r_i_docking_score>
-7.29971

> <r_i_glide_ecoul>
-2.96731

> <r_i_glide_eff_state_penalty>
0

> <r_i_glide_einternal>
5.32068

> <r_i_glide_emodel>
-73.0474

> <r_i_glide_energy>
-54.6952

> <r_i_glide_erotb>
0.465316

> <r_i_glide_esite>
-0.0496589

> <r_i_glide_evdw>
-51.7279

> <r_i_glide_gscore>
-7.29971

> <r_i_glide_hbond>
-0.0244976

> <r_i_glide_ligand_efficiency>
-0.221203

> <r_i_glide_ligand_efficiency_ln>
-1.62342

> <r_i_glide_ligand_efficiency_sa>
-0.709517

> <r_i_glide_lipo>
-3.73231

> <r_i_glide_metal>
0

> <r_i_glide_rewards>
-0.927067

> <s_i_glide_gridfile>
wee1_glide-grid

> <s_m_Source_File>
wee1_decoys_glide_SP.sdf

> <s_m_Source_Path>
/Users/zhangxujun/Desktop

> <s_m_entry_id>
637

> <s_m_entry_name>
wee1_decoys_glide_SP.362

> <s_m_subgroup_title>
wee1_decoys_glide_SP

> <s_m_subgroupid>
wee1_decoys_glide_SP


$$$$
