ZINC39548332_2322
                    3D
 Schrodinger Suite 2024-2.
 57 61  0  0  1  0            999 V2000
    6.1075   58.5137   17.1306 C   0  0  0  0  0  0
    7.3815   57.7352   17.5569 C   0  0  1  0  0  0
    7.0679   57.0463   18.8799 C   0  0  0  0  0  0
    6.7044   57.5974   19.9234 O   0  0  0  0  0  0
    7.2322   55.7242   18.6523 N   0  0  0  0  0  0
    7.5627   55.4168   17.3745 C   0  0  0  0  0  0
    7.9792   54.3472   16.9365 O   0  0  0  0  0  0
    7.5348   56.5784   16.7155 N   0  0  0  0  0  0
    7.0185   54.6870   19.6779 C   0  0  0  0  0  0
    5.5665   54.6140   20.1738 C   0  0  0  0  0  0
    4.6150   54.8968   19.4499 O   0  0  0  0  0  0
    5.4495   54.2058   21.4439 N   0  0  0  0  0  0
    4.2166   54.0098   22.2122 C   0  0  1  0  0  0
    3.5460   54.8412   21.9758 H   0  0  0  0  0  0
    3.4062   52.7483   21.8376 C   0  0  0  0  0  0
    3.8739   51.8151   20.8960 C   0  0  0  0  0  0
    3.1039   50.7107   20.5488 C   0  0  0  0  0  0
    1.8637   50.5149   21.1517 C   0  0  0  0  0  0
    1.3789   51.4306   22.0823 C   0  0  0  0  0  0
    2.1423   52.5473   22.4134 C   0  0  0  0  0  0
    4.5731   54.0971   23.7016 C   0  0  0  0  0  0
    5.7826   54.2616   24.3861 C   0  0  0  0  0  0
    5.4765   54.2822   25.7787 C   0  0  0  0  0  0
    6.2011   54.3982   26.9758 C   0  0  0  0  0  0
    5.4997   54.3796   28.1856 C   0  0  0  0  0  0
    4.1100   54.2409   28.2209 C   0  0  0  0  0  0
    3.3622   54.1182   27.0475 C   0  0  0  0  0  0
    4.0717   54.1491   25.8402 C   0  0  0  0  0  0
    3.5323   54.0610   24.5886 O   0  0  0  0  0  0
    8.6990   58.5563   17.6226 C   0  0  0  0  0  0
    8.7464   59.8993   17.2151 C   0  0  0  0  0  0
    9.9349   60.6217   17.2799 C   0  0  0  0  0  0
   11.0890   60.0142   17.7631 C   0  0  0  0  0  0
   11.0705   58.6828   18.1627 C   0  0  0  0  0  0
    9.8859   57.9573   18.0831 C   0  0  0  0  0  0
   12.2357   60.7264   17.8473 F   0  0  0  0  0  0
    5.8587   59.2966   17.8470 H   0  0  0  0  0  0
    6.2277   58.9929   16.1588 H   0  0  0  0  0  0
    5.2269   57.8712   17.0517 H   0  0  0  0  0  0
    7.3697   56.6344   15.7219 H   0  0  0  0  0  0
    7.6866   54.8971   20.5148 H   0  0  0  0  0  0
    7.2820   53.7036   19.2816 H   0  0  0  0  0  0
    6.2746   53.8321   21.8809 H   0  0  0  0  0  0
    4.8266   51.9349   20.4002 H   0  0  0  0  0  0
    3.4679   50.0141   19.8055 H   0  0  0  0  0  0
    1.2706   49.6525   20.8869 H   0  0  0  0  0  0
    0.4109   51.2798   22.5389 H   0  0  0  0  0  0
    1.7426   53.2610   23.1188 H   0  0  0  0  0  0
    6.7594   54.3487   23.9337 H   0  0  0  0  0  0
    7.2763   54.4912   26.9722 H   0  0  0  0  0  0
    6.0480   54.4803   29.1136 H   0  0  0  0  0  0
    3.6046   54.2321   29.1757 H   0  0  0  0  0  0
    2.2876   54.0112   27.0652 H   0  0  0  0  0  0
    7.8731   60.4094   16.8405 H   0  0  0  0  0  0
    9.9605   61.6503   16.9532 H   0  0  0  0  0  0
   11.9696   58.2121   18.5318 H   0  0  0  0  0  0
    9.9007   56.9234   18.3967 H   0  0  0  0  0  0
  1  2  1  0  0  0
  1 37  1  0  0  0
  1 38  1  0  0  0
  1 39  1  0  0  0
  2  8  1  0  0  0
  2  3  1  0  0  0
  2 30  1  0  0  0
  3  4  2  0  0  0
  3  5  1  0  0  0
  5  6  1  0  0  0
  5  9  1  0  0  0
  6  7  2  0  0  0
  6  8  1  0  0  0
  8 40  1  0  0  0
  9 10  1  0  0  0
  9 41  1  0  0  0
  9 42  1  0  0  0
 10 11  2  0  0  0
 10 12  1  0  0  0
 12 13  1  0  0  0
 12 43  1  0  0  0
 13 14  1  0  0  0
 13 15  1  0  0  0
 13 21  1  0  0  0
 15 20  2  0  0  0
 15 16  1  0  0  0
 16 17  2  0  0  0
 16 44  1  0  0  0
 17 18  1  0  0  0
 17 45  1  0  0  0
 18 19  2  0  0  0
 18 46  1  0  0  0
 19 20  1  0  0  0
 19 47  1  0  0  0
 20 48  1  0  0  0
 21 29  1  0  0  0
 21 22  2  0  0  0
 22 23  1  0  0  0
 22 49  1  0  0  0
 23 28  2  0  0  0
 23 24  1  0  0  0
 24 25  2  0  0  0
 24 50  1  0  0  0
 25 26  1  0  0  0
 25 51  1  0  0  0
 26 27  2  0  0  0
 26 52  1  0  0  0
 27 28  1  0  0  0
 27 53  1  0  0  0
 28 29  1  0  0  0
 30 35  2  0  0  0
 30 31  1  0  0  0
 31 32  2  0  0  0
 31 54  1  0  0  0
 32 33  1  0  0  0
 32 55  1  0  0  0
 33 34  2  0  0  0
 33 36  1  0  0  0
 34 35  1  0  0  0
 34 56  1  0  0  0
 35 57  1  0  0  0
M  END
> <i_i_glide_confnum>
143

> <i_i_glide_lignum>
2323

> <i_i_glide_posenum>
132

> <i_i_glide_rotatable_bonds>
7

> <i_m_Source_File_Index>
5410

> <b_m_subgroup_collapsed>
0

> <r_i_docking_score>
-5.51262

> <r_i_glide_ecoul>
-3.75137

> <r_i_glide_eff_state_penalty>
0

> <r_i_glide_einternal>
8.15608

> <r_i_glide_emodel>
-58.5481

> <r_i_glide_energy>
-45.4599

> <r_i_glide_erotb>
0.636503

> <r_i_glide_esite>
-0.0184746

> <r_i_glide_evdw>
-41.7085

> <r_i_glide_gscore>
-5.51262

> <r_i_glide_hbond>
-0.32

> <r_i_glide_ligand_efficiency>
-0.157503

> <r_i_glide_ligand_efficiency_ln>
-1.21014

> <r_i_glide_ligand_efficiency_sa>
-0.515204

> <r_i_glide_lipo>
-2.66199

> <r_i_glide_metal>
0

> <r_i_glide_rewards>
-0.500528

> <s_i_glide_gridfile>
wee1_glide-grid

> <s_m_Source_File>
wee1_decoys_glide_SP.sdf

> <s_m_Source_Path>
/Users/zhangxujun/Desktop

> <s_m_entry_id>
5685

> <s_m_entry_name>
wee1_decoys_glide_SP.5410

> <s_m_subgroup_title>
wee1_decoys_glide_SP

> <s_m_subgroupid>
wee1_decoys_glide_SP


$$$$
