ZINC21120426_4330
                    3D
 Schrodinger Suite 2024-2.
 45 48  0  0  1  0            999 V2000
    2.9807   54.4378   24.0464 C   0  0  0  0  0  0
    3.5609   54.4960   22.7812 C   0  0  0  0  0  0
    4.9392   54.3535   22.6448 C   0  0  0  0  0  0
    5.7427   54.1781   23.7669 C   0  0  0  0  0  0
    5.1554   54.0966   25.0271 C   0  0  0  0  0  0
    3.7629   54.1740   25.1738 C   0  0  0  0  0  0
    3.1656   53.9349   26.5328 C   0  0  0  0  0  0
    3.7544   54.4987   27.6555 C   0  0  0  0  0  0
    3.0007   54.1641   29.1819 S   0  0  0  0  0  0
    1.8444   53.1491   28.3590 C   0  0  0  0  0  0
    2.0300   53.1135   26.9306 C   0  0  0  0  0  0
    1.1019   52.2617   26.2563 C   0  0  0  0  0  0
    0.1666   51.5526   26.9387 N   0  0  0  0  0  0
    0.1185   51.6968   28.2791 C   0  0  0  0  0  0
    0.9155   52.4754   29.0431 N   0  0  0  0  0  0
    1.1047   52.0123   24.4971 S   0  0  0  0  0  0
    0.7954   50.2632   24.0828 C   0  0  0  0  0  0
   -0.5573   49.7028   24.5265 C   0  0  0  0  0  0
   -1.5893   50.3438   24.3086 O   0  0  0  0  0  0
   -0.5143   48.4934   25.1196 N   0  0  0  0  0  0
   -1.6742   47.9695   25.6812 N   0  0  0  0  0  0
   -2.2468   46.9037   25.0787 C   0  0  0  0  0  0
   -1.8986   46.4307   23.9932 O   0  0  0  0  0  0
   -3.4204   46.3088   25.8091 C   0  0  0  0  0  0
   -4.5420   45.8579   25.0993 C   0  0  0  0  0  0
   -5.6340   45.3250   25.7835 C   0  0  0  0  0  0
   -5.6101   45.2521   27.1747 C   0  0  0  0  0  0
   -4.4996   45.6968   27.8823 C   0  0  0  0  0  0
   -3.3999   46.1975   27.2037 C   0  0  0  0  0  0
   -6.6681   44.7443   27.8456 F   0  0  0  0  0  0
    5.5040   54.4162   21.4189 F   0  0  0  0  0  0
    1.9136   54.5714   24.1420 H   0  0  0  0  0  0
    2.9469   54.6624   21.9080 H   0  0  0  0  0  0
    6.8135   54.0847   23.6568 H   0  0  0  0  0  0
    5.7854   53.9025   25.8829 H   0  0  0  0  0  0
    4.6232   55.1420   27.6602 H   0  0  0  0  0  0
   -0.6341   51.1151   28.7956 H   0  0  0  0  0  0
    1.6163   49.6673   24.4815 H   0  0  0  0  0  0
    0.8507   50.1657   22.9987 H   0  0  0  0  0  0
    0.3284   48.0540   25.4650 H   0  0  0  0  0  0
   -1.6932   48.0989   26.6927 H   0  0  0  0  0  0
   -4.5799   45.9340   24.0207 H   0  0  0  0  0  0
   -6.5034   44.9830   25.2419 H   0  0  0  0  0  0
   -4.4637   45.6537   28.9560 H   0  0  0  0  0  0
   -2.5354   46.4969   27.7803 H   0  0  0  0  0  0
  1  6  2  0  0  0
  1  2  1  0  0  0
  1 32  1  0  0  0
  2  3  2  0  0  0
  2 33  1  0  0  0
  3  4  1  0  0  0
  3 31  1  0  0  0
  4  5  2  0  0  0
  4 34  1  0  0  0
  5  6  1  0  0  0
  5 35  1  0  0  0
  6  7  1  0  0  0
  7 11  1  0  0  0
  7  8  2  0  0  0
  8  9  1  0  0  0
  8 36  1  0  0  0
  9 10  1  0  0  0
 10 15  2  0  0  0
 10 11  1  0  0  0
 11 12  2  0  0  0
 12 13  1  0  0  0
 12 16  1  0  0  0
 13 14  2  0  0  0
 14 15  1  0  0  0
 14 37  1  0  0  0
 16 17  1  0  0  0
 17 18  1  0  0  0
 17 38  1  0  0  0
 17 39  1  0  0  0
 18 19  2  0  0  0
 18 20  1  0  0  0
 20 21  1  0  0  0
 20 40  1  0  0  0
 21 22  1  0  0  0
 21 41  1  0  0  0
 22 23  2  0  0  0
 22 24  1  0  0  0
 24 29  2  0  0  0
 24 25  1  0  0  0
 25 26  2  0  0  0
 25 42  1  0  0  0
 26 27  1  0  0  0
 26 43  1  0  0  0
 27 28  2  0  0  0
 27 30  1  0  0  0
 28 29  1  0  0  0
 28 44  1  0  0  0
 29 45  1  0  0  0
M  END
> <i_i_glide_confnum>
129

> <i_i_glide_lignum>
4331

> <i_i_glide_posenum>
364

> <i_i_glide_rotatable_bonds>
8

> <i_m_Source_File_Index>
2229

> <b_m_subgroup_collapsed>
0

> <r_i_docking_score>
-6.2364

> <r_i_glide_ecoul>
-8.95355

> <r_i_glide_eff_state_penalty>
0

> <r_i_glide_einternal>
4.74866

> <r_i_glide_emodel>
-68.7172

> <r_i_glide_energy>
-49.3122

> <r_i_glide_erotb>
0.675111

> <r_i_glide_esite>
-0.305154

> <r_i_glide_evdw>
-40.3586

> <r_i_glide_gscore>
-6.2364

> <r_i_glide_hbond>
-0.244851

> <r_i_glide_ligand_efficiency>
-0.201174

> <r_i_glide_ligand_efficiency_ln>
-1.4065

> <r_i_glide_ligand_efficiency_sa>
-0.631964

> <r_i_glide_lipo>
-2.38789

> <r_i_glide_metal>
0

> <r_i_glide_rewards>
-0.612644

> <s_i_glide_gridfile>
wee1_glide-grid

> <s_m_Source_File>
wee1_decoys_glide_SP.sdf

> <s_m_Source_Path>
/Users/zhangxujun/Desktop

> <s_m_entry_id>
2504

> <s_m_entry_name>
wee1_decoys_glide_SP.2229

> <s_m_subgroup_title>
wee1_decoys_glide_SP

> <s_m_subgroupid>
wee1_decoys_glide_SP


$$$$
