ZINC50058366_226
                    3D
 Schrodinger Suite 2024-2.
 54 56  0  0  1  0            999 V2000
    7.6179   55.5806   16.7208 C   0  0  0  0  0  0
    6.2087   55.6321   17.3614 C   0  0  0  0  0  0
    5.5931   57.0273   17.1085 C   0  0  0  0  0  0
    5.3278   54.5618   16.6722 C   0  0  0  0  0  0
    6.2925   55.3918   18.8774 C   0  0  0  0  0  0
    7.2464   55.8928   19.6378 N   0  0  0  0  0  0
    7.1060   55.6077   20.9891 N   0  0  0  0  0  0
    6.0273   54.8976   21.2267 C   0  0  0  0  0  0
    5.1053   54.5090   19.8154 S   0  0  0  0  0  0
    5.5594   54.4967   22.4582 N   0  0  0  0  0  0
    6.3433   54.0982   23.4773 C   0  0  0  0  0  0
    7.4982   53.6869   23.3731 O   0  0  0  0  0  0
    5.7100   54.2459   24.6433 N   0  0  0  0  0  0
    6.3128   54.0923   25.9711 C   0  0  0  0  0  0
    5.2823   53.8063   27.0999 C   0  0  1  0  0  0
    5.2433   52.7237   27.2520 H   0  0  0  0  0  0
    5.7325   54.4186   28.4515 C   0  0  0  0  0  0
    4.7044   54.2154   29.5825 C   0  0  0  0  0  0
    3.2958   54.6590   29.1826 C   0  0  0  0  0  0
    2.8830   53.8617   27.9250 N   0  3  2  0  0  0
    3.8263   54.2235   26.7532 C   0  0  0  0  0  0
    1.4170   54.1684   27.5418 C   0  0  0  0  0  0
    0.4878   53.1454   28.1630 C   0  0  0  0  0  0
   -0.3713   52.2713   27.4994 C   0  0  0  0  0  0
   -1.1546   51.4824   28.3377 C   0  0  0  0  0  0
   -0.8796   51.6969   29.6760 C   0  0  0  0  0  0
    0.3046   52.9360   29.8889 S   0  0  0  0  0  0
    7.5754   55.7412   15.6420 H   0  0  0  0  0  0
    8.0956   54.6139   16.8888 H   0  0  0  0  0  0
    8.2815   56.3403   17.1348 H   0  0  0  0  0  0
    4.5886   57.1072   17.5276 H   0  0  0  0  0  0
    6.1888   57.8217   17.5608 H   0  0  0  0  0  0
    5.5174   57.2465   16.0421 H   0  0  0  0  0  0
    4.2946   54.5956   17.0239 H   0  0  0  0  0  0
    5.2996   54.6942   15.5893 H   0  0  0  0  0  0
    5.6981   53.5523   16.8664 H   0  0  0  0  0  0
    4.5861   54.6833   22.6358 H   0  0  0  0  0  0
    4.7863   54.6462   24.6209 H   0  0  0  0  0  0
    7.0728   53.3044   25.9659 H   0  0  0  0  0  0
    6.8545   55.0164   26.1775 H   0  0  0  0  0  0
    6.7084   54.0194   28.7398 H   0  0  0  0  0  0
    5.9043   55.4889   28.3210 H   0  0  0  0  0  0
    4.6806   53.1625   29.8670 H   0  0  0  0  0  0
    5.0081   54.7754   30.4716 H   0  0  0  0  0  0
    2.5893   54.4373   29.9780 H   0  0  0  0  0  0
    3.2388   55.7207   28.9380 H   0  0  0  0  0  0
    3.7177   55.2949   26.5504 H   0  0  0  0  0  0
    3.4665   53.6529   25.8941 H   0  0  0  0  0  0
    1.1937   55.2054   27.8018 H   0  0  0  0  0  0
    1.3682   54.0961   26.4547 H   0  0  0  0  0  0
   -0.4449   52.2202   26.4211 H   0  0  0  0  0  0
   -1.8847   50.7733   27.9787 H   0  0  0  0  0  0
   -1.3145   51.2010   30.5342 H   0  0  0  0  0  0
    2.9442   52.8650   28.0979 H   0  0  0  0  0  0
  1  2  1  0  0  0
  1 28  1  0  0  0
  1 29  1  0  0  0
  1 30  1  0  0  0
  2  3  1  0  0  0
  2  4  1  0  0  0
  2  5  1  0  0  0
  3 31  1  0  0  0
  3 32  1  0  0  0
  3 33  1  0  0  0
  4 34  1  0  0  0
  4 35  1  0  0  0
  4 36  1  0  0  0
  5  9  1  0  0  0
  5  6  2  0  0  0
  6  7  1  0  0  0
  7  8  2  0  0  0
  8  9  1  0  0  0
  8 10  1  0  0  0
 10 11  1  0  0  0
 10 37  1  0  0  0
 11 12  2  0  0  0
 11 13  1  0  0  0
 13 14  1  0  0  0
 13 38  1  0  0  0
 14 15  1  0  0  0
 14 39  1  0  0  0
 14 40  1  0  0  0
 15 16  1  0  0  0
 15 21  1  0  0  0
 15 17  1  0  0  0
 17 18  1  0  0  0
 17 41  1  0  0  0
 17 42  1  0  0  0
 18 19  1  0  0  0
 18 43  1  0  0  0
 18 44  1  0  0  0
 19 20  1  0  0  0
 19 45  1  0  0  0
 19 46  1  0  0  0
 20 21  1  0  0  0
 20 22  1  0  0  0
 20 54  1  0  0  0
 21 47  1  0  0  0
 21 48  1  0  0  0
 22 23  1  0  0  0
 22 49  1  0  0  0
 22 50  1  0  0  0
 23 27  1  0  0  0
 23 24  2  0  0  0
 24 25  1  0  0  0
 24 51  1  0  0  0
 25 26  2  0  0  0
 25 52  1  0  0  0
 26 27  1  0  0  0
 26 53  1  0  0  0
M  CHG  1  20   1
M  END
> <i_i_glide_confnum>
68

> <i_i_glide_lignum>
227

> <i_i_glide_posenum>
161

> <i_i_glide_rotatable_bonds>
8

> <i_m_Source_File_Index>
4035

> <b_m_subgroup_collapsed>
0

> <r_i_docking_score>
-4.16234

> <r_i_glide_ecoul>
-0.354169

> <r_i_glide_eff_state_penalty>
0

> <r_i_glide_einternal>
14.8243

> <r_i_glide_emodel>
-42.3174

> <r_i_glide_energy>
-37.7749

> <r_i_glide_erotb>
0.878806

> <r_i_glide_esite>
0

> <r_i_glide_evdw>
-37.4207

> <r_i_glide_gscore>
-4.16234

> <r_i_glide_hbond>
0

> <r_i_glide_ligand_efficiency>
-0.16009

> <r_i_glide_ligand_efficiency_ln>
-0.977512

> <r_i_glide_ligand_efficiency_sa>
-0.474266

> <r_i_glide_lipo>
-2.00619

> <r_i_glide_metal>
0

> <r_i_glide_rewards>
-1.11079

> <s_i_glide_gridfile>
wee1_glide-grid

> <s_m_Source_File>
wee1_decoys_glide_SP.sdf

> <s_m_Source_Path>
/Users/zhangxujun/Desktop

> <s_m_entry_id>
4310

> <s_m_entry_name>
wee1_decoys_glide_SP.4035

> <s_m_subgroup_title>
wee1_decoys_glide_SP

> <s_m_subgroupid>
wee1_decoys_glide_SP


$$$$
