ZINC12781442_2089
                    3D
 Schrodinger Suite 2024-2.
 67 70  0  0  1  0            999 V2000
    6.8660   53.7491   24.1731 C   0  0  0  0  0  0
    5.7041   54.6526   24.6495 C   0  0  0  0  0  0
    6.2683   56.0716   24.8668 C   0  0  0  0  0  0
    4.6896   54.6162   23.4684 C   0  0  0  0  0  0
    5.0544   54.2193   25.9876 C   0  0  0  0  0  0
    5.8131   53.6971   27.0469 C   0  0  0  0  0  0
    5.2083   53.3477   28.2538 C   0  0  0  0  0  0
    3.8392   53.5396   28.4360 C   0  0  0  0  0  0
    3.0923   54.1340   27.4143 C   0  0  0  0  0  0
    3.6904   54.4479   26.2055 C   0  0  0  0  0  0
    3.2750   53.1726   29.6732 N   0  0  0  0  0  0
    1.9864   52.8585   29.9443 C   0  0  0  0  0  0
    1.5540   52.8966   31.0916 O   0  0  0  0  0  0
    1.1018   52.3646   28.8302 C   0  0  0  0  0  0
    1.5042   51.2844   28.0521 C   0  0  0  0  0  0
    0.7044   50.8059   27.0163 C   0  0  0  0  0  0
   -0.4818   51.4491   26.7072 C   0  0  0  0  0  0
   -0.8957   52.5234   27.4897 C   0  0  0  0  0  0
   -0.1192   52.9770   28.5576 C   0  0  0  0  0  0
   -1.2361   50.9462   25.6411 N   0  0  0  0  0  0
   -1.9508   51.6553   24.7428 C   0  0  0  0  0  0
   -2.0181   52.8862   24.7039 O   0  0  0  0  0  0
   -2.7083   50.8350   23.6925 C   0  0  0  0  0  0
   -2.1843   51.0098   22.2383 C   0  0  2  0  0  0
   -2.3797   52.0246   21.8919 H   0  0  0  0  0  0
   -2.9206   50.0656   21.2855 C   0  0  0  0  0  0
   -4.1412   50.0954   21.1471 O   0  0  0  0  0  0
   -2.0856   49.2089   20.6166 N   0  0  0  0  0  0
   -0.8496   49.3746   20.8460 C   0  0  0  0  0  0
   -0.4225   50.6705   22.0075 S   0  0  0  0  0  0
    0.1437   48.5868   20.2552 N   0  0  0  0  0  0
    1.5947   48.8093   20.4042 C   0  0  0  0  0  0
    2.2235   49.0176   19.0074 C   0  0  0  0  0  0
    1.9029   47.8605   18.0431 C   0  0  0  0  0  0
    0.3995   47.5422   18.0344 C   0  0  0  0  0  0
   -0.1614   47.3794   19.4621 C   0  0  0  0  0  0
    7.5048   54.2710   23.4601 H   0  0  0  0  0  0
    6.4847   52.8967   23.6239 H   0  0  0  0  0  0
    7.5042   53.3783   24.9653 H   0  0  0  0  0  0
    5.5045   56.7531   25.2386 H   0  0  0  0  0  0
    7.0759   56.0708   25.5995 H   0  0  0  0  0  0
    6.6752   56.4820   23.9445 H   0  0  0  0  0  0
    3.8510   55.2966   23.5921 H   0  0  0  0  0  0
    5.1657   54.8919   22.5254 H   0  0  0  0  0  0
    4.2654   53.6197   23.3358 H   0  0  0  0  0  0
    6.8777   53.5503   26.9585 H   0  0  0  0  0  0
    5.8142   52.9218   29.0376 H   0  0  0  0  0  0
    2.0459   54.3655   27.5349 H   0  0  0  0  0  0
    3.0635   54.8952   25.4553 H   0  0  0  0  0  0
    3.9066   53.1890   30.4575 H   0  0  0  0  0  0
    2.4332   50.7879   28.2691 H   0  0  0  0  0  0
    1.0274   49.9440   26.4498 H   0  0  0  0  0  0
   -1.8363   52.9962   27.2679 H   0  0  0  0  0  0
   -0.4645   53.8096   29.1537 H   0  0  0  0  0  0
   -1.1421   49.9536   25.4845 H   0  0  0  0  0  0
   -2.6906   49.7789   23.9720 H   0  0  0  0  0  0
   -3.7582   51.1286   23.7506 H   0  0  0  0  0  0
    1.8633   49.6083   21.0946 H   0  0  0  0  0  0
    1.9995   47.8885   20.8255 H   0  0  0  0  0  0
    1.8517   49.9511   18.5814 H   0  0  0  0  0  0
    3.3016   49.1525   19.0930 H   0  0  0  0  0  0
    2.4567   46.9733   18.3473 H   0  0  0  0  0  0
    2.2489   48.0948   17.0359 H   0  0  0  0  0  0
    0.2023   46.6443   17.4478 H   0  0  0  0  0  0
   -0.1362   48.3489   17.5310 H   0  0  0  0  0  0
    0.3732   46.5644   19.9512 H   0  0  0  0  0  0
   -1.2168   47.1016   19.4633 H   0  0  0  0  0  0
  1  2  1  0  0  0
  1 37  1  0  0  0
  1 38  1  0  0  0
  1 39  1  0  0  0
  2  3  1  0  0  0
  2  4  1  0  0  0
  2  5  1  0  0  0
  3 40  1  0  0  0
  3 41  1  0  0  0
  3 42  1  0  0  0
  4 43  1  0  0  0
  4 44  1  0  0  0
  4 45  1  0  0  0
  5 10  2  0  0  0
  5  6  1  0  0  0
  6  7  2  0  0  0
  6 46  1  0  0  0
  7  8  1  0  0  0
  7 47  1  0  0  0
  8  9  2  0  0  0
  8 11  1  0  0  0
  9 10  1  0  0  0
  9 48  1  0  0  0
 10 49  1  0  0  0
 11 12  1  0  0  0
 11 50  1  0  0  0
 12 13  2  0  0  0
 12 14  1  0  0  0
 14 19  2  0  0  0
 14 15  1  0  0  0
 15 16  2  0  0  0
 15 51  1  0  0  0
 16 17  1  0  0  0
 16 52  1  0  0  0
 17 18  2  0  0  0
 17 20  1  0  0  0
 18 19  1  0  0  0
 18 53  1  0  0  0
 19 54  1  0  0  0
 20 21  1  0  0  0
 20 55  1  0  0  0
 21 22  2  0  0  0
 21 23  1  0  0  0
 23 24  1  0  0  0
 23 56  1  0  0  0
 23 57  1  0  0  0
 24 25  1  0  0  0
 24 30  1  0  0  0
 24 26  1  0  0  0
 26 27  2  0  0  0
 26 28  1  0  0  0
 28 29  2  0  0  0
 29 30  1  0  0  0
 29 31  1  0  0  0
 31 36  1  0  0  0
 31 32  1  0  0  0
 32 33  1  0  0  0
 32 58  1  0  0  0
 32 59  1  0  0  0
 33 34  1  0  0  0
 33 60  1  0  0  0
 33 61  1  0  0  0
 34 35  1  0  0  0
 34 62  1  0  0  0
 34 63  1  0  0  0
 35 36  1  0  0  0
 35 64  1  0  0  0
 35 65  1  0  0  0
 36 66  1  0  0  0
 36 67  1  0  0  0
M  END
> <i_i_glide_confnum>
174

> <i_i_glide_lignum>
2090

> <i_i_glide_posenum>
124

> <i_i_glide_rotatable_bonds>
9

> <i_m_Source_File_Index>
438

> <b_m_subgroup_collapsed>
0

> <r_i_docking_score>
-2.45395

> <r_i_glide_ecoul>
0.908418

> <r_i_glide_eff_state_penalty>
0

> <r_i_glide_einternal>
13.8216

> <r_i_glide_emodel>
-32.3357

> <r_i_glide_energy>
-38.516

> <r_i_glide_erotb>
0.671344

> <r_i_glide_esite>
-0.0403605

> <r_i_glide_evdw>
-39.4244

> <r_i_glide_gscore>
-2.45395

> <r_i_glide_hbond>
-0.0554774

> <r_i_glide_ligand_efficiency>
-0.0701128

> <r_i_glide_ligand_efficiency_ln>
-0.538696

> <r_i_glide_ligand_efficiency_sa>
-0.229344

> <r_i_glide_lipo>
-2.75885

> <r_i_glide_metal>
0

> <r_i_glide_rewards>
1.56435

> <s_i_glide_gridfile>
wee1_glide-grid

> <s_m_Source_File>
wee1_decoys_glide_SP.sdf

> <s_m_Source_Path>
/Users/zhangxujun/Desktop

> <s_m_entry_id>
713

> <s_m_entry_name>
wee1_decoys_glide_SP.438

> <s_m_subgroup_title>
wee1_decoys_glide_SP

> <s_m_subgroupid>
wee1_decoys_glide_SP


$$$$
