ZINC14270938_3256
                    3D
 Schrodinger Suite 2024-2.
 57 61  0  0  1  0            999 V2000
    7.0597   54.0290   17.4252 C   0  0  0  0  0  0
    6.6120   54.8250   18.6659 C   0  0  0  0  0  0
    5.5236   54.1863   19.5290 C   0  0  0  0  0  0
    5.1780   54.8066   20.7281 C   0  0  0  0  0  0
    4.1995   54.2575   21.5515 C   0  0  0  0  0  0
    3.5622   53.0608   21.1972 C   0  0  0  0  0  0
    3.9021   52.4437   19.9868 C   0  0  0  0  0  0
    4.8676   53.0084   19.1603 C   0  0  0  0  0  0
    2.6092   52.4701   22.0708 N   0  0  0  0  0  0
    2.3122   51.1481   21.9986 N   0  0  0  0  0  0
    1.5368   50.9765   23.1014 C   0  0  0  0  0  0
    0.9736   49.8109   23.6325 C   0  0  0  0  0  0
    0.3020   49.8892   24.8580 C   0  0  0  0  0  0
    0.1716   51.1224   25.5230 C   0  0  0  0  0  0
    0.6439   52.3079   24.9428 C   0  0  0  0  0  0
    1.3664   52.2190   23.7511 C   0  0  0  0  0  0
    2.0274   53.1860   23.0667 N   0  0  0  0  0  0
   -0.4173   51.1703   26.8012 N   0  0  0  0  0  0
    0.1051   51.6856   27.9523 C   0  0  0  0  0  0
   -0.8952   51.6968   29.2813 S   0  0  0  0  0  0
    1.4050   52.1210   27.8818 N   0  0  0  0  0  0
    2.2519   52.6658   28.7902 C   0  0  0  0  0  0
    2.1044   52.6404   30.0168 O   0  0  0  0  0  0
    3.4950   53.2834   28.1910 C   0  0  0  0  0  0
    4.6473   53.4388   28.9760 C   0  0  0  0  0  0
    5.8200   53.9752   28.4429 C   0  0  0  0  0  0
    5.8584   54.3423   27.1037 C   0  0  0  0  0  0
    4.7106   54.2100   26.3073 C   0  0  0  0  0  0
    3.5405   53.6964   26.8485 C   0  0  0  0  0  0
    4.7078   54.4941   24.9595 O   0  0  0  0  0  0
    5.7888   55.3320   24.5576 C   0  0  0  0  0  0
    7.1101   54.8804   25.1956 C   0  0  0  0  0  0
    7.0251   54.8941   26.6213 O   0  0  0  0  0  0
   -0.2351   48.6052   25.4739 C   0  0  0  0  0  0
    7.8542   54.5538   16.8946 H   0  0  0  0  0  0
    7.4431   53.0457   17.7000 H   0  0  0  0  0  0
    6.2400   53.8914   16.7189 H   0  0  0  0  0  0
    6.2633   55.8096   18.3499 H   0  0  0  0  0  0
    7.4857   54.9967   19.2996 H   0  0  0  0  0  0
    5.6638   55.7256   21.0197 H   0  0  0  0  0  0
    3.9417   54.7719   22.4648 H   0  0  0  0  0  0
    3.4365   51.5206   19.6685 H   0  0  0  0  0  0
    5.1066   52.4983   18.2383 H   0  0  0  0  0  0
    1.1096   48.8611   23.1368 H   0  0  0  0  0  0
    0.5148   53.2593   25.4346 H   0  0  0  0  0  0
   -1.3165   50.7171   26.8889 H   0  0  0  0  0  0
    1.7748   52.1256   26.9449 H   0  0  0  0  0  0
    4.6451   53.1282   30.0096 H   0  0  0  0  0  0
    6.6990   54.0983   29.0593 H   0  0  0  0  0  0
    2.6898   53.6092   26.1922 H   0  0  0  0  0  0
    5.9001   55.2998   23.4757 H   0  0  0  0  0  0
    5.5704   56.3522   24.8791 H   0  0  0  0  0  0
    7.3583   53.8763   24.8451 H   0  0  0  0  0  0
    7.8974   55.5589   24.8815 H   0  0  0  0  0  0
    0.0457   47.7152   24.9115 H   0  0  0  0  0  0
    0.1610   48.4964   26.4843 H   0  0  0  0  0  0
   -1.3214   48.6431   25.5618 H   0  0  0  0  0  0
  1  2  1  0  0  0
  1 35  1  0  0  0
  1 36  1  0  0  0
  1 37  1  0  0  0
  2  3  1  0  0  0
  2 38  1  0  0  0
  2 39  1  0  0  0
  3  8  2  0  0  0
  3  4  1  0  0  0
  4  5  2  0  0  0
  4 40  1  0  0  0
  5  6  1  0  0  0
  5 41  1  0  0  0
  6  7  2  0  0  0
  6  9  1  0  0  0
  7  8  1  0  0  0
  7 42  1  0  0  0
  8 43  1  0  0  0
  9 17  1  0  0  0
  9 10  1  0  0  0
 10 11  2  0  0  0
 11 16  1  0  0  0
 11 12  1  0  0  0
 12 13  2  0  0  0
 12 44  1  0  0  0
 13 14  1  0  0  0
 13 34  1  0  0  0
 14 15  2  0  0  0
 14 18  1  0  0  0
 15 16  1  0  0  0
 15 45  1  0  0  0
 16 17  2  0  0  0
 18 19  1  0  0  0
 18 46  1  0  0  0
 19 20  2  0  0  0
 19 21  1  0  0  0
 21 22  1  0  0  0
 21 47  1  0  0  0
 22 23  2  0  0  0
 22 24  1  0  0  0
 24 29  2  0  0  0
 24 25  1  0  0  0
 25 26  2  0  0  0
 25 48  1  0  0  0
 26 27  1  0  0  0
 26 49  1  0  0  0
 27 33  1  0  0  0
 27 28  2  0  0  0
 28 29  1  0  0  0
 28 30  1  0  0  0
 29 50  1  0  0  0
 30 31  1  0  0  0
 31 32  1  0  0  0
 31 51  1  0  0  0
 31 52  1  0  0  0
 32 33  1  0  0  0
 32 53  1  0  0  0
 32 54  1  0  0  0
 34 55  1  0  0  0
 34 56  1  0  0  0
 34 57  1  0  0  0
M  END
> <i_i_glide_confnum>
65

> <i_i_glide_lignum>
3257

> <i_i_glide_posenum>
392

> <i_i_glide_rotatable_bonds>
7

> <i_m_Source_File_Index>
5895

> <b_m_subgroup_collapsed>
0

> <r_i_docking_score>
-6.35868

> <r_i_glide_ecoul>
-4.12932

> <r_i_glide_eff_state_penalty>
0

> <r_i_glide_einternal>
5.75595

> <r_i_glide_emodel>
-67.3985

> <r_i_glide_energy>
-49.8368

> <r_i_glide_erotb>
0.451027

> <r_i_glide_esite>
-0.13167

> <r_i_glide_evdw>
-45.7075

> <r_i_glide_gscore>
-6.35868

> <r_i_glide_hbond>
-0.31728

> <r_i_glide_ligand_efficiency>
-0.18702

> <r_i_glide_ligand_efficiency_ln>
-1.40481

> <r_i_glide_ligand_efficiency_sa>
-0.605872

> <r_i_glide_lipo>
-2.36317

> <r_i_glide_metal>
0

> <r_i_glide_rewards>
-1.09281

> <s_i_glide_gridfile>
wee1_glide-grid

> <s_m_Source_File>
wee1_decoys_glide_SP.sdf

> <s_m_Source_Path>
/Users/zhangxujun/Desktop

> <s_m_entry_id>
6170

> <s_m_entry_name>
wee1_decoys_glide_SP.5895

> <s_m_subgroup_title>
wee1_decoys_glide_SP

> <s_m_subgroupid>
wee1_decoys_glide_SP


$$$$
