ZINC08915217_5280
                    3D
 Schrodinger Suite 2024-2.
 50 53  0  0  1  0            999 V2000
    4.9860   56.7787   15.8709 C   0  0  0  0  0  0
    5.6042   57.0572   17.5545 S   0  0  0  0  0  0
    5.3683   55.5681   18.4740 C   0  0  0  0  0  0
    4.8427   54.4877   17.8379 N   0  0  0  0  0  0
    4.6620   53.3722   18.5915 C   0  0  0  0  0  0
    4.9783   53.3202   19.9525 C   0  0  0  0  0  0
    5.5041   54.4961   20.5253 C   0  0  0  0  0  0
    5.7268   55.6144   19.7809 N   0  0  0  0  0  0
    5.8930   54.5912   21.9741 C   0  0  0  0  0  0
    7.0413   54.9000   22.2934 O   0  0  0  0  0  0
    4.8769   54.3426   22.8224 N   0  0  0  0  0  0
    4.8684   54.3322   24.2176 C   0  0  0  0  0  0
    3.7431   54.0151   25.0119 C   0  0  0  0  0  0
    4.0825   54.0464   26.3843 C   0  0  0  0  0  0
    5.4059   54.3467   26.6226 C   0  0  0  0  0  0
    6.3046   54.6371   25.1846 S   0  0  0  0  0  0
    5.7622   54.3608   28.0818 C   0  0  0  0  0  0
    4.3730   54.2979   28.7374 C   0  0  0  0  0  0
    3.3806   53.7636   27.6917 C   0  0  0  0  0  0
    2.4210   53.7439   24.4757 C   0  0  0  0  0  0
    2.0907   54.1289   23.3514 O   0  0  0  0  0  0
    1.6186   53.0033   25.2596 N   0  0  0  0  0  0
    0.2996   52.5017   24.8674 C   0  0  0  0  0  0
    0.3617   51.3071   23.8755 C   0  0  2  0  0  0
    1.1525   50.6082   24.1519 H   0  0  0  0  0  0
    0.2331   51.6146   22.3774 C   0  0  0  0  0  0
   -1.2521   51.6597   22.0786 C   0  0  0  0  0  0
   -1.8996   50.9917   23.2898 C   0  0  0  0  0  0
   -0.8101   50.5119   24.0771 O   0  0  0  0  0  0
    4.7028   51.6973   20.9214 Br  0  0  0  0  0  0
    5.1152   57.6814   15.2745 H   0  0  0  0  0  0
    5.5310   55.9656   15.3899 H   0  0  0  0  0  0
    3.9248   56.5295   15.8901 H   0  0  0  0  0  0
    4.2655   52.5010   18.0850 H   0  0  0  0  0  0
    3.9788   54.1449   22.4043 H   0  0  0  0  0  0
    6.3786   53.5069   28.3627 H   0  0  0  0  0  0
    6.2999   55.2633   28.3716 H   0  0  0  0  0  0
    4.3758   53.6940   29.6463 H   0  0  0  0  0  0
    4.0650   55.2976   29.0426 H   0  0  0  0  0  0
    2.4099   54.2516   27.7774 H   0  0  0  0  0  0
    3.2291   52.6941   27.8409 H   0  0  0  0  0  0
    1.9506   52.7435   26.1763 H   0  0  0  0  0  0
   -0.3114   53.3103   24.4591 H   0  0  0  0  0  0
   -0.2084   52.1847   25.7827 H   0  0  0  0  0  0
    0.7128   50.8085   21.8180 H   0  0  0  0  0  0
    0.7713   52.5119   22.0740 H   0  0  0  0  0  0
   -1.4810   51.1348   21.1483 H   0  0  0  0  0  0
   -1.6029   52.6862   21.9780 H   0  0  0  0  0  0
   -2.5574   50.1673   23.0122 H   0  0  0  0  0  0
   -2.4882   51.6995   23.8752 H   0  0  0  0  0  0
  1  2  1  0  0  0
  1 31  1  0  0  0
  1 32  1  0  0  0
  1 33  1  0  0  0
  2  3  1  0  0  0
  3  8  2  0  0  0
  3  4  1  0  0  0
  4  5  2  0  0  0
  5  6  1  0  0  0
  5 34  1  0  0  0
  6  7  2  0  0  0
  6 30  1  0  0  0
  7  8  1  0  0  0
  7  9  1  0  0  0
  9 10  2  0  0  0
  9 11  1  0  0  0
 11 12  1  0  0  0
 11 35  1  0  0  0
 12 16  1  0  0  0
 12 13  2  0  0  0
 13 14  1  0  0  0
 13 20  1  0  0  0
 14 19  1  0  0  0
 14 15  2  0  0  0
 15 16  1  0  0  0
 15 17  1  0  0  0
 17 18  1  0  0  0
 17 36  1  0  0  0
 17 37  1  0  0  0
 18 19  1  0  0  0
 18 38  1  0  0  0
 18 39  1  0  0  0
 19 40  1  0  0  0
 19 41  1  0  0  0
 20 21  2  0  0  0
 20 22  1  0  0  0
 22 23  1  0  0  0
 22 42  1  0  0  0
 23 24  1  0  0  0
 23 43  1  0  0  0
 23 44  1  0  0  0
 24 25  1  0  0  0
 24 29  1  0  0  0
 24 26  1  0  0  0
 26 27  1  0  0  0
 26 45  1  0  0  0
 26 46  1  0  0  0
 27 28  1  0  0  0
 27 47  1  0  0  0
 27 48  1  0  0  0
 28 29  1  0  0  0
 28 49  1  0  0  0
 28 50  1  0  0  0
M  END
> <i_i_glide_confnum>
305

> <i_i_glide_lignum>
5281

> <i_i_glide_posenum>
238

> <i_i_glide_rotatable_bonds>
8

> <i_m_Source_File_Index>
1993

> <b_m_subgroup_collapsed>
0

> <r_i_docking_score>
-4.85468

> <r_i_glide_ecoul>
-0.407495

> <r_i_glide_eff_state_penalty>
0

> <r_i_glide_einternal>
7.06102

> <r_i_glide_emodel>
-53.459

> <r_i_glide_energy>
-42.8841

> <r_i_glide_erotb>
0.494648

> <r_i_glide_esite>
0

> <r_i_glide_evdw>
-42.4766

> <r_i_glide_gscore>
-4.85468

> <r_i_glide_hbond>
0

> <r_i_glide_ligand_efficiency>
-0.167403

> <r_i_glide_ligand_efficiency_ln>
-1.1116

> <r_i_glide_ligand_efficiency_sa>
-0.514315

> <r_i_glide_lipo>
-2.38764

> <r_i_glide_metal>
0

> <r_i_glide_rewards>
-0.776742

> <s_i_glide_gridfile>
wee1_glide-grid

> <s_m_Source_File>
wee1_decoys_glide_SP.sdf

> <s_m_Source_Path>
/Users/zhangxujun/Desktop

> <s_m_entry_id>
2268

> <s_m_entry_name>
wee1_decoys_glide_SP.1993

> <s_m_subgroup_title>
wee1_decoys_glide_SP

> <s_m_subgroupid>
wee1_decoys_glide_SP


$$$$
