ZINC29388898_318
                    3D
 Schrodinger Suite 2024-2.
 73 77  0  0  1  0            999 V2000
    5.5389   56.8919   16.8483 C   0  0  0  0  0  0
    4.1959   56.7802   17.1991 C   0  0  0  0  0  0
    3.6401   55.5212   17.4247 C   0  0  0  0  0  0
    4.4326   54.3671   17.2856 C   0  0  0  0  0  0
    5.7806   54.4947   16.9327 C   0  0  0  0  0  0
    6.3342   55.7551   16.7148 C   0  0  0  0  0  0
    3.9714   53.0532   17.5073 N   0  0  0  0  0  0
    2.7101   52.6114   17.6881 C   0  0  0  0  0  0
    1.6876   53.2867   17.5980 O   0  0  0  0  0  0
    2.7032   51.3120   18.0217 N   0  0  0  0  0  0
    1.8670   50.6564   19.0363 C   0  0  2  0  0  0
    0.9446   51.5584   19.9069 C   0  0  0  0  0  0
    0.2260   50.8224   21.0449 C   0  0  0  0  0  0
    1.3020   50.1288   21.9148 N   0  3  2  0  0  0
    1.9971   49.0370   21.0799 C   0  0  0  0  0  0
    2.7354   49.7263   19.9172 C   0  0  0  0  0  0
    0.6899   49.5324   23.2146 C   0  0  0  0  0  0
    0.2801   50.6797   24.1468 C   0  0  0  0  0  0
   -0.8979   50.7933   24.4777 O   0  0  0  0  0  0
    1.2343   51.5709   24.4735 N   0  0  0  0  0  0
    1.0004   52.9141   25.0118 C   0  0  2  0  0  0
   -0.0704   53.0150   25.2108 H   0  0  0  0  0  0
    1.3681   53.9791   23.9709 C   0  0  0  0  0  0
    2.8644   53.9420   23.6397 C   0  0  0  0  0  0
    3.7074   54.0622   24.9059 C   0  0  0  0  0  0
    5.0247   54.5223   24.7978 C   0  0  0  0  0  0
    5.8431   54.6455   25.9131 C   0  0  0  0  0  0
    5.3551   54.3008   27.1652 C   0  0  0  0  0  0
    4.0485   53.8361   27.2896 C   0  0  0  0  0  0
    3.1966   53.6968   26.1805 C   0  0  0  0  0  0
    1.7268   53.2265   26.3611 C   0  0  2  0  0  0
    1.2220   54.1039   26.7622 H   0  0  0  0  0  0
    1.5193   52.0853   27.3996 C   0  0  0  0  0  0
    1.3482   52.5006   28.8523 C   0  0  0  0  0  0
    2.2516   52.0968   29.8411 C   0  0  0  0  0  0
    1.9432   52.3063   31.1874 C   0  0  0  0  0  0
    0.7419   52.9438   31.4991 C   0  0  0  0  0  0
   -0.0938   53.4326   30.5516 N   0  0  0  0  0  0
    0.2086   53.1974   29.2524 C   0  0  0  0  0  0
    7.1033   55.1109   25.7792 F   0  0  0  0  0  0
    5.9647   57.8708   16.6765 H   0  0  0  0  0  0
    3.5905   57.6695   17.3045 H   0  0  0  0  0  0
    2.6022   55.4710   17.7195 H   0  0  0  0  0  0
    6.4061   53.6206   16.8250 H   0  0  0  0  0  0
    7.3756   55.8497   16.4351 H   0  0  0  0  0  0
    4.6914   52.3456   17.5423 H   0  0  0  0  0  0
    3.5952   50.8415   17.8792 H   0  0  0  0  0  0
    1.2139   49.9721   18.4904 H   0  0  0  0  0  0
    0.1914   52.0372   19.2788 H   0  0  0  0  0  0
    1.5370   52.3611   20.3516 H   0  0  0  0  0  0
   -0.4817   50.0675   20.6979 H   0  0  0  0  0  0
   -0.2993   51.5520   21.6618 H   0  0  0  0  0  0
    2.7104   48.5309   21.7324 H   0  0  0  0  0  0
    1.2365   48.3291   20.7450 H   0  0  0  0  0  0
    3.5450   50.3199   20.3501 H   0  0  0  0  0  0
    3.1950   48.9622   19.2855 H   0  0  0  0  0  0
    1.4595   48.9141   23.6797 H   0  0  0  0  0  0
   -0.1540   48.9038   22.9239 H   0  0  0  0  0  0
    2.1775   51.3955   24.1634 H   0  0  0  0  0  0
    0.7787   53.8426   23.0644 H   0  0  0  0  0  0
    1.1037   54.9536   24.3527 H   0  0  0  0  0  0
    3.1159   53.0139   23.1264 H   0  0  0  0  0  0
    3.1048   54.7463   22.9419 H   0  0  0  0  0  0
    5.4235   54.7948   23.8319 H   0  0  0  0  0  0
    5.9840   54.4052   28.0385 H   0  0  0  0  0  0
    3.6952   53.6077   28.2800 H   0  0  0  0  0  0
    2.3029   51.3409   27.3285 H   0  0  0  0  0  0
    0.6068   51.5353   27.1594 H   0  0  0  0  0  0
    3.1539   51.5667   29.5714 H   0  0  0  0  0  0
    2.5955   51.9586   31.9758 H   0  0  0  0  0  0
    0.4369   53.0914   32.5264 H   0  0  0  0  0  0
   -0.5065   53.5398   28.5229 H   0  0  0  0  0  0
    1.9891   50.8135   22.1972 H   0  0  0  0  0  0
  1  6  2  0  0  0
  1  2  1  0  0  0
  1 41  1  0  0  0
  2  3  2  0  0  0
  2 42  1  0  0  0
  3  4  1  0  0  0
  3 43  1  0  0  0
  4  5  2  0  0  0
  4  7  1  0  0  0
  5  6  1  0  0  0
  5 44  1  0  0  0
  6 45  1  0  0  0
  7  8  1  0  0  0
  7 46  1  0  0  0
  8  9  2  0  0  0
  8 10  1  0  0  0
 10 11  1  0  0  0
 10 47  1  0  0  0
 11 16  1  0  0  0
 11 12  1  0  0  0
 11 48  1  0  0  0
 12 13  1  0  0  0
 12 49  1  0  0  0
 12 50  1  0  0  0
 13 14  1  0  0  0
 13 51  1  0  0  0
 13 52  1  0  0  0
 14 15  1  0  0  0
 14 17  1  0  0  0
 14 73  1  0  0  0
 15 16  1  0  0  0
 15 53  1  0  0  0
 15 54  1  0  0  0
 16 55  1  0  0  0
 16 56  1  0  0  0
 17 18  1  0  0  0
 17 57  1  0  0  0
 17 58  1  0  0  0
 18 19  2  0  0  0
 18 20  1  0  0  0
 20 21  1  0  0  0
 20 59  1  0  0  0
 21 22  1  0  0  0
 21 31  1  0  0  0
 21 23  1  0  0  0
 23 24  1  0  0  0
 23 60  1  0  0  0
 23 61  1  0  0  0
 24 25  1  0  0  0
 24 62  1  0  0  0
 24 63  1  0  0  0
 25 30  2  0  0  0
 25 26  1  0  0  0
 26 27  2  0  0  0
 26 64  1  0  0  0
 27 28  1  0  0  0
 27 40  1  0  0  0
 28 29  2  0  0  0
 28 65  1  0  0  0
 29 30  1  0  0  0
 29 66  1  0  0  0
 30 31  1  0  0  0
 31 32  1  0  0  0
 31 33  1  0  0  0
 33 34  1  0  0  0
 33 67  1  0  0  0
 33 68  1  0  0  0
 34 39  2  0  0  0
 34 35  1  0  0  0
 35 36  2  0  0  0
 35 69  1  0  0  0
 36 37  1  0  0  0
 36 70  1  0  0  0
 37 38  2  0  0  0
 37 71  1  0  0  0
 38 39  1  0  0  0
 39 72  1  0  0  0
M  CHG  1  14   1
M  END
> <i_i_glide_confnum>
210

> <i_i_glide_lignum>
319

> <i_i_glide_posenum>
126

> <i_i_glide_rotatable_bonds>
10

> <i_m_Source_File_Index>
370

> <b_m_subgroup_collapsed>
0

> <r_i_docking_score>
-5.27155

> <r_i_glide_ecoul>
-5.41722

> <r_i_glide_eff_state_penalty>
0

> <r_i_glide_einternal>
17.0567

> <r_i_glide_emodel>
-54.1791

> <r_i_glide_energy>
-47.1303

> <r_i_glide_erotb>
0.692158

> <r_i_glide_esite>
-0.214516

> <r_i_glide_evdw>
-41.7131

> <r_i_glide_gscore>
-5.27155

> <r_i_glide_hbond>
-0.327579

> <r_i_glide_ligand_efficiency>
-0.138725

> <r_i_glide_ligand_efficiency_ln>
-1.1367

> <r_i_glide_ligand_efficiency_sa>
-0.46639

> <r_i_glide_lipo>
-2.99474

> <r_i_glide_metal>
0

> <r_i_glide_rewards>
0.471355

> <s_i_glide_gridfile>
wee1_glide-grid

> <s_m_Source_File>
wee1_decoys_glide_SP.sdf

> <s_m_Source_Path>
/Users/zhangxujun/Desktop

> <s_m_entry_id>
645

> <s_m_entry_name>
wee1_decoys_glide_SP.370

> <s_m_subgroup_title>
wee1_decoys_glide_SP

> <s_m_subgroupid>
wee1_decoys_glide_SP


$$$$
