ZINC28308920_5994
                    3D
 Schrodinger Suite 2024-2.
 53 57  0  0  1  0            999 V2000
    6.6784   54.6697   27.1019 C   0  0  0  0  0  0
    5.5206   54.3774   27.8140 C   0  0  0  0  0  0
    4.3313   54.0975   27.1466 C   0  0  0  0  0  0
    4.2873   54.1019   25.7299 C   0  0  0  0  0  0
    3.1045   53.7824   25.0206 C   0  0  0  0  0  0
    3.0984   53.7456   23.6185 C   0  0  0  0  0  0
    4.2504   54.0947   22.9155 C   0  0  0  0  0  0
    5.4291   54.4191   23.5840 C   0  0  0  0  0  0
    5.4736   54.4153   24.9992 C   0  0  0  0  0  0
    6.6659   54.6976   25.7081 C   0  0  0  0  0  0
    1.9898   53.3437   22.8496 N   0  0  0  0  0  0
    0.9909   52.4947   23.2000 C   0  0  0  0  0  0
    0.9045   52.0040   24.3238 O   0  0  0  0  0  0
    0.0410   52.1557   22.1343 C   0  0  0  0  0  0
   -1.2792   51.9400   22.4139 C   0  0  0  0  0  0
   -2.0423   52.0403   23.6732 C   0  0  0  0  0  0
   -1.8751   51.1460   24.7510 C   0  0  0  0  0  0
   -2.6868   51.2316   25.8941 C   0  0  0  0  0  0
   -3.6798   52.2079   25.9057 C   0  0  0  0  0  0
   -3.8467   53.0734   24.8631 C   0  0  0  0  0  0
   -3.0423   53.0201   23.7346 C   0  0  0  0  0  0
   -4.8686   53.9251   25.1340 O   0  0  0  0  0  0
   -5.5108   53.3678   26.2466 C   0  0  0  0  0  0
   -4.6063   52.4873   26.8615 O   0  0  0  0  0  0
    0.5845   52.0949   20.8600 N   0  0  0  0  0  0
   -0.0119   52.0945   19.6423 C   0  0  0  0  0  0
   -1.2328   52.0976   19.4608 O   0  0  0  0  0  0
    0.9222   52.0906   18.4505 C   0  0  0  0  0  0
    2.2741   52.4606   18.5665 C   0  0  0  0  0  0
    3.1042   52.4558   17.4503 C   0  0  0  0  0  0
    2.5968   52.0948   16.2078 C   0  0  0  0  0  0
    1.2603   51.7314   16.0716 C   0  0  0  0  0  0
    0.4276   51.7302   17.1869 C   0  0  0  0  0  0
    3.7390   52.0943   14.6863 Br  0  0  0  0  0  0
    7.5823   54.8846   27.6538 H   0  0  0  0  0  0
    5.5496   54.3686   28.8945 H   0  0  0  0  0  0
    3.4365   53.8593   27.7028 H   0  0  0  0  0  0
    2.2212   53.5469   25.5934 H   0  0  0  0  0  0
    4.2522   54.0849   21.8347 H   0  0  0  0  0  0
    6.3213   54.6599   23.0239 H   0  0  0  0  0  0
    7.5630   54.9173   25.1505 H   0  0  0  0  0  0
    1.9727   53.7051   21.9092 H   0  0  0  0  0  0
   -1.9345   51.6490   21.6117 H   0  0  0  0  0  0
   -1.1188   50.3749   24.7031 H   0  0  0  0  0  0
   -2.5474   50.5460   26.7192 H   0  0  0  0  0  0
   -3.2013   53.6987   22.9114 H   0  0  0  0  0  0
   -6.3881   52.8101   25.9120 H   0  0  0  0  0  0
   -5.8428   54.1471   26.9298 H   0  0  0  0  0  0
    1.5898   52.0192   20.8349 H   0  0  0  0  0  0
    2.7077   52.7599   19.5095 H   0  0  0  0  0  0
    4.1487   52.7174   17.5512 H   0  0  0  0  0  0
    0.8739   51.4512   15.1042 H   0  0  0  0  0  0
   -0.6080   51.4435   17.0587 H   0  0  0  0  0  0
  1 10  2  0  0  0
  1  2  1  0  0  0
  1 35  1  0  0  0
  2  3  2  0  0  0
  2 36  1  0  0  0
  3  4  1  0  0  0
  3 37  1  0  0  0
  4  9  2  0  0  0
  4  5  1  0  0  0
  5  6  2  0  0  0
  5 38  1  0  0  0
  6  7  1  0  0  0
  6 11  1  0  0  0
  7  8  2  0  0  0
  7 39  1  0  0  0
  8  9  1  0  0  0
  8 40  1  0  0  0
  9 10  1  0  0  0
 10 41  1  0  0  0
 11 12  1  0  0  0
 11 42  1  0  0  0
 12 13  2  0  0  0
 12 14  1  0  0  0
 14 15  2  0  0  0
 14 25  1  0  0  0
 15 16  1  0  0  0
 15 43  1  0  0  0
 16 21  2  0  0  0
 16 17  1  0  0  0
 17 18  2  0  0  0
 17 44  1  0  0  0
 18 19  1  0  0  0
 18 45  1  0  0  0
 19 24  1  0  0  0
 19 20  2  0  0  0
 20 21  1  0  0  0
 20 22  1  0  0  0
 21 46  1  0  0  0
 22 23  1  0  0  0
 23 24  1  0  0  0
 23 47  1  0  0  0
 23 48  1  0  0  0
 25 26  1  0  0  0
 25 49  1  0  0  0
 26 27  2  0  0  0
 26 28  1  0  0  0
 28 33  2  0  0  0
 28 29  1  0  0  0
 29 30  2  0  0  0
 29 50  1  0  0  0
 30 31  1  0  0  0
 30 51  1  0  0  0
 31 32  2  0  0  0
 31 34  1  0  0  0
 32 33  1  0  0  0
 32 52  1  0  0  0
 33 53  1  0  0  0
M  END
> <i_i_glide_confnum>
1

> <i_i_glide_lignum>
5995

> <i_i_glide_posenum>
272

> <i_i_glide_rotatable_bonds>
7

> <i_m_Source_File_Index>
3333

> <b_m_subgroup_collapsed>
0

> <r_i_docking_score>
-5.47668

> <r_i_glide_ecoul>
-3.41956

> <r_i_glide_eff_state_penalty>
0

> <r_i_glide_einternal>
3.89804

> <r_i_glide_emodel>
-58.6999

> <r_i_glide_energy>
-44.8822

> <r_i_glide_erotb>
0.309025

> <r_i_glide_esite>
-0.0332582

> <r_i_glide_evdw>
-41.4627

> <r_i_glide_gscore>
-5.47668

> <r_i_glide_hbond>
-0.0101201

> <r_i_glide_ligand_efficiency>
-0.161079

> <r_i_glide_ligand_efficiency_ln>
-1.20995

> <r_i_glide_ligand_efficiency_sa>
-0.521833

> <r_i_glide_lipo>
-2.80522

> <r_i_glide_metal>
0

> <r_i_glide_rewards>
-0.351038

> <s_i_glide_gridfile>
wee1_glide-grid

> <s_m_Source_File>
wee1_decoys_glide_SP.sdf

> <s_m_Source_Path>
/Users/zhangxujun/Desktop

> <s_m_entry_id>
3608

> <s_m_entry_name>
wee1_decoys_glide_SP.3333

> <s_m_subgroup_title>
wee1_decoys_glide_SP

> <s_m_subgroupid>
wee1_decoys_glide_SP


$$$$
