ZINC09043240_970
                    3D
 Schrodinger Suite 2024-2.
 42 46  0  0  1  0            999 V2000
    3.4089   50.8549   20.8144 C   0  0  0  0  0  0
    4.1488   51.9377   21.2808 C   0  0  0  0  0  0
    3.5074   52.9929   21.9387 C   0  0  0  0  0  0
    2.1212   52.9176   22.1486 C   0  0  0  0  0  0
    1.3958   51.8020   21.7344 C   0  0  0  0  0  0
    2.0406   50.7692   21.0592 C   0  0  0  0  0  0
   -0.4770   51.6973   22.0593 Br  0  0  0  0  0  0
    4.2636   54.2872   22.2904 C   0  0  2  0  0  0
    3.4960   55.0639   22.3158 H   0  0  0  0  0  0
    5.3470   54.7178   21.3190 C   0  0  0  0  0  0
    6.4464   54.9137   22.0560 C   0  0  0  0  0  0
    6.2580   54.6049   23.4652 C   0  0  0  0  0  0
    7.1031   54.6345   24.3654 O   0  0  0  0  0  0
    4.9355   54.3062   23.6073 N   0  0  0  0  0  0
    4.2643   54.0963   24.8344 C   0  0  0  0  0  0
    3.0200   53.7010   24.9086 N   0  0  0  0  0  0
    2.6341   53.4354   26.1859 C   0  0  0  0  0  0
    1.3923   52.8963   26.5540 C   0  0  0  0  0  0
    1.1477   52.6522   27.9088 C   0  0  0  0  0  0
    2.1047   52.9436   28.8831 C   0  0  0  0  0  0
    3.3431   53.4876   28.5413 C   0  0  0  0  0  0
    3.6004   53.7184   27.1836 C   0  0  0  0  0  0
    5.0476   54.3252   26.4088 S   0  0  0  0  0  0
    1.8336   52.6889   30.1813 F   0  0  0  0  0  0
    7.6149   55.2967   21.6819 O   0  5  0  0  0  0
    5.0855   54.8968   19.8671 C   0  0  0  0  0  0
    4.3105   54.1372   19.2875 O   0  0  0  0  0  0
    5.6168   56.0483   19.1154 C   0  0  0  0  0  0
    6.7020   56.9158   19.2420 C   0  0  0  0  0  0
    6.6124   57.8575   18.2180 C   0  0  0  0  0  0
    5.4915   57.5245   17.4856 C   0  0  0  0  0  0
    4.8909   56.4349   18.0263 O   0  0  0  0  0  0
    3.8988   50.0967   20.2285 H   0  0  0  0  0  0
    5.2046   51.9909   21.0593 H   0  0  0  0  0  0
    1.6010   53.7364   22.6252 H   0  0  0  0  0  0
    1.4788   49.9175   20.7030 H   0  0  0  0  0  0
    0.6512   52.6564   25.8066 H   0  0  0  0  0  0
    0.2028   52.2220   28.2118 H   0  0  0  0  0  0
    4.0842   53.6946   29.2975 H   0  0  0  0  0  0
    7.4898   56.8975   19.9702 H   0  0  0  0  0  0
    7.2823   58.6829   18.0278 H   0  0  0  0  0  0
    5.0156   57.9500   16.6146 H   0  0  0  0  0  0
  1  6  2  0  0  0
  1  2  1  0  0  0
  1 33  1  0  0  0
  2  3  2  0  0  0
  2 34  1  0  0  0
  3  4  1  0  0  0
  3  8  1  0  0  0
  4  5  2  0  0  0
  4 35  1  0  0  0
  5  6  1  0  0  0
  5  7  1  0  0  0
  6 36  1  0  0  0
  8  9  1  0  0  0
  8 14  1  0  0  0
  8 10  1  0  0  0
 10 11  2  0  0  0
 10 26  1  0  0  0
 11 12  1  0  0  0
 11 25  1  0  0  0
 12 13  2  0  0  0
 12 14  1  0  0  0
 14 15  1  0  0  0
 15 23  1  0  0  0
 15 16  2  0  0  0
 16 17  1  0  0  0
 17 22  2  0  0  0
 17 18  1  0  0  0
 18 19  2  0  0  0
 18 37  1  0  0  0
 19 20  1  0  0  0
 19 38  1  0  0  0
 20 21  2  0  0  0
 20 24  1  0  0  0
 21 22  1  0  0  0
 21 39  1  0  0  0
 22 23  1  0  0  0
 26 27  2  0  0  0
 26 28  1  0  0  0
 28 32  1  0  0  0
 28 29  2  0  0  0
 29 30  1  0  0  0
 29 40  1  0  0  0
 30 31  2  0  0  0
 30 41  1  0  0  0
 31 32  1  0  0  0
 31 42  1  0  0  0
M  CHG  1  25  -1
M  END
> <i_i_glide_confnum>
4

> <i_i_glide_lignum>
971

> <i_i_glide_posenum>
115

> <i_i_glide_rotatable_bonds>
4

> <i_m_Source_File_Index>
13

> <b_m_subgroup_collapsed>
0

> <r_i_docking_score>
-5.14863

> <r_i_glide_ecoul>
1.54395

> <r_i_glide_eff_state_penalty>
0

> <r_i_glide_einternal>
5.95616

> <r_i_glide_emodel>
-54.0575

> <r_i_glide_energy>
-43.171

> <r_i_glide_erotb>
0.32871

> <r_i_glide_esite>
0

> <r_i_glide_evdw>
-44.715

> <r_i_glide_gscore>
-5.14863

> <r_i_glide_hbond>
0

> <r_i_glide_ligand_efficiency>
-0.166085

> <r_i_glide_ligand_efficiency_ln>
-1.16117

> <r_i_glide_ligand_efficiency_sa>
-0.521736

> <r_i_glide_lipo>
-2.53069

> <r_i_glide_metal>
0

> <r_i_glide_rewards>
-0.942499

> <s_i_glide_gridfile>
wee1_glide-grid

> <s_m_Source_File>
wee1_decoys_glide_SP.sdf

> <s_m_Source_Path>
/Users/zhangxujun/Desktop

> <s_m_entry_id>
288

> <s_m_entry_name>
wee1_decoys_glide_SP.13

> <s_m_subgroup_title>
wee1_decoys_glide_SP

> <s_m_subgroupid>
wee1_decoys_glide_SP


$$$$
