ZINC39633672_2154
                    3D
 Schrodinger Suite 2024-2.
 63 66  0  0  1  0            999 V2000
    7.2038   55.4760   22.5950 C   0  0  0  0  0  0
    6.7377   54.1823   22.9560 O   0  0  0  0  0  0
    5.5294   54.2282   23.5939 C   0  0  0  0  0  0
    4.2927   53.9777   22.9583 C   0  0  0  0  0  0
    3.2304   54.1688   23.8486 C   0  0  0  0  0  0
    3.7529   54.4948   25.4681 S   0  0  0  0  0  0
    5.4023   54.4960   24.9556 C   0  0  0  0  0  0
    6.6510   54.8046   26.0975 Cl  0  0  0  0  0  0
    4.1709   53.6978   21.5344 C   0  0  0  0  0  0
    4.8349   54.3556   20.7291 O   0  0  0  0  0  0
    3.3424   52.6990   21.1388 N   0  0  0  0  0  0
    2.4962   51.8727   21.9970 C   0  0  0  0  0  0
    2.0497   50.7129   21.0813 C   0  0  2  0  0  0
    2.8075   49.9313   21.1905 H   0  0  0  0  0  0
    2.0303   51.3381   19.6574 C   0  0  0  0  0  0
    3.2614   52.2781   19.7392 C   0  0  0  0  0  0
    0.7296   52.1436   19.3482 C   0  0  0  0  0  0
    0.8048   52.8850   17.9947 C   0  0  0  0  0  0
    1.1092   51.8537   16.8818 N   0  3  0  0  0  0
    2.3037   50.9152   17.1579 C   0  0  0  0  0  0
    2.1204   50.2691   18.5434 C   0  0  0  0  0  0
    0.7131   50.0949   21.5688 C   0  0  0  0  0  0
    0.3195   49.0520   21.0467 O   0  0  0  0  0  0
    0.0469   50.6819   22.5794 N   0  0  0  0  0  0
   -1.1743   50.2070   23.2274 C   0  0  0  0  0  0
   -0.9316   48.9550   24.1038 C   0  0  0  0  0  0
    0.1587   49.0532   25.1887 C   0  0  0  0  0  0
   -0.0178   50.1802   26.2248 C   0  0  0  0  0  0
    0.2099   51.5983   25.6747 C   0  0  0  0  0  0
   -0.9759   52.2498   24.9289 C   0  0  0  0  0  0
   -1.8527   51.3508   24.0205 C   0  0  0  0  0  0
    8.1537   55.3869   22.0741 H   0  0  0  0  0  0
    6.5138   55.9973   21.9300 H   0  0  0  0  0  0
    7.3736   56.0959   23.4759 H   0  0  0  0  0  0
    2.1728   54.1261   23.6408 H   0  0  0  0  0  0
    1.6472   52.5132   22.2405 H   0  0  0  0  0  0
    3.0017   51.4969   22.8814 H   0  0  0  0  0  0
    4.1545   51.6867   19.5420 H   0  0  0  0  0  0
    3.2741   53.0841   19.0073 H   0  0  0  0  0  0
   -0.1588   51.5091   19.3841 H   0  0  0  0  0  0
    0.5785   52.8957   20.1213 H   0  0  0  0  0  0
   -0.1436   53.3543   17.7303 H   0  0  0  0  0  0
    1.5821   53.6475   17.9483 H   0  0  0  0  0  0
    0.2901   51.2725   16.7569 H   0  0  0  0  0  0
    2.3025   50.1747   16.3557 H   0  0  0  0  0  0
    3.2183   51.5081   17.0832 H   0  0  0  0  0  0
    2.9976   49.6432   18.7233 H   0  0  0  0  0  0
    1.2724   49.5851   18.5661 H   0  0  0  0  0  0
    0.4192   51.5375   22.9622 H   0  0  0  0  0  0
   -1.8884   49.9122   22.4534 H   0  0  0  0  0  0
   -0.6887   48.1153   23.4479 H   0  0  0  0  0  0
   -1.8737   48.6548   24.5675 H   0  0  0  0  0  0
    1.1341   49.1459   24.7124 H   0  0  0  0  0  0
    0.1880   48.0978   25.7117 H   0  0  0  0  0  0
    0.7109   50.0106   27.0197 H   0  0  0  0  0  0
   -0.9936   50.1002   26.7082 H   0  0  0  0  0  0
    1.0905   51.5926   25.0304 H   0  0  0  0  0  0
    0.4834   52.2545   26.5035 H   0  0  0  0  0  0
   -0.5849   53.0771   24.3365 H   0  0  0  0  0  0
   -1.6318   52.7203   25.6651 H   0  0  0  0  0  0
   -2.6744   50.9327   24.6044 H   0  0  0  0  0  0
   -2.3582   52.0044   23.3071 H   0  0  0  0  0  0
    1.2505   52.3263   15.9993 H   0  0  0  0  0  0
  1  2  1  0  0  0
  1 32  1  0  0  0
  1 33  1  0  0  0
  1 34  1  0  0  0
  2  3  1  0  0  0
  3  7  2  0  0  0
  3  4  1  0  0  0
  4  5  2  0  0  0
  4  9  1  0  0  0
  5  6  1  0  0  0
  5 35  1  0  0  0
  6  7  1  0  0  0
  7  8  1  0  0  0
  9 10  2  0  0  0
  9 11  1  0  0  0
 11 16  1  0  0  0
 11 12  1  0  0  0
 12 13  1  0  0  0
 12 36  1  0  0  0
 12 37  1  0  0  0
 13 14  1  0  0  0
 13 15  1  0  0  0
 13 22  1  0  0  0
 15 21  1  0  0  0
 15 16  1  0  0  0
 15 17  1  0  0  0
 16 38  1  0  0  0
 16 39  1  0  0  0
 17 18  1  0  0  0
 17 40  1  0  0  0
 17 41  1  0  0  0
 18 19  1  0  0  0
 18 42  1  0  0  0
 18 43  1  0  0  0
 19 20  1  0  0  0
 19 44  1  0  0  0
 19 63  1  0  0  0
 20 21  1  0  0  0
 20 45  1  0  0  0
 20 46  1  0  0  0
 21 47  1  0  0  0
 21 48  1  0  0  0
 22 23  2  0  0  0
 22 24  1  0  0  0
 24 25  1  0  0  0
 24 49  1  0  0  0
 25 31  1  0  0  0
 25 26  1  0  0  0
 25 50  1  0  0  0
 26 27  1  0  0  0
 26 51  1  0  0  0
 26 52  1  0  0  0
 27 28  1  0  0  0
 27 53  1  0  0  0
 27 54  1  0  0  0
 28 29  1  0  0  0
 28 55  1  0  0  0
 28 56  1  0  0  0
 29 30  1  0  0  0
 29 57  1  0  0  0
 29 58  1  0  0  0
 30 31  1  0  0  0
 30 59  1  0  0  0
 30 60  1  0  0  0
 31 61  1  0  0  0
 31 62  1  0  0  0
M  CHG  1  19   1
M  END
> <i_i_glide_confnum>
339

> <i_i_glide_lignum>
2155

> <i_i_glide_posenum>
141

> <i_i_glide_rotatable_bonds>
6

> <i_m_Source_File_Index>
4095

> <b_m_subgroup_collapsed>
0

> <r_i_docking_score>
-4.1753

> <r_i_glide_ecoul>
-4.10129

> <r_i_glide_eff_state_penalty>
0

> <r_i_glide_einternal>
2.81021

> <r_i_glide_emodel>
-50.4896

> <r_i_glide_energy>
-40.2299

> <r_i_glide_erotb>
0.485034

> <r_i_glide_esite>
-0.0207877

> <r_i_glide_evdw>
-36.1287

> <r_i_glide_gscore>
-4.1753

> <r_i_glide_hbond>
0

> <r_i_glide_ligand_efficiency>
-0.139177

> <r_i_glide_ligand_efficiency_ln>
-0.948674

> <r_i_glide_ligand_efficiency_sa>
-0.432454

> <r_i_glide_lipo>
-1.6427

> <r_i_glide_metal>
0

> <r_i_glide_rewards>
-0.575224

> <s_i_glide_gridfile>
wee1_glide-grid

> <s_m_Source_File>
wee1_decoys_glide_SP.sdf

> <s_m_Source_Path>
/Users/zhangxujun/Desktop

> <s_m_entry_id>
4370

> <s_m_entry_name>
wee1_decoys_glide_SP.4095

> <s_m_subgroup_title>
wee1_decoys_glide_SP

> <s_m_subgroupid>
wee1_decoys_glide_SP


$$$$
