ZINC27102727_1494
                    3D
 Schrodinger Suite 2024-2.
 48 51  0  0  1  0            999 V2000
    5.0982   58.4974   17.1095 C   0  0  0  0  0  0
    4.4842   57.2314   16.6661 N   0  0  0  0  0  0
    5.4617   55.7867   16.4442 S   0  0  0  0  0  0
    4.7547   54.8902   15.5240 O   0  0  0  0  0  0
    6.8562   56.1877   16.2310 O   0  0  0  0  0  0
    5.3693   55.0317   18.0854 C   0  0  0  0  0  0
    5.8376   55.5701   19.2821 C   0  0  0  0  0  0
    5.5450   54.6960   20.3304 C   0  0  0  0  0  0
    4.9558   53.5699   19.7607 N   0  0  0  0  0  0
    4.8543   53.7867   18.4055 C   0  0  0  0  0  0
    4.5339   52.3376   20.4221 C   0  0  0  0  0  0
    5.9099   54.8967   21.7157 C   0  0  0  0  0  0
    6.8412   55.6487   22.0064 O   0  0  0  0  0  0
    5.1201   54.2653   22.6087 N   0  0  0  0  0  0
    5.1403   54.3518   24.0112 C   0  0  0  0  0  0
    6.2954   54.6517   24.7725 C   0  0  0  0  0  0
    6.2311   54.7176   26.1731 C   0  0  0  0  0  0
    5.0015   54.4739   26.7749 C   0  0  0  0  0  0
    3.8931   54.1690   26.0473 C   0  0  0  0  0  0
    3.9211   54.0968   24.6601 C   0  0  0  0  0  0
    2.8439   53.9724   26.8851 O   0  0  0  0  0  0
    3.3073   54.1779   28.2017 C   0  0  0  0  0  0
    4.6772   54.4963   28.0941 O   0  0  0  0  0  0
    2.5315   55.2968   28.8944 C   0  0  0  0  0  0
    1.2859   54.5762   29.4038 C   0  0  0  0  0  0
    1.7559   53.1829   29.7990 C   0  0  0  0  0  0
    3.1001   52.9467   29.0934 C   0  0  0  0  0  0
    4.3142   59.2361   17.2818 H   0  0  0  0  0  0
    5.7534   58.8882   16.3301 H   0  0  0  0  0  0
    5.6595   58.3525   18.0315 H   0  0  0  0  0  0
    3.6089   57.2812   16.1374 H   0  0  0  0  0  0
    6.3349   56.5242   19.3793 H   0  0  0  0  0  0
    4.4311   53.0223   17.7676 H   0  0  0  0  0  0
    3.6247   52.5247   20.9922 H   0  0  0  0  0  0
    4.3044   51.5732   19.6819 H   0  0  0  0  0  0
    5.3295   51.9710   21.0705 H   0  0  0  0  0  0
    4.3469   53.7497   22.2207 H   0  0  0  0  0  0
    7.2457   54.8254   24.2892 H   0  0  0  0  0  0
    7.1049   54.9467   26.7645 H   0  0  0  0  0  0
    3.0260   53.8584   24.1048 H   0  0  0  0  0  0
    3.1448   55.7314   29.6815 H   0  0  0  0  0  0
    2.3046   56.0962   28.1884 H   0  0  0  0  0  0
    0.8157   55.1066   30.2321 H   0  0  0  0  0  0
    0.5473   54.5053   28.6039 H   0  0  0  0  0  0
    1.8771   53.1056   30.8804 H   0  0  0  0  0  0
    1.0210   52.4276   29.5140 H   0  0  0  0  0  0
    3.1074   52.0429   28.4835 H   0  0  0  0  0  0
    3.9249   52.8712   29.8030 H   0  0  0  0  0  0
  1  2  1  0  0  0
  1 28  1  0  0  0
  1 29  1  0  0  0
  1 30  1  0  0  0
  2  3  1  0  0  0
  2 31  1  0  0  0
  3  4  2  0  0  0
  3  5  2  0  0  0
  3  6  1  0  0  0
  6 10  2  0  0  0
  6  7  1  0  0  0
  7  8  2  0  0  0
  7 32  1  0  0  0
  8  9  1  0  0  0
  8 12  1  0  0  0
  9 10  1  0  0  0
  9 11  1  0  0  0
 10 33  1  0  0  0
 11 34  1  0  0  0
 11 35  1  0  0  0
 11 36  1  0  0  0
 12 13  2  0  0  0
 12 14  1  0  0  0
 14 15  1  0  0  0
 14 37  1  0  0  0
 15 20  2  0  0  0
 15 16  1  0  0  0
 16 17  2  0  0  0
 16 38  1  0  0  0
 17 18  1  0  0  0
 17 39  1  0  0  0
 18 23  1  0  0  0
 18 19  2  0  0  0
 19 20  1  0  0  0
 19 21  1  0  0  0
 20 40  1  0  0  0
 21 22  1  0  0  0
 22 27  1  0  0  0
 22 23  1  0  0  0
 22 24  1  0  0  0
 24 25  1  0  0  0
 24 41  1  0  0  0
 24 42  1  0  0  0
 25 26  1  0  0  0
 25 43  1  0  0  0
 25 44  1  0  0  0
 26 27  1  0  0  0
 26 45  1  0  0  0
 26 46  1  0  0  0
 27 47  1  0  0  0
 27 48  1  0  0  0
M  END
> <i_i_glide_confnum>
28

> <i_i_glide_lignum>
1495

> <i_i_glide_posenum>
207

> <i_i_glide_rotatable_bonds>
5

> <i_m_Source_File_Index>
901

> <b_m_subgroup_collapsed>
0

> <r_i_docking_score>
-4.98775

> <r_i_glide_ecoul>
-0.54253

> <r_i_glide_eff_state_penalty>
0

> <r_i_glide_einternal>
7.19863

> <r_i_glide_emodel>
-46.8067

> <r_i_glide_energy>
-38.8209

> <r_i_glide_erotb>
0.509431

> <r_i_glide_esite>
-0.0280028

> <r_i_glide_evdw>
-38.2783

> <r_i_glide_gscore>
-4.98775

> <r_i_glide_hbond>
0

> <r_i_glide_ligand_efficiency>
-0.184732

> <r_i_glide_ligand_efficiency_ln>
-1.16107

> <r_i_glide_ligand_efficiency_sa>
-0.554195

> <r_i_glide_lipo>
-2.71787

> <r_i_glide_metal>
0

> <r_i_glide_rewards>
-0.756019

> <s_i_glide_gridfile>
wee1_glide-grid

> <s_m_Source_File>
wee1_decoys_glide_SP.sdf

> <s_m_Source_Path>
/Users/zhangxujun/Desktop

> <s_m_entry_id>
1176

> <s_m_entry_name>
wee1_decoys_glide_SP.901

> <s_m_subgroup_title>
wee1_decoys_glide_SP

> <s_m_subgroupid>
wee1_decoys_glide_SP


$$$$
