ZINC10354491_3367
                    3D
 Schrodinger Suite 2024-2.
 48 50  0  0  1  0            999 V2000
    0.8590   52.6176   31.9532 C   0  0  0  0  0  0
    0.9936   52.8735   30.4783 C   0  0  0  0  0  0
    0.4660   52.2830   29.3585 C   0  0  0  0  0  0
    1.0454   52.9483   28.2862 C   0  0  0  0  0  0
    1.8389   53.9228   28.6932 N   0  0  0  0  0  0
    1.8175   53.8803   30.0882 O   0  0  0  0  0  0
    0.7973   52.5827   26.9804 N   0  0  0  0  0  0
    1.5083   52.8967   25.8733 C   0  0  0  0  0  0
    2.4499   53.6909   25.9006 O   0  0  0  0  0  0
    1.0923   52.1622   24.6664 C   0  0  0  0  0  0
    1.2897   52.5753   23.3695 C   0  0  0  0  0  0
    0.9281   51.7666   22.2756 N   0  0  0  0  0  0
    0.5225   50.4441   22.4457 C   0  0  0  0  0  0
    0.1311   49.2968   21.2930 S   0  0  0  0  0  0
    0.4325   50.0085   23.7300 N   0  0  0  0  0  0
    0.2603   50.8653   24.9046 C   0  0  2  0  0  0
    0.6932   50.3220   25.7461 H   0  0  0  0  0  0
   -1.2097   51.0940   25.2839 C   0  0  0  0  0  0
   -1.8586   50.1538   26.0817 C   0  0  0  0  0  0
   -3.1761   50.3545   26.4832 C   0  0  0  0  0  0
   -3.8717   51.4963   26.0850 C   0  0  0  0  0  0
   -3.2401   52.4537   25.2695 C   0  0  0  0  0  0
   -1.9210   52.2194   24.8522 C   0  0  0  0  0  0
   -3.9232   53.6873   24.8226 N   0  3  0  0  0  0
   -3.6947   54.0793   23.6822 O   0  0  0  0  0  0
   -4.6305   54.3008   25.6181 O   0  5  0  0  0  0
   -5.6860   51.6741   26.6554 Br  0  0  0  0  0  0
    0.9923   52.2519   20.8648 C   0  0  0  0  0  0
    2.3277   52.0968   20.1381 C   0  0  0  0  0  0
    3.4127   51.4376   20.5769 C   0  0  0  0  0  0
    1.9489   53.9136   22.9734 C   0  0  0  0  0  0
    0.3057   51.6963   32.1320 H   0  0  0  0  0  0
    0.3179   53.4152   32.4638 H   0  0  0  0  0  0
    1.8257   52.4969   32.4403 H   0  0  0  0  0  0
   -0.2204   51.4495   29.3296 H   0  0  0  0  0  0
    0.0594   51.9054   26.8603 H   0  0  0  0  0  0
    0.1877   49.0313   23.8051 H   0  0  0  0  0  0
   -1.3343   49.2757   26.4313 H   0  0  0  0  0  0
   -3.6470   49.6205   27.1200 H   0  0  0  0  0  0
   -1.4331   52.9472   24.2191 H   0  0  0  0  0  0
    0.2138   51.8275   20.2311 H   0  0  0  0  0  0
    0.7164   53.2966   20.8313 H   0  0  0  0  0  0
    2.3787   52.5719   19.1683 H   0  0  0  0  0  0
    4.3047   51.3863   19.9699 H   0  0  0  0  0  0
    3.4306   50.9379   21.5335 H   0  0  0  0  0  0
    2.3383   54.5255   23.7778 H   0  0  0  0  0  0
    2.7881   53.7554   22.2953 H   0  0  0  0  0  0
    1.2228   54.5582   22.4802 H   0  0  0  0  0  0
  1  2  1  0  0  0
  1 32  1  0  0  0
  1 33  1  0  0  0
  1 34  1  0  0  0
  2  6  1  0  0  0
  2  3  2  0  0  0
  3  4  1  0  0  0
  3 35  1  0  0  0
  4  5  2  0  0  0
  4  7  1  0  0  0
  5  6  1  0  0  0
  7  8  1  0  0  0
  7 36  1  0  0  0
  8  9  2  0  0  0
  8 10  1  0  0  0
 10 16  1  0  0  0
 10 11  2  0  0  0
 11 12  1  0  0  0
 11 31  1  0  0  0
 12 13  1  0  0  0
 12 28  1  0  0  0
 13 14  2  0  0  0
 13 15  1  0  0  0
 15 16  1  0  0  0
 15 37  1  0  0  0
 16 17  1  0  0  0
 16 18  1  0  0  0
 18 23  2  0  0  0
 18 19  1  0  0  0
 19 20  2  0  0  0
 19 38  1  0  0  0
 20 21  1  0  0  0
 20 39  1  0  0  0
 21 22  2  0  0  0
 21 27  1  0  0  0
 22 23  1  0  0  0
 22 24  1  0  0  0
 23 40  1  0  0  0
 24 25  2  0  0  0
 24 26  1  0  0  0
 28 29  1  0  0  0
 28 41  1  0  0  0
 28 42  1  0  0  0
 29 30  2  0  0  0
 29 43  1  0  0  0
 30 44  1  0  0  0
 30 45  1  0  0  0
 31 46  1  0  0  0
 31 47  1  0  0  0
 31 48  1  0  0  0
M  CHG  2  24   1  26  -1
M  END
> <i_i_glide_confnum>
7

> <i_i_glide_lignum>
3368

> <i_i_glide_posenum>
311

> <i_i_glide_rotatable_bonds>
7

> <i_m_Source_File_Index>
2944

> <b_m_subgroup_collapsed>
0

> <r_i_docking_score>
-3.72392

> <r_i_glide_ecoul>
-6.16708

> <r_i_glide_eff_state_penalty>
0

> <r_i_glide_einternal>
3.61219

> <r_i_glide_emodel>
-53.0483

> <r_i_glide_energy>
-43.9877

> <r_i_glide_erotb>
0.504045

> <r_i_glide_esite>
0

> <r_i_glide_evdw>
-37.8206

> <r_i_glide_gscore>
-3.72392

> <r_i_glide_hbond>
0

> <r_i_glide_ligand_efficiency>
-0.124131

> <r_i_glide_ligand_efficiency_ln>
-0.846114

> <r_i_glide_ligand_efficiency_sa>
-0.385702

> <r_i_glide_lipo>
-0.76898

> <r_i_glide_metal>
0

> <r_i_glide_rewards>
-0.64289

> <s_i_glide_gridfile>
wee1_glide-grid

> <s_m_Source_File>
wee1_decoys_glide_SP.sdf

> <s_m_Source_Path>
/Users/zhangxujun/Desktop

> <s_m_entry_id>
3219

> <s_m_entry_name>
wee1_decoys_glide_SP.2944

> <s_m_subgroup_title>
wee1_decoys_glide_SP

> <s_m_subgroupid>
wee1_decoys_glide_SP


$$$$
