ZINC09692226_5379
                    3D
 Schrodinger Suite 2024-2.
 65 68  0  0  1  0            999 V2000
    7.0602   53.8209   28.2057 C   0  0  0  0  0  0
    5.7947   54.3924   27.5456 C   0  0  0  0  0  0
    6.0223   54.7633   26.0657 C   0  0  0  0  0  0
    7.1043   55.2665   25.7615 O   0  0  0  0  0  0
    5.0428   54.5586   25.1490 N   0  0  0  0  0  0
    3.7321   54.0018   25.5027 C   0  0  0  0  0  0
    2.9432   53.9374   24.2038 C   0  0  0  0  0  0
    4.0100   54.0958   23.1628 C   0  0  0  0  0  0
    5.2101   54.4967   23.7510 C   0  0  0  0  0  0
    6.2958   54.8709   22.9415 C   0  0  0  0  0  0
    6.1876   54.7653   21.5554 C   0  0  0  0  0  0
    5.0128   54.2769   20.9760 C   0  0  0  0  0  0
    3.9059   53.9977   21.7781 C   0  0  0  0  0  0
    4.9191   54.0102   19.2118 S   0  0  0  0  0  0
    6.2797   53.6987   18.7614 O   0  0  0  0  0  0
    4.1930   55.1634   18.6701 O   0  0  0  0  0  0
    3.9412   52.5509   19.0059 N   0  0  0  0  0  0
    2.5464   52.6194   18.4891 C   0  0  1  0  0  0
    2.2611   53.6687   18.4091 H   0  0  0  0  0  0
    2.4569   51.9520   17.0883 C   0  0  0  0  0  0
    3.3749   52.5626   16.0010 C   0  0  0  0  0  0
    3.3864   51.6912   14.7268 C   0  0  0  0  0  0
    3.0392   54.0393   15.6978 C   0  0  0  0  0  0
    1.5760   51.9860   19.5248 C   0  0  0  0  0  0
    2.0047   51.4900   20.5711 O   0  0  0  0  0  0
    0.2735   52.0340   19.1693 N   0  0  0  0  0  0
   -0.8183   51.5404   19.8638 C   0  0  0  0  0  0
   -1.9722   51.4714   19.2651 N   0  0  0  0  0  0
   -2.9118   50.8980   20.0626 C   0  0  0  0  0  0
   -4.2345   50.6414   19.6771 C   0  0  0  0  0  0
   -5.0949   50.0552   20.6071 C   0  0  0  0  0  0
   -4.6642   49.7274   21.8959 C   0  0  0  0  0  0
   -3.3487   49.9765   22.2990 C   0  0  0  0  0  0
   -2.4758   50.5587   21.3705 C   0  0  0  0  0  0
   -0.7789   50.9813   21.5348 S   0  0  0  0  0  0
   -5.6465   49.1094   22.8745 C   0  0  0  0  0  0
    6.9117   53.6968   29.2749 H   0  0  0  0  0  0
    7.3246   52.8430   27.8015 H   0  0  0  0  0  0
    7.9048   54.4967   28.0903 H   0  0  0  0  0  0
    5.4897   55.2956   28.0736 H   0  0  0  0  0  0
    4.9927   53.6678   27.6759 H   0  0  0  0  0  0
    3.9259   52.9711   25.8053 H   0  0  0  0  0  0
    3.2105   54.4624   26.3427 H   0  0  0  0  0  0
    2.2502   54.7785   24.1549 H   0  0  0  0  0  0
    2.3468   53.0265   24.1348 H   0  0  0  0  0  0
    7.2258   55.2322   23.3538 H   0  0  0  0  0  0
    7.0347   55.0195   20.9339 H   0  0  0  0  0  0
    2.9732   53.7015   21.3242 H   0  0  0  0  0  0
    4.4622   51.6820   18.7997 H   0  0  0  0  0  0
    2.7074   50.8960   17.1983 H   0  0  0  0  0  0
    1.4329   51.9801   16.7145 H   0  0  0  0  0  0
    4.3948   52.5346   16.3891 H   0  0  0  0  0  0
    2.8914   52.1680   13.8806 H   0  0  0  0  0  0
    4.4101   51.4691   14.4236 H   0  0  0  0  0  0
    2.8910   50.7317   14.8814 H   0  0  0  0  0  0
    2.9177   54.2361   14.6331 H   0  0  0  0  0  0
    2.1206   54.3632   16.1863 H   0  0  0  0  0  0
    3.8391   54.6925   16.0471 H   0  0  0  0  0  0
    0.0624   52.4177   18.2618 H   0  0  0  0  0  0
   -4.5811   50.8888   18.6849 H   0  0  0  0  0  0
   -6.1182   49.8546   20.3213 H   0  0  0  0  0  0
   -3.0107   49.7233   23.2943 H   0  0  0  0  0  0
   -5.2930   49.1759   23.9045 H   0  0  0  0  0  0
   -6.6025   49.6328   22.8322 H   0  0  0  0  0  0
   -5.8273   48.0634   22.6261 H   0  0  0  0  0  0
  1  2  1  0  0  0
  1 37  1  0  0  0
  1 38  1  0  0  0
  1 39  1  0  0  0
  2  3  1  0  0  0
  2 40  1  0  0  0
  2 41  1  0  0  0
  3  4  2  0  0  0
  3  5  1  0  0  0
  5  9  1  0  0  0
  5  6  1  0  0  0
  6  7  1  0  0  0
  6 42  1  0  0  0
  6 43  1  0  0  0
  7  8  1  0  0  0
  7 44  1  0  0  0
  7 45  1  0  0  0
  8 13  2  0  0  0
  8  9  1  0  0  0
  9 10  2  0  0  0
 10 11  1  0  0  0
 10 46  1  0  0  0
 11 12  2  0  0  0
 11 47  1  0  0  0
 12 13  1  0  0  0
 12 14  1  0  0  0
 13 48  1  0  0  0
 14 15  2  0  0  0
 14 16  2  0  0  0
 14 17  1  0  0  0
 17 18  1  0  0  0
 17 49  1  0  0  0
 18 19  1  0  0  0
 18 20  1  0  0  0
 18 24  1  0  0  0
 20 21  1  0  0  0
 20 50  1  0  0  0
 20 51  1  0  0  0
 21 22  1  0  0  0
 21 23  1  0  0  0
 21 52  1  0  0  0
 22 53  1  0  0  0
 22 54  1  0  0  0
 22 55  1  0  0  0
 23 56  1  0  0  0
 23 57  1  0  0  0
 23 58  1  0  0  0
 24 25  2  0  0  0
 24 26  1  0  0  0
 26 27  1  0  0  0
 26 59  1  0  0  0
 27 35  1  0  0  0
 27 28  2  0  0  0
 28 29  1  0  0  0
 29 34  2  0  0  0
 29 30  1  0  0  0
 30 31  2  0  0  0
 30 60  1  0  0  0
 31 32  1  0  0  0
 31 61  1  0  0  0
 32 33  2  0  0  0
 32 36  1  0  0  0
 33 34  1  0  0  0
 33 62  1  0  0  0
 34 35  1  0  0  0
 36 63  1  0  0  0
 36 64  1  0  0  0
 36 65  1  0  0  0
M  END
> <i_i_glide_confnum>
247

> <i_i_glide_lignum>
5380

> <i_i_glide_posenum>
186

> <i_i_glide_rotatable_bonds>
10

> <i_m_Source_File_Index>
3614

> <b_m_subgroup_collapsed>
0

> <r_i_docking_score>
-5.60413

> <r_i_glide_ecoul>
-8.20886

> <r_i_glide_eff_state_penalty>
0

> <r_i_glide_einternal>
8.22622

> <r_i_glide_emodel>
-58.0781

> <r_i_glide_energy>
-46.5002

> <r_i_glide_erotb>
0.61958

> <r_i_glide_esite>
-0.151971

> <r_i_glide_evdw>
-38.2913

> <r_i_glide_gscore>
-5.60413

> <r_i_glide_hbond>
-0.456

> <r_i_glide_ligand_efficiency>
-0.160118

> <r_i_glide_ligand_efficiency_ln>
-1.23023

> <r_i_glide_ligand_efficiency_sa>
-0.523757

> <r_i_glide_lipo>
-2.11536

> <r_i_glide_metal>
0

> <r_i_glide_rewards>
-0.354489

> <s_i_glide_gridfile>
wee1_glide-grid

> <s_m_Source_File>
wee1_decoys_glide_SP.sdf

> <s_m_Source_Path>
/Users/zhangxujun/Desktop

> <s_m_entry_id>
3889

> <s_m_entry_name>
wee1_decoys_glide_SP.3614

> <s_m_subgroup_title>
wee1_decoys_glide_SP

> <s_m_subgroupid>
wee1_decoys_glide_SP


$$$$
