ZINC16188843_5145
                    3D
 Schrodinger Suite 2024-2.
 64 67  0  0  1  0            999 V2000
    2.4235   54.6100   22.4942 C   0  0  0  0  0  0
    3.1670   53.3700   22.3835 N   0  0  0  0  0  0
    2.4695   52.1763   22.1089 C   0  0  0  0  0  0
    2.7562   51.5611   20.8822 C   0  0  0  0  0  0
    2.1457   50.3700   20.5109 C   0  0  0  0  0  0
    1.2261   49.7764   21.3640 C   0  0  0  0  0  0
    0.9226   50.3707   22.5865 C   0  0  0  0  0  0
    1.5301   51.5761   23.0011 C   0  0  0  0  0  0
    1.2093   52.1425   24.3889 C   0  0  0  0  0  0
    1.7749   53.1396   24.8310 O   0  0  0  0  0  0
    0.2795   51.4874   25.1156 N   0  0  0  0  0  0
   -0.0734   51.6539   26.4761 C   0  0  0  0  0  0
    0.8365   52.1815   27.4132 C   0  0  0  0  0  0
    0.5113   52.2644   28.7636 C   0  0  0  0  0  0
   -0.7263   51.8160   29.2058 C   0  0  0  0  0  0
   -1.6416   51.2968   28.2946 C   0  0  0  0  0  0
   -1.3371   51.1975   26.9248 C   0  0  0  0  0  0
   -2.3532   50.5734   25.9863 C   0  0  0  0  0  0
   -2.5033   50.9878   24.8349 O   0  0  0  0  0  0
   -3.0333   49.5259   26.4817 N   0  0  0  0  0  0
   -3.9580   48.6772   25.7271 C   0  0  0  0  0  0
   -3.2071   47.5466   24.9742 C   0  0  0  0  0  0
   -2.4969   46.5634   25.9339 C   0  0  0  0  0  0
   -3.4857   45.9471   26.9443 C   0  0  0  0  0  0
   -4.3284   47.0180   27.6686 C   0  0  0  0  0  0
   -4.9832   47.9984   26.6688 C   0  0  0  0  0  0
    4.9305   53.5350   22.2311 S   0  0  0  0  0  0
    5.1981   54.5703   21.2264 O   0  0  0  0  0  0
    5.5043   52.1957   22.0817 O   0  0  0  0  0  0
    5.4646   54.1826   23.8138 C   0  0  0  0  0  0
    4.9062   53.6994   25.0008 C   0  0  0  0  0  0
    5.3255   54.1988   26.2296 C   0  0  0  0  0  0
    6.2903   55.1993   26.2667 C   0  0  0  0  0  0
    6.8291   55.6968   25.0833 C   0  0  0  0  0  0
    6.4466   55.1683   23.8568 C   0  0  0  0  0  0
    1.3439   54.4605   22.4736 H   0  0  0  0  0  0
    2.6756   55.0984   23.4350 H   0  0  0  0  0  0
    2.7054   55.2860   21.6848 H   0  0  0  0  0  0
    3.4678   52.0078   20.2004 H   0  0  0  0  0  0
    2.3929   49.9119   19.5630 H   0  0  0  0  0  0
    0.7525   48.8495   21.0800 H   0  0  0  0  0  0
    0.2118   49.8480   23.2091 H   0  0  0  0  0  0
   -0.2904   50.8154   24.6248 H   0  0  0  0  0  0
    1.8257   52.4992   27.1240 H   0  0  0  0  0  0
    1.2261   52.6586   29.4698 H   0  0  0  0  0  0
   -0.9732   51.8532   30.2581 H   0  0  0  0  0  0
   -2.5871   50.9377   28.6779 H   0  0  0  0  0  0
   -2.6311   49.0981   27.3197 H   0  0  0  0  0  0
   -4.5042   49.3005   25.0144 H   0  0  0  0  0  0
   -3.9090   46.9999   24.3430 H   0  0  0  0  0  0
   -2.4776   47.9821   24.2896 H   0  0  0  0  0  0
   -1.9992   45.7774   25.3683 H   0  0  0  0  0  0
   -1.7051   47.0809   26.4801 H   0  0  0  0  0  0
   -4.1517   45.2551   26.4279 H   0  0  0  0  0  0
   -2.9410   45.3534   27.6786 H   0  0  0  0  0  0
   -5.0955   46.5377   28.2762 H   0  0  0  0  0  0
   -3.6964   47.5698   28.3671 H   0  0  0  0  0  0
   -5.5368   48.7619   27.2176 H   0  0  0  0  0  0
   -5.7286   47.4673   26.0739 H   0  0  0  0  0  0
    4.1518   52.9311   24.9807 H   0  0  0  0  0  0
    4.8998   53.8145   27.1449 H   0  0  0  0  0  0
    6.6082   55.6001   27.2187 H   0  0  0  0  0  0
    7.5544   56.4929   25.1068 H   0  0  0  0  0  0
    6.8892   55.5472   22.9461 H   0  0  0  0  0  0
  1  2  1  0  0  0
  1 36  1  0  0  0
  1 37  1  0  0  0
  1 38  1  0  0  0
  2  3  1  0  0  0
  2 27  1  0  0  0
  3  8  2  0  0  0
  3  4  1  0  0  0
  4  5  2  0  0  0
  4 39  1  0  0  0
  5  6  1  0  0  0
  5 40  1  0  0  0
  6  7  2  0  0  0
  6 41  1  0  0  0
  7  8  1  0  0  0
  7 42  1  0  0  0
  8  9  1  0  0  0
  9 10  2  0  0  0
  9 11  1  0  0  0
 11 12  1  0  0  0
 11 43  1  0  0  0
 12 17  2  0  0  0
 12 13  1  0  0  0
 13 14  2  0  0  0
 13 44  1  0  0  0
 14 15  1  0  0  0
 14 45  1  0  0  0
 15 16  2  0  0  0
 15 46  1  0  0  0
 16 17  1  0  0  0
 16 47  1  0  0  0
 17 18  1  0  0  0
 18 19  2  0  0  0
 18 20  1  0  0  0
 20 21  1  0  0  0
 20 48  1  0  0  0
 21 26  1  0  0  0
 21 22  1  0  0  0
 21 49  1  0  0  0
 22 23  1  0  0  0
 22 50  1  0  0  0
 22 51  1  0  0  0
 23 24  1  0  0  0
 23 52  1  0  0  0
 23 53  1  0  0  0
 24 25  1  0  0  0
 24 54  1  0  0  0
 24 55  1  0  0  0
 25 26  1  0  0  0
 25 56  1  0  0  0
 25 57  1  0  0  0
 26 58  1  0  0  0
 26 59  1  0  0  0
 27 28  2  0  0  0
 27 29  2  0  0  0
 27 30  1  0  0  0
 30 35  2  0  0  0
 30 31  1  0  0  0
 31 32  2  0  0  0
 31 60  1  0  0  0
 32 33  1  0  0  0
 32 61  1  0  0  0
 33 34  2  0  0  0
 33 62  1  0  0  0
 34 35  1  0  0  0
 34 63  1  0  0  0
 35 64  1  0  0  0
M  END
> <i_i_glide_confnum>
26

> <i_i_glide_lignum>
5146

> <i_i_glide_posenum>
262

> <i_i_glide_rotatable_bonds>
9

> <i_m_Source_File_Index>
4583

> <b_m_subgroup_collapsed>
0

> <r_i_docking_score>
-4.10591

> <r_i_glide_ecoul>
-5.58777

> <r_i_glide_eff_state_penalty>
0

> <r_i_glide_einternal>
5.36761

> <r_i_glide_emodel>
-47.5867

> <r_i_glide_energy>
-40.133

> <r_i_glide_erotb>
0.758165

> <r_i_glide_esite>
-0.14915

> <r_i_glide_evdw>
-34.5452

> <r_i_glide_gscore>
-4.10591

> <r_i_glide_hbond>
-0.16

> <r_i_glide_ligand_efficiency>
-0.117312

> <r_i_glide_ligand_efficiency_ln>
-0.901338

> <r_i_glide_ligand_efficiency_sa>
-0.383734

> <r_i_glide_lipo>
-2.09869

> <r_i_glide_metal>
0

> <r_i_glide_rewards>
0.109198

> <s_i_glide_gridfile>
wee1_glide-grid

> <s_m_Source_File>
wee1_decoys_glide_SP.sdf

> <s_m_Source_Path>
/Users/zhangxujun/Desktop

> <s_m_entry_id>
4858

> <s_m_entry_name>
wee1_decoys_glide_SP.4583

> <s_m_subgroup_title>
wee1_decoys_glide_SP

> <s_m_subgroupid>
wee1_decoys_glide_SP


$$$$
