ZINC66359219_6225
                    3D
 Schrodinger Suite 2024-2.
 53 55  0  0  1  0            999 V2000
   10.5669   52.4099   16.4005 C   0  0  0  0  0  0
    9.1661   52.4805   16.8471 N   0  0  0  0  0  0
    8.3051   51.2976   16.6922 C   0  0  0  0  0  0
    8.6676   53.6580   17.5116 C   0  0  0  0  0  0
    7.3613   53.7339   18.0256 C   0  0  0  0  0  0
    6.9376   54.8785   18.7116 C   0  0  0  0  0  0
    7.8086   55.9677   18.8151 C   0  0  0  0  0  0
    9.1039   55.8644   18.3076 C   0  0  0  0  0  0
    9.4782   54.7261   17.6914 N   0  3  0  0  0  0
    5.5390   54.9363   19.3247 C   0  0  0  0  0  0
    5.4667   54.4378   20.7058 N   0  0  0  0  0  0
    6.1118   54.9832   21.7520 C   0  0  0  0  0  0
    6.7177   56.0514   21.6837 O   0  0  0  0  0  0
    6.0158   54.2497   22.8721 N   0  0  0  0  0  0
    6.6673   54.5695   24.1512 C   0  0  0  0  0  0
    5.7836   54.4546   25.3955 C   0  0  0  0  0  0
    6.3889   54.2573   26.6386 C   0  0  0  0  0  0
    5.6142   54.0932   27.7848 C   0  0  0  0  0  0
    4.2154   54.1092   27.7103 C   0  0  0  0  0  0
    3.6121   54.3216   26.4598 C   0  0  0  0  0  0
    4.3880   54.4952   25.3154 C   0  0  0  0  0  0
    3.3928   53.9211   28.9685 C   0  0  0  0  0  0
    3.8961   54.0959   30.0818 O   0  0  0  0  0  0
    2.1139   53.5290   28.8080 N   0  0  0  0  0  0
    1.1346   53.3996   29.8866 C   0  0  0  0  0  0
    0.3690   52.1012   29.9985 C   0  0  0  0  0  0
    1.3993   52.4601   31.0452 C   0  0  0  0  0  0
   11.2146   52.3552   17.2803 H   0  0  0  0  0  0
   10.7276   51.5197   15.7875 H   0  0  0  0  0  0
   10.8107   53.2951   15.8102 H   0  0  0  0  0  0
    7.3794   51.5858   16.1942 H   0  0  0  0  0  0
    8.8063   50.5315   16.0977 H   0  0  0  0  0  0
    8.0872   50.8988   17.6848 H   0  0  0  0  0  0
    6.6762   52.8994   17.9387 H   0  0  0  0  0  0
    7.4963   56.8677   19.3197 H   0  0  0  0  0  0
    9.8552   56.6383   18.3840 H   0  0  0  0  0  0
    4.8603   54.3418   18.7104 H   0  0  0  0  0  0
    5.1484   55.9556   19.2748 H   0  0  0  0  0  0
    4.8697   53.6385   20.8615 H   0  0  0  0  0  0
    5.5778   53.3440   22.8156 H   0  0  0  0  0  0
    7.1129   55.5644   24.1460 H   0  0  0  0  0  0
    7.5036   53.8750   24.2477 H   0  0  0  0  0  0
    7.4631   54.2129   26.7285 H   0  0  0  0  0  0
    6.1155   53.9462   28.7319 H   0  0  0  0  0  0
    2.5374   54.3604   26.3534 H   0  0  0  0  0  0
    3.8939   54.6577   24.3704 H   0  0  0  0  0  0
    1.7527   53.4710   27.8686 H   0  0  0  0  0  0
    0.6030   54.3297   30.1031 H   0  0  0  0  0  0
    0.5856   51.2965   29.2935 H   0  0  0  0  0  0
   -0.6856   52.1333   30.2743 H   0  0  0  0  0  0
    1.0579   52.7537   32.0412 H   0  0  0  0  0  0
    2.3440   51.9204   31.0758 H   0  0  0  0  0  0
   10.4256   54.6574   17.3502 H   0  0  0  0  0  0
  1  2  1  0  0  0
  1 28  1  0  0  0
  1 29  1  0  0  0
  1 30  1  0  0  0
  2  3  1  0  0  0
  2  4  1  0  0  0
  3 31  1  0  0  0
  3 32  1  0  0  0
  3 33  1  0  0  0
  4  9  2  0  0  0
  4  5  1  0  0  0
  5  6  2  0  0  0
  5 34  1  0  0  0
  6  7  1  0  0  0
  6 10  1  0  0  0
  7  8  2  0  0  0
  7 35  1  0  0  0
  8  9  1  0  0  0
  8 36  1  0  0  0
  9 53  1  0  0  0
 10 11  1  0  0  0
 10 37  1  0  0  0
 10 38  1  0  0  0
 11 12  1  0  0  0
 11 39  1  0  0  0
 12 13  2  0  0  0
 12 14  1  0  0  0
 14 15  1  0  0  0
 14 40  1  0  0  0
 15 16  1  0  0  0
 15 41  1  0  0  0
 15 42  1  0  0  0
 16 21  2  0  0  0
 16 17  1  0  0  0
 17 18  2  0  0  0
 17 43  1  0  0  0
 18 19  1  0  0  0
 18 44  1  0  0  0
 19 20  2  0  0  0
 19 22  1  0  0  0
 20 21  1  0  0  0
 20 45  1  0  0  0
 21 46  1  0  0  0
 22 23  2  0  0  0
 22 24  1  0  0  0
 24 25  1  0  0  0
 24 47  1  0  0  0
 25 27  1  0  0  0
 25 26  1  0  0  0
 25 48  1  0  0  0
 26 27  1  0  0  0
 26 49  1  0  0  0
 26 50  1  0  0  0
 27 51  1  0  0  0
 27 52  1  0  0  0
M  CHG  1   9   1
M  END
> <i_i_glide_confnum>
251

> <i_i_glide_lignum>
6226

> <i_i_glide_posenum>
79

> <i_i_glide_rotatable_bonds>
10

> <i_m_Source_File_Index>
930

> <b_m_subgroup_collapsed>
0

> <r_i_docking_score>
-5.94517

> <r_i_glide_ecoul>
-4.73926

> <r_i_glide_eff_state_penalty>
0

> <r_i_glide_einternal>
4.39287

> <r_i_glide_emodel>
-65.0764

> <r_i_glide_energy>
-46.0494

> <r_i_glide_erotb>
1.2775

> <r_i_glide_esite>
0

> <r_i_glide_evdw>
-41.3101

> <r_i_glide_gscore>
-5.94517

> <r_i_glide_hbond>
-0.32

> <r_i_glide_ligand_efficiency>
-0.220192

> <r_i_glide_ligand_efficiency_ln>
-1.38394

> <r_i_glide_ligand_efficiency_sa>
-0.660575

> <r_i_glide_lipo>
-2.508

> <r_i_glide_metal>
0

> <r_i_glide_rewards>
-1.61828

> <s_i_glide_gridfile>
wee1_glide-grid

> <s_m_Source_File>
wee1_decoys_glide_SP.sdf

> <s_m_Source_Path>
/Users/zhangxujun/Desktop

> <s_m_entry_id>
1205

> <s_m_entry_name>
wee1_decoys_glide_SP.930

> <s_m_subgroup_title>
wee1_decoys_glide_SP

> <s_m_subgroupid>
wee1_decoys_glide_SP


$$$$
