ZINC20602324_2463
                    3D
 Schrodinger Suite 2024-2.
 50 53  0  0  1  0            999 V2000
    1.7877   52.8966   25.7845 C   0  0  0  0  0  0
    1.4949   52.7624   27.1397 C   0  0  0  0  0  0
    0.5398   51.8386   27.5523 C   0  0  0  0  0  0
   -0.1340   51.0562   26.6193 C   0  0  0  0  0  0
    0.1508   51.1980   25.2628 C   0  0  0  0  0  0
    1.1225   52.1106   24.8302 C   0  0  0  0  0  0
    1.4435   52.2226   23.3278 C   0  0  2  0  0  0
    0.4845   52.5183   22.8979 H   0  0  0  0  0  0
    1.8618   50.8538   22.7049 C   0  0  0  0  0  0
    2.2178   50.9290   21.1918 C   0  0  2  0  0  0
    2.7229   50.0018   20.9157 H   0  0  0  0  0  0
    3.1897   52.0213   21.0851 N   0  0  0  0  0  0
    3.2087   53.1577   21.8639 C   0  0  0  0  0  0
    4.2081   53.9442   21.3337 C   0  0  0  0  0  0
    4.7275   53.2500   20.2284 C   0  0  0  0  0  0
    4.0981   52.0962   20.0943 N   0  0  0  0  0  0
    5.7762   53.7688   19.3700 C   0  0  0  0  0  0
    6.1705   54.9298   19.5120 O   0  0  0  0  0  0
    6.2921   52.8994   18.4694 N   0  0  0  0  0  0
    7.3116   53.2505   17.6518 N   0  0  0  0  0  0
    7.7386   52.2910   16.9313 C   0  0  0  0  0  0
    8.8739   52.4170   16.0074 C   0  0  0  0  0  0
    9.5766   53.6234   15.8395 C   0  0  0  0  0  0
   10.6552   53.6700   14.9542 C   0  0  0  0  0  0
   11.0640   52.5949   14.2354 N   0  0  0  0  0  0
   10.3847   51.4317   14.3964 C   0  0  0  0  0  0
    9.2964   51.3041   15.2634 C   0  0  0  0  0  0
    2.3814   53.3021   22.9603 N   0  0  0  0  0  0
    0.9616   51.0794   20.2708 C   0  0  0  0  0  0
    1.2539   50.9643   18.7543 C   0  0  0  0  0  0
    1.9811   51.9816   18.2991 F   0  0  0  0  0  0
    1.9096   49.8399   18.4730 F   0  0  0  0  0  0
    0.1259   50.9525   18.0444 F   0  0  0  0  0  0
    0.0968   50.1138   20.5933 F   0  0  0  0  0  0
    0.3291   52.2321   20.5079 F   0  0  0  0  0  0
    0.2685   51.6999   28.8693 F   0  0  0  0  0  0
    2.5456   53.6066   25.4889 H   0  0  0  0  0  0
    2.0062   53.3662   27.8741 H   0  0  0  0  0  0
   -0.8686   50.3342   26.9513 H   0  0  0  0  0  0
   -0.3832   50.5846   24.5526 H   0  0  0  0  0  0
    1.0565   50.1315   22.8429 H   0  0  0  0  0  0
    2.6967   50.4155   23.2582 H   0  0  0  0  0  0
    4.5255   54.9121   21.6920 H   0  0  0  0  0  0
    5.9429   51.9442   18.3767 H   0  0  0  0  0  0
    7.2966   51.2969   16.9583 H   0  0  0  0  0  0
    9.2987   54.5133   16.3872 H   0  0  0  0  0  0
   11.2138   54.5846   14.8131 H   0  0  0  0  0  0
   10.7322   50.5897   13.8125 H   0  0  0  0  0  0
    8.7976   50.3495   15.3504 H   0  0  0  0  0  0
    2.0526   54.2193   23.2266 H   0  0  0  0  0  0
  1  6  2  0  0  0
  1  2  1  0  0  0
  1 37  1  0  0  0
  2  3  2  0  0  0
  2 38  1  0  0  0
  3  4  1  0  0  0
  3 36  1  0  0  0
  4  5  2  0  0  0
  4 39  1  0  0  0
  5  6  1  0  0  0
  5 40  1  0  0  0
  6  7  1  0  0  0
  7  8  1  0  0  0
  7 28  1  0  0  0
  7  9  1  0  0  0
  9 10  1  0  0  0
  9 41  1  0  0  0
  9 42  1  0  0  0
 10 11  1  0  0  0
 10 12  1  0  0  0
 10 29  1  0  0  0
 12 16  1  0  0  0
 12 13  1  0  0  0
 13 14  2  0  0  0
 13 28  1  0  0  0
 14 15  1  0  0  0
 14 43  1  0  0  0
 15 16  2  0  0  0
 15 17  1  0  0  0
 17 18  2  0  0  0
 17 19  1  0  0  0
 19 20  1  0  0  0
 19 44  1  0  0  0
 20 21  2  0  0  0
 21 22  1  0  0  0
 21 45  1  0  0  0
 22 27  2  0  0  0
 22 23  1  0  0  0
 23 24  2  0  0  0
 23 46  1  0  0  0
 24 25  1  0  0  0
 24 47  1  0  0  0
 25 26  2  0  0  0
 26 27  1  0  0  0
 26 48  1  0  0  0
 27 49  1  0  0  0
 28 50  1  0  0  0
 29 30  1  0  0  0
 29 34  1  0  0  0
 29 35  1  0  0  0
 30 31  1  0  0  0
 30 32  1  0  0  0
 30 33  1  0  0  0
M  END
> <i_i_glide_confnum>
12

> <i_i_glide_lignum>
2464

> <i_i_glide_posenum>
211

> <i_i_glide_rotatable_bonds>
7

> <i_m_Source_File_Index>
5459

> <b_m_subgroup_collapsed>
0

> <r_i_docking_score>
-3.38604

> <r_i_glide_ecoul>
-3.73729

> <r_i_glide_eff_state_penalty>
0

> <r_i_glide_einternal>
4.06623

> <r_i_glide_emodel>
-43.2422

> <r_i_glide_energy>
-35.3359

> <r_i_glide_erotb>
0.436051

> <r_i_glide_esite>
-0.314354

> <r_i_glide_evdw>
-31.5986

> <r_i_glide_gscore>
-3.38604

> <r_i_glide_hbond>
-0.16

> <r_i_glide_ligand_efficiency>
-0.0995895

> <r_i_glide_ligand_efficiency_ln>
-0.748072

> <r_i_glide_ligand_efficiency_sa>
-0.322631

> <r_i_glide_lipo>
-1.0493

> <r_i_glide_metal>
0

> <r_i_glide_rewards>
-0.157915

> <s_i_glide_gridfile>
wee1_glide-grid

> <s_m_Source_File>
wee1_decoys_glide_SP.sdf

> <s_m_Source_Path>
/Users/zhangxujun/Desktop

> <s_m_entry_id>
5734

> <s_m_entry_name>
wee1_decoys_glide_SP.5459

> <s_m_subgroup_title>
wee1_decoys_glide_SP

> <s_m_subgroupid>
wee1_decoys_glide_SP


$$$$
