ZINC09925540_6090
                    3D
 Schrodinger Suite 2024-2.
 61 64  0  0  1  0            999 V2000
    1.3905   51.3095   18.1435 C   0  0  0  0  0  0
    2.7041   51.7061   18.3417 C   0  0  0  0  0  0
    3.1103   52.1798   19.5847 C   0  0  0  0  0  0
    2.2070   52.2592   20.6610 C   0  0  0  0  0  0
    0.8698   51.8103   20.4668 C   0  0  0  0  0  0
    0.4823   51.3644   19.1939 C   0  0  0  0  0  0
   -0.1859   51.7785   21.5564 C   0  0  0  0  0  0
   -1.3538   52.0877   21.3080 O   0  0  0  0  0  0
    0.2281   51.3574   22.7649 N   0  0  0  0  0  0
   -0.5725   51.2206   23.9873 C   0  0  0  0  0  0
    0.2653   50.6310   25.1481 C   0  0  0  0  0  0
   -0.4915   50.5000   26.4816 C   0  0  0  0  0  0
   -1.1627   51.8195   26.8948 C   0  0  0  0  0  0
   -2.0825   52.3400   25.7815 C   0  0  0  0  0  0
   -1.3442   52.4952   24.4347 C   0  0  0  0  0  0
    2.5839   52.8000   21.9145 N   0  0  0  0  0  0
    3.7243   53.4014   22.3328 C   0  0  0  0  0  0
    4.7098   53.6180   21.6249 O   0  0  0  0  0  0
    3.7545   53.7749   23.8037 C   0  0  0  0  0  0
    2.5936   53.7796   24.5908 C   0  0  0  0  0  0
    2.6532   54.0915   25.9463 C   0  0  0  0  0  0
    3.8655   54.4048   26.5696 C   0  0  0  0  0  0
    5.0257   54.4130   25.7845 C   0  0  0  0  0  0
    4.9699   54.1018   24.4225 C   0  0  0  0  0  0
    6.7048   54.8825   26.5576 Br  0  0  0  0  0  0
    3.9785   54.7351   27.9120 O   0  0  0  0  0  0
    2.8093   55.0513   28.6758 C   0  0  0  0  0  0
    2.0652   53.8166   29.2299 C   0  0  2  0  0  0
    1.9922   53.0527   28.4530 H   0  0  0  0  0  0
    0.6807   54.1336   29.7981 C   0  0  0  0  0  0
    0.4570   53.0970   30.8733 C   0  0  0  0  0  0
    1.8419   52.4936   31.0997 C   0  0  0  0  0  0
    2.7564   53.3010   30.3627 O   0  0  0  0  0  0
    1.0796   50.9382   17.1744 H   0  0  0  0  0  0
    3.4216   51.6391   17.5366 H   0  0  0  0  0  0
    4.1452   52.4680   19.6695 H   0  0  0  0  0  0
   -0.5315   51.0306   19.0129 H   0  0  0  0  0  0
    1.1416   50.9262   22.7963 H   0  0  0  0  0  0
   -1.3429   50.4744   23.7675 H   0  0  0  0  0  0
    1.1095   51.2951   25.3282 H   0  0  0  0  0  0
    0.6751   49.6595   24.8696 H   0  0  0  0  0  0
    0.1904   50.1723   27.2679 H   0  0  0  0  0  0
   -1.2468   49.7141   26.3991 H   0  0  0  0  0  0
   -0.4000   52.5651   27.1255 H   0  0  0  0  0  0
   -1.7288   51.6685   27.8153 H   0  0  0  0  0  0
   -2.5200   53.2929   26.0795 H   0  0  0  0  0  0
   -2.9194   51.6494   25.6577 H   0  0  0  0  0  0
   -2.0655   52.8017   23.6804 H   0  0  0  0  0  0
   -0.6323   53.3144   24.5424 H   0  0  0  0  0  0
    1.8536   52.7406   22.6073 H   0  0  0  0  0  0
    1.6227   53.5540   24.1770 H   0  0  0  0  0  0
    1.7248   54.0856   26.4937 H   0  0  0  0  0  0
    5.8893   54.1183   23.8495 H   0  0  0  0  0  0
    3.1064   55.6949   29.5036 H   0  0  0  0  0  0
    2.1345   55.6680   28.0781 H   0  0  0  0  0  0
    0.6845   55.1286   30.2436 H   0  0  0  0  0  0
   -0.0865   54.1720   29.0260 H   0  0  0  0  0  0
    0.0625   53.5464   31.7858 H   0  0  0  0  0  0
   -0.2513   52.3274   30.5558 H   0  0  0  0  0  0
    2.1223   52.4471   32.1534 H   0  0  0  0  0  0
    1.9066   51.4774   30.7136 H   0  0  0  0  0  0
  1  6  2  0  0  0
  1  2  1  0  0  0
  1 34  1  0  0  0
  2  3  2  0  0  0
  2 35  1  0  0  0
  3  4  1  0  0  0
  3 36  1  0  0  0
  4  5  2  0  0  0
  4 16  1  0  0  0
  5  6  1  0  0  0
  5  7  1  0  0  0
  6 37  1  0  0  0
  7  8  2  0  0  0
  7  9  1  0  0  0
  9 10  1  0  0  0
  9 38  1  0  0  0
 10 15  1  0  0  0
 10 11  1  0  0  0
 10 39  1  0  0  0
 11 12  1  0  0  0
 11 40  1  0  0  0
 11 41  1  0  0  0
 12 13  1  0  0  0
 12 42  1  0  0  0
 12 43  1  0  0  0
 13 14  1  0  0  0
 13 44  1  0  0  0
 13 45  1  0  0  0
 14 15  1  0  0  0
 14 46  1  0  0  0
 14 47  1  0  0  0
 15 48  1  0  0  0
 15 49  1  0  0  0
 16 17  1  0  0  0
 16 50  1  0  0  0
 17 18  2  0  0  0
 17 19  1  0  0  0
 19 24  2  0  0  0
 19 20  1  0  0  0
 20 21  2  0  0  0
 20 51  1  0  0  0
 21 22  1  0  0  0
 21 52  1  0  0  0
 22 23  2  0  0  0
 22 26  1  0  0  0
 23 24  1  0  0  0
 23 25  1  0  0  0
 24 53  1  0  0  0
 26 27  1  0  0  0
 27 28  1  0  0  0
 27 54  1  0  0  0
 27 55  1  0  0  0
 28 29  1  0  0  0
 28 33  1  0  0  0
 28 30  1  0  0  0
 30 31  1  0  0  0
 30 56  1  0  0  0
 30 57  1  0  0  0
 31 32  1  0  0  0
 31 58  1  0  0  0
 31 59  1  0  0  0
 32 33  1  0  0  0
 32 60  1  0  0  0
 32 61  1  0  0  0
M  END
> <i_i_glide_confnum>
656

> <i_i_glide_lignum>
6091

> <i_i_glide_posenum>
123

> <i_i_glide_rotatable_bonds>
9

> <i_m_Source_File_Index>
5382

> <b_m_subgroup_collapsed>
0

> <r_i_docking_score>
-5.25476

> <r_i_glide_ecoul>
-4.83793

> <r_i_glide_eff_state_penalty>
0

> <r_i_glide_einternal>
5.69146

> <r_i_glide_emodel>
-64.775

> <r_i_glide_energy>
-49.8938

> <r_i_glide_erotb>
0.731207

> <r_i_glide_esite>
-0.000127552

> <r_i_glide_evdw>
-45.0558

> <r_i_glide_gscore>
-5.25476

> <r_i_glide_hbond>
-0.32

> <r_i_glide_ligand_efficiency>
-0.164211

> <r_i_glide_ligand_efficiency_ln>
-1.17668

> <r_i_glide_ligand_efficiency_sa>
-0.521338

> <r_i_glide_lipo>
-2.37893

> <r_i_glide_metal>
0

> <r_i_glide_rewards>
-0.308427

> <s_i_glide_gridfile>
wee1_glide-grid

> <s_m_Source_File>
wee1_decoys_glide_SP.sdf

> <s_m_Source_Path>
/Users/zhangxujun/Desktop

> <s_m_entry_id>
5657

> <s_m_entry_name>
wee1_decoys_glide_SP.5382

> <s_m_subgroup_title>
wee1_decoys_glide_SP

> <s_m_subgroupid>
wee1_decoys_glide_SP


$$$$
