ZINC63270967_4093
                    3D
 Schrodinger Suite 2024-2.
 65 69  0  0  1  0            999 V2000
    4.4525   54.4954   24.6511 C   0  0  0  0  0  0
    5.8903   54.5476   24.8841 C   0  0  0  0  0  0
    6.4224   54.3782   26.1235 C   0  0  0  0  0  0
    5.5862   54.1446   27.2228 C   0  0  0  0  0  0
    5.8991   53.9699   28.4816 N   0  3  0  0  0  0
    4.6766   53.7594   29.2735 C   0  0  0  0  0  0
    3.5870   53.9315   28.2391 C   0  0  0  0  0  0
    4.1966   54.0991   27.0512 C   0  0  0  0  0  0
    3.6415   54.2800   25.7042 C   0  0  0  0  0  0
    2.1197   53.9589   28.6388 C   0  0  0  0  0  0
    1.5440   52.6210   29.1465 C   0  0  0  0  0  0
    1.3135   51.6425   28.0824 N   0  0  0  0  0  0
    0.2200   51.6442   27.2992 C   0  0  0  0  0  0
   -0.6616   52.4978   27.3979 O   0  0  0  0  0  0
    0.1021   50.5120   26.2668 C   0  0  0  0  0  0
   -1.0337   50.6872   25.2216 C   0  0  0  0  0  0
   -0.8643   51.8601   24.2286 C   0  0  0  0  0  0
    0.2742   51.6628   23.3318 N   0  0  0  0  0  0
    0.2283   51.6419   21.9852 C   0  0  0  0  0  0
   -0.7932   51.9503   21.3654 O   0  0  0  0  0  0
    1.3578   51.1721   21.3823 N   0  0  0  0  0  0
    1.3261   50.9057   19.9147 C   0  0  0  0  0  0
    2.0010   52.0879   19.1625 C   0  0  0  0  0  0
    3.4110   52.2705   19.7386 C   0  0  2  0  0  0
    3.9044   51.2956   19.6741 H   0  0  0  0  0  0
    3.2932   52.6265   21.2068 C   0  0  1  0  0  0
    2.5765   53.4456   21.3506 H   0  0  0  0  0  0
    2.7173   51.4065   21.9633 C   0  0  0  0  0  0
    4.5804   53.1639   21.6059 N   0  0  0  0  0  0
    5.0216   53.7568   20.5619 C   0  0  0  0  0  0
    4.4229   53.2763   19.2263 C   0  0  2  0  0  0
    5.1839   52.7200   18.6736 H   0  0  0  0  0  0
    4.0478   54.4663   18.3333 C   0  0  0  0  0  0
    4.7591   55.6166   18.4038 C   0  0  0  0  0  0
    5.8119   55.7431   19.4175 C   0  0  0  0  0  0
    5.9031   54.8885   20.4658 C   0  0  0  0  0  0
    4.3024   57.0061   17.4163 Cl  0  0  0  0  0  0
    4.0424   54.6193   23.6601 H   0  0  0  0  0  0
    6.5504   54.7244   24.0457 H   0  0  0  0  0  0
    7.4965   54.4305   26.2455 H   0  0  0  0  0  0
    4.7041   52.7486   29.6818 H   0  0  0  0  0  0
    4.6559   54.5009   30.0714 H   0  0  0  0  0  0
    2.5788   54.2216   25.5187 H   0  0  0  0  0  0
    2.0421   54.6959   29.4382 H   0  0  0  0  0  0
    1.5105   54.3476   27.8221 H   0  0  0  0  0  0
    2.2150   52.1752   29.8813 H   0  0  0  0  0  0
    0.6093   52.8035   29.6843 H   0  0  0  0  0  0
    1.9843   50.8964   27.9774 H   0  0  0  0  0  0
    1.0582   50.3584   25.7666 H   0  0  0  0  0  0
   -0.0950   49.5999   26.8337 H   0  0  0  0  0  0
   -1.1420   49.7598   24.6569 H   0  0  0  0  0  0
   -1.9845   50.7998   25.7467 H   0  0  0  0  0  0
   -1.8017   52.0196   23.6907 H   0  0  0  0  0  0
   -0.6791   52.7901   24.7676 H   0  0  0  0  0  0
    1.1463   51.4237   23.7748 H   0  0  0  0  0  0
    1.9116   49.9987   19.7561 H   0  0  0  0  0  0
    0.3291   50.6575   19.5464 H   0  0  0  0  0  0
    2.0655   51.8782   18.0941 H   0  0  0  0  0  0
    1.4121   53.0027   19.2276 H   0  0  0  0  0  0
    2.7037   51.5408   23.0439 H   0  0  0  0  0  0
    3.3299   50.5196   21.7953 H   0  0  0  0  0  0
    3.2474   54.3720   17.6140 H   0  0  0  0  0  0
    6.5174   56.5568   19.3320 H   0  0  0  0  0  0
    6.6906   55.0313   21.1902 H   0  0  0  0  0  0
    6.8398   53.9849   28.8694 H   0  0  0  0  0  0
  1  9  2  0  0  0
  1  2  1  0  0  0
  1 38  1  0  0  0
  2  3  2  0  0  0
  2 39  1  0  0  0
  3  4  1  0  0  0
  3 40  1  0  0  0
  4  8  1  0  0  0
  4  5  2  0  0  0
  5  6  1  0  0  0
  5 65  1  0  0  0
  6  7  1  0  0  0
  6 41  1  0  0  0
  6 42  1  0  0  0
  7  8  2  0  0  0
  7 10  1  0  0  0
  8  9  1  0  0  0
  9 43  1  0  0  0
 10 11  1  0  0  0
 10 44  1  0  0  0
 10 45  1  0  0  0
 11 12  1  0  0  0
 11 46  1  0  0  0
 11 47  1  0  0  0
 12 13  1  0  0  0
 12 48  1  0  0  0
 13 14  2  0  0  0
 13 15  1  0  0  0
 15 16  1  0  0  0
 15 49  1  0  0  0
 15 50  1  0  0  0
 16 17  1  0  0  0
 16 51  1  0  0  0
 16 52  1  0  0  0
 17 18  1  0  0  0
 17 53  1  0  0  0
 17 54  1  0  0  0
 18 19  1  0  0  0
 18 55  1  0  0  0
 19 20  2  0  0  0
 19 21  1  0  0  0
 21 28  1  0  0  0
 21 22  1  0  0  0
 22 23  1  0  0  0
 22 56  1  0  0  0
 22 57  1  0  0  0
 23 24  1  0  0  0
 23 58  1  0  0  0
 23 59  1  0  0  0
 24 25  1  0  0  0
 24 31  1  0  0  0
 24 26  1  0  0  0
 26 27  1  0  0  0
 26 28  1  0  0  0
 26 29  1  0  0  0
 28 60  1  0  0  0
 28 61  1  0  0  0
 29 30  2  0  0  0
 30 36  1  0  0  0
 30 31  1  0  0  0
 31 32  1  0  0  0
 31 33  1  0  0  0
 33 34  2  0  0  0
 33 62  1  0  0  0
 34 35  1  0  0  0
 34 37  1  0  0  0
 35 36  2  0  0  0
 35 63  1  0  0  0
 36 64  1  0  0  0
M  CHG  1   5   1
M  END
> <i_i_glide_confnum>
94

> <i_i_glide_lignum>
4094

> <i_i_glide_posenum>
264

> <i_i_glide_rotatable_bonds>
10

> <i_m_Source_File_Index>
1894

> <b_m_subgroup_collapsed>
0

> <r_i_docking_score>
-4.80813

> <r_i_glide_ecoul>
0.0498078

> <r_i_glide_eff_state_penalty>
0

> <r_i_glide_einternal>
4.23569

> <r_i_glide_emodel>
-60.0747

> <r_i_glide_energy>
-46.2113

> <r_i_glide_erotb>
0.701325

> <r_i_glide_esite>
-0.0104436

> <r_i_glide_evdw>
-46.2611

> <r_i_glide_gscore>
-4.80813

> <r_i_glide_hbond>
0

> <r_i_glide_ligand_efficiency>
-0.141416

> <r_i_glide_ligand_efficiency_ln>
-1.06225

> <r_i_glide_ligand_efficiency_sa>
-0.458131

> <r_i_glide_lipo>
-2.86913

> <r_i_glide_metal>
0

> <r_i_glide_rewards>
-0.324295

> <s_i_glide_gridfile>
wee1_glide-grid

> <s_m_Source_File>
wee1_decoys_glide_SP.sdf

> <s_m_Source_Path>
/Users/zhangxujun/Desktop

> <s_m_entry_id>
2169

> <s_m_entry_name>
wee1_decoys_glide_SP.1894

> <s_m_subgroup_title>
wee1_decoys_glide_SP

> <s_m_subgroupid>
wee1_decoys_glide_SP


$$$$
