ZINC00622878_2381
                    3D
 Schrodinger Suite 2024-2.
 52 56  0  0  1  0            999 V2000
    0.6472   54.1369   30.5108 C   0  0  0  0  0  0
    1.1703   55.3404   30.0437 C   0  0  0  0  0  0
    2.3154   55.3338   29.2534 C   0  0  0  0  0  0
    2.9464   54.1234   28.9548 C   0  0  0  0  0  0
    2.4223   52.9189   29.4351 C   0  0  0  0  0  0
    1.2627   52.9255   30.2069 C   0  0  0  0  0  0
    4.2020   54.1113   28.1649 C   0  0  0  0  0  0
    4.4408   54.2124   26.7589 C   0  0  0  0  0  0
    5.8279   54.1798   26.7175 C   0  0  0  0  0  0
    6.3084   54.0899   27.9814 N   0  0  0  0  0  0
    7.2820   54.0694   28.2466 H   0  0  0  0  0  0
    5.3192   54.0506   28.8667 N   0  0  0  0  0  0
    6.6630   54.2552   25.6360 O   0  0  0  0  0  0
    6.0038   54.3457   24.4525 C   0  0  0  0  0  0
    4.6588   54.3829   24.2657 C   0  0  0  0  0  0
    3.6303   54.3067   25.4337 C   0  0  1  0  0  0
    3.1147   55.2664   25.4521 H   0  0  0  0  0  0
    2.4387   53.3286   25.2687 C   0  0  0  0  0  0
    2.2897   52.4961   24.1505 C   0  0  0  0  0  0
    1.2134   51.6184   24.0366 C   0  0  0  0  0  0
    0.2495   51.5623   25.0381 C   0  0  0  0  0  0
    0.3375   52.4177   26.1444 C   0  0  0  0  0  0
    1.4221   53.2942   26.2279 C   0  0  0  0  0  0
   -0.6042   52.4948   27.1539 O   0  0  0  0  0  0
   -1.6682   51.5390   27.2377 C   0  0  0  0  0  0
   -2.9356   51.9857   26.4988 C   0  0  0  0  0  0
   -2.8908   52.8966   25.4343 C   0  0  0  0  0  0
   -4.0607   53.2983   24.7897 C   0  0  0  0  0  0
   -5.2918   52.7878   25.1963 C   0  0  0  0  0  0
   -5.3481   51.8746   26.2494 C   0  0  0  0  0  0
   -4.1797   51.4757   26.8978 C   0  0  0  0  0  0
   -4.2672   50.6024   27.9277 F   0  0  0  0  0  0
    4.1970   54.4879   22.9176 C   0  0  0  0  0  0
    3.9047   54.4953   21.8014 N   0  0  0  0  0  0
    6.9531   54.4073   23.4693 N   0  0  0  0  0  0
   -0.2407   54.1404   31.1255 H   0  0  0  0  0  0
    0.6984   56.2771   30.2977 H   0  0  0  0  0  0
    2.7148   56.2683   28.8901 H   0  0  0  0  0  0
    2.9061   51.9816   29.1985 H   0  0  0  0  0  0
    0.8423   52.0015   30.5732 H   0  0  0  0  0  0
    3.0172   52.4720   23.3587 H   0  0  0  0  0  0
    1.1358   50.9736   23.1746 H   0  0  0  0  0  0
   -0.5737   50.8759   24.9205 H   0  0  0  0  0  0
    1.4311   53.9911   27.0422 H   0  0  0  0  0  0
   -1.3718   50.5311   26.9400 H   0  0  0  0  0  0
   -1.9033   51.4638   28.2996 H   0  0  0  0  0  0
   -1.9496   53.2967   25.0953 H   0  0  0  0  0  0
   -4.0098   54.0044   23.9734 H   0  0  0  0  0  0
   -6.1975   53.0940   24.6920 H   0  0  0  0  0  0
   -6.2984   51.4730   26.5655 H   0  0  0  0  0  0
    6.6760   54.4219   22.4984 H   0  0  0  0  0  0
    7.8958   54.7079   23.6817 H   0  0  0  0  0  0
  1  6  2  0  0  0
  1  2  1  0  0  0
  1 36  1  0  0  0
  2  3  2  0  0  0
  2 37  1  0  0  0
  3  4  1  0  0  0
  3 38  1  0  0  0
  4  5  2  0  0  0
  4  7  1  0  0  0
  5  6  1  0  0  0
  5 39  1  0  0  0
  6 40  1  0  0  0
  7 12  2  0  0  0
  7  8  1  0  0  0
  8 16  1  0  0  0
  8  9  2  0  0  0
  9 10  1  0  0  0
  9 13  1  0  0  0
 10 11  1  0  0  0
 10 12  1  0  0  0
 13 14  1  0  0  0
 14 15  2  0  0  0
 14 35  1  0  0  0
 15 16  1  0  0  0
 15 33  1  0  0  0
 16 17  1  0  0  0
 16 18  1  0  0  0
 18 23  2  0  0  0
 18 19  1  0  0  0
 19 20  2  0  0  0
 19 41  1  0  0  0
 20 21  1  0  0  0
 20 42  1  0  0  0
 21 22  2  0  0  0
 21 43  1  0  0  0
 22 23  1  0  0  0
 22 24  1  0  0  0
 23 44  1  0  0  0
 24 25  1  0  0  0
 25 26  1  0  0  0
 25 45  1  0  0  0
 25 46  1  0  0  0
 26 31  2  0  0  0
 26 27  1  0  0  0
 27 28  2  0  0  0
 27 47  1  0  0  0
 28 29  1  0  0  0
 28 48  1  0  0  0
 29 30  2  0  0  0
 29 49  1  0  0  0
 30 31  1  0  0  0
 30 50  1  0  0  0
 31 32  1  0  0  0
 33 34  3  0  0  0
 35 51  1  0  0  0
 35 52  1  0  0  0
M  END
> <i_i_glide_confnum>
137

> <i_i_glide_lignum>
2382

> <i_i_glide_posenum>
167

> <i_i_glide_rotatable_bonds>
6

> <i_m_Source_File_Index>
3805

> <b_m_subgroup_collapsed>
0

> <r_i_docking_score>
-6.79146

> <r_i_glide_ecoul>
-1.83594

> <r_i_glide_eff_state_penalty>
0

> <r_i_glide_einternal>
15.7167

> <r_i_glide_emodel>
-59.121

> <r_i_glide_energy>
-47.7426

> <r_i_glide_erotb>
0.518878

> <r_i_glide_esite>
-0.0551779

> <r_i_glide_evdw>
-45.9066

> <r_i_glide_gscore>
-6.79146

> <r_i_glide_hbond>
-0.32

> <r_i_glide_ligand_efficiency>
-0.205802

> <r_i_glide_ligand_efficiency_ln>
-1.51039

> <r_i_glide_ligand_efficiency_sa>
-0.660116

> <r_i_glide_lipo>
-3.81629

> <r_i_glide_metal>
0

> <r_i_glide_rewards>
-0.548151

> <s_i_glide_gridfile>
wee1_glide-grid

> <s_m_Source_File>
wee1_decoys_glide_SP.sdf

> <s_m_Source_Path>
/Users/zhangxujun/Desktop

> <s_m_entry_id>
4080

> <s_m_entry_name>
wee1_decoys_glide_SP.3805

> <s_m_subgroup_title>
wee1_decoys_glide_SP

> <s_m_subgroupid>
wee1_decoys_glide_SP


$$$$
