ZINC39836238_4245
                    3D
 Schrodinger Suite 2024-2.
 55 58  0  0  1  0            999 V2000
    2.5258   55.4874   29.2798 C   0  0  0  0  0  0
    3.3767   54.2021   29.1988 C   0  0  1  0  0  0
    3.7208   53.9916   30.2119 H   0  0  0  0  0  0
    2.5797   52.9577   28.7569 C   0  0  0  0  0  0
    1.9806   53.1368   27.3435 C   0  0  0  0  0  0
    3.0538   53.6671   26.3740 C   0  0  0  0  0  0
    4.2616   54.2071   26.8556 C   0  0  0  0  0  0
    5.3230   54.6952   25.5856 S   0  0  0  0  0  0
    4.1726   54.2096   24.3910 C   0  0  0  0  0  0
    2.9830   53.6957   24.9522 C   0  0  0  0  0  0
    1.8044   53.3561   24.1850 C   0  0  0  0  0  0
    1.3975   54.0846   23.2814 O   0  0  0  0  0  0
    1.2403   52.1793   24.5124 N   0  0  0  0  0  0
    0.0869   51.5656   23.8553 C   0  0  1  0  0  0
    0.3071   51.5989   22.7828 H   0  0  0  0  0  0
   -0.0959   50.0981   24.3050 C   0  0  0  0  0  0
   -0.6901   50.0869   25.7280 C   0  0  0  0  0  0
   -1.7563   51.6304   25.8237 S   0  0  0  0  0  0
   -1.2425   52.4966   26.8925 O   0  0  0  0  0  0
   -3.1777   51.2821   25.7588 O   0  0  0  0  0  0
   -1.2271   52.3019   24.1542 C   0  0  0  0  0  0
    4.5837   54.4230   23.0814 N   0  0  0  0  0  0
    4.4051   53.5986   22.0255 C   0  0  0  0  0  0
    3.8485   52.5004   22.0813 O   0  0  0  0  0  0
    4.9512   54.0924   20.7037 C   0  0  0  0  0  0
    5.9561   55.0713   20.6313 C   0  0  0  0  0  0
    6.4347   55.5034   19.3960 C   0  0  0  0  0  0
    5.9274   54.9709   18.2112 C   0  0  0  0  0  0
    4.9387   53.9715   18.2563 C   0  0  0  0  0  0
    4.4577   53.5530   19.5062 C   0  0  0  0  0  0
    4.3531   53.3861   17.0311 N   0  3  0  0  0  0
    3.1389   53.2068   17.0122 O   0  0  0  0  0  0
    5.0968   53.1008   16.0985 O   0  5  0  0  0  0
    6.5365   55.6076   16.7213 Cl  0  0  0  0  0  0
    4.6462   54.3431   28.3287 C   0  0  0  0  0  0
    2.1564   55.7964   28.3009 H   0  0  0  0  0  0
    1.6605   55.3504   29.9303 H   0  0  0  0  0  0
    3.1035   56.3207   29.6802 H   0  0  0  0  0  0
    3.2225   52.0745   28.7763 H   0  0  0  0  0  0
    1.7596   52.7691   29.4499 H   0  0  0  0  0  0
    1.1291   53.8162   27.3766 H   0  0  0  0  0  0
    1.5843   52.1691   27.0374 H   0  0  0  0  0  0
    1.7038   51.6151   25.2057 H   0  0  0  0  0  0
    0.8435   49.5417   24.2566 H   0  0  0  0  0  0
   -0.7700   49.5922   23.6113 H   0  0  0  0  0  0
    0.0997   50.1941   26.4699 H   0  0  0  0  0  0
   -1.2736   49.2120   26.0231 H   0  0  0  0  0  0
   -1.9816   51.9460   23.4538 H   0  0  0  0  0  0
   -1.2271   53.3914   24.1689 H   0  0  0  0  0  0
    5.2901   55.1332   22.9655 H   0  0  0  0  0  0
    6.3892   55.5049   21.5187 H   0  0  0  0  0  0
    7.2030   56.2625   19.3562 H   0  0  0  0  0  0
    3.6916   52.7898   19.5369 H   0  0  0  0  0  0
    5.3659   53.5695   28.6027 H   0  0  0  0  0  0
    5.1387   55.2959   28.5232 H   0  0  0  0  0  0
  1  2  1  0  0  0
  1 36  1  0  0  0
  1 37  1  0  0  0
  1 38  1  0  0  0
  2  3  1  0  0  0
  2 35  1  0  0  0
  2  4  1  0  0  0
  4  5  1  0  0  0
  4 39  1  0  0  0
  4 40  1  0  0  0
  5  6  1  0  0  0
  5 41  1  0  0  0
  5 42  1  0  0  0
  6 10  1  0  0  0
  6  7  2  0  0  0
  7  8  1  0  0  0
  7 35  1  0  0  0
  8  9  1  0  0  0
  9 10  2  0  0  0
  9 22  1  0  0  0
 10 11  1  0  0  0
 11 12  2  0  0  0
 11 13  1  0  0  0
 13 14  1  0  0  0
 13 43  1  0  0  0
 14 15  1  0  0  0
 14 21  1  0  0  0
 14 16  1  0  0  0
 16 17  1  0  0  0
 16 44  1  0  0  0
 16 45  1  0  0  0
 17 18  1  0  0  0
 17 46  1  0  0  0
 17 47  1  0  0  0
 18 19  2  0  0  0
 18 20  2  0  0  0
 18 21  1  0  0  0
 21 48  1  0  0  0
 21 49  1  0  0  0
 22 23  1  0  0  0
 22 50  1  0  0  0
 23 24  2  0  0  0
 23 25  1  0  0  0
 25 30  2  0  0  0
 25 26  1  0  0  0
 26 27  2  0  0  0
 26 51  1  0  0  0
 27 28  1  0  0  0
 27 52  1  0  0  0
 28 29  2  0  0  0
 28 34  1  0  0  0
 29 30  1  0  0  0
 29 31  1  0  0  0
 30 53  1  0  0  0
 31 32  2  0  0  0
 31 33  1  0  0  0
 35 54  1  0  0  0
 35 55  1  0  0  0
M  CHG  2  31   1  33  -1
M  END
> <i_i_glide_confnum>
100

> <i_i_glide_lignum>
4246

> <i_i_glide_posenum>
62

> <i_i_glide_rotatable_bonds>
7

> <i_m_Source_File_Index>
5019

> <b_m_subgroup_collapsed>
0

> <r_i_docking_score>
-5.37444

> <r_i_glide_ecoul>
0.222239

> <r_i_glide_eff_state_penalty>
0

> <r_i_glide_einternal>
9.99656

> <r_i_glide_emodel>
-61.5176

> <r_i_glide_energy>
-48.4604

> <r_i_glide_erotb>
0.469132

> <r_i_glide_esite>
-0.164895

> <r_i_glide_evdw>
-48.6826

> <r_i_glide_gscore>
-5.37444

> <r_i_glide_hbond>
0

> <r_i_glide_ligand_efficiency>
-0.162862

> <r_i_glide_ligand_efficiency_ln>
-1.19525

> <r_i_glide_ligand_efficiency_sa>
-0.522385

> <r_i_glide_lipo>
-2.64885

> <r_i_glide_metal>
0

> <r_i_glide_rewards>
-0.62904

> <s_i_glide_gridfile>
wee1_glide-grid

> <s_m_Source_File>
wee1_decoys_glide_SP.sdf

> <s_m_Source_Path>
/Users/zhangxujun/Desktop

> <s_m_entry_id>
5294

> <s_m_entry_name>
wee1_decoys_glide_SP.5019

> <s_m_subgroup_title>
wee1_decoys_glide_SP

> <s_m_subgroupid>
wee1_decoys_glide_SP


$$$$
