ZINC30982455_5241
                    3D
 Schrodinger Suite 2024-2.
 53 56  0  0  1  0            999 V2000
    4.1090   53.4032   19.4855 C   0  0  0  0  0  0
    5.1029   54.0754   20.4198 C   0  0  0  0  0  0
    4.9832   53.8872   21.8007 C   0  0  0  0  0  0
    5.8693   54.5011   22.6913 C   0  0  0  0  0  0
    6.9051   55.2972   22.1778 C   0  0  0  0  0  0
    7.0301   55.4875   20.8019 C   0  0  0  0  0  0
    6.1293   54.8898   19.9227 C   0  0  0  0  0  0
    6.3421   55.1889   18.0537 Br  0  0  0  0  0  0
    5.5959   54.3291   24.0597 N   0  0  0  0  0  0
    6.1256   54.9449   25.1411 C   0  0  0  0  0  0
    7.1039   55.6930   25.1296 O   0  0  0  0  0  0
    5.4147   54.7029   26.4912 C   0  0  2  0  0  0
    5.9096   53.3773   27.1110 C   0  0  0  0  0  0
    5.2160   53.1394   28.4646 C   0  0  0  0  0  0
    3.6903   53.1257   28.2045 N   0  3  2  0  0  0
    3.2083   54.5058   27.6929 C   0  0  0  0  0  0
    3.8701   54.7333   26.3290 C   0  0  0  0  0  0
    2.9003   52.6966   29.4663 C   0  0  0  0  0  0
    1.4866   52.2930   29.0874 C   0  0  0  0  0  0
    0.9751   52.1177   27.8986 N   0  0  0  0  0  0
   -0.2886   51.8383   28.1620 C   0  0  0  0  0  0
   -0.5978   51.7764   29.4429 N   0  0  0  0  0  0
    0.5973   52.0983   30.0852 O   0  0  0  0  0  0
   -1.3072   51.6450   27.0723 C   0  0  0  0  0  0
   -2.5354   51.0275   27.3443 C   0  0  0  0  0  0
   -3.4898   50.8821   26.3413 C   0  0  0  0  0  0
   -3.2213   51.3511   25.0580 C   0  0  0  0  0  0
   -2.0019   51.9548   24.7695 C   0  0  0  0  0  0
   -1.0469   52.0966   25.7704 C   0  0  0  0  0  0
   -4.1488   51.2176   24.0844 F   0  0  0  0  0  0
    3.3013   52.9028   20.0222 H   0  0  0  0  0  0
    4.6150   52.6675   18.8562 H   0  0  0  0  0  0
    3.6509   54.1421   18.8266 H   0  0  0  0  0  0
    4.1752   53.2724   22.1775 H   0  0  0  0  0  0
    7.6129   55.7922   22.8242 H   0  0  0  0  0  0
    7.8319   56.0962   20.4142 H   0  0  0  0  0  0
    4.8307   53.7021   24.2505 H   0  0  0  0  0  0
    5.7391   55.5394   27.1147 H   0  0  0  0  0  0
    5.6224   52.5323   26.4837 H   0  0  0  0  0  0
    6.9859   53.3923   27.3033 H   0  0  0  0  0  0
    5.4335   53.9110   29.2078 H   0  0  0  0  0  0
    5.4976   52.1586   28.8512 H   0  0  0  0  0  0
    3.4734   55.2607   28.4382 H   0  0  0  0  0  0
    2.1229   54.4781   27.5773 H   0  0  0  0  0  0
    3.5117   55.6965   25.9669 H   0  0  0  0  0  0
    3.5088   53.9219   25.6961 H   0  0  0  0  0  0
    3.4460   51.8588   29.9015 H   0  0  0  0  0  0
    2.9410   53.5440   30.1501 H   0  0  0  0  0  0
   -2.7506   50.6390   28.3307 H   0  0  0  0  0  0
   -4.4326   50.4010   26.5559 H   0  0  0  0  0  0
   -1.7979   52.3087   23.7692 H   0  0  0  0  0  0
   -0.1073   52.5726   25.5322 H   0  0  0  0  0  0
    3.4901   52.4191   27.5045 H   0  0  0  0  0  0
  1  2  1  0  0  0
  1 31  1  0  0  0
  1 32  1  0  0  0
  1 33  1  0  0  0
  2  7  2  0  0  0
  2  3  1  0  0  0
  3  4  2  0  0  0
  3 34  1  0  0  0
  4  5  1  0  0  0
  4  9  1  0  0  0
  5  6  2  0  0  0
  5 35  1  0  0  0
  6  7  1  0  0  0
  6 36  1  0  0  0
  7  8  1  0  0  0
  9 10  1  0  0  0
  9 37  1  0  0  0
 10 11  2  0  0  0
 10 12  1  0  0  0
 12 17  1  0  0  0
 12 13  1  0  0  0
 12 38  1  0  0  0
 13 14  1  0  0  0
 13 39  1  0  0  0
 13 40  1  0  0  0
 14 15  1  0  0  0
 14 41  1  0  0  0
 14 42  1  0  0  0
 15 16  1  0  0  0
 15 18  1  0  0  0
 15 53  1  0  0  0
 16 17  1  0  0  0
 16 43  1  0  0  0
 16 44  1  0  0  0
 17 45  1  0  0  0
 17 46  1  0  0  0
 18 19  1  0  0  0
 18 47  1  0  0  0
 18 48  1  0  0  0
 19 23  1  0  0  0
 19 20  2  0  0  0
 20 21  1  0  0  0
 21 22  2  0  0  0
 21 24  1  0  0  0
 22 23  1  0  0  0
 24 29  2  0  0  0
 24 25  1  0  0  0
 25 26  2  0  0  0
 25 49  1  0  0  0
 26 27  1  0  0  0
 26 50  1  0  0  0
 27 28  2  0  0  0
 27 30  1  0  0  0
 28 29  1  0  0  0
 28 51  1  0  0  0
 29 52  1  0  0  0
M  CHG  1  15   1
M  END
> <i_i_glide_confnum>
15

> <i_i_glide_lignum>
5242

> <i_i_glide_posenum>
289

> <i_i_glide_rotatable_bonds>
6

> <i_m_Source_File_Index>
1033

> <b_m_subgroup_collapsed>
0

> <r_i_docking_score>
-5.20628

> <r_i_glide_ecoul>
-1.30228

> <r_i_glide_eff_state_penalty>
0

> <r_i_glide_einternal>
9.60731

> <r_i_glide_emodel>
-52.7804

> <r_i_glide_energy>
-42.6924

> <r_i_glide_erotb>
0.539571

> <r_i_glide_esite>
-0.108674

> <r_i_glide_evdw>
-41.3901

> <r_i_glide_gscore>
-5.20628

> <r_i_glide_hbond>
-0.32

> <r_i_glide_ligand_efficiency>
-0.173543

> <r_i_glide_ligand_efficiency_ln>
-1.18292

> <r_i_glide_ligand_efficiency_sa>
-0.539238

> <r_i_glide_lipo>
-2.35342

> <r_i_glide_metal>
0

> <r_i_glide_rewards>
-0.698913

> <s_i_glide_gridfile>
wee1_glide-grid

> <s_m_Source_File>
wee1_decoys_glide_SP.sdf

> <s_m_Source_Path>
/Users/zhangxujun/Desktop

> <s_m_entry_id>
1308

> <s_m_entry_name>
wee1_decoys_glide_SP.1033

> <s_m_subgroup_title>
wee1_decoys_glide_SP

> <s_m_subgroupid>
wee1_decoys_glide_SP


$$$$
