ZINC02891196_2541
                    3D
 Schrodinger Suite 2024-2.
 44 45  0  0  1  0            999 V2000
   -2.8782   50.1717   25.2948 C   0  0  0  0  0  0
   -1.5326   50.8642   25.4589 C   0  0  0  0  0  0
   -0.9723   50.9271   26.7335 C   0  0  0  0  0  0
    0.2713   51.5114   26.9205 C   0  0  0  0  0  0
    0.9670   52.0251   25.8315 C   0  0  0  0  0  0
    0.4534   51.9574   24.5191 C   0  0  0  0  0  0
   -0.8369   51.3943   24.3547 C   0  0  0  0  0  0
   -1.4332   51.3392   23.1172 O   0  0  0  0  0  0
   -2.3598   52.3897   22.8718 C   0  0  0  0  0  0
    1.2740   52.4657   23.3304 C   0  0  0  0  0  0
    0.7997   52.4992   22.1937 O   0  0  0  0  0  0
    2.5230   52.8985   23.6390 N   0  0  0  0  0  0
    3.5719   53.3989   22.9052 C   0  0  0  0  0  0
    3.8586   53.2045   21.2754 S   0  0  0  0  0  0
    4.5249   54.0958   23.5955 N   0  0  0  0  0  0
    4.6874   54.2829   24.9860 C   0  0  0  0  0  0
    3.5902   54.4967   25.8301 C   0  0  0  0  0  0
    3.7404   54.5768   27.2127 C   0  0  0  0  0  0
    5.0225   54.4769   27.7668 C   0  0  0  0  0  0
    6.1316   54.3324   26.9287 C   0  0  0  0  0  0
    5.9738   54.2434   25.5466 C   0  0  0  0  0  0
    7.1025   54.1005   24.7800 O   0  0  0  0  0  0
    5.2295   54.5387   29.2659 C   0  0  0  0  0  0
    2.5081   54.7956   28.0821 C   0  0  0  0  0  0
    1.0421   51.5696   28.6602 Br  0  0  0  0  0  0
   -3.6966   50.8838   25.4026 H   0  0  0  0  0  0
   -2.9570   49.6842   24.3221 H   0  0  0  0  0  0
   -3.0021   49.3848   26.0408 H   0  0  0  0  0  0
   -1.4934   50.5064   27.5832 H   0  0  0  0  0  0
    1.9395   52.4338   26.0482 H   0  0  0  0  0  0
   -2.4943   52.4943   21.7961 H   0  0  0  0  0  0
   -3.3326   52.1643   23.3072 H   0  0  0  0  0  0
   -2.0231   53.3523   23.2643 H   0  0  0  0  0  0
    2.7365   52.8107   24.6189 H   0  0  0  0  0  0
    5.2883   54.4358   23.0303 H   0  0  0  0  0  0
    2.6024   54.6017   25.4147 H   0  0  0  0  0  0
    7.1239   54.2755   27.3523 H   0  0  0  0  0  0
    6.9420   54.0266   23.8378 H   0  0  0  0  0  0
    4.7044   53.7104   29.7429 H   0  0  0  0  0  0
    6.2884   54.4968   29.5161 H   0  0  0  0  0  0
    4.8257   55.4607   29.6793 H   0  0  0  0  0  0
    2.4949   55.8118   28.4777 H   0  0  0  0  0  0
    1.5797   54.6156   27.5384 H   0  0  0  0  0  0
    2.5111   54.1123   28.9309 H   0  0  0  0  0  0
  1  2  1  0  0  0
  1 26  1  0  0  0
  1 27  1  0  0  0
  1 28  1  0  0  0
  2  7  2  0  0  0
  2  3  1  0  0  0
  3  4  2  0  0  0
  3 29  1  0  0  0
  4  5  1  0  0  0
  4 25  1  0  0  0
  5  6  2  0  0  0
  5 30  1  0  0  0
  6  7  1  0  0  0
  6 10  1  0  0  0
  7  8  1  0  0  0
  8  9  1  0  0  0
  9 31  1  0  0  0
  9 32  1  0  0  0
  9 33  1  0  0  0
 10 11  2  0  0  0
 10 12  1  0  0  0
 12 13  1  0  0  0
 12 34  1  0  0  0
 13 14  2  0  0  0
 13 15  1  0  0  0
 15 16  1  0  0  0
 15 35  1  0  0  0
 16 21  2  0  0  0
 16 17  1  0  0  0
 17 18  2  0  0  0
 17 36  1  0  0  0
 18 19  1  0  0  0
 18 24  1  0  0  0
 19 20  2  0  0  0
 19 23  1  0  0  0
 20 21  1  0  0  0
 20 37  1  0  0  0
 21 22  1  0  0  0
 22 38  1  0  0  0
 23 39  1  0  0  0
 23 40  1  0  0  0
 23 41  1  0  0  0
 24 42  1  0  0  0
 24 43  1  0  0  0
 24 44  1  0  0  0
M  END
> <i_i_glide_confnum>
22

> <i_i_glide_lignum>
2542

> <i_i_glide_posenum>
285

> <i_i_glide_rotatable_bonds>
7

> <i_m_Source_File_Index>
1834

> <b_m_subgroup_collapsed>
0

> <r_i_docking_score>
-4.39242

> <r_i_glide_ecoul>
0.590966

> <r_i_glide_eff_state_penalty>
0

> <r_i_glide_einternal>
5.75025

> <r_i_glide_emodel>
-45.1672

> <r_i_glide_energy>
-36.0275

> <r_i_glide_erotb>
0.552956

> <r_i_glide_esite>
0

> <r_i_glide_evdw>
-36.6185

> <r_i_glide_gscore>
-4.39242

> <r_i_glide_hbond>
0

> <r_i_glide_ligand_efficiency>
-0.175697

> <r_i_glide_ligand_efficiency_ln>
-1.04114

> <r_i_glide_ligand_efficiency_sa>
-0.51374

> <r_i_glide_lipo>
-2.1934

> <r_i_glide_metal>
0

> <r_i_glide_rewards>
-1.0097

> <s_i_glide_gridfile>
wee1_glide-grid

> <s_m_Source_File>
wee1_decoys_glide_SP.sdf

> <s_m_Source_Path>
/Users/zhangxujun/Desktop

> <s_m_entry_id>
2109

> <s_m_entry_name>
wee1_decoys_glide_SP.1834

> <s_m_subgroup_title>
wee1_decoys_glide_SP

> <s_m_subgroupid>
wee1_decoys_glide_SP


$$$$
