ZINC38935271_2263
                    3D
 Schrodinger Suite 2024-2.
 50 53  0  0  1  0            999 V2000
    3.9966   54.5436   25.2498 C   0  0  0  0  0  0
    2.7107   53.8548   24.8332 C   0  0  0  0  0  0
    1.9499   53.1728   25.7848 C   0  0  0  0  0  0
    0.7957   52.4966   25.3992 C   0  0  0  0  0  0
    0.4006   52.5121   24.0605 C   0  0  0  0  0  0
    1.1521   53.2076   23.1109 C   0  0  0  0  0  0
    2.3086   53.8767   23.4968 C   0  0  0  0  0  0
   -1.0559   51.6026   23.5476 S   0  0  0  0  0  0
   -1.8584   51.3468   24.7494 O   0  0  0  0  0  0
   -1.6470   52.3337   22.4192 O   0  0  0  0  0  0
   -0.3513   49.9570   22.8972 C   0  0  2  0  0  0
   -1.2262   49.4093   22.5470 H   0  0  0  0  0  0
    0.3040   49.1451   24.0538 C   0  0  0  0  0  0
   -0.6420   48.5732   25.0155 N   0  0  0  0  0  0
   -1.4941   47.5748   24.7364 C   0  0  0  0  0  0
   -1.4894   46.9581   23.6699 O   0  0  0  0  0  0
   -2.3565   47.3563   25.7447 N   0  0  0  0  0  0
   -3.4796   46.5098   25.7419 C   0  0  0  0  0  0
   -4.1764   46.1412   24.5649 C   0  0  0  0  0  0
   -5.2968   45.3012   24.6199 C   0  0  0  0  0  0
   -5.6972   44.8501   25.8706 C   0  0  0  0  0  0
   -5.0486   45.2244   27.0127 C   0  0  0  0  0  0
   -3.9366   46.0607   26.9916 C   0  0  0  0  0  0
   -5.6955   44.6927   28.0817 O   0  0  0  0  0  0
   -6.6014   43.7634   27.5503 C   0  0  0  0  0  0
   -6.7539   44.0576   26.1882 O   0  0  0  0  0  0
    0.5586   50.1505   21.6889 C   0  0  0  0  0  0
    0.1834   50.3901   20.3656 C   0  0  0  0  0  0
    1.2468   50.5270   19.4686 C   0  0  0  0  0  0
    2.4753   50.3942   20.0838 C   0  0  0  0  0  0
    2.3049   50.0933   21.7805 S   0  0  0  0  0  0
    4.6725   54.6767   24.4038 H   0  0  0  0  0  0
    4.5304   53.9412   25.9864 H   0  0  0  0  0  0
    3.7860   55.5161   25.6920 H   0  0  0  0  0  0
    2.2624   53.1508   26.8191 H   0  0  0  0  0  0
    0.2197   51.9552   26.1363 H   0  0  0  0  0  0
    0.8561   53.2143   22.0707 H   0  0  0  0  0  0
    2.8926   54.3995   22.7525 H   0  0  0  0  0  0
    0.8991   48.3244   23.6524 H   0  0  0  0  0  0
    1.0153   49.7642   24.6008 H   0  0  0  0  0  0
   -0.6344   48.9483   25.9535 H   0  0  0  0  0  0
   -2.1141   47.7565   26.6479 H   0  0  0  0  0  0
   -3.8725   46.5174   23.5995 H   0  0  0  0  0  0
   -5.8314   45.0305   23.7223 H   0  0  0  0  0  0
   -3.4356   46.3506   27.9061 H   0  0  0  0  0  0
   -7.5610   43.8140   28.0665 H   0  0  0  0  0  0
   -6.1914   42.7563   27.6605 H   0  0  0  0  0  0
   -0.8491   50.4660   20.0599 H   0  0  0  0  0  0
    1.1276   50.7130   18.4105 H   0  0  0  0  0  0
    3.4517   50.4498   19.6188 H   0  0  0  0  0  0
  1  2  1  0  0  0
  1 32  1  0  0  0
  1 33  1  0  0  0
  1 34  1  0  0  0
  2  7  2  0  0  0
  2  3  1  0  0  0
  3  4  2  0  0  0
  3 35  1  0  0  0
  4  5  1  0  0  0
  4 36  1  0  0  0
  5  6  2  0  0  0
  5  8  1  0  0  0
  6  7  1  0  0  0
  6 37  1  0  0  0
  7 38  1  0  0  0
  8  9  2  0  0  0
  8 10  2  0  0  0
  8 11  1  0  0  0
 11 12  1  0  0  0
 11 13  1  0  0  0
 11 27  1  0  0  0
 13 14  1  0  0  0
 13 39  1  0  0  0
 13 40  1  0  0  0
 14 15  1  0  0  0
 14 41  1  0  0  0
 15 16  2  0  0  0
 15 17  1  0  0  0
 17 18  1  0  0  0
 17 42  1  0  0  0
 18 23  2  0  0  0
 18 19  1  0  0  0
 19 20  2  0  0  0
 19 43  1  0  0  0
 20 21  1  0  0  0
 20 44  1  0  0  0
 21 26  1  0  0  0
 21 22  2  0  0  0
 22 23  1  0  0  0
 22 24  1  0  0  0
 23 45  1  0  0  0
 24 25  1  0  0  0
 25 26  1  0  0  0
 25 46  1  0  0  0
 25 47  1  0  0  0
 27 31  1  0  0  0
 27 28  2  0  0  0
 28 29  1  0  0  0
 28 48  1  0  0  0
 29 30  2  0  0  0
 29 49  1  0  0  0
 30 31  1  0  0  0
 30 50  1  0  0  0
M  END
> <i_i_glide_confnum>
175

> <i_i_glide_lignum>
2264

> <i_i_glide_posenum>
148

> <i_i_glide_rotatable_bonds>
8

> <i_m_Source_File_Index>
5218

> <b_m_subgroup_collapsed>
0

> <r_i_docking_score>
-4.88824

> <r_i_glide_ecoul>
-9.53072

> <r_i_glide_eff_state_penalty>
0

> <r_i_glide_einternal>
3.72921

> <r_i_glide_emodel>
-56.5617

> <r_i_glide_energy>
-43.2822

> <r_i_glide_erotb>
0.708514

> <r_i_glide_esite>
-0.24932

> <r_i_glide_evdw>
-33.7515

> <r_i_glide_gscore>
-4.88824

> <r_i_glide_hbond>
-0.317324

> <r_i_glide_ligand_efficiency>
-0.162941

> <r_i_glide_ligand_efficiency_ln>
-1.11066

> <r_i_glide_ligand_efficiency_sa>
-0.506297

> <r_i_glide_lipo>
-1.52753

> <r_i_glide_metal>
0

> <r_i_glide_rewards>
-0.385397

> <s_i_glide_gridfile>
wee1_glide-grid

> <s_m_Source_File>
wee1_decoys_glide_SP.sdf

> <s_m_Source_Path>
/Users/zhangxujun/Desktop

> <s_m_entry_id>
5493

> <s_m_entry_name>
wee1_decoys_glide_SP.5218

> <s_m_subgroup_title>
wee1_decoys_glide_SP

> <s_m_subgroupid>
wee1_decoys_glide_SP


$$$$
