ZINC67103677_1616
                    3D
 Schrodinger Suite 2024-2.
 48 49  0  0  1  0            999 V2000
    5.7408   54.4967   21.8626 C   0  0  0  0  0  0
    5.0564   53.5041   22.8205 C   0  0  0  0  0  0
    4.9022   54.0967   24.2365 C   0  0  0  0  0  0
    6.2619   54.5633   24.8149 C   0  0  0  0  0  0
    6.8902   55.5909   23.8588 C   0  0  0  0  0  0
    7.0722   55.0262   22.4388 C   0  0  0  0  0  0
    6.1083   55.2077   26.2062 C   0  0  0  0  0  0
    5.9074   54.2322   27.3673 C   0  0  0  0  0  0
    6.6935   53.2967   27.5142 O   0  0  0  0  0  0
    4.8693   54.4967   28.1840 N   0  0  0  0  0  0
    4.6358   53.6584   29.2739 N   0  0  0  0  0  0
    3.5829   52.8102   29.3071 C   0  0  0  0  0  0
    3.3973   52.0971   30.2934 O   0  0  0  0  0  0
    2.7601   52.8063   28.2352 N   0  0  0  0  0  0
    1.4823   52.1081   28.1270 C   0  0  2  0  0  0
    0.9190   52.0752   26.6853 C   0  0  0  0  0  0
   -0.3584   51.2212   26.5752 C   0  0  0  0  0  0
   -1.4356   51.6965   27.5595 C   0  0  2  0  0  0
   -0.8930   51.7142   28.9988 C   0  0  0  0  0  0
    0.3972   52.5364   29.1486 C   0  0  0  0  0  0
   -2.5910   50.8966   27.4809 O   0  0  0  0  0  0
    5.0629   55.3257   21.6710 H   0  0  0  0  0  0
    5.9044   54.0256   20.8931 H   0  0  0  0  0  0
    4.0801   53.2176   22.4264 H   0  0  0  0  0  0
    5.6472   52.5883   22.8720 H   0  0  0  0  0  0
    4.2021   54.9326   24.2006 H   0  0  0  0  0  0
    4.4325   53.3787   24.9109 H   0  0  0  0  0  0
    6.9342   53.7022   24.8556 H   0  0  0  0  0  0
    7.8323   55.9573   24.2660 H   0  0  0  0  0  0
    6.3044   56.4967   23.8251 H   0  0  0  0  0  0
    7.4933   55.7869   21.7807 H   0  0  0  0  0  0
    7.8029   54.2184   22.4817 H   0  0  0  0  0  0
    6.9948   55.7878   26.4580 H   0  0  0  0  0  0
    5.2850   55.9178   26.1367 H   0  0  0  0  0  0
    4.3601   55.3687   28.2151 H   0  0  0  0  0  0
    5.2305   53.8520   30.0655 H   0  0  0  0  0  0
    3.0045   53.3949   27.4531 H   0  0  0  0  0  0
    1.7229   51.0677   28.3665 H   0  0  0  0  0  0
    0.7006   53.0935   26.3631 H   0  0  0  0  0  0
    1.6528   51.6981   25.9779 H   0  0  0  0  0  0
   -0.0975   50.1838   26.7984 H   0  0  0  0  0  0
   -0.7431   51.2275   25.5545 H   0  0  0  0  0  0
   -1.6936   52.7192   27.2816 H   0  0  0  0  0  0
   -0.6588   50.7007   29.3106 H   0  0  0  0  0  0
   -1.6624   52.0669   29.6817 H   0  0  0  0  0  0
    0.7626   52.4315   30.1708 H   0  0  0  0  0  0
    0.1622   53.5931   29.0071 H   0  0  0  0  0  0
   -2.3489   49.9976   27.7617 H   0  0  0  0  0  0
  1  6  1  0  0  0
  1  2  1  0  0  0
  1 22  1  0  0  0
  1 23  1  0  0  0
  2  3  1  0  0  0
  2 24  1  0  0  0
  2 25  1  0  0  0
  3  4  1  0  0  0
  3 26  1  0  0  0
  3 27  1  0  0  0
  4  5  1  0  0  0
  4  7  1  0  0  0
  4 28  1  0  0  0
  5  6  1  0  0  0
  5 29  1  0  0  0
  5 30  1  0  0  0
  6 31  1  0  0  0
  6 32  1  0  0  0
  7  8  1  0  0  0
  7 33  1  0  0  0
  7 34  1  0  0  0
  8  9  2  0  0  0
  8 10  1  0  0  0
 10 11  1  0  0  0
 10 35  1  0  0  0
 11 12  1  0  0  0
 11 36  1  0  0  0
 12 13  2  0  0  0
 12 14  1  0  0  0
 14 15  1  0  0  0
 14 37  1  0  0  0
 15 20  1  0  0  0
 15 16  1  0  0  0
 15 38  1  0  0  0
 16 17  1  0  0  0
 16 39  1  0  0  0
 16 40  1  0  0  0
 17 18  1  0  0  0
 17 41  1  0  0  0
 17 42  1  0  0  0
 18 19  1  0  0  0
 18 21  1  0  0  0
 18 43  1  0  0  0
 19 20  1  0  0  0
 19 44  1  0  0  0
 19 45  1  0  0  0
 20 46  1  0  0  0
 20 47  1  0  0  0
 21 48  1  0  0  0
M  END
> <i_i_glide_confnum>
4

> <i_i_glide_lignum>
1617

> <i_i_glide_posenum>
312

> <i_i_glide_rotatable_bonds>
8

> <i_m_Source_File_Index>
4644

> <b_m_subgroup_collapsed>
0

> <r_i_docking_score>
-4.08724

> <r_i_glide_ecoul>
-4.01663

> <r_i_glide_eff_state_penalty>
0

> <r_i_glide_einternal>
4.20975

> <r_i_glide_emodel>
-47.0797

> <r_i_glide_energy>
-38.2426

> <r_i_glide_erotb>
2.48769

> <r_i_glide_esite>
0

> <r_i_glide_evdw>
-34.226

> <r_i_glide_gscore>
-4.08724

> <r_i_glide_hbond>
-0.417915

> <r_i_glide_ligand_efficiency>
-0.194631

> <r_i_glide_ligand_efficiency_ln>
-1.01056

> <r_i_glide_ligand_efficiency_sa>
-0.536971

> <r_i_glide_lipo>
-1.70903

> <r_i_glide_metal>
0

> <r_i_glide_rewards>
-2.13419

> <s_i_glide_gridfile>
wee1_glide-grid

> <s_m_Source_File>
wee1_decoys_glide_SP.sdf

> <s_m_Source_Path>
/Users/zhangxujun/Desktop

> <s_m_entry_id>
4919

> <s_m_entry_name>
wee1_decoys_glide_SP.4644

> <s_m_subgroup_title>
wee1_decoys_glide_SP

> <s_m_subgroupid>
wee1_decoys_glide_SP


$$$$
