ZINC57744231_2834
                    3D
 Schrodinger Suite 2024-2.
 63 67  0  0  1  0            999 V2000
    5.3481   53.2969   18.9790 C   0  0  0  0  0  0
    4.1375   53.6891   19.8475 C   0  0  2  0  0  0
    3.7239   54.5886   19.3908 H   0  0  0  0  0  0
    4.4935   54.0624   21.2881 C   0  0  0  0  0  0
    3.5159   54.1988   22.2463 N   0  0  0  0  0  0
    2.5352   54.0769   22.0434 H   0  0  0  0  0  0
    4.1438   54.4344   23.4396 C   0  0  0  0  0  0
    3.6853   54.6152   24.7374 C   0  0  0  0  0  0
    4.6533   54.8411   25.7212 C   0  0  0  0  0  0
    6.0126   54.8881   25.4173 C   0  0  0  0  0  0
    6.4611   54.7257   24.1050 C   0  0  0  0  0  0
    5.5143   54.4957   23.1005 C   0  0  0  0  0  0
    5.6923   54.3233   21.7536 N   0  0  0  0  0  0
    3.0345   52.7110   19.8144 N   0  0  0  0  0  0
    3.0286   51.4967   20.4062 C   0  0  0  0  0  0
    4.0525   51.0109   20.8842 O   0  0  0  0  0  0
    1.6939   50.6931   20.4101 C   0  0  0  0  0  0
    1.7642   49.4984   21.4199 C   0  0  0  0  0  0
    1.5597   49.8822   22.9044 C   0  0  0  0  0  0
    0.3294   50.6930   23.0505 N   0  0  0  0  0  0
    0.3096   51.9488   22.2623 C   0  0  0  0  0  0
    0.4801   51.6236   20.7577 C   0  0  0  0  0  0
   -0.7195   50.5007   24.4868 S   0  0  0  0  0  0
   -1.9713   51.2182   24.2154 O   0  0  0  0  0  0
   -0.7234   49.0800   24.8527 O   0  0  0  0  0  0
    0.0206   51.3683   25.8821 C   0  0  0  0  0  0
    1.1046   52.2188   25.7093 C   0  0  0  0  0  0
    1.6284   52.9001   26.8033 C   0  0  0  0  0  0
    1.0692   52.8042   28.0717 C   0  0  0  0  0  0
   -0.0248   51.9349   28.2679 C   0  0  0  0  0  0
   -0.5252   51.2198   27.1648 C   0  0  0  0  0  0
   -0.6937   51.8327   29.6434 C   0  0  0  0  0  0
    0.1127   52.4974   30.7819 C   0  0  0  0  0  0
    0.6556   53.8544   30.3411 C   0  0  0  0  0  0
    1.6705   53.6234   29.2148 C   0  0  0  0  0  0
    6.0477   54.1283   18.8672 H   0  0  0  0  0  0
    5.8992   52.4618   19.4163 H   0  0  0  0  0  0
    5.0344   52.9865   17.9810 H   0  0  0  0  0  0
    2.6285   54.6253   24.9408 H   0  0  0  0  0  0
    4.3426   54.9914   26.7455 H   0  0  0  0  0  0
    6.7183   55.0589   26.2121 H   0  0  0  0  0  0
    7.5049   54.7716   23.8602 H   0  0  0  0  0  0
    2.1724   53.0441   19.4107 H   0  0  0  0  0  0
    1.6386   50.3676   19.3699 H   0  0  0  0  0  0
    1.0271   48.7589   21.1065 H   0  0  0  0  0  0
    2.6673   48.9046   21.2642 H   0  0  0  0  0  0
    1.5011   49.0047   23.5486 H   0  0  0  0  0  0
    2.4068   50.4820   23.2360 H   0  0  0  0  0  0
   -0.6124   52.4953   22.4614 H   0  0  0  0  0  0
    1.1489   52.5680   22.5776 H   0  0  0  0  0  0
    0.4615   52.5188   20.1356 H   0  0  0  0  0  0
   -0.4176   51.1430   20.3666 H   0  0  0  0  0  0
    1.5699   52.3373   24.7457 H   0  0  0  0  0  0
    2.5007   53.5160   26.7014 H   0  0  0  0  0  0
   -1.3654   50.5515   27.3054 H   0  0  0  0  0  0
   -1.6688   52.3031   29.5655 H   0  0  0  0  0  0
   -0.9059   50.8010   29.8999 H   0  0  0  0  0  0
    0.9393   51.8513   31.0811 H   0  0  0  0  0  0
   -0.4896   52.6284   31.6815 H   0  0  0  0  0  0
    1.1060   54.3742   31.1852 H   0  0  0  0  0  0
   -0.1561   54.4954   29.9972 H   0  0  0  0  0  0
    2.5369   53.0900   29.6078 H   0  0  0  0  0  0
    2.0396   54.5839   28.8471 H   0  0  0  0  0  0
  1  2  1  0  0  0
  1 36  1  0  0  0
  1 37  1  0  0  0
  1 38  1  0  0  0
  2  3  1  0  0  0
  2  4  1  0  0  0
  2 14  1  0  0  0
  4 13  2  0  0  0
  4  5  1  0  0  0
  5  6  1  0  0  0
  5  7  1  0  0  0
  7 12  2  0  0  0
  7  8  1  0  0  0
  8  9  2  0  0  0
  8 39  1  0  0  0
  9 10  1  0  0  0
  9 40  1  0  0  0
 10 11  2  0  0  0
 10 41  1  0  0  0
 11 12  1  0  0  0
 11 42  1  0  0  0
 12 13  1  0  0  0
 14 15  1  0  0  0
 14 43  1  0  0  0
 15 16  2  0  0  0
 15 17  1  0  0  0
 17 22  1  0  0  0
 17 18  1  0  0  0
 17 44  1  0  0  0
 18 19  1  0  0  0
 18 45  1  0  0  0
 18 46  1  0  0  0
 19 20  1  0  0  0
 19 47  1  0  0  0
 19 48  1  0  0  0
 20 21  1  0  0  0
 20 23  1  0  0  0
 21 22  1  0  0  0
 21 49  1  0  0  0
 21 50  1  0  0  0
 22 51  1  0  0  0
 22 52  1  0  0  0
 23 24  2  0  0  0
 23 25  2  0  0  0
 23 26  1  0  0  0
 26 31  2  0  0  0
 26 27  1  0  0  0
 27 28  2  0  0  0
 27 53  1  0  0  0
 28 29  1  0  0  0
 28 54  1  0  0  0
 29 35  1  0  0  0
 29 30  2  0  0  0
 30 31  1  0  0  0
 30 32  1  0  0  0
 31 55  1  0  0  0
 32 33  1  0  0  0
 32 56  1  0  0  0
 32 57  1  0  0  0
 33 34  1  0  0  0
 33 58  1  0  0  0
 33 59  1  0  0  0
 34 35  1  0  0  0
 34 60  1  0  0  0
 34 61  1  0  0  0
 35 62  1  0  0  0
 35 63  1  0  0  0
M  END
> <i_i_glide_confnum>
463

> <i_i_glide_lignum>
2835

> <i_i_glide_posenum>
305

> <i_i_glide_rotatable_bonds>
6

> <i_m_Source_File_Index>
5953

> <b_m_subgroup_collapsed>
0

> <r_i_docking_score>
-3.39506

> <r_i_glide_ecoul>
-3.86759

> <r_i_glide_eff_state_penalty>
0

> <r_i_glide_einternal>
7.45188

> <r_i_glide_emodel>
-49.3776

> <r_i_glide_energy>
-47.589

> <r_i_glide_erotb>
0.463362

> <r_i_glide_esite>
-0.103249

> <r_i_glide_evdw>
-43.7214

> <r_i_glide_gscore>
-3.39506

> <r_i_glide_hbond>
-0.0343354

> <r_i_glide_ligand_efficiency>
-0.10288

> <r_i_glide_ligand_efficiency_ln>
-0.755043

> <r_i_glide_ligand_efficiency_sa>
-0.329993

> <r_i_glide_lipo>
-2.42404

> <r_i_glide_metal>
0

> <r_i_glide_rewards>
1.46942

> <s_i_glide_gridfile>
wee1_glide-grid

> <s_m_Source_File>
wee1_decoys_glide_SP.sdf

> <s_m_Source_Path>
/Users/zhangxujun/Desktop

> <s_m_entry_id>
6228

> <s_m_entry_name>
wee1_decoys_glide_SP.5953

> <s_m_subgroup_title>
wee1_decoys_glide_SP

> <s_m_subgroupid>
wee1_decoys_glide_SP


$$$$
