ZINC09489953_6131
                    3D
 Schrodinger Suite 2024-2.
 56 60  0  0  1  0            999 V2000
    2.4542   55.4421   29.2817 C   0  0  0  0  0  0
    3.1682   54.0707   29.2552 C   0  0  1  0  0  0
    3.3688   53.7997   30.2914 H   0  0  0  0  0  0
    2.3077   52.9260   28.6771 C   0  0  0  0  0  0
    1.8834   53.2174   27.2202 C   0  0  0  0  0  0
    3.0951   53.6996   26.4109 C   0  0  0  0  0  0
    4.2967   54.0808   27.0329 C   0  0  0  0  0  0
    5.5212   54.4944   25.8866 S   0  0  0  0  0  0
    4.4333   54.1778   24.5545 C   0  0  0  0  0  0
    3.1616   53.7966   25.0046 C   0  0  0  0  0  0
    2.0253   53.5292   24.1255 C   0  0  0  0  0  0
    1.1250   53.3212   23.4308 N   0  0  0  0  0  0
    4.7995   54.3769   23.2234 N   0  0  0  0  0  0
    6.0456   54.4908   22.7146 C   0  0  0  0  0  0
    7.0883   54.2776   23.3350 O   0  0  0  0  0  0
    6.0718   54.9002   21.3294 C   0  0  0  0  0  0
    5.0650   54.6843   20.3679 C   0  0  0  0  0  0
    5.4912   55.3022   19.2122 C   0  0  0  0  0  0
    6.7469   55.7928   19.5044 N   0  0  0  0  0  0
    7.1033   55.5039   20.7677 N   0  0  0  0  0  0
    7.6803   56.3919   18.5473 C   0  0  2  0  0  0
    8.2726   57.1422   19.0733 H   0  0  0  0  0  0
    6.8009   57.1016   17.4865 C   0  0  0  0  0  0
    5.6495   56.2138   16.9387 C   0  0  1  0  0  0
    6.1059   55.3976   16.3752 H   0  0  0  0  0  0
    4.8788   55.5486   17.9984 N   0  0  0  0  0  0
    4.7838   56.9465   15.9144 C   0  0  0  0  0  0
    4.0570   58.0819   16.2902 C   0  0  0  0  0  0
    3.2832   58.7630   15.3554 C   0  0  0  0  0  0
    3.2278   58.3033   14.0408 C   0  0  0  0  0  0
    3.9468   57.1732   13.6555 C   0  0  0  0  0  0
    4.7281   56.4959   14.5908 C   0  0  0  0  0  0
    2.2656   59.1437   12.8788 Cl  0  0  0  0  0  0
    8.6828   55.3710   17.9484 C   0  0  0  0  0  0
    9.4462   55.9398   17.0152 F   0  0  0  0  0  0
    9.5003   54.8957   18.8816 F   0  0  0  0  0  0
    8.0814   54.3266   17.3789 F   0  0  0  0  0  0
    4.5397   54.0967   28.5389 C   0  0  0  0  0  0
    2.1598   55.7710   28.2860 H   0  0  0  0  0  0
    1.5558   55.4084   29.8988 H   0  0  0  0  0  0
    3.0999   56.2230   29.6817 H   0  0  0  0  0  0
    1.4029   52.7992   29.2733 H   0  0  0  0  0  0
    2.8524   51.9802   28.7202 H   0  0  0  0  0  0
    1.4438   52.3200   26.7818 H   0  0  0  0  0  0
    1.1033   53.9766   27.2050 H   0  0  0  0  0  0
    4.0440   54.3733   22.5556 H   0  0  0  0  0  0
    4.1103   54.1952   20.5004 H   0  0  0  0  0  0
    6.4085   58.0282   17.9106 H   0  0  0  0  0  0
    7.4212   57.4385   16.6535 H   0  0  0  0  0  0
    4.2156   54.8827   17.6279 H   0  0  0  0  0  0
    4.1011   58.4530   17.3017 H   0  0  0  0  0  0
    2.7421   59.6503   15.6544 H   0  0  0  0  0  0
    3.9034   56.8235   12.6345 H   0  0  0  0  0  0
    5.2861   55.6247   14.2800 H   0  0  0  0  0  0
    5.1159   54.9737   28.8372 H   0  0  0  0  0  0
    5.1311   53.2301   28.8404 H   0  0  0  0  0  0
  1  2  1  0  0  0
  1 39  1  0  0  0
  1 40  1  0  0  0
  1 41  1  0  0  0
  2  3  1  0  0  0
  2 38  1  0  0  0
  2  4  1  0  0  0
  4  5  1  0  0  0
  4 42  1  0  0  0
  4 43  1  0  0  0
  5  6  1  0  0  0
  5 44  1  0  0  0
  5 45  1  0  0  0
  6 10  1  0  0  0
  6  7  2  0  0  0
  7  8  1  0  0  0
  7 38  1  0  0  0
  8  9  1  0  0  0
  9 10  2  0  0  0
  9 13  1  0  0  0
 10 11  1  0  0  0
 11 12  3  0  0  0
 13 14  1  0  0  0
 13 46  1  0  0  0
 14 15  2  0  0  0
 14 16  1  0  0  0
 16 20  2  0  0  0
 16 17  1  0  0  0
 17 18  2  0  0  0
 17 47  1  0  0  0
 18 26  1  0  0  0
 18 19  1  0  0  0
 19 20  1  0  0  0
 19 21  1  0  0  0
 21 22  1  0  0  0
 21 23  1  0  0  0
 21 34  1  0  0  0
 23 24  1  0  0  0
 23 48  1  0  0  0
 23 49  1  0  0  0
 24 25  1  0  0  0
 24 26  1  0  0  0
 24 27  1  0  0  0
 26 50  1  0  0  0
 27 32  2  0  0  0
 27 28  1  0  0  0
 28 29  2  0  0  0
 28 51  1  0  0  0
 29 30  1  0  0  0
 29 52  1  0  0  0
 30 31  2  0  0  0
 30 33  1  0  0  0
 31 32  1  0  0  0
 31 53  1  0  0  0
 32 54  1  0  0  0
 34 35  1  0  0  0
 34 36  1  0  0  0
 34 37  1  0  0  0
 38 55  1  0  0  0
 38 56  1  0  0  0
M  END
> <i_i_glide_confnum>
95

> <i_i_glide_lignum>
6132

> <i_i_glide_posenum>
250

> <i_i_glide_rotatable_bonds>
6

> <i_m_Source_File_Index>
339

> <b_m_subgroup_collapsed>
0

> <r_i_docking_score>
-5.68993

> <r_i_glide_ecoul>
-0.397924

> <r_i_glide_eff_state_penalty>
0

> <r_i_glide_einternal>
4.00564

> <r_i_glide_emodel>
-63.4999

> <r_i_glide_energy>
-47.1477

> <r_i_glide_erotb>
0.304002

> <r_i_glide_esite>
-0.0240302

> <r_i_glide_evdw>
-46.7498

> <r_i_glide_gscore>
-5.68993

> <r_i_glide_hbond>
0

> <r_i_glide_ligand_efficiency>
-0.162569

> <r_i_glide_ligand_efficiency_ln>
-1.24907

> <r_i_glide_ligand_efficiency_sa>
-0.531775

> <r_i_glide_lipo>
-2.63744

> <r_i_glide_metal>
0

> <r_i_glide_rewards>
-0.93528

> <s_i_glide_gridfile>
wee1_glide-grid

> <s_m_Source_File>
wee1_decoys_glide_SP.sdf

> <s_m_Source_Path>
/Users/zhangxujun/Desktop

> <s_m_entry_id>
614

> <s_m_entry_name>
wee1_decoys_glide_SP.339

> <s_m_subgroup_title>
wee1_decoys_glide_SP

> <s_m_subgroupid>
wee1_decoys_glide_SP


$$$$
