ZINC39694201_901
                    3D
 Schrodinger Suite 2024-2.
 77 81  0  0  1  0            999 V2000
   11.3533   51.8079   16.2171 C   0  0  0  0  0  0
    9.9104   52.2772   15.9288 C   0  0  0  0  0  0
    8.9092   51.3016   16.5864 C   0  0  0  0  0  0
    9.6864   53.7650   16.3373 C   0  0  2  0  0  0
    9.8554   53.8160   17.4108 H   0  0  0  0  0  0
    8.2771   54.2928   15.9269 C   0  0  0  0  0  0
    8.0053   54.3702   14.7257 O   0  0  0  0  0  0
    7.3963   54.7006   16.8731 N   0  0  0  0  0  0
    7.6007   54.6483   18.3177 C   0  0  0  0  0  0
    6.2013   54.9626   18.8861 C   0  0  2  0  0  0
    5.6644   54.0117   18.9402 H   0  0  0  0  0  0
    5.5649   55.9127   17.8285 C   0  0  0  0  0  0
    6.0810   55.2429   16.5291 C   0  0  0  0  0  0
    4.0234   55.9884   17.9213 C   0  0  0  0  0  0
    3.4139   56.7725   16.7339 C   0  0  0  0  0  0
    4.0057   58.2034   16.7149 N   0  3  0  0  0  0
    5.5490   58.2551   16.7514 C   0  0  0  0  0  0
    6.0402   57.3955   17.9319 C   0  0  0  0  0  0
    6.4435   55.4838   20.3264 C   0  0  0  0  0  0
    7.1046   56.4976   20.5372 O   0  0  0  0  0  0
    5.9843   54.7132   21.3229 N   0  0  0  0  0  0
    6.3309   54.8859   22.7397 C   0  0  0  0  0  0
    5.2470   54.4968   23.7433 C   0  0  0  0  0  0
    5.5469   54.5484   25.1075 C   0  0  0  0  0  0
    4.5912   54.1868   26.0544 C   0  0  0  0  0  0
    3.3346   53.7434   25.6458 C   0  0  0  0  0  0
    3.0119   53.6784   24.2808 C   0  0  0  0  0  0
    3.9666   54.0926   23.3400 C   0  0  0  0  0  0
    1.7771   53.1157   23.8564 N   0  0  0  0  0  0
    1.4695   52.6135   22.6028 C   0  0  0  0  0  0
    0.1847   52.0950   22.5897 C   0  0  0  0  0  0
   -0.3414   52.2877   23.8630 C   0  0  0  0  0  0
    0.6440   52.9030   24.6187 C   0  0  0  0  0  0
   10.6834   54.5409   15.6448 O   0  0  0  0  0  0
   10.9102   55.8615   15.9879 C   0  0  0  0  0  0
   11.3659   56.7069   14.9753 C   0  0  0  0  0  0
   11.6157   58.0524   15.2382 C   0  0  0  0  0  0
   11.4201   58.5504   16.5254 C   0  0  0  0  0  0
   10.9843   57.7128   17.5500 C   0  0  0  0  0  0
   10.7327   56.3706   17.2814 C   0  0  0  0  0  0
   11.5849   51.8590   17.2810 H   0  0  0  0  0  0
   11.5073   50.7765   15.8946 H   0  0  0  0  0  0
   12.0870   52.4172   15.6887 H   0  0  0  0  0  0
    9.7699   52.2028   14.8481 H   0  0  0  0  0  0
    8.9857   51.3223   17.6723 H   0  0  0  0  0  0
    7.8772   51.5284   16.3196 H   0  0  0  0  0  0
    9.1028   50.2763   16.2687 H   0  0  0  0  0  0
    7.9737   53.6926   18.6796 H   0  0  0  0  0  0
    8.3009   55.4523   18.5518 H   0  0  0  0  0  0
    6.0507   55.8768   15.6457 H   0  0  0  0  0  0
    5.4365   54.3898   16.3105 H   0  0  0  0  0  0
    3.6125   54.9771   17.8884 H   0  0  0  0  0  0
    3.7057   56.3868   18.8810 H   0  0  0  0  0  0
    3.6398   56.3276   15.7631 H   0  0  0  0  0  0
    2.3327   56.8879   16.8240 H   0  0  0  0  0  0
    3.6724   58.7194   15.9096 H   0  0  0  0  0  0
    5.9106   57.9358   15.7742 H   0  0  0  0  0  0
    5.8171   59.3007   16.8803 H   0  0  0  0  0  0
    5.7488   57.8527   18.8774 H   0  0  0  0  0  0
    7.1305   57.4315   17.9179 H   0  0  0  0  0  0
    5.5262   53.8490   21.0811 H   0  0  0  0  0  0
    7.1975   54.2515   22.9348 H   0  0  0  0  0  0
    6.6871   55.8948   22.9642 H   0  0  0  0  0  0
    6.5267   54.8617   25.4374 H   0  0  0  0  0  0
    4.8359   54.2191   27.1058 H   0  0  0  0  0  0
    2.6403   53.4159   26.4049 H   0  0  0  0  0  0
    3.7271   54.0707   22.2885 H   0  0  0  0  0  0
    2.1985   52.6376   21.8079 H   0  0  0  0  0  0
   -0.3115   51.6282   21.7512 H   0  0  0  0  0  0
   -1.3253   51.9981   24.2044 H   0  0  0  0  0  0
    0.6226   53.2034   25.6540 H   0  0  0  0  0  0
   11.5161   56.3146   13.9802 H   0  0  0  0  0  0
   11.9605   58.7062   14.4497 H   0  0  0  0  0  0
   11.6186   59.5914   16.7322 H   0  0  0  0  0  0
   10.8522   58.0950   18.5513 H   0  0  0  0  0  0
   10.4322   55.7391   18.0998 H   0  0  0  0  0  0
    3.6556   58.7160   17.5150 H   0  0  0  0  0  0
  1  2  1  0  0  0
  1 41  1  0  0  0
  1 42  1  0  0  0
  1 43  1  0  0  0
  2  3  1  0  0  0
  2  4  1  0  0  0
  2 44  1  0  0  0
  3 45  1  0  0  0
  3 46  1  0  0  0
  3 47  1  0  0  0
  4  5  1  0  0  0
  4  6  1  0  0  0
  4 34  1  0  0  0
  6  7  2  0  0  0
  6  8  1  0  0  0
  8 13  1  0  0  0
  8  9  1  0  0  0
  9 10  1  0  0  0
  9 48  1  0  0  0
  9 49  1  0  0  0
 10 11  1  0  0  0
 10 12  1  0  0  0
 10 19  1  0  0  0
 12 18  1  0  0  0
 12 13  1  0  0  0
 12 14  1  0  0  0
 13 50  1  0  0  0
 13 51  1  0  0  0
 14 15  1  0  0  0
 14 52  1  0  0  0
 14 53  1  0  0  0
 15 16  1  0  0  0
 15 54  1  0  0  0
 15 55  1  0  0  0
 16 17  1  0  0  0
 16 56  1  0  0  0
 16 77  1  0  0  0
 17 18  1  0  0  0
 17 57  1  0  0  0
 17 58  1  0  0  0
 18 59  1  0  0  0
 18 60  1  0  0  0
 19 20  2  0  0  0
 19 21  1  0  0  0
 21 22  1  0  0  0
 21 61  1  0  0  0
 22 23  1  0  0  0
 22 62  1  0  0  0
 22 63  1  0  0  0
 23 28  2  0  0  0
 23 24  1  0  0  0
 24 25  2  0  0  0
 24 64  1  0  0  0
 25 26  1  0  0  0
 25 65  1  0  0  0
 26 27  2  0  0  0
 26 66  1  0  0  0
 27 28  1  0  0  0
 27 29  1  0  0  0
 28 67  1  0  0  0
 29 33  1  0  0  0
 29 30  1  0  0  0
 30 31  2  0  0  0
 30 68  1  0  0  0
 31 32  1  0  0  0
 31 69  1  0  0  0
 32 33  2  0  0  0
 32 70  1  0  0  0
 33 71  1  0  0  0
 34 35  1  0  0  0
 35 40  2  0  0  0
 35 36  1  0  0  0
 36 37  2  0  0  0
 36 72  1  0  0  0
 37 38  1  0  0  0
 37 73  1  0  0  0
 38 39  2  0  0  0
 38 74  1  0  0  0
 39 40  1  0  0  0
 39 75  1  0  0  0
 40 76  1  0  0  0
M  CHG  1  16   1
M  END
> <i_i_glide_confnum>
353

> <i_i_glide_lignum>
902

> <i_i_glide_posenum>
156

> <i_i_glide_rotatable_bonds>
10

> <i_m_Source_File_Index>
6011

> <b_m_subgroup_collapsed>
0

> <r_i_docking_score>
-5.32379

> <r_i_glide_ecoul>
-6.12019

> <r_i_glide_eff_state_penalty>
0

> <r_i_glide_einternal>
15.0548

> <r_i_glide_emodel>
-54.104

> <r_i_glide_energy>
-41.8385

> <r_i_glide_erotb>
0.617365

> <r_i_glide_esite>
-0.0543738

> <r_i_glide_evdw>
-35.7183

> <r_i_glide_gscore>
-5.32379

> <r_i_glide_hbond>
-0.277057

> <r_i_glide_ligand_efficiency>
-0.1401

> <r_i_glide_ligand_efficiency_ln>
-1.14797

> <r_i_glide_ligand_efficiency_sa>
-0.471012

> <r_i_glide_lipo>
-2.47889

> <r_i_glide_metal>
0

> <r_i_glide_rewards>
-0.426888

> <s_i_glide_gridfile>
wee1_glide-grid

> <s_m_Source_File>
wee1_decoys_glide_SP.sdf

> <s_m_Source_Path>
/Users/zhangxujun/Desktop

> <s_m_entry_id>
6286

> <s_m_entry_name>
wee1_decoys_glide_SP.6011

> <s_m_subgroup_title>
wee1_decoys_glide_SP

> <s_m_subgroupid>
wee1_decoys_glide_SP


$$$$
