ZINC12955759_2853
                    3D
 Schrodinger Suite 2024-2.
 45 47  0  0  1  0            999 V2000
    6.1140   53.3466   22.8824 C   0  0  0  0  0  0
    4.7215   53.6968   23.1135 N   0  0  0  0  0  0
    3.6440   53.4077   22.3017 C   0  0  0  0  0  0
    2.5522   53.9371   22.9755 C   0  0  0  0  0  0
    2.8981   54.4965   24.1167 N   0  0  0  0  0  0
    4.1983   54.3261   24.2248 C   0  0  0  0  0  0
    5.1746   54.8968   25.5944 S   0  0  0  0  0  0
    4.3013   54.2522   27.0012 C   0  0  0  0  0  0
    4.9714   53.5291   27.9995 C   0  0  0  0  0  0
    4.2167   52.9909   29.0479 C   0  0  0  0  0  0
    2.8332   53.2094   29.1034 C   0  0  0  0  0  0
    2.2576   53.9835   28.0948 C   0  0  0  0  0  0
    2.9688   54.4966   27.0657 N   0  0  0  0  0  0
    1.9570   52.6359   30.2094 C   0  0  0  0  0  0
    2.6800   52.0967   31.1930 F   0  0  0  0  0  0
    1.1829   53.5913   30.7260 F   0  0  0  0  0  0
    1.1762   51.6967   29.6815 F   0  0  0  0  0  0
    6.6874   53.2966   27.9741 Cl  0  0  0  0  0  0
    3.7465   52.7249   21.0958 N   0  0  0  0  0  0
    2.7728   51.9441   20.5780 C   0  0  0  0  0  0
    1.7001   51.6971   21.1400 O   0  0  0  0  0  0
    3.1044   51.5009   19.3473 N   0  0  0  0  0  0
    2.1646   50.8995   18.4758 N   0  0  0  0  0  0
    1.3638   51.6818   17.6247 C   0  0  0  0  0  0
    0.9964   51.2149   16.3529 C   0  0  0  0  0  0
    0.1954   52.0249   15.5443 C   0  0  0  0  0  0
   -0.2243   53.2790   16.0030 C   0  0  0  0  0  0
    0.1816   53.6720   17.2814 C   0  0  0  0  0  0
    0.9505   52.8961   18.0819 N   0  0  0  0  0  0
   -1.1166   54.1694   15.1445 C   0  0  0  0  0  0
   -0.3682   54.7959   14.2372 F   0  0  0  0  0  0
   -1.7521   55.0857   15.8794 F   0  0  0  0  0  0
   -2.0347   53.4377   14.5108 F   0  0  0  0  0  0
    1.4964   49.6671   15.7600 Cl  0  0  0  0  0  0
    6.6686   53.3326   23.8199 H   0  0  0  0  0  0
    6.1679   52.3533   22.4417 H   0  0  0  0  0  0
    6.5563   54.0965   22.2250 H   0  0  0  0  0  0
    1.5260   53.9128   22.6381 H   0  0  0  0  0  0
    4.7044   52.3983   29.8062 H   0  0  0  0  0  0
    1.1967   54.1907   28.0860 H   0  0  0  0  0  0
    4.5956   52.8481   20.5653 H   0  0  0  0  0  0
    3.9672   51.7517   18.8820 H   0  0  0  0  0  0
    2.6198   50.1186   18.0087 H   0  0  0  0  0  0
   -0.0975   51.6759   14.5640 H   0  0  0  0  0  0
   -0.0993   54.6314   17.6899 H   0  0  0  0  0  0
  1  2  1  0  0  0
  1 35  1  0  0  0
  1 36  1  0  0  0
  1 37  1  0  0  0
  2  6  1  0  0  0
  2  3  1  0  0  0
  3  4  2  0  0  0
  3 19  1  0  0  0
  4  5  1  0  0  0
  4 38  1  0  0  0
  5  6  2  0  0  0
  6  7  1  0  0  0
  7  8  1  0  0  0
  8 13  2  0  0  0
  8  9  1  0  0  0
  9 10  2  0  0  0
  9 18  1  0  0  0
 10 11  1  0  0  0
 10 39  1  0  0  0
 11 12  2  0  0  0
 11 14  1  0  0  0
 12 13  1  0  0  0
 12 40  1  0  0  0
 14 15  1  0  0  0
 14 16  1  0  0  0
 14 17  1  0  0  0
 19 20  1  0  0  0
 19 41  1  0  0  0
 20 21  2  0  0  0
 20 22  1  0  0  0
 22 23  1  0  0  0
 22 42  1  0  0  0
 23 24  1  0  0  0
 23 43  1  0  0  0
 24 29  2  0  0  0
 24 25  1  0  0  0
 25 26  2  0  0  0
 25 34  1  0  0  0
 26 27  1  0  0  0
 26 44  1  0  0  0
 27 28  2  0  0  0
 27 30  1  0  0  0
 28 29  1  0  0  0
 28 45  1  0  0  0
 30 31  1  0  0  0
 30 32  1  0  0  0
 30 33  1  0  0  0
M  END
> <i_i_glide_confnum>
61

> <i_i_glide_lignum>
2854

> <i_i_glide_posenum>
123

> <i_i_glide_rotatable_bonds>
9

> <i_m_Source_File_Index>
4223

> <b_m_subgroup_collapsed>
0

> <r_i_docking_score>
-5.25401

> <r_i_glide_ecoul>
-2.2033

> <r_i_glide_eff_state_penalty>
0

> <r_i_glide_einternal>
2.52517

> <r_i_glide_emodel>
-59.7055

> <r_i_glide_energy>
-44.1507

> <r_i_glide_erotb>
0.485771

> <r_i_glide_esite>
-0.238784

> <r_i_glide_evdw>
-41.9474

> <r_i_glide_gscore>
-5.25401

> <r_i_glide_hbond>
-0.123769

> <r_i_glide_ligand_efficiency>
-0.15453

> <r_i_glide_ligand_efficiency_ln>
-1.16076

> <r_i_glide_ligand_efficiency_sa>
-0.500617

> <r_i_glide_lipo>
-2.33716

> <r_i_glide_metal>
0

> <r_i_glide_rewards>
-0.61221

> <s_i_glide_gridfile>
wee1_glide-grid

> <s_m_Source_File>
wee1_decoys_glide_SP.sdf

> <s_m_Source_Path>
/Users/zhangxujun/Desktop

> <s_m_entry_id>
4498

> <s_m_entry_name>
wee1_decoys_glide_SP.4223

> <s_m_subgroup_title>
wee1_decoys_glide_SP

> <s_m_subgroupid>
wee1_decoys_glide_SP


$$$$
