ZINC32961942_5795
                    3D
 Schrodinger Suite 2024-2.
 60 63  0  0  1  0            999 V2000
   -0.4176   48.6203   25.6424 C   0  0  0  0  0  0
   -0.5079   50.0620   25.1704 C   0  0  0  0  0  0
    0.1716   51.0366   25.9091 C   0  0  0  0  0  0
    0.1538   52.3719   25.5152 C   0  0  0  0  0  0
   -0.5681   52.7502   24.3863 C   0  0  0  0  0  0
   -1.2483   51.7913   23.6400 C   0  0  0  0  0  0
   -1.2216   50.4428   24.0157 C   0  0  0  0  0  0
   -2.0617   49.2630   22.9450 S   0  0  0  0  0  0
   -2.6972   48.2251   23.7667 O   0  0  0  0  0  0
   -2.8482   50.0232   21.9654 O   0  0  0  0  0  0
   -0.7518   48.4960   22.0499 N   0  0  0  0  0  0
   -1.0187   47.6199   20.9864 C   0  0  0  0  0  0
   -1.6710   46.4066   21.2254 C   0  0  0  0  0  0
   -1.8437   45.4622   20.1993 C   0  0  0  0  0  0
   -1.4416   45.8051   18.9005 C   0  0  0  0  0  0
   -0.8087   47.0209   18.6504 C   0  0  0  0  0  0
   -0.5345   47.9040   19.6972 C   0  0  0  0  0  0
    0.2254   49.0351   19.4740 N   0  0  0  0  0  0
   -0.3612   50.3384   19.1750 C   0  0  0  0  0  0
    0.4833   51.5264   19.7215 C   0  0  0  0  0  0
    1.8778   51.2159   20.0893 N   0  0  0  0  0  0
    2.4607   50.2126   19.1911 C   0  0  0  0  0  0
    1.6171   48.9305   19.0229 C   0  0  0  0  0  0
    2.6625   52.0798   20.8423 C   0  0  0  0  0  0
    2.1985   52.5377   22.0763 C   0  0  0  0  0  0
    2.9923   53.3510   22.8800 C   0  0  0  0  0  0
    4.2686   53.7262   22.4624 C   0  0  0  0  0  0
    4.7211   53.3051   21.2040 C   0  0  0  0  0  0
    3.9302   52.4844   20.4061 C   0  0  0  0  0  0
    5.0057   54.4914   23.3420 O   0  0  0  0  0  0
    6.3472   54.8319   23.0063 C   0  0  0  0  0  0
   -2.3794   44.0970   20.4992 C   0  0  0  0  0  0
   -2.2978   43.6962   21.6836 O   0  0  0  0  0  0
   -2.8160   43.4046   19.5503 O   0  5  0  0  0  0
   -0.1776   47.9502   24.8170 H   0  0  0  0  0  0
    0.3646   48.4968   26.3916 H   0  0  0  0  0  0
   -1.3632   48.2985   26.0811 H   0  0  0  0  0  0
    0.7247   50.7580   26.7942 H   0  0  0  0  0  0
    0.6968   53.1072   26.0881 H   0  0  0  0  0  0
   -0.5824   53.7850   24.0806 H   0  0  0  0  0  0
   -1.7785   52.1041   22.7529 H   0  0  0  0  0  0
    0.0120   49.1262   21.8499 H   0  0  0  0  0  0
   -1.9828   46.1716   22.2362 H   0  0  0  0  0  0
   -1.5764   45.1116   18.0848 H   0  0  0  0  0  0
   -0.4659   47.2463   17.6508 H   0  0  0  0  0  0
   -0.3271   50.3779   18.0836 H   0  0  0  0  0  0
   -1.4189   50.4132   19.4368 H   0  0  0  0  0  0
    0.0070   51.7793   20.6677 H   0  0  0  0  0  0
    0.4072   52.3801   19.0454 H   0  0  0  0  0  0
    3.5045   49.9744   19.3963 H   0  0  0  0  0  0
    2.4675   50.7224   18.2247 H   0  0  0  0  0  0
    2.0536   48.2062   19.7123 H   0  0  0  0  0  0
    1.7180   48.5566   18.0014 H   0  0  0  0  0  0
    1.2323   52.2263   22.4356 H   0  0  0  0  0  0
    2.6290   53.6689   23.8462 H   0  0  0  0  0  0
    5.6898   53.5934   20.8285 H   0  0  0  0  0  0
    4.3065   52.1617   19.4456 H   0  0  0  0  0  0
    6.7794   55.4312   23.8080 H   0  0  0  0  0  0
    6.9654   53.9395   22.8911 H   0  0  0  0  0  0
    6.3934   55.4264   22.0921 H   0  0  0  0  0  0
  1  2  1  0  0  0
  1 35  1  0  0  0
  1 36  1  0  0  0
  1 37  1  0  0  0
  2  7  2  0  0  0
  2  3  1  0  0  0
  3  4  2  0  0  0
  3 38  1  0  0  0
  4  5  1  0  0  0
  4 39  1  0  0  0
  5  6  2  0  0  0
  5 40  1  0  0  0
  6  7  1  0  0  0
  6 41  1  0  0  0
  7  8  1  0  0  0
  8  9  2  0  0  0
  8 10  2  0  0  0
  8 11  1  0  0  0
 11 12  1  0  0  0
 11 42  1  0  0  0
 12 17  2  0  0  0
 12 13  1  0  0  0
 13 14  2  0  0  0
 13 43  1  0  0  0
 14 15  1  0  0  0
 14 32  1  0  0  0
 15 16  2  0  0  0
 15 44  1  0  0  0
 16 17  1  0  0  0
 16 45  1  0  0  0
 17 18  1  0  0  0
 18 23  1  0  0  0
 18 19  1  0  0  0
 19 20  1  0  0  0
 19 46  1  0  0  0
 19 47  1  0  0  0
 20 21  1  0  0  0
 20 48  1  0  0  0
 20 49  1  0  0  0
 21 22  1  0  0  0
 21 24  1  0  0  0
 22 23  1  0  0  0
 22 50  1  0  0  0
 22 51  1  0  0  0
 23 52  1  0  0  0
 23 53  1  0  0  0
 24 29  2  0  0  0
 24 25  1  0  0  0
 25 26  2  0  0  0
 25 54  1  0  0  0
 26 27  1  0  0  0
 26 55  1  0  0  0
 27 28  2  0  0  0
 27 30  1  0  0  0
 28 29  1  0  0  0
 28 56  1  0  0  0
 29 57  1  0  0  0
 30 31  1  0  0  0
 31 58  1  0  0  0
 31 59  1  0  0  0
 31 60  1  0  0  0
 32 33  2  0  0  0
 32 34  1  0  0  0
M  CHG  1  34  -1
M  END
> <i_i_glide_confnum>
442

> <i_i_glide_lignum>
5796

> <i_i_glide_posenum>
148

> <i_i_glide_rotatable_bonds>
7

> <i_m_Source_File_Index>
393

> <b_m_subgroup_collapsed>
0

> <r_i_docking_score>
-0.0411971

> <r_i_glide_ecoul>
-2.34496

> <r_i_glide_eff_state_penalty>
0

> <r_i_glide_einternal>
5.98704

> <r_i_glide_emodel>
-22.4598

> <r_i_glide_energy>
-33.2582

> <r_i_glide_erotb>
0.439083

> <r_i_glide_esite>
-0.0649937

> <r_i_glide_evdw>
-30.9132

> <r_i_glide_gscore>
-0.0411971

> <r_i_glide_hbond>
-0.2

> <r_i_glide_ligand_efficiency>
-0.00121168

> <r_i_glide_ligand_efficiency_ln>
-0.0091016

> <r_i_glide_ligand_efficiency_sa>
-0.00392537

> <r_i_glide_lipo>
-0.960649

> <r_i_glide_metal>
0

> <r_i_glide_rewards>
2.64277

> <s_i_glide_gridfile>
wee1_glide-grid

> <s_m_Source_File>
wee1_decoys_glide_SP.sdf

> <s_m_Source_Path>
/Users/zhangxujun/Desktop

> <s_m_entry_id>
668

> <s_m_entry_name>
wee1_decoys_glide_SP.393

> <s_m_subgroup_title>
wee1_decoys_glide_SP

> <s_m_subgroupid>
wee1_decoys_glide_SP


$$$$
