ZINC64921778_3243
                    3D
 Schrodinger Suite 2024-2.
 68 71  0  0  1  0            999 V2000
   -0.1649   45.8842   14.4457 C   0  0  0  0  0  0
   -0.4321   46.0052   15.9577 C   0  0  0  0  0  0
    0.7590   45.6185   16.8800 C   0  0  1  0  0  0
    1.1195   44.6307   16.5923 H   0  0  0  0  0  0
    1.9483   46.6179   16.6828 C   0  0  0  0  0  0
    2.8085   46.4938   15.8148 O   0  0  0  0  0  0
    1.9052   47.6473   17.5550 N   0  0  0  0  0  0
    0.9503   47.8326   18.5594 C   0  0  0  0  0  0
    0.7923   49.0492   19.2335 C   0  0  0  0  0  0
   -0.2274   49.1848   20.1911 C   0  0  0  0  0  0
   -1.0700   48.1016   20.4764 C   0  0  0  0  0  0
   -0.8902   46.8792   19.8318 C   0  0  0  0  0  0
    0.1122   46.7588   18.8748 C   0  0  0  0  0  0
    0.3113   45.5403   18.2591 O   0  0  0  0  0  0
   -0.5006   50.7376   21.0534 S   0  0  0  0  0  0
   -1.9527   50.9577   21.0472 O   0  0  0  0  0  0
    0.4144   51.7250   20.4660 O   0  0  0  0  0  0
    0.0010   50.4161   22.7254 N   0  0  0  0  0  0
   -0.8466   49.6411   23.6576 C   0  0  0  0  0  0
   -1.1810   50.4897   24.9053 C   0  0  0  0  0  0
    0.1142   51.0964   25.5248 C   0  0  0  0  0  0
    1.0207   51.8193   24.4713 C   0  0  0  0  0  0
    1.2915   50.8906   23.2665 C   0  0  0  0  0  0
   -0.1948   52.0326   26.7230 C   0  0  0  0  0  0
   -1.3209   52.0963   27.2107 O   0  0  0  0  0  0
    0.8508   52.6960   27.2447 N   0  0  0  0  0  0
    0.8445   53.6164   28.3815 C   0  0  0  0  0  0
    0.9312   52.8965   29.7469 C   0  0  0  0  0  0
    2.2170   52.0976   30.0597 C   0  0  0  0  0  0
    3.5045   52.9302   30.2486 C   0  0  0  0  0  0
    4.5093   52.9284   29.0828 C   0  0  0  0  0  0
    3.9420   53.1732   27.6809 C   0  0  0  0  0  0
    3.1895   54.4947   27.4354 C   0  0  0  0  0  0
    1.8761   54.7668   28.2210 C   0  0  0  0  0  0
   -1.0703   46.0878   13.8746 H   0  0  0  0  0  0
    0.5946   46.5925   14.1102 H   0  0  0  0  0  0
    0.1734   44.8811   14.1786 H   0  0  0  0  0  0
   -1.2735   45.3554   16.2012 H   0  0  0  0  0  0
   -0.7727   47.0162   16.1846 H   0  0  0  0  0  0
    2.6283   48.3448   17.3863 H   0  0  0  0  0  0
    1.4353   49.8850   18.9939 H   0  0  0  0  0  0
   -1.8602   48.2047   21.2009 H   0  0  0  0  0  0
   -1.5264   46.0376   20.0645 H   0  0  0  0  0  0
   -0.3223   48.7220   23.9205 H   0  0  0  0  0  0
   -1.7650   49.3522   23.1475 H   0  0  0  0  0  0
   -1.6898   49.8311   25.6118 H   0  0  0  0  0  0
   -1.8519   51.2777   24.5550 H   0  0  0  0  0  0
    0.7149   50.3056   25.9711 H   0  0  0  0  0  0
    0.5142   52.6932   24.0563 H   0  0  0  0  0  0
    1.9962   52.0952   24.8750 H   0  0  0  0  0  0
    1.8975   50.0242   23.5381 H   0  0  0  0  0  0
    1.8349   51.4221   22.4850 H   0  0  0  0  0  0
    1.7425   52.5933   26.7841 H   0  0  0  0  0  0
   -0.1337   54.1039   28.3788 H   0  0  0  0  0  0
    0.0869   52.2067   29.8177 H   0  0  0  0  0  0
    0.7619   53.6222   30.5442 H   0  0  0  0  0  0
    2.3646   51.3004   29.3302 H   0  0  0  0  0  0
    2.0237   51.5977   31.0088 H   0  0  0  0  0  0
    4.0298   52.5650   31.1340 H   0  0  0  0  0  0
    3.2542   53.9598   30.4817 H   0  0  0  0  0  0
    5.0315   51.9722   29.0775 H   0  0  0  0  0  0
    5.2789   53.6777   29.2790 H   0  0  0  0  0  0
    3.3223   52.3255   27.4047 H   0  0  0  0  0  0
    4.7771   53.1325   26.9789 H   0  0  0  0  0  0
    2.9695   54.5455   26.3685 H   0  0  0  0  0  0
    3.8965   55.2970   27.6248 H   0  0  0  0  0  0
    2.1039   55.2084   29.1882 H   0  0  0  0  0  0
    1.3697   55.5747   27.6962 H   0  0  0  0  0  0
  1  2  1  0  0  0
  1 35  1  0  0  0
  1 36  1  0  0  0
  1 37  1  0  0  0
  2  3  1  0  0  0
  2 38  1  0  0  0
  2 39  1  0  0  0
  3  4  1  0  0  0
  3 14  1  0  0  0
  3  5  1  0  0  0
  5  6  2  0  0  0
  5  7  1  0  0  0
  7  8  1  0  0  0
  7 40  1  0  0  0
  8 13  2  0  0  0
  8  9  1  0  0  0
  9 10  2  0  0  0
  9 41  1  0  0  0
 10 11  1  0  0  0
 10 15  1  0  0  0
 11 12  2  0  0  0
 11 42  1  0  0  0
 12 13  1  0  0  0
 12 43  1  0  0  0
 13 14  1  0  0  0
 15 16  2  0  0  0
 15 17  2  0  0  0
 15 18  1  0  0  0
 18 23  1  0  0  0
 18 19  1  0  0  0
 19 20  1  0  0  0
 19 44  1  0  0  0
 19 45  1  0  0  0
 20 21  1  0  0  0
 20 46  1  0  0  0
 20 47  1  0  0  0
 21 22  1  0  0  0
 21 24  1  0  0  0
 21 48  1  0  0  0
 22 23  1  0  0  0
 22 49  1  0  0  0
 22 50  1  0  0  0
 23 51  1  0  0  0
 23 52  1  0  0  0
 24 25  2  0  0  0
 24 26  1  0  0  0
 26 27  1  0  0  0
 26 53  1  0  0  0
 27 34  1  0  0  0
 27 28  1  0  0  0
 27 54  1  0  0  0
 28 29  1  0  0  0
 28 55  1  0  0  0
 28 56  1  0  0  0
 29 30  1  0  0  0
 29 57  1  0  0  0
 29 58  1  0  0  0
 30 31  1  0  0  0
 30 59  1  0  0  0
 30 60  1  0  0  0
 31 32  1  0  0  0
 31 61  1  0  0  0
 31 62  1  0  0  0
 32 33  1  0  0  0
 32 63  1  0  0  0
 32 64  1  0  0  0
 33 34  1  0  0  0
 33 65  1  0  0  0
 33 66  1  0  0  0
 34 67  1  0  0  0
 34 68  1  0  0  0
M  END
> <i_i_glide_confnum>
690

> <i_i_glide_lignum>
3244

> <i_i_glide_posenum>
298

> <i_i_glide_rotatable_bonds>
6

> <i_m_Source_File_Index>
4866

> <b_m_subgroup_collapsed>
0

> <r_i_docking_score>
-3.71119

> <r_i_glide_ecoul>
-2.88088

> <r_i_glide_eff_state_penalty>
0

> <r_i_glide_einternal>
4.24609

> <r_i_glide_emodel>
-48.9465

> <r_i_glide_energy>
-41.2294

> <r_i_glide_erotb>
0.444033

> <r_i_glide_esite>
-0.17432

> <r_i_glide_evdw>
-38.3485

> <r_i_glide_gscore>
-3.71119

> <r_i_glide_hbond>
-0.16

> <r_i_glide_ligand_efficiency>
-0.11246

> <r_i_glide_ligand_efficiency_ln>
-0.82535

> <r_i_glide_ligand_efficiency_sa>
-0.36072

> <r_i_glide_lipo>
-1.64369

> <r_i_glide_metal>
0

> <r_i_glide_rewards>
0.172343

> <s_i_glide_gridfile>
wee1_glide-grid

> <s_m_Source_File>
wee1_decoys_glide_SP.sdf

> <s_m_Source_Path>
/Users/zhangxujun/Desktop

> <s_m_entry_id>
5141

> <s_m_entry_name>
wee1_decoys_glide_SP.4866

> <s_m_subgroup_title>
wee1_decoys_glide_SP

> <s_m_subgroupid>
wee1_decoys_glide_SP


$$$$
