ZINC35729475_3388
                    3D
 Schrodinger Suite 2024-2.
 58 62  0  0  1  0            999 V2000
    0.5180   46.6334   18.9205 C   0  0  0  0  0  0
    0.6605   47.4715   20.0633 O   0  0  0  0  0  0
    1.2734   48.6989   19.9184 C   0  0  0  0  0  0
    1.7022   49.2310   18.6963 C   0  0  0  0  0  0
    2.3023   50.4838   18.6451 C   0  0  0  0  0  0
    2.4977   51.2239   19.8110 C   0  0  0  0  0  0
    2.0673   50.7184   21.0522 C   0  0  0  0  0  0
    1.4584   49.4489   21.0797 C   0  0  0  0  0  0
    2.2404   51.4999   22.1840 O   0  0  0  0  0  0
    1.8521   50.9802   23.4518 C   0  0  0  0  0  0
    3.1078   52.4756   19.6609 N   0  0  0  0  0  0
    4.2929   52.8361   20.1943 C   0  0  0  0  0  0
    4.9268   52.1102   20.9670 O   0  0  0  0  0  0
    4.7239   54.0775   19.8365 N   0  0  0  0  0  0
    4.2201   54.8679   18.7004 C   0  0  0  0  0  0
    5.3590   55.7925   18.3036 C   0  0  0  0  0  0
    6.0413   56.0565   19.6296 C   0  0  0  0  0  0
    5.9471   54.7150   20.3747 C   0  0  1  0  0  0
    6.7710   54.0970   20.0280 H   0  0  0  0  0  0
    6.0811   54.8991   21.9058 C   0  0  0  0  0  0
    7.1051   55.4408   22.3135 O   0  0  0  0  0  0
    5.0661   54.4928   22.6933 N   0  0  0  0  0  0
    5.0483   54.4736   24.0796 C   0  0  0  0  0  0
    6.0555   54.6450   24.9107 N   0  0  0  0  0  0
    5.6886   54.4155   26.2330 N   0  0  0  0  0  0
    4.4192   54.0987   26.3664 C   0  0  0  0  0  0
    3.5457   54.0973   24.8574 S   0  0  0  0  0  0
    3.7673   53.6730   27.6441 C   0  0  0  0  0  0
    2.4080   53.9595   27.8945 C   0  0  0  0  0  0
    1.7780   53.5315   29.0716 C   0  0  0  0  0  0
    2.5355   52.8002   29.9761 C   0  0  0  0  0  0
    3.8457   52.4986   29.7373 C   0  0  0  0  0  0
    4.5001   52.9284   28.5872 C   0  0  0  0  0  0
    4.3042   51.6976   30.7372 O   0  0  0  0  0  0
    3.3423   51.7961   31.7454 C   0  0  0  0  0  0
    2.1533   52.2407   31.1528 O   0  0  0  0  0  0
    0.0460   45.6961   19.2181 H   0  0  0  0  0  0
   -0.1152   47.0967   18.1610 H   0  0  0  0  0  0
    1.4877   46.3901   18.4814 H   0  0  0  0  0  0
    1.6026   48.6819   17.7727 H   0  0  0  0  0  0
    2.6566   50.8586   17.6934 H   0  0  0  0  0  0
    1.1151   49.0216   22.0076 H   0  0  0  0  0  0
    2.0949   51.6964   24.2351 H   0  0  0  0  0  0
    0.7782   50.8052   23.4977 H   0  0  0  0  0  0
    2.3730   50.0497   23.6791 H   0  0  0  0  0  0
    2.6805   53.1082   19.0007 H   0  0  0  0  0  0
    3.3748   55.4656   19.0212 H   0  0  0  0  0  0
    3.9033   54.2534   17.8554 H   0  0  0  0  0  0
    5.0267   56.6992   17.7961 H   0  0  0  0  0  0
    6.0436   55.2631   17.6399 H   0  0  0  0  0  0
    5.5058   56.8388   20.1724 H   0  0  0  0  0  0
    7.0697   56.3938   19.4997 H   0  0  0  0  0  0
    4.2616   54.0954   22.2343 H   0  0  0  0  0  0
    1.8268   54.4991   27.1645 H   0  0  0  0  0  0
    0.7344   53.7465   29.2466 H   0  0  0  0  0  0
    5.5313   52.6621   28.4026 H   0  0  0  0  0  0
    3.1987   50.8945   32.3287 H   0  0  0  0  0  0
    3.7050   52.4972   32.4812 H   0  0  0  0  0  0
  1  2  1  0  0  0
  1 37  1  0  0  0
  1 38  1  0  0  0
  1 39  1  0  0  0
  2  3  1  0  0  0
  3  8  2  0  0  0
  3  4  1  0  0  0
  4  5  2  0  0  0
  4 40  1  0  0  0
  5  6  1  0  0  0
  5 41  1  0  0  0
  6  7  2  0  0  0
  6 11  1  0  0  0
  7  8  1  0  0  0
  7  9  1  0  0  0
  8 42  1  0  0  0
  9 10  1  0  0  0
 10 43  1  0  0  0
 10 44  1  0  0  0
 10 45  1  0  0  0
 11 12  1  0  0  0
 11 46  1  0  0  0
 12 13  2  0  0  0
 12 14  1  0  0  0
 14 18  1  0  0  0
 14 15  1  0  0  0
 15 16  1  0  0  0
 15 47  1  0  0  0
 15 48  1  0  0  0
 16 17  1  0  0  0
 16 49  1  0  0  0
 16 50  1  0  0  0
 17 18  1  0  0  0
 17 51  1  0  0  0
 17 52  1  0  0  0
 18 19  1  0  0  0
 18 20  1  0  0  0
 20 21  2  0  0  0
 20 22  1  0  0  0
 22 23  1  0  0  0
 22 53  1  0  0  0
 23 27  1  0  0  0
 23 24  2  0  0  0
 24 25  1  0  0  0
 25 26  2  0  0  0
 26 27  1  0  0  0
 26 28  1  0  0  0
 28 33  2  0  0  0
 28 29  1  0  0  0
 29 30  2  0  0  0
 29 54  1  0  0  0
 30 31  1  0  0  0
 30 55  1  0  0  0
 31 36  1  0  0  0
 31 32  2  0  0  0
 32 33  1  0  0  0
 32 34  1  0  0  0
 33 56  1  0  0  0
 34 35  1  0  0  0
 35 36  1  0  0  0
 35 57  1  0  0  0
 35 58  1  0  0  0
M  END
> <i_i_glide_confnum>
207

> <i_i_glide_lignum>
3389

> <i_i_glide_posenum>
62

> <i_i_glide_rotatable_bonds>
9

> <i_m_Source_File_Index>
3681

> <b_m_subgroup_collapsed>
0

> <r_i_docking_score>
-6.01855

> <r_i_glide_ecoul>
-5.011

> <r_i_glide_eff_state_penalty>
0

> <r_i_glide_einternal>
12.241

> <r_i_glide_emodel>
-67.3152

> <r_i_glide_energy>
-55.0735

> <r_i_glide_erotb>
0.576891

> <r_i_glide_esite>
-0.0529995

> <r_i_glide_evdw>
-50.0625

> <r_i_glide_gscore>
-6.01855

> <r_i_glide_hbond>
-0.41143

> <r_i_glide_ligand_efficiency>
-0.171959

> <r_i_glide_ligand_efficiency_ln>
-1.3212

> <r_i_glide_ligand_efficiency_sa>
-0.562488

> <r_i_glide_lipo>
-2.24481

> <r_i_glide_metal>
0

> <r_i_glide_rewards>
-0.631429

> <s_i_glide_gridfile>
wee1_glide-grid

> <s_m_Source_File>
wee1_decoys_glide_SP.sdf

> <s_m_Source_Path>
/Users/zhangxujun/Desktop

> <s_m_entry_id>
3956

> <s_m_entry_name>
wee1_decoys_glide_SP.3681

> <s_m_subgroup_title>
wee1_decoys_glide_SP

> <s_m_subgroupid>
wee1_decoys_glide_SP


$$$$
