ZINC09512139_5324
                    3D
 Schrodinger Suite 2024-2.
 65 68  0  0  1  0            999 V2000
    1.4048   51.4633   28.2631 C   0  0  0  0  0  0
    1.4437   52.8408   28.9052 C   0  0  0  0  0  0
    0.5105   53.1478   29.9038 C   0  0  0  0  0  0
    0.5188   54.4045   30.5053 C   0  0  0  0  0  0
    1.4505   55.3616   30.1100 C   0  0  0  0  0  0
    2.3816   55.0637   29.1241 C   0  0  0  0  0  0
    2.3944   53.8065   28.5206 C   0  0  0  0  0  0
    3.3494   53.5656   27.5564 N   0  0  0  0  0  0
    3.0604   53.7388   26.1318 C   0  0  0  0  0  0
    4.0926   54.6433   25.4507 C   0  0  0  0  0  0
    5.8353   53.8829   27.1064 C   0  0  0  0  0  0
    4.7197   53.1617   27.8983 C   0  0  0  0  0  0
    6.5899   54.6355   24.7608 C   0  0  2  0  0  0
    7.4633   54.0293   25.0059 H   0  0  0  0  0  0
    6.8738   56.0965   25.0750 C   0  0  0  0  0  0
    6.3421   54.4033   23.2436 C   0  0  0  0  0  0
    5.5320   53.5477   22.8813 O   0  0  0  0  0  0
    7.0772   55.1443   22.3799 N   0  0  0  0  0  0
    6.8946   55.2967   20.9932 C   0  0  0  0  0  0
    5.6617   55.0883   20.3574 C   0  0  0  0  0  0
    5.5441   55.2824   18.9844 C   0  0  0  0  0  0
    6.6545   55.6878   18.2450 C   0  0  0  0  0  0
    7.8854   55.8969   18.8706 C   0  0  0  0  0  0
    8.0042   55.6990   20.2449 C   0  0  0  0  0  0
    6.4675   55.9268   16.4814 S   0  0  0  0  0  0
    7.8016   56.1402   15.9080 O   0  0  0  0  0  0
    5.6114   54.8325   15.9998 O   0  0  0  0  0  0
    5.5529   57.4308   16.3157 N   0  0  0  0  0  0
    6.2048   58.7149   16.6792 C   0  0  0  0  0  0
    6.3067   59.4122   15.3362 C   0  0  0  0  0  0
    4.9958   59.0391   14.6743 C   0  0  0  0  0  0
    4.7024   57.5936   15.0985 C   0  0  0  0  0  0
    1.5020   56.8966   30.8816 Cl  0  0  0  0  0  0
    2.3007   50.8972   28.5172 H   0  0  0  0  0  0
    0.5259   50.8972   28.5660 H   0  0  0  0  0  0
    1.3729   51.5497   27.1773 H   0  0  0  0  0  0
   -0.2163   52.4111   30.2208 H   0  0  0  0  0  0
   -0.1852   54.6285   31.2926 H   0  0  0  0  0  0
    3.1047   55.8166   28.8414 H   0  0  0  0  0  0
    3.0589   52.7469   25.6805 H   0  0  0  0  0  0
    2.0526   54.1331   25.9925 H   0  0  0  0  0  0
    4.1434   55.6465   25.8781 H   0  0  0  0  0  0
    3.8553   54.7082   24.3893 H   0  0  0  0  0  0
    5.9872   54.8968   27.4802 H   0  0  0  0  0  0
    6.7599   53.3040   27.1634 H   0  0  0  0  0  0
    4.8961   53.2279   28.9746 H   0  0  0  0  0  0
    4.7382   52.1014   27.6518 H   0  0  0  0  0  0
    7.7411   56.4552   24.5183 H   0  0  0  0  0  0
    6.0023   56.7090   24.8359 H   0  0  0  0  0  0
    7.1035   56.2137   26.1276 H   0  0  0  0  0  0
    7.9027   55.5863   22.7569 H   0  0  0  0  0  0
    4.7809   54.7908   20.9078 H   0  0  0  0  0  0
    4.5895   55.1214   18.5019 H   0  0  0  0  0  0
    8.7501   56.2054   18.2996 H   0  0  0  0  0  0
    8.9621   55.8585   20.7176 H   0  0  0  0  0  0
    5.5315   59.2964   17.3141 H   0  0  0  0  0  0
    7.1128   58.5974   17.2732 H   0  0  0  0  0  0
    6.4231   60.4915   15.4470 H   0  0  0  0  0  0
    7.1593   59.0363   14.7681 H   0  0  0  0  0  0
    5.0327   59.1556   13.5897 H   0  0  0  0  0  0
    4.2034   59.6967   15.0404 H   0  0  0  0  0  0
    5.0390   56.9671   14.2691 H   0  0  0  0  0  0
    3.6324   57.5616   15.3187 H   0  0  0  0  0  0
    5.4701   53.9624   25.6046 N   0  3  0  0  0  0
    5.3680   53.0197   25.2439 H   0  0  0  0  0  0
  1  2  1  0  0  0
  1 34  1  0  0  0
  1 35  1  0  0  0
  1 36  1  0  0  0
  2  7  2  0  0  0
  2  3  1  0  0  0
  3  4  2  0  0  0
  3 37  1  0  0  0
  4  5  1  0  0  0
  4 38  1  0  0  0
  5  6  2  0  0  0
  5 33  1  0  0  0
  6  7  1  0  0  0
  6 39  1  0  0  0
  7  8  1  0  0  0
  8 12  1  0  0  0
  8  9  1  0  0  0
  9 10  1  0  0  0
  9 40  1  0  0  0
  9 41  1  0  0  0
 10 42  1  0  0  0
 10 43  1  0  0  0
 10 64  1  0  0  0
 11 12  1  0  0  0
 11 44  1  0  0  0
 11 45  1  0  0  0
 11 64  1  0  0  0
 12 46  1  0  0  0
 12 47  1  0  0  0
 13 14  1  0  0  0
 13 15  1  0  0  0
 13 16  1  0  0  0
 13 64  1  0  0  0
 15 48  1  0  0  0
 15 49  1  0  0  0
 15 50  1  0  0  0
 16 17  2  0  0  0
 16 18  1  0  0  0
 18 19  1  0  0  0
 18 51  1  0  0  0
 19 24  2  0  0  0
 19 20  1  0  0  0
 20 21  2  0  0  0
 20 52  1  0  0  0
 21 22  1  0  0  0
 21 53  1  0  0  0
 22 23  2  0  0  0
 22 25  1  0  0  0
 23 24  1  0  0  0
 23 54  1  0  0  0
 24 55  1  0  0  0
 25 26  2  0  0  0
 25 27  2  0  0  0
 25 28  1  0  0  0
 28 32  1  0  0  0
 28 29  1  0  0  0
 29 30  1  0  0  0
 29 56  1  0  0  0
 29 57  1  0  0  0
 30 31  1  0  0  0
 30 58  1  0  0  0
 30 59  1  0  0  0
 31 32  1  0  0  0
 31 60  1  0  0  0
 31 61  1  0  0  0
 32 62  1  0  0  0
 32 63  1  0  0  0
 64 65  1  0  0  0
M  CHG  1  64   1
M  END
> <i_i_glide_confnum>
84

> <i_i_glide_lignum>
5325

> <i_i_glide_posenum>
193

> <i_i_glide_rotatable_bonds>
7

> <i_m_Source_File_Index>
3037

> <b_m_subgroup_collapsed>
0

> <r_i_docking_score>
-5.83368

> <r_i_glide_ecoul>
-1.76659

> <r_i_glide_eff_state_penalty>
0

> <r_i_glide_einternal>
15.7773

> <r_i_glide_emodel>
-54.1755

> <r_i_glide_energy>
-47.4975

> <r_i_glide_erotb>
0.588693

> <r_i_glide_esite>
-0.0137016

> <r_i_glide_evdw>
-45.7309

> <r_i_glide_gscore>
-5.83368

> <r_i_glide_hbond>
-0.263123

> <r_i_glide_ligand_efficiency>
-0.176778

> <r_i_glide_ligand_efficiency_ln>
-1.29738

> <r_i_glide_ligand_efficiency_sa>
-0.567022

> <r_i_glide_lipo>
-3.95477

> <r_i_glide_metal>
0

> <r_i_glide_rewards>
0.360753

> <s_i_glide_gridfile>
wee1_glide-grid

> <s_m_Source_File>
wee1_decoys_glide_SP.sdf

> <s_m_Source_Path>
/Users/zhangxujun/Desktop

> <s_m_entry_id>
3312

> <s_m_entry_name>
wee1_decoys_glide_SP.3037

> <s_m_subgroup_title>
wee1_decoys_glide_SP

> <s_m_subgroupid>
wee1_decoys_glide_SP


$$$$
