ZINC08920490_310
                    3D
 Schrodinger Suite 2024-2.
 75 77  0  0  1  0            999 V2000
    5.7814   51.3566   13.1631 C   0  0  0  0  0  0
    5.7580   52.6611   13.9758 C   0  0  0  0  0  0
    3.4203   52.4719   15.0076 C   0  0  0  0  0  0
    2.6775   51.9918   16.2786 C   0  0  0  0  0  0
    3.3050   52.5455   17.5696 C   0  0  0  0  0  0
    4.4904   53.2967   17.5245 C   0  0  0  0  0  0
    4.9706   53.8772   19.0752 S   0  0  0  0  0  0
    3.6027   53.1025   19.8242 C   0  0  0  0  0  0
    2.8245   52.3742   18.9011 C   0  0  0  0  0  0
    1.6307   51.6301   19.2866 C   0  0  0  0  0  0
    0.9590   51.9526   20.2706 O   0  0  0  0  0  0
    1.3498   50.5580   18.5260 N   0  0  0  0  0  0
    0.1971   49.6862   18.7204 C   0  0  0  0  0  0
    3.3354   53.2092   21.1846 N   0  0  0  0  0  0
    4.0951   53.7028   22.1816 C   0  0  0  0  0  0
    5.2429   54.1319   22.0458 O   0  0  0  0  0  0
    3.4392   53.6976   23.5461 C   0  0  0  0  0  0
    3.9889   54.4721   24.5753 C   0  0  0  0  0  0
    3.4116   54.4763   25.8383 C   0  0  0  0  0  0
    2.2812   53.6969   26.0941 C   0  0  0  0  0  0
    1.7279   52.9091   25.0863 C   0  0  0  0  0  0
    2.3020   52.9125   23.8195 C   0  0  0  0  0  0
    1.5360   53.7456   27.7264 S   0  0  0  0  0  0
    0.2565   53.0311   27.6497 O   0  0  0  0  0  0
    1.5758   55.1457   28.1668 O   0  0  0  0  0  0
    2.5794   52.8250   28.8166 N   0  0  0  0  0  0
    3.9546   52.4967   28.3738 C   0  0  0  0  0  0
    5.1322   53.3535   28.8814 C   0  0  0  0  0  0
    6.2686   53.4672   27.8483 C   0  0  0  0  0  0
    4.8096   54.7295   29.4855 C   0  0  0  0  0  0
    2.3486   52.9832   30.2720 C   0  0  0  0  0  0
    1.0300   52.3739   30.7706 C   0  0  0  0  0  0
    1.2087   51.7878   32.1746 C   0  0  0  0  0  0
   -0.1059   53.3988   30.8449 C   0  0  0  0  0  0
    5.2800   53.6094   16.2689 C   0  0  0  0  0  0
    6.4309   51.4588   12.2937 H   0  0  0  0  0  0
    6.1634   50.5225   13.7533 H   0  0  0  0  0  0
    4.7964   51.0782   12.7894 H   0  0  0  0  0  0
    5.3273   53.5070   13.4352 H   0  0  0  0  0  0
    6.7749   52.9139   14.2838 H   0  0  0  0  0  0
    3.1468   53.4861   14.7099 H   0  0  0  0  0  0
    3.2143   51.7890   14.1843 H   0  0  0  0  0  0
    2.7104   50.9025   16.2952 H   0  0  0  0  0  0
    1.6224   52.2572   16.2091 H   0  0  0  0  0  0
    2.0676   50.2206   17.8963 H   0  0  0  0  0  0
   -0.1017   49.2450   17.7694 H   0  0  0  0  0  0
    0.4490   48.8771   19.4092 H   0  0  0  0  0  0
   -0.6619   50.2258   19.1232 H   0  0  0  0  0  0
    2.4389   52.8233   21.4439 H   0  0  0  0  0  0
    4.8650   55.0807   24.4049 H   0  0  0  0  0  0
    3.8347   55.0961   26.6146 H   0  0  0  0  0  0
    0.8526   52.3034   25.2755 H   0  0  0  0  0  0
    1.8462   52.2842   23.0671 H   0  0  0  0  0  0
    3.9962   52.3927   27.2960 H   0  0  0  0  0  0
    4.1016   51.4996   28.7818 H   0  0  0  0  0  0
    5.5041   52.7314   29.6817 H   0  0  0  0  0  0
    5.9857   54.0898   27.0019 H   0  0  0  0  0  0
    6.5533   52.4966   27.4583 H   0  0  0  0  0  0
    7.1618   53.9025   28.2942 H   0  0  0  0  0  0
    4.1240   55.2967   28.8621 H   0  0  0  0  0  0
    4.3830   54.6305   30.4800 H   0  0  0  0  0  0
    5.7151   55.3162   29.6169 H   0  0  0  0  0  0
    3.1942   52.5464   30.8053 H   0  0  0  0  0  0
    2.3644   54.0501   30.4806 H   0  0  0  0  0  0
    0.7145   51.5899   30.0812 H   0  0  0  0  0  0
    1.3153   52.6024   32.8817 H   0  0  0  0  0  0
    0.3331   51.2206   32.4818 H   0  0  0  0  0  0
    2.0814   51.1456   32.2699 H   0  0  0  0  0  0
    0.1451   54.2421   31.4876 H   0  0  0  0  0  0
   -0.4072   53.7948   29.8801 H   0  0  0  0  0  0
   -0.9655   52.8968   31.2809 H   0  0  0  0  0  0
    5.0224   54.5672   15.8146 H   0  0  0  0  0  0
    6.3578   53.5601   16.4392 H   0  0  0  0  0  0
    4.9430   52.4709   15.2791 N   0  3  2  0  0  0
    5.2019   51.5801   15.6878 H   0  0  0  0  0  0
  1  2  1  0  0  0
  1 36  1  0  0  0
  1 37  1  0  0  0
  1 38  1  0  0  0
  2 39  1  0  0  0
  2 40  1  0  0  0
  2 74  1  0  0  0
  3  4  1  0  0  0
  3 41  1  0  0  0
  3 42  1  0  0  0
  3 74  1  0  0  0
  4  5  1  0  0  0
  4 43  1  0  0  0
  4 44  1  0  0  0
  5  9  1  0  0  0
  5  6  2  0  0  0
  6  7  1  0  0  0
  6 35  1  0  0  0
  7  8  1  0  0  0
  8  9  2  0  0  0
  8 14  1  0  0  0
  9 10  1  0  0  0
 10 11  2  0  0  0
 10 12  1  0  0  0
 12 13  1  0  0  0
 12 45  1  0  0  0
 13 46  1  0  0  0
 13 47  1  0  0  0
 13 48  1  0  0  0
 14 15  1  0  0  0
 14 49  1  0  0  0
 15 16  2  0  0  0
 15 17  1  0  0  0
 17 22  2  0  0  0
 17 18  1  0  0  0
 18 19  2  0  0  0
 18 50  1  0  0  0
 19 20  1  0  0  0
 19 51  1  0  0  0
 20 21  2  0  0  0
 20 23  1  0  0  0
 21 22  1  0  0  0
 21 52  1  0  0  0
 22 53  1  0  0  0
 23 24  2  0  0  0
 23 25  2  0  0  0
 23 26  1  0  0  0
 26 27  1  0  0  0
 26 31  1  0  0  0
 27 28  1  0  0  0
 27 54  1  0  0  0
 27 55  1  0  0  0
 28 29  1  0  0  0
 28 30  1  0  0  0
 28 56  1  0  0  0
 29 57  1  0  0  0
 29 58  1  0  0  0
 29 59  1  0  0  0
 30 60  1  0  0  0
 30 61  1  0  0  0
 30 62  1  0  0  0
 31 32  1  0  0  0
 31 63  1  0  0  0
 31 64  1  0  0  0
 32 33  1  0  0  0
 32 34  1  0  0  0
 32 65  1  0  0  0
 33 66  1  0  0  0
 33 67  1  0  0  0
 33 68  1  0  0  0
 34 69  1  0  0  0
 34 70  1  0  0  0
 34 71  1  0  0  0
 35 72  1  0  0  0
 35 73  1  0  0  0
 35 74  1  0  0  0
 74 75  1  0  0  0
M  CHG  1  74   1
M  END
> <i_i_glide_confnum>
25

> <i_i_glide_lignum>
311

> <i_i_glide_posenum>
273

> <i_i_glide_rotatable_bonds>
12

> <i_m_Source_File_Index>
3050

> <b_m_subgroup_collapsed>
0

> <r_i_docking_score>
-1.56227

> <r_i_glide_ecoul>
-2.43883

> <r_i_glide_eff_state_penalty>
0

> <r_i_glide_einternal>
18.4592

> <r_i_glide_emodel>
-26.7351

> <r_i_glide_energy>
-39.673

> <r_i_glide_erotb>
0.575461

> <r_i_glide_esite>
-0.101893

> <r_i_glide_evdw>
-37.2341

> <r_i_glide_gscore>
-1.56227

> <r_i_glide_hbond>
0

> <r_i_glide_ligand_efficiency>
-0.0433964

> <r_i_glide_ligand_efficiency_ln>
-0.340845

> <r_i_glide_ligand_efficiency_sa>
-0.143292

> <r_i_glide_lipo>
-1.954

> <r_i_glide_metal>
0

> <r_i_glide_rewards>
2.14569

> <s_i_glide_gridfile>
wee1_glide-grid

> <s_m_Source_File>
wee1_decoys_glide_SP.sdf

> <s_m_Source_Path>
/Users/zhangxujun/Desktop

> <s_m_entry_id>
3325

> <s_m_entry_name>
wee1_decoys_glide_SP.3050

> <s_m_subgroup_title>
wee1_decoys_glide_SP

> <s_m_subgroupid>
wee1_decoys_glide_SP


$$$$
