ZINC39485918_125
                    3D
 Schrodinger Suite 2024-2.
 58 62  0  0  1  0            999 V2000
   -6.6074   46.7738   27.8437 C   0  0  0  0  0  0
   -5.4223   47.0200   28.5372 C   0  0  0  0  0  0
   -4.2008   46.8964   27.8794 C   0  0  0  0  0  0
   -4.1602   46.5349   26.5297 C   0  0  0  0  0  0
   -5.3557   46.2714   25.8486 C   0  0  0  0  0  0
   -6.5782   46.3961   26.5040 C   0  0  0  0  0  0
   -2.8183   46.4027   25.8051 C   0  0  0  0  0  0
   -2.3651   47.5925   24.9148 C   0  0  1  0  0  0
   -1.5490   47.2687   24.2652 H   0  0  0  0  0  0
   -3.4105   48.1993   24.1068 N   0  0  0  0  0  0
   -3.9963   49.2175   24.9308 N   0  0  0  0  0  0
   -2.8571   49.8879   25.5201 C   0  0  2  0  0  0
   -2.4654   50.5552   24.7491 H   0  0  0  0  0  0
   -1.7913   48.7920   25.6819 N   0  3  2  0  0  0
   -0.3908   49.3468   25.3561 C   0  0  0  0  0  0
    0.1283   50.4006   26.3677 C   0  0  0  0  0  0
   -0.7251   51.5183   26.8159 N   0  0  0  0  0  0
   -1.9377   51.1743   27.5720 C   0  0  0  0  0  0
   -3.1686   50.7246   26.7613 C   0  0  0  0  0  0
    0.0128   52.6748   27.3417 C   0  0  0  0  0  0
    0.8967   52.3874   28.5880 C   0  0  2  0  0  0
    1.4042   51.4254   28.5232 H   0  0  0  0  0  0
    0.1371   52.4961   29.8801 C   0  0  0  0  0  0
    0.5397   53.4463   30.6034 N   0  0  0  0  0  0
    1.5492   54.0067   30.0819 N   0  0  0  0  0  0
    1.8976   53.4571   28.9910 C   0  0  0  0  0  0
    3.1548   53.7701   28.2676 C   0  0  0  0  0  0
    4.2562   54.2278   29.0077 C   0  0  0  0  0  0
    5.4694   54.4964   28.3838 C   0  0  0  0  0  0
    5.5970   54.3338   27.0097 C   0  0  0  0  0  0
    4.5143   53.8926   26.2570 C   0  0  0  0  0  0
    3.3051   53.5965   26.8842 C   0  0  0  0  0  0
    7.1002   54.6829   26.2369 Cl  0  0  0  0  0  0
   -7.5560   46.8734   28.3525 H   0  0  0  0  0  0
   -5.4454   47.3047   29.5788 H   0  0  0  0  0  0
   -3.2956   47.0807   28.4341 H   0  0  0  0  0  0
   -5.3439   45.9773   24.8105 H   0  0  0  0  0  0
   -7.5010   46.2004   25.9740 H   0  0  0  0  0  0
   -2.0368   46.1473   26.5234 H   0  0  0  0  0  0
   -2.9047   45.5324   25.1639 H   0  0  0  0  0  0
   -4.1618   47.5789   23.8336 H   0  0  0  0  0  0
   -4.4576   48.7016   25.6733 H   0  0  0  0  0  0
    0.2462   48.4606   25.3670 H   0  0  0  0  0  0
   -0.4761   49.7371   24.3401 H   0  0  0  0  0  0
    0.2922   49.8294   27.2817 H   0  0  0  0  0  0
    1.0981   50.7731   26.0325 H   0  0  0  0  0  0
   -1.7192   50.4971   28.3988 H   0  0  0  0  0  0
   -2.2898   52.0960   28.0356 H   0  0  0  0  0  0
   -3.7609   51.5935   26.4724 H   0  0  0  0  0  0
   -3.8104   50.1555   27.4368 H   0  0  0  0  0  0
    0.5885   53.0656   26.5112 H   0  0  0  0  0  0
   -0.6902   53.4785   27.5686 H   0  0  0  0  0  0
   -0.6788   51.8438   30.1808 H   0  0  0  0  0  0
    4.1937   54.3689   30.0768 H   0  0  0  0  0  0
    6.3041   54.8456   28.9685 H   0  0  0  0  0  0
    4.6177   53.7556   25.1907 H   0  0  0  0  0  0
    2.5191   53.2194   26.2595 H   0  0  0  0  0  0
   -1.7560   48.5177   26.6693 H   0  0  0  0  0  0
  1  6  2  0  0  0
  1  2  1  0  0  0
  1 34  1  0  0  0
  2  3  2  0  0  0
  2 35  1  0  0  0
  3  4  1  0  0  0
  3 36  1  0  0  0
  4  5  2  0  0  0
  4  7  1  0  0  0
  5  6  1  0  0  0
  5 37  1  0  0  0
  6 38  1  0  0  0
  7  8  1  0  0  0
  7 39  1  0  0  0
  7 40  1  0  0  0
  8  9  1  0  0  0
  8 14  1  0  0  0
  8 10  1  0  0  0
 10 11  1  0  0  0
 10 41  1  0  0  0
 11 12  1  0  0  0
 11 42  1  0  0  0
 12 13  1  0  0  0
 12 19  1  0  0  0
 12 14  1  0  0  0
 14 15  1  0  0  0
 14 58  1  0  0  0
 15 16  1  0  0  0
 15 43  1  0  0  0
 15 44  1  0  0  0
 16 17  1  0  0  0
 16 45  1  0  0  0
 16 46  1  0  0  0
 17 18  1  0  0  0
 17 20  1  0  0  0
 18 19  1  0  0  0
 18 47  1  0  0  0
 18 48  1  0  0  0
 19 49  1  0  0  0
 19 50  1  0  0  0
 20 21  1  0  0  0
 20 51  1  0  0  0
 20 52  1  0  0  0
 21 22  1  0  0  0
 21 26  1  0  0  0
 21 23  1  0  0  0
 23 24  2  0  0  0
 23 53  1  0  0  0
 24 25  1  0  0  0
 25 26  2  0  0  0
 26 27  1  0  0  0
 27 32  2  0  0  0
 27 28  1  0  0  0
 28 29  2  0  0  0
 28 54  1  0  0  0
 29 30  1  0  0  0
 29 55  1  0  0  0
 30 31  2  0  0  0
 30 33  1  0  0  0
 31 32  1  0  0  0
 31 56  1  0  0  0
 32 57  1  0  0  0
M  CHG  1  14   1
M  END
> <i_i_glide_confnum>
22

> <i_i_glide_lignum>
126

> <i_i_glide_posenum>
108

> <i_i_glide_rotatable_bonds>
5

> <i_m_Source_File_Index>
4164

> <b_m_subgroup_collapsed>
0

> <r_i_docking_score>
-5.12581

> <r_i_glide_ecoul>
-7.06389

> <r_i_glide_eff_state_penalty>
0

> <r_i_glide_einternal>
12.5532

> <r_i_glide_emodel>
-53.0051

> <r_i_glide_energy>
-42.9409

> <r_i_glide_erotb>
0.551456

> <r_i_glide_esite>
-0.225689

> <r_i_glide_evdw>
-35.877

> <r_i_glide_gscore>
-5.12581

> <r_i_glide_hbond>
-0.2

> <r_i_glide_ligand_efficiency>
-0.17086

> <r_i_glide_ligand_efficiency_ln>
-1.16464

> <r_i_glide_ligand_efficiency_sa>
-0.530903

> <r_i_glide_lipo>
-1.58753

> <r_i_glide_metal>
0

> <r_i_glide_rewards>
-0.810618

> <s_i_glide_gridfile>
wee1_glide-grid

> <s_m_Source_File>
wee1_decoys_glide_SP.sdf

> <s_m_Source_Path>
/Users/zhangxujun/Desktop

> <s_m_entry_id>
4439

> <s_m_entry_name>
wee1_decoys_glide_SP.4164

> <s_m_subgroup_title>
wee1_decoys_glide_SP

> <s_m_subgroupid>
wee1_decoys_glide_SP


$$$$
