ZINC42393315_1746
                    3D
 Schrodinger Suite 2024-2.
 36 37  0  0  1  0            999 V2000
    4.1580   54.0610   22.0123 C   0  0  0  0  0  0
    4.3861   54.0967   23.5190 C   0  0  0  0  0  0
    3.3342   53.7405   24.3712 C   0  0  0  0  0  0
    3.4943   53.7172   25.7650 C   0  0  0  0  0  0
    4.7234   54.1452   26.2895 C   0  0  0  0  0  0
    5.7759   54.5149   25.4536 C   0  0  0  0  0  0
    5.6200   54.4815   24.0693 C   0  0  0  0  0  0
    6.7044   54.8276   23.2601 N   0  0  0  0  0  0
    2.4400   53.3129   26.6099 N   0  0  0  0  0  0
    1.2125   52.6451   26.1550 C   0  0  0  0  0  0
    0.3852   52.2846   27.3847 C   0  0  0  0  0  0
    1.4660   51.9477   28.3907 C   0  0  0  0  0  0
    2.5807   52.9508   28.0391 C   0  0  2  0  0  0
    3.5598   52.4950   28.2025 H   0  0  0  0  0  0
    2.5465   54.1794   28.9878 C   0  0  0  0  0  0
    3.1044   54.0973   30.0817 O   0  0  0  0  0  0
    1.8692   55.2755   28.6058 N   0  0  0  0  0  0
    1.7274   56.4774   29.4184 C   0  0  0  0  0  0
    4.5329   54.9725   21.5474 H   0  0  0  0  0  0
    4.6891   53.2187   21.5673 H   0  0  0  0  0  0
    3.0999   53.9896   21.7567 H   0  0  0  0  0  0
    2.3933   53.4444   23.9331 H   0  0  0  0  0  0
    4.8888   54.1773   27.3551 H   0  0  0  0  0  0
    6.7152   54.8164   25.8910 H   0  0  0  0  0  0
    6.5983   54.7621   22.2591 H   0  0  0  0  0  0
    7.6238   54.9667   23.6655 H   0  0  0  0  0  0
    1.4594   51.7513   25.5794 H   0  0  0  0  0  0
    0.6664   53.2967   25.4743 H   0  0  0  0  0  0
   -0.2853   51.4433   27.2011 H   0  0  0  0  0  0
   -0.2324   53.1269   27.7012 H   0  0  0  0  0  0
    1.8269   50.9247   28.2676 H   0  0  0  0  0  0
    1.1007   52.0201   29.4172 H   0  0  0  0  0  0
    1.4490   55.2689   27.6886 H   0  0  0  0  0  0
    1.1563   57.2343   28.8831 H   0  0  0  0  0  0
    2.7041   56.8966   29.6600 H   0  0  0  0  0  0
    1.2077   56.2560   30.3519 H   0  0  0  0  0  0
  1  2  1  0  0  0
  1 19  1  0  0  0
  1 20  1  0  0  0
  1 21  1  0  0  0
  2  7  2  0  0  0
  2  3  1  0  0  0
  3  4  2  0  0  0
  3 22  1  0  0  0
  4  5  1  0  0  0
  4  9  1  0  0  0
  5  6  2  0  0  0
  5 23  1  0  0  0
  6  7  1  0  0  0
  6 24  1  0  0  0
  7  8  1  0  0  0
  8 25  1  0  0  0
  8 26  1  0  0  0
  9 13  1  0  0  0
  9 10  1  0  0  0
 10 11  1  0  0  0
 10 27  1  0  0  0
 10 28  1  0  0  0
 11 12  1  0  0  0
 11 29  1  0  0  0
 11 30  1  0  0  0
 12 13  1  0  0  0
 12 31  1  0  0  0
 12 32  1  0  0  0
 13 14  1  0  0  0
 13 15  1  0  0  0
 15 16  2  0  0  0
 15 17  1  0  0  0
 17 18  1  0  0  0
 17 33  1  0  0  0
 18 34  1  0  0  0
 18 35  1  0  0  0
 18 36  1  0  0  0
M  END
> <i_i_glide_confnum>
6

> <i_i_glide_lignum>
1747

> <i_i_glide_posenum>
202

> <i_i_glide_rotatable_bonds>
3

> <i_m_Source_File_Index>
1032

> <b_m_subgroup_collapsed>
0

> <r_i_docking_score>
-7.17312

> <r_i_glide_ecoul>
-5.77912

> <r_i_glide_eff_state_penalty>
0

> <r_i_glide_einternal>
5.6487

> <r_i_glide_emodel>
-47.851

> <r_i_glide_energy>
-35.8954

> <r_i_glide_erotb>
0.63011

> <r_i_glide_esite>
0

> <r_i_glide_evdw>
-30.1163

> <r_i_glide_gscore>
-7.17312

> <r_i_glide_hbond>
-0.599301

> <r_i_glide_ligand_efficiency>
-0.421948

> <r_i_glide_ligand_efficiency_ln>
-1.87131

> <r_i_glide_ligand_efficiency_sa>
-1.08495

> <r_i_glide_lipo>
-2.50785

> <r_i_glide_metal>
0

> <r_i_glide_rewards>
-2.32339

> <s_i_glide_gridfile>
wee1_glide-grid

> <s_m_Source_File>
wee1_decoys_glide_SP.sdf

> <s_m_Source_Path>
/Users/zhangxujun/Desktop

> <s_m_entry_id>
1307

> <s_m_entry_name>
wee1_decoys_glide_SP.1032

> <s_m_subgroup_title>
wee1_decoys_glide_SP

> <s_m_subgroupid>
wee1_decoys_glide_SP


$$$$
