ZINC09601196_924
                    3D
 Schrodinger Suite 2024-2.
 61 64  0  0  1  0            999 V2000
    2.5327   51.5068   17.7593 C   0  0  0  0  0  0
    1.8224   51.4807   19.0977 C   0  0  0  0  0  0
    0.5446   52.0194   19.2072 C   0  0  0  0  0  0
   -0.0813   52.0629   20.4465 C   0  0  0  0  0  0
    0.5613   51.5845   21.5937 C   0  0  0  0  0  0
    1.8367   51.0149   21.4683 C   0  0  0  0  0  0
    2.4630   50.9611   20.2230 C   0  0  0  0  0  0
   -0.1311   51.7202   22.9210 C   0  0  0  0  0  0
   -1.4946   51.9867   23.0876 C   0  0  0  0  0  0
   -1.8929   52.1002   24.7641 S   0  0  0  0  0  0
   -0.2194   51.7614   25.1269 C   0  0  0  0  0  0
    0.5355   51.5955   24.0645 N   0  0  0  0  0  0
    0.3000   51.6363   26.4157 N   0  0  0  0  0  0
   -0.3689   51.7758   27.5831 C   0  0  0  0  0  0
   -1.5517   52.0908   27.6781 O   0  0  0  0  0  0
    0.4035   51.4977   28.8717 C   0  0  0  0  0  0
    0.8042   52.9974   29.8276 S   0  0  0  0  0  0
    2.5285   53.0363   29.4744 C   0  0  0  0  0  0
    3.3768   52.1271   29.8851 N   0  0  0  0  0  0
    4.6130   52.4387   29.3389 N   0  0  0  0  0  0
    4.4798   53.5447   28.6500 C   0  0  0  0  0  0
    3.1687   53.9741   28.6930 N   0  0  0  0  0  0
    2.5777   55.1288   28.0366 C   0  0  0  0  0  0
    5.5983   54.2247   27.8648 C   0  0  1  0  0  0
    5.6061   55.2897   28.1204 H   0  0  0  0  0  0
    7.0069   53.6966   28.2191 C   0  0  0  0  0  0
    5.3274   54.0741   26.4348 N   0  0  0  0  0  0
    5.8817   54.8107   25.4608 C   0  0  0  0  0  0
    6.7059   55.6968   25.6817 O   0  0  0  0  0  0
    5.4360   54.5070   24.0561 C   0  0  0  0  0  0
    6.3239   54.7229   22.9960 C   0  0  0  0  0  0
    5.9044   54.5434   21.6838 C   0  0  0  0  0  0
    4.6023   54.1308   21.4181 C   0  0  0  0  0  0
    3.7088   53.9062   22.4665 C   0  0  0  0  0  0
    4.1230   54.0958   23.7818 C   0  0  0  0  0  0
    4.1682   53.9552   19.9775 C   0  0  0  0  0  0
    2.7016   50.4966   17.4023 H   0  0  0  0  0  0
    3.5122   51.9733   17.8547 H   0  0  0  0  0  0
    1.9768   52.0560   16.9994 H   0  0  0  0  0  0
    0.0425   52.4225   18.3398 H   0  0  0  0  0  0
   -1.0662   52.4961   20.5028 H   0  0  0  0  0  0
    2.3560   50.6269   22.3328 H   0  0  0  0  0  0
    3.4560   50.5424   20.1327 H   0  0  0  0  0  0
   -2.2630   52.1116   22.3421 H   0  0  0  0  0  0
    1.2755   51.3883   26.4730 H   0  0  0  0  0  0
   -0.2516   50.8963   29.5019 H   0  0  0  0  0  0
    1.2905   50.8965   28.6752 H   0  0  0  0  0  0
    3.0672   55.2967   27.0783 H   0  0  0  0  0  0
    1.5117   54.9657   27.8687 H   0  0  0  0  0  0
    2.7027   56.0046   28.6741 H   0  0  0  0  0  0
    7.2208   53.8169   29.2808 H   0  0  0  0  0  0
    7.1166   52.6403   27.9708 H   0  0  0  0  0  0
    7.7783   54.2445   27.6795 H   0  0  0  0  0  0
    4.8928   53.2065   26.1582 H   0  0  0  0  0  0
    7.3375   55.0533   23.1812 H   0  0  0  0  0  0
    6.5908   54.7298   20.8705 H   0  0  0  0  0  0
    2.6908   53.6086   22.2650 H   0  0  0  0  0  0
    3.4061   53.9467   24.5766 H   0  0  0  0  0  0
    4.3421   54.8706   19.4107 H   0  0  0  0  0  0
    4.7475   53.1607   19.5051 H   0  0  0  0  0  0
    3.1089   53.7132   19.8992 H   0  0  0  0  0  0
  1  2  1  0  0  0
  1 37  1  0  0  0
  1 38  1  0  0  0
  1 39  1  0  0  0
  2  7  2  0  0  0
  2  3  1  0  0  0
  3  4  2  0  0  0
  3 40  1  0  0  0
  4  5  1  0  0  0
  4 41  1  0  0  0
  5  6  2  0  0  0
  5  8  1  0  0  0
  6  7  1  0  0  0
  6 42  1  0  0  0
  7 43  1  0  0  0
  8 12  1  0  0  0
  8  9  2  0  0  0
  9 10  1  0  0  0
  9 44  1  0  0  0
 10 11  1  0  0  0
 11 12  2  0  0  0
 11 13  1  0  0  0
 13 14  1  0  0  0
 13 45  1  0  0  0
 14 15  2  0  0  0
 14 16  1  0  0  0
 16 17  1  0  0  0
 16 46  1  0  0  0
 16 47  1  0  0  0
 17 18  1  0  0  0
 18 22  1  0  0  0
 18 19  2  0  0  0
 19 20  1  0  0  0
 20 21  2  0  0  0
 21 22  1  0  0  0
 21 24  1  0  0  0
 22 23  1  0  0  0
 23 48  1  0  0  0
 23 49  1  0  0  0
 23 50  1  0  0  0
 24 25  1  0  0  0
 24 26  1  0  0  0
 24 27  1  0  0  0
 26 51  1  0  0  0
 26 52  1  0  0  0
 26 53  1  0  0  0
 27 28  1  0  0  0
 27 54  1  0  0  0
 28 29  2  0  0  0
 28 30  1  0  0  0
 30 35  2  0  0  0
 30 31  1  0  0  0
 31 32  2  0  0  0
 31 55  1  0  0  0
 32 33  1  0  0  0
 32 56  1  0  0  0
 33 34  2  0  0  0
 33 36  1  0  0  0
 34 35  1  0  0  0
 34 57  1  0  0  0
 35 58  1  0  0  0
 36 59  1  0  0  0
 36 60  1  0  0  0
 36 61  1  0  0  0
M  END
> <i_i_glide_confnum>
221

> <i_i_glide_lignum>
925

> <i_i_glide_posenum>
108

> <i_i_glide_rotatable_bonds>
10

> <i_m_Source_File_Index>
5363

> <b_m_subgroup_collapsed>
0

> <r_i_docking_score>
-6.73843

> <r_i_glide_ecoul>
-4.3507

> <r_i_glide_eff_state_penalty>
0

> <r_i_glide_einternal>
4.79986

> <r_i_glide_emodel>
-85.0922

> <r_i_glide_energy>
-61.0984

> <r_i_glide_erotb>
0.797128

> <r_i_glide_esite>
-0.0353739

> <r_i_glide_evdw>
-56.7477

> <r_i_glide_gscore>
-6.73843

> <r_i_glide_hbond>
-0.32

> <r_i_glide_ligand_efficiency>
-0.192526

> <r_i_glide_ligand_efficiency_ln>
-1.47923

> <r_i_glide_ligand_efficiency_sa>
-0.629767

> <r_i_glide_lipo>
-2.34428

> <r_i_glide_metal>
0

> <r_i_glide_rewards>
-1.34591

> <s_i_glide_gridfile>
wee1_glide-grid

> <s_m_Source_File>
wee1_decoys_glide_SP.sdf

> <s_m_Source_Path>
/Users/zhangxujun/Desktop

> <s_m_entry_id>
5638

> <s_m_entry_name>
wee1_decoys_glide_SP.5363

> <s_m_subgroup_title>
wee1_decoys_glide_SP

> <s_m_subgroupid>
wee1_decoys_glide_SP


$$$$
