ZINC33310230_2505
                    3D
 Schrodinger Suite 2024-2.
 57 59  0  0  1  0            999 V2000
   -0.8235   57.1405   17.1647 C   0  0  0  0  0  0
    0.2241   57.4212   16.0744 C   0  0  0  0  0  0
    1.5797   57.0580   16.4817 N   0  0  0  0  0  0
    2.0545   55.8023   16.5647 C   0  0  0  0  0  0
    1.3865   54.8165   16.2483 O   0  0  0  0  0  0
    3.4879   55.6470   17.1160 C   0  0  2  0  0  0
    3.5775   56.3752   17.9247 H   0  0  0  0  0  0
    4.5198   56.0075   16.0133 C   0  0  0  0  0  0
    5.9566   55.6961   16.4843 C   0  0  0  0  0  0
    6.0833   54.2690   17.0685 C   0  0  0  0  0  0
    5.1229   54.1503   18.1830 N   0  0  0  0  0  0
    3.7198   54.2269   17.7141 C   0  0  0  0  0  0
    5.5045   54.5244   19.4390 C   0  0  0  0  0  0
    6.6208   54.9941   19.6788 O   0  0  0  0  0  0
    4.5971   54.2384   20.4006 N   0  0  0  0  0  0
    4.7191   54.2921   21.8033 C   0  0  0  0  0  0
    5.9233   54.4951   22.4960 C   0  0  0  0  0  0
    5.9435   54.4908   23.8888 C   0  0  0  0  0  0
    4.7570   54.2811   24.6071 C   0  0  0  0  0  0
    3.5588   54.0928   23.9163 C   0  0  0  0  0  0
    3.5397   54.0958   22.5238 C   0  0  0  0  0  0
    4.6743   54.1982   26.0099 N   0  0  0  0  0  0
    5.6082   54.4416   26.9568 C   0  0  0  0  0  0
    6.7429   54.8526   26.7264 O   0  0  0  0  0  0
    5.2410   54.1768   28.2309 N   0  0  0  0  0  0
    3.9731   53.8321   28.7423 C   0  0  0  0  0  0
    2.8092   54.5136   28.3610 C   0  0  0  0  0  0
    1.5854   54.1788   28.9338 C   0  0  0  0  0  0
    1.5262   53.1720   29.8942 C   0  0  0  0  0  0
    2.6799   52.4973   30.2869 C   0  0  0  0  0  0
    3.9042   52.8262   29.7093 C   0  0  0  0  0  0
   -1.8163   57.4438   16.8335 H   0  0  0  0  0  0
   -0.6009   57.6907   18.0784 H   0  0  0  0  0  0
   -0.8702   56.0788   17.4094 H   0  0  0  0  0  0
   -0.0425   56.9041   15.1499 H   0  0  0  0  0  0
    0.2225   58.4876   15.8389 H   0  0  0  0  0  0
    2.1832   57.8231   16.7488 H   0  0  0  0  0  0
    4.3678   55.3842   15.1300 H   0  0  0  0  0  0
    4.4858   57.0676   15.7564 H   0  0  0  0  0  0
    6.6474   55.8083   15.6480 H   0  0  0  0  0  0
    6.2788   56.4287   17.2272 H   0  0  0  0  0  0
    5.8040   53.5235   16.3228 H   0  0  0  0  0  0
    7.0932   53.9808   17.3641 H   0  0  0  0  0  0
    3.0031   53.9362   18.4836 H   0  0  0  0  0  0
    3.6030   53.4619   16.9439 H   0  0  0  0  0  0
    3.6998   53.9125   20.0720 H   0  0  0  0  0  0
    6.8638   54.6417   21.9896 H   0  0  0  0  0  0
    6.8950   54.6295   24.3760 H   0  0  0  0  0  0
    2.6336   53.9274   24.4506 H   0  0  0  0  0  0
    2.6020   53.9402   22.0083 H   0  0  0  0  0  0
    3.7816   53.8911   26.3608 H   0  0  0  0  0  0
    5.9972   54.1808   28.9001 H   0  0  0  0  0  0
    2.8476   55.3127   27.6362 H   0  0  0  0  0  0
    0.6891   54.7045   28.6400 H   0  0  0  0  0  0
    0.5781   52.9144   30.3448 H   0  0  0  0  0  0
    2.6185   51.7304   31.0450 H   0  0  0  0  0  0
    4.7932   52.2929   30.0111 H   0  0  0  0  0  0
  1  2  1  0  0  0
  1 32  1  0  0  0
  1 33  1  0  0  0
  1 34  1  0  0  0
  2  3  1  0  0  0
  2 35  1  0  0  0
  2 36  1  0  0  0
  3  4  1  0  0  0
  3 37  1  0  0  0
  4  5  2  0  0  0
  4  6  1  0  0  0
  6  7  1  0  0  0
  6 12  1  0  0  0
  6  8  1  0  0  0
  8  9  1  0  0  0
  8 38  1  0  0  0
  8 39  1  0  0  0
  9 10  1  0  0  0
  9 40  1  0  0  0
  9 41  1  0  0  0
 10 11  1  0  0  0
 10 42  1  0  0  0
 10 43  1  0  0  0
 11 12  1  0  0  0
 11 13  1  0  0  0
 12 44  1  0  0  0
 12 45  1  0  0  0
 13 14  2  0  0  0
 13 15  1  0  0  0
 15 16  1  0  0  0
 15 46  1  0  0  0
 16 21  2  0  0  0
 16 17  1  0  0  0
 17 18  2  0  0  0
 17 47  1  0  0  0
 18 19  1  0  0  0
 18 48  1  0  0  0
 19 20  2  0  0  0
 19 22  1  0  0  0
 20 21  1  0  0  0
 20 49  1  0  0  0
 21 50  1  0  0  0
 22 23  1  0  0  0
 22 51  1  0  0  0
 23 24  2  0  0  0
 23 25  1  0  0  0
 25 26  1  0  0  0
 25 52  1  0  0  0
 26 31  2  0  0  0
 26 27  1  0  0  0
 27 28  2  0  0  0
 27 53  1  0  0  0
 28 29  1  0  0  0
 28 54  1  0  0  0
 29 30  2  0  0  0
 29 55  1  0  0  0
 30 31  1  0  0  0
 30 56  1  0  0  0
 31 57  1  0  0  0
M  END
> <i_i_glide_confnum>
31

> <i_i_glide_lignum>
2506

> <i_i_glide_posenum>
87

> <i_i_glide_rotatable_bonds>
10

> <i_m_Source_File_Index>
554

> <b_m_subgroup_collapsed>
0

> <r_i_docking_score>
-4.94924

> <r_i_glide_ecoul>
-3.97399

> <r_i_glide_eff_state_penalty>
0

> <r_i_glide_einternal>
4.83897

> <r_i_glide_emodel>
-60.5458

> <r_i_glide_energy>
-50.3596

> <r_i_glide_erotb>
0.939493

> <r_i_glide_esite>
-0.022297

> <r_i_glide_evdw>
-46.3856

> <r_i_glide_gscore>
-4.94924

> <r_i_glide_hbond>
-0.212807

> <r_i_glide_ligand_efficiency>
-0.164975

> <r_i_glide_ligand_efficiency_ln>
-1.12452

> <r_i_glide_ligand_efficiency_sa>
-0.512614

> <r_i_glide_lipo>
-2.48192

> <r_i_glide_metal>
0

> <r_i_glide_rewards>
-0.25633

> <s_i_glide_gridfile>
wee1_glide-grid

> <s_m_Source_File>
wee1_decoys_glide_SP.sdf

> <s_m_Source_Path>
/Users/zhangxujun/Desktop

> <s_m_entry_id>
829

> <s_m_entry_name>
wee1_decoys_glide_SP.554

> <s_m_subgroup_title>
wee1_decoys_glide_SP

> <s_m_subgroupid>
wee1_decoys_glide_SP


$$$$
