ZINC39972179_5717
                    3D
 Schrodinger Suite 2024-2.
 68 71  0  0  1  0            999 V2000
    0.9862   52.6210   32.0296 C   0  0  0  0  0  0
    0.9775   53.6701   31.0730 O   0  0  0  0  0  0
    1.9352   53.7089   30.0804 C   0  0  0  0  0  0
    2.9987   52.8004   29.9273 C   0  0  0  0  0  0
    3.8977   52.9420   28.8642 C   0  0  0  0  0  0
    3.7309   53.9804   27.9441 C   0  0  0  0  0  0
    2.7011   54.8963   28.1286 C   0  0  0  0  0  0
    1.8117   54.7670   29.1854 C   0  0  0  0  0  0
    4.5909   54.1631   26.7272 C   0  0  0  0  0  0
    5.9358   54.4971   26.8442 C   0  0  0  0  0  0
    6.7034   54.7952   25.3330 S   0  0  0  0  0  0
    5.2204   54.4303   24.4900 C   0  0  0  0  0  0
    4.1504   54.0957   25.3634 C   0  0  0  0  0  0
    2.7760   53.6967   24.9555 C   0  0  0  0  0  0
    1.9370   53.2304   25.7304 O   0  0  0  0  0  0
    2.5467   53.8659   23.6309 O   0  0  0  0  0  0
    1.3047   53.4828   23.0597 C   0  0  0  0  0  0
    5.1469   54.4284   23.0959 N   0  0  0  0  0  0
    6.0207   54.8371   22.1492 C   0  0  0  0  0  0
    7.1044   55.3711   22.3747 O   0  0  0  0  0  0
    5.5833   54.6467   20.6732 C   0  0  0  0  0  0
    4.4867   53.6618   20.5169 N   0  0  0  0  0  0
    4.9970   52.2861   20.6496 C   0  0  0  0  0  0
    3.8241   51.2967   20.6519 C   0  0  0  0  0  0
    3.1045   51.3642   19.2895 N   0  3  0  0  0  0
    2.6508   52.8156   19.0236 C   0  0  0  0  0  0
    3.8553   53.7839   19.1875 C   0  0  0  0  0  0
    1.9601   50.3266   19.1870 C   0  0  0  0  0  0
    1.0405   50.2413   20.4010 C   0  0  0  0  0  0
   -0.1181   51.0184   20.4654 C   0  0  0  0  0  0
   -0.9424   50.9424   21.5849 C   0  0  0  0  0  0
   -0.6144   50.0862   22.6378 C   0  0  0  0  0  0
    0.5369   49.2994   22.5706 C   0  0  0  0  0  0
    1.3552   49.3676   21.4476 C   0  0  0  0  0  0
   -1.6866   50.0327   24.0492 S   0  0  0  0  0  0
   -1.0242   48.8651   25.2753 C   0  0  0  0  0  0
    0.3045   52.8848   32.8376 H   0  0  0  0  0  0
    1.9642   52.4590   32.4797 H   0  0  0  0  0  0
    0.6290   51.6968   31.5813 H   0  0  0  0  0  0
    3.1355   51.9784   30.6130 H   0  0  0  0  0  0
    4.7011   52.2304   28.7351 H   0  0  0  0  0  0
    2.5793   55.6976   27.4244 H   0  0  0  0  0  0
    1.0088   55.4777   29.3031 H   0  0  0  0  0  0
    6.4950   54.6223   27.7614 H   0  0  0  0  0  0
    1.3047   53.6963   21.9910 H   0  0  0  0  0  0
    1.1292   52.4144   23.1899 H   0  0  0  0  0  0
    0.4774   54.0250   23.5197 H   0  0  0  0  0  0
    4.2605   54.1146   22.7230 H   0  0  0  0  0  0
    5.2710   55.6183   20.2870 H   0  0  0  0  0  0
    6.4443   54.3777   20.0567 H   0  0  0  0  0  0
    5.6980   52.0670   19.8385 H   0  0  0  0  0  0
    5.5269   52.1625   21.5937 H   0  0  0  0  0  0
    3.1058   51.5242   21.4400 H   0  0  0  0  0  0
    4.1767   50.2769   20.7562 H   0  0  0  0  0  0
    1.8419   53.0279   19.7214 H   0  0  0  0  0  0
    2.2823   52.8357   17.9970 H   0  0  0  0  0  0
    3.5043   54.8043   19.0244 H   0  0  0  0  0  0
    4.6061   53.5586   18.4262 H   0  0  0  0  0  0
    1.4191   50.5630   18.2684 H   0  0  0  0  0  0
    2.4867   49.3811   19.0285 H   0  0  0  0  0  0
   -0.3742   51.6875   19.6560 H   0  0  0  0  0  0
   -1.8345   51.5486   21.6380 H   0  0  0  0  0  0
    0.8121   48.6365   23.3799 H   0  0  0  0  0  0
    2.2448   48.7549   21.4032 H   0  0  0  0  0  0
   -1.7465   48.7421   26.0826 H   0  0  0  0  0  0
   -0.8483   47.8832   24.8386 H   0  0  0  0  0  0
   -0.0966   49.2357   25.7111 H   0  0  0  0  0  0
    3.8053   51.1091   18.5883 H   0  0  0  0  0  0
  1  2  1  0  0  0
  1 37  1  0  0  0
  1 38  1  0  0  0
  1 39  1  0  0  0
  2  3  1  0  0  0
  3  8  2  0  0  0
  3  4  1  0  0  0
  4  5  2  0  0  0
  4 40  1  0  0  0
  5  6  1  0  0  0
  5 41  1  0  0  0
  6  7  2  0  0  0
  6  9  1  0  0  0
  7  8  1  0  0  0
  7 42  1  0  0  0
  8 43  1  0  0  0
  9 13  1  0  0  0
  9 10  2  0  0  0
 10 11  1  0  0  0
 10 44  1  0  0  0
 11 12  1  0  0  0
 12 13  2  0  0  0
 12 18  1  0  0  0
 13 14  1  0  0  0
 14 15  2  0  0  0
 14 16  1  0  0  0
 16 17  1  0  0  0
 17 45  1  0  0  0
 17 46  1  0  0  0
 17 47  1  0  0  0
 18 19  1  0  0  0
 18 48  1  0  0  0
 19 20  2  0  0  0
 19 21  1  0  0  0
 21 22  1  0  0  0
 21 49  1  0  0  0
 21 50  1  0  0  0
 22 27  1  0  0  0
 22 23  1  0  0  0
 23 24  1  0  0  0
 23 51  1  0  0  0
 23 52  1  0  0  0
 24 25  1  0  0  0
 24 53  1  0  0  0
 24 54  1  0  0  0
 25 26  1  0  0  0
 25 28  1  0  0  0
 25 68  1  0  0  0
 26 27  1  0  0  0
 26 55  1  0  0  0
 26 56  1  0  0  0
 27 57  1  0  0  0
 27 58  1  0  0  0
 28 29  1  0  0  0
 28 59  1  0  0  0
 28 60  1  0  0  0
 29 34  2  0  0  0
 29 30  1  0  0  0
 30 31  2  0  0  0
 30 61  1  0  0  0
 31 32  1  0  0  0
 31 62  1  0  0  0
 32 33  2  0  0  0
 32 35  1  0  0  0
 33 34  1  0  0  0
 33 63  1  0  0  0
 34 64  1  0  0  0
 35 36  1  0  0  0
 36 65  1  0  0  0
 36 66  1  0  0  0
 36 67  1  0  0  0
M  CHG  1  25   1
M  END
> <i_i_glide_confnum>
64

> <i_i_glide_lignum>
5718

> <i_i_glide_posenum>
127

> <i_i_glide_rotatable_bonds>
11

> <i_m_Source_File_Index>
4268

> <b_m_subgroup_collapsed>
0

> <r_i_docking_score>
-6.51813

> <r_i_glide_ecoul>
-2.97856

> <r_i_glide_eff_state_penalty>
0

> <r_i_glide_einternal>
10.1457

> <r_i_glide_emodel>
-75.1378

> <r_i_glide_energy>
-55.365

> <r_i_glide_erotb>
0.593805

> <r_i_glide_esite>
-0.0974446

> <r_i_glide_evdw>
-52.3864

> <r_i_glide_gscore>
-6.51813

> <r_i_glide_hbond>
-0.226668

> <r_i_glide_ligand_efficiency>
-0.181059

> <r_i_glide_ligand_efficiency_ln>
-1.42208

> <r_i_glide_ligand_efficiency_sa>
-0.597844

> <r_i_glide_lipo>
-2.97699

> <r_i_glide_metal>
0

> <r_i_glide_rewards>
-0.744728

> <s_i_glide_gridfile>
wee1_glide-grid

> <s_m_Source_File>
wee1_decoys_glide_SP.sdf

> <s_m_Source_Path>
/Users/zhangxujun/Desktop

> <s_m_entry_id>
4543

> <s_m_entry_name>
wee1_decoys_glide_SP.4268

> <s_m_subgroup_title>
wee1_decoys_glide_SP

> <s_m_subgroupid>
wee1_decoys_glide_SP


$$$$
