ZINC39642036_5108
                    3D
 Schrodinger Suite 2024-2.
 69 71  0  0  1  0            999 V2000
    6.7057   53.3145   27.9933 C   0  0  0  0  0  0
    5.1746   53.1262   27.9877 C   0  0  0  0  0  0
    4.6139   52.8737   29.4076 C   0  0  0  0  0  0
    4.4249   54.2479   27.1970 C   0  0  2  0  0  0
    4.7062   55.2357   27.5699 H   0  0  0  0  0  0
    2.9079   54.1345   27.3480 C   0  0  0  0  0  0
    2.2657   54.8954   28.0768 O   0  0  0  0  0  0
    2.3888   53.0335   26.7365 O   0  0  0  0  0  0
    1.0331   52.6443   26.9516 C   0  0  0  0  0  0
    0.5290   51.6748   25.8848 C   0  0  0  0  0  0
   -0.1141   50.4264   26.3020 C   0  0  0  0  0  0
   -0.5111   49.5084   25.3940 C   0  0  0  0  0  0
   -1.1713   48.3568   25.6818 O   0  0  0  0  0  0
   -0.3164   49.6762   24.0564 O   0  0  0  0  0  0
    0.2778   50.8210   23.6172 C   0  0  0  0  0  0
    0.6952   51.8715   24.5473 C   0  0  0  0  0  0
    1.2803   53.0404   23.9010 C   0  0  0  0  0  0
    1.4558   53.1018   22.5551 C   0  0  0  0  0  0
    1.0881   52.0485   21.6993 C   0  0  0  0  0  0
    0.4742   50.9143   22.2789 C   0  0  0  0  0  0
    1.3572   52.2079   20.3950 N   0  3  0  0  0  0
    1.0745   51.3109   19.3271 C   0  0  0  0  0  0
    0.1796   50.4665   19.3186 O   0  0  0  0  0  0
    1.9983   51.5279   18.1310 C   0  0  0  0  0  0
    4.6985   54.1885   25.7478 N   0  0  0  0  0  0
    5.7263   54.7698   25.0935 C   0  0  0  0  0  0
    6.5895   55.4379   25.6700 O   0  0  0  0  0  0
    5.7492   54.6105   23.5849 C   0  0  0  0  0  0
    6.7046   55.3034   22.8341 C   0  0  0  0  0  0
    6.6740   55.2962   21.4423 C   0  0  0  0  0  0
    5.7000   54.5597   20.7521 C   0  0  0  0  0  0
    4.7638   53.8388   21.5045 C   0  0  0  0  0  0
    4.7898   53.8575   22.8962 C   0  0  0  0  0  0
    5.6548   54.5010   19.2022 C   0  0  0  0  0  0
    5.5212   53.0340   18.7272 C   0  0  0  0  0  0
    6.9329   55.0759   18.5340 C   0  0  0  0  0  0
    4.4410   55.3012   18.6786 C   0  0  0  0  0  0
    6.9951   54.2426   28.4844 H   0  0  0  0  0  0
    7.2296   52.4972   28.4751 H   0  0  0  0  0  0
    7.1077   53.3278   26.9843 H   0  0  0  0  0  0
    5.0007   52.1988   27.4521 H   0  0  0  0  0  0
    4.7034   53.7682   30.0229 H   0  0  0  0  0  0
    3.5611   52.5913   29.3923 H   0  0  0  0  0  0
    5.1045   52.0474   29.9111 H   0  0  0  0  0  0
    0.9752   52.1590   27.9273 H   0  0  0  0  0  0
    0.3685   53.5023   27.0049 H   0  0  0  0  0  0
   -0.3171   50.2415   27.3476 H   0  0  0  0  0  0
    1.5579   53.9027   24.4914 H   0  0  0  0  0  0
    1.8731   54.0032   22.1238 H   0  0  0  0  0  0
    0.1566   50.0908   21.6605 H   0  0  0  0  0  0
    1.8241   53.0653   20.1089 H   0  0  0  0  0  0
    2.2455   52.5783   17.9802 H   0  0  0  0  0  0
    2.9250   50.9657   18.2651 H   0  0  0  0  0  0
    1.5248   51.1631   17.2191 H   0  0  0  0  0  0
    4.0338   53.6564   25.2100 H   0  0  0  0  0  0
    7.4730   55.8872   23.3236 H   0  0  0  0  0  0
    7.4326   55.8587   20.9222 H   0  0  0  0  0  0
    4.0021   53.2567   21.0134 H   0  0  0  0  0  0
    4.0366   53.2956   23.4235 H   0  0  0  0  0  0
    5.5832   52.9458   17.6418 H   0  0  0  0  0  0
    4.5717   52.5849   19.0139 H   0  0  0  0  0  0
    6.3045   52.4069   19.1487 H   0  0  0  0  0  0
    7.0479   56.1431   18.7248 H   0  0  0  0  0  0
    7.8342   54.5718   18.8848 H   0  0  0  0  0  0
    6.9047   54.9630   17.4495 H   0  0  0  0  0  0
    4.5413   56.3678   18.8824 H   0  0  0  0  0  0
    4.3350   55.1992   17.5973 H   0  0  0  0  0  0
    3.5054   54.9609   19.1239 H   0  0  0  0  0  0
   -1.2952   48.2856   26.6474 H   0  0  0  0  0  0
  1  2  1  0  0  0
  1 38  1  0  0  0
  1 39  1  0  0  0
  1 40  1  0  0  0
  2  3  1  0  0  0
  2  4  1  0  0  0
  2 41  1  0  0  0
  3 42  1  0  0  0
  3 43  1  0  0  0
  3 44  1  0  0  0
  4  5  1  0  0  0
  4  6  1  0  0  0
  4 25  1  0  0  0
  6  7  2  0  0  0
  6  8  1  0  0  0
  8  9  1  0  0  0
  9 10  1  0  0  0
  9 45  1  0  0  0
  9 46  1  0  0  0
 10 16  2  0  0  0
 10 11  1  0  0  0
 11 12  2  0  0  0
 11 47  1  0  0  0
 12 13  1  0  0  0
 12 14  1  0  0  0
 13 69  1  0  0  0
 14 15  1  0  0  0
 15 20  2  0  0  0
 15 16  1  0  0  0
 16 17  1  0  0  0
 17 18  2  0  0  0
 17 48  1  0  0  0
 18 19  1  0  0  0
 18 49  1  0  0  0
 19 20  1  0  0  0
 19 21  2  0  0  0
 20 50  1  0  0  0
 21 22  1  0  0  0
 21 51  1  0  0  0
 22 23  2  0  0  0
 22 24  1  0  0  0
 24 52  1  0  0  0
 24 53  1  0  0  0
 24 54  1  0  0  0
 25 26  1  0  0  0
 25 55  1  0  0  0
 26 27  2  0  0  0
 26 28  1  0  0  0
 28 33  2  0  0  0
 28 29  1  0  0  0
 29 30  2  0  0  0
 29 56  1  0  0  0
 30 31  1  0  0  0
 30 57  1  0  0  0
 31 32  2  0  0  0
 31 34  1  0  0  0
 32 33  1  0  0  0
 32 58  1  0  0  0
 33 59  1  0  0  0
 34 35  1  0  0  0
 34 36  1  0  0  0
 34 37  1  0  0  0
 35 60  1  0  0  0
 35 61  1  0  0  0
 35 62  1  0  0  0
 36 63  1  0  0  0
 36 64  1  0  0  0
 36 65  1  0  0  0
 37 66  1  0  0  0
 37 67  1  0  0  0
 37 68  1  0  0  0
M  CHG  1  21   1
M  END
> <i_i_glide_confnum>
127

> <i_i_glide_lignum>
5109

> <i_i_glide_posenum>
156

> <i_i_glide_rotatable_bonds>
11

> <i_m_Source_File_Index>
3145

> <b_m_subgroup_collapsed>
0

> <r_i_docking_score>
-7.39394

> <r_i_glide_ecoul>
-13.4948

> <r_i_glide_eff_state_penalty>
0

> <r_i_glide_einternal>
6.02456

> <r_i_glide_emodel>
-84.9605

> <r_i_glide_energy>
-57.4745

> <r_i_glide_erotb>
0.669011

> <r_i_glide_esite>
-0.0434474

> <r_i_glide_evdw>
-43.9797

> <r_i_glide_gscore>
-7.39394

> <r_i_glide_hbond>
-0.237297

> <r_i_glide_ligand_efficiency>
-0.205387

> <r_i_glide_ligand_efficiency_ln>
-1.61316

> <r_i_glide_ligand_efficiency_sa>
-0.678174

> <r_i_glide_lipo>
-2.8056

> <r_i_glide_metal>
0

> <r_i_glide_rewards>
-0.753401

> <s_i_glide_gridfile>
wee1_glide-grid

> <s_m_Source_File>
wee1_decoys_glide_SP.sdf

> <s_m_Source_Path>
/Users/zhangxujun/Desktop

> <s_m_entry_id>
3420

> <s_m_entry_name>
wee1_decoys_glide_SP.3145

> <s_m_subgroup_title>
wee1_decoys_glide_SP

> <s_m_subgroupid>
wee1_decoys_glide_SP


$$$$
