ZINC38649801_6004
                    3D
 Schrodinger Suite 2024-2.
 63 66  0  0  1  0            999 V2000
    9.8355   56.6062   14.9315 C   0  0  0  0  0  0
    9.9008   56.1857   16.4225 C   0  0  2  0  0  0
   10.4780   55.2606   16.4386 H   0  0  0  0  0  0
    8.5485   55.8039   17.0601 C   0  0  0  0  0  0
    7.4982   55.8249   16.4134 O   0  0  0  0  0  0
    8.6777   55.5119   18.3849 O   0  0  0  0  0  0
    7.5897   55.2463   19.1900 C   0  0  0  0  0  0
    7.5681   55.8484   20.4445 C   0  0  0  0  0  0
    6.5271   55.5990   21.3359 C   0  0  0  0  0  0
    5.5039   54.6848   21.0379 C   0  0  0  0  0  0
    5.5427   54.0876   19.7621 C   0  0  0  0  0  0
    6.5603   54.3621   18.8502 C   0  0  0  0  0  0
    4.6203   53.1525   19.3512 O   0  0  0  0  0  0
    3.7910   52.6075   20.2668 C   0  0  0  0  0  0
    3.6332   53.0517   21.5297 C   0  0  0  0  0  0
    4.3795   54.2973   22.0378 C   0  0  1  0  0  0
    3.6591   55.1135   21.9843 H   0  0  0  0  0  0
    4.7569   54.2403   23.5370 C   0  0  0  0  0  0
    6.0779   54.0973   23.9748 C   0  0  0  0  0  0
    6.3783   54.0806   25.3309 C   0  0  0  0  0  0
    5.3635   54.1189   26.2963 C   0  0  0  0  0  0
    4.0423   54.2802   25.8558 C   0  0  0  0  0  0
    3.7458   54.3570   24.4979 C   0  0  0  0  0  0
    5.6646   53.9530   27.8104 C   0  0  0  0  0  0
    7.1048   53.4754   28.0986 C   0  0  0  0  0  0
    4.6684   52.9810   28.4846 C   0  0  0  0  0  0
    5.5044   55.2967   28.4965 C   0  0  0  0  0  0
    2.6866   52.3982   22.3759 C   0  0  0  0  0  0
    1.8977   51.8672   23.0338 N   0  0  0  0  0  0
    3.1876   51.5290   19.6816 N   0  0  0  0  0  0
   10.6569   57.0750   17.2643 O   0  0  0  0  0  0
   10.4544   58.4457   17.2662 C   0  0  0  0  0  0
    9.2296   59.0612   16.9577 C   0  0  0  0  0  0
    9.1076   60.4509   16.9665 C   0  0  0  0  0  0
   10.2081   61.2453   17.2809 C   0  0  0  0  0  0
   11.4217   60.6463   17.6137 C   0  0  0  0  0  0
   11.5420   59.2565   17.6149 C   0  0  0  0  0  0
   12.7305   58.6983   17.9437 F   0  0  0  0  0  0
    9.3191   55.8557   14.3327 H   0  0  0  0  0  0
    9.3203   57.5511   14.7731 H   0  0  0  0  0  0
   10.8395   56.7090   14.5214 H   0  0  0  0  0  0
    8.3825   56.4939   20.7313 H   0  0  0  0  0  0
    6.5488   56.0972   22.2928 H   0  0  0  0  0  0
    6.5657   53.8535   17.8969 H   0  0  0  0  0  0
    6.8918   53.9750   23.2766 H   0  0  0  0  0  0
    7.4138   53.9685   25.5993 H   0  0  0  0  0  0
    3.2293   54.3391   26.5633 H   0  0  0  0  0  0
    2.7170   54.4821   24.1915 H   0  0  0  0  0  0
    7.2908   53.4088   29.1672 H   0  0  0  0  0  0
    7.8491   54.1776   27.7208 H   0  0  0  0  0  0
    7.3106   52.4971   27.6731 H   0  0  0  0  0  0
    3.6725   53.4099   28.5927 H   0  0  0  0  0  0
    4.5488   52.0968   27.8811 H   0  0  0  0  0  0
    4.9885   52.6738   29.4847 H   0  0  0  0  0  0
    4.4859   55.6603   28.3393 H   0  0  0  0  0  0
    5.6640   55.2376   29.5748 H   0  0  0  0  0  0
    6.2359   55.9985   28.0816 H   0  0  0  0  0  0
    2.4675   51.0101   20.1611 H   0  0  0  0  0  0
    3.6778   51.0568   18.9257 H   0  0  0  0  0  0
    8.3533   58.4817   16.7138 H   0  0  0  0  0  0
    8.1569   60.9057   16.7225 H   0  0  0  0  0  0
   10.1174   62.3214   17.2618 H   0  0  0  0  0  0
   12.2800   61.2558   17.8604 H   0  0  0  0  0  0
  1  2  1  0  0  0
  1 39  1  0  0  0
  1 40  1  0  0  0
  1 41  1  0  0  0
  2  3  1  0  0  0
  2  4  1  0  0  0
  2 31  1  0  0  0
  4  5  2  0  0  0
  4  6  1  0  0  0
  6  7  1  0  0  0
  7 12  2  0  0  0
  7  8  1  0  0  0
  8  9  2  0  0  0
  8 42  1  0  0  0
  9 10  1  0  0  0
  9 43  1  0  0  0
 10 16  1  0  0  0
 10 11  2  0  0  0
 11 12  1  0  0  0
 11 13  1  0  0  0
 12 44  1  0  0  0
 13 14  1  0  0  0
 14 15  2  0  0  0
 14 30  1  0  0  0
 15 16  1  0  0  0
 15 28  1  0  0  0
 16 17  1  0  0  0
 16 18  1  0  0  0
 18 23  2  0  0  0
 18 19  1  0  0  0
 19 20  2  0  0  0
 19 45  1  0  0  0
 20 21  1  0  0  0
 20 46  1  0  0  0
 21 22  2  0  0  0
 21 24  1  0  0  0
 22 23  1  0  0  0
 22 47  1  0  0  0
 23 48  1  0  0  0
 24 25  1  0  0  0
 24 26  1  0  0  0
 24 27  1  0  0  0
 25 49  1  0  0  0
 25 50  1  0  0  0
 25 51  1  0  0  0
 26 52  1  0  0  0
 26 53  1  0  0  0
 26 54  1  0  0  0
 27 55  1  0  0  0
 27 56  1  0  0  0
 27 57  1  0  0  0
 28 29  3  0  0  0
 30 58  1  0  0  0
 30 59  1  0  0  0
 31 32  1  0  0  0
 32 37  2  0  0  0
 32 33  1  0  0  0
 33 34  2  0  0  0
 33 60  1  0  0  0
 34 35  1  0  0  0
 34 61  1  0  0  0
 35 36  2  0  0  0
 35 62  1  0  0  0
 36 37  1  0  0  0
 36 63  1  0  0  0
 37 38  1  0  0  0
M  END
> <i_i_glide_confnum>
70

> <i_i_glide_lignum>
6005

> <i_i_glide_posenum>
22

> <i_i_glide_rotatable_bonds>
8

> <i_m_Source_File_Index>
1690

> <b_m_subgroup_collapsed>
0

> <r_i_docking_score>
-4.57414

> <r_i_glide_ecoul>
-0.673467

> <r_i_glide_eff_state_penalty>
0

> <r_i_glide_einternal>
6.65118

> <r_i_glide_emodel>
-41.9399

> <r_i_glide_energy>
-33.3976

> <r_i_glide_erotb>
0.429269

> <r_i_glide_esite>
-0.079319

> <r_i_glide_evdw>
-32.7242

> <r_i_glide_gscore>
-4.57414

> <r_i_glide_hbond>
-0.159699

> <r_i_glide_ligand_efficiency>
-0.12706

> <r_i_glide_ligand_efficiency_ln>
-0.997954

> <r_i_glide_ligand_efficiency_sa>
-0.419541

> <r_i_glide_lipo>
-3.29609

> <r_i_glide_metal>
0

> <r_i_glide_rewards>
0.26892

> <s_i_glide_gridfile>
wee1_glide-grid

> <s_m_Source_File>
wee1_decoys_glide_SP.sdf

> <s_m_Source_Path>
/Users/zhangxujun/Desktop

> <s_m_entry_id>
1965

> <s_m_entry_name>
wee1_decoys_glide_SP.1690

> <s_m_subgroup_title>
wee1_decoys_glide_SP

> <s_m_subgroupid>
wee1_decoys_glide_SP


$$$$
