ZINC44714171_6197
                    3D
 Schrodinger Suite 2024-2.
 66 69  0  0  1  0            999 V2000
    3.0780   51.8807   18.9516 C   0  0  0  0  0  0
    3.2196   52.4963   20.3206 C   0  0  0  0  0  0
    2.6481   52.2021   21.5546 C   0  0  0  0  0  0
    3.1741   53.2073   22.4137 C   0  0  0  0  0  0
    3.9973   54.0185   21.7878 N   0  0  0  0  0  0
    4.0187   53.5814   20.5347 N   0  0  0  0  0  0
    4.5622   54.0382   19.8166 H   0  0  0  0  0  0
    2.9271   53.4623   23.8834 C   0  0  0  0  0  0
    1.6548   51.0730   21.8291 C   0  0  1  0  0  0
    1.0096   50.9864   20.9508 H   0  0  0  0  0  0
    2.3499   49.7132   22.0110 C   0  0  0  0  0  0
    0.7889   51.3805   22.9620 N   0  0  0  0  0  0
   -0.4199   50.8468   23.2119 C   0  0  0  0  0  0
   -0.9632   50.0595   22.4381 O   0  0  0  0  0  0
   -1.1901   51.3269   24.4697 C   0  0  2  0  0  0
   -2.1544   51.6732   24.0998 H   0  0  0  0  0  0
   -0.5069   52.4967   25.2023 C   0  0  0  0  0  0
    0.2505   51.8804   26.2960 N   0  0  0  0  0  0
   -0.0921   50.4709   26.4707 C   0  0  0  0  0  0
   -1.3462   50.2595   25.5952 C   0  0  0  0  0  0
   -1.4809   48.7557   25.2113 C   0  0  0  0  0  0
   -2.8153   48.4335   24.5154 C   0  0  0  0  0  0
   -3.9570   48.8130   25.4786 N   0  3  0  0  0  0
   -3.9310   50.3050   25.8630 C   0  0  0  0  0  0
   -2.5674   50.6184   26.5071 C   0  0  0  0  0  0
    1.1434   52.5686   27.0455 C   0  0  0  0  0  0
    1.5044   53.6971   26.7139 O   0  0  0  0  0  0
    1.6960   51.9518   28.3654 C   0  0  2  0  0  0
    1.8934   50.8966   28.1741 H   0  0  0  0  0  0
    0.6554   52.1191   29.5088 C   0  0  0  0  0  0
    0.3362   53.5911   29.8624 C   0  0  0  0  0  0
    1.6319   54.3867   29.9743 C   0  0  0  0  0  0
    2.8298   53.9463   29.5332 C   0  0  0  0  0  0
    3.0459   52.6254   28.7847 C   0  0  0  0  0  0
    3.0894   50.7913   18.9958 H   0  0  0  0  0  0
    3.8996   52.1561   18.2876 H   0  0  0  0  0  0
    2.1501   52.1806   18.4648 H   0  0  0  0  0  0
    2.7033   52.5483   24.4319 H   0  0  0  0  0  0
    3.7961   53.8980   24.3792 H   0  0  0  0  0  0
    2.0993   54.1571   24.0330 H   0  0  0  0  0  0
    2.9437   49.4527   21.1345 H   0  0  0  0  0  0
    3.0179   49.7176   22.8733 H   0  0  0  0  0  0
    1.6287   48.9101   22.1638 H   0  0  0  0  0  0
    1.2234   51.9091   23.7021 H   0  0  0  0  0  0
    0.0669   53.1536   24.5478 H   0  0  0  0  0  0
   -1.2936   53.1195   25.6306 H   0  0  0  0  0  0
   -0.2421   50.1249   27.4941 H   0  0  0  0  0  0
    0.7179   49.8770   26.0443 H   0  0  0  0  0  0
   -0.6450   48.4401   24.5862 H   0  0  0  0  0  0
   -1.3910   48.1249   26.0925 H   0  0  0  0  0  0
   -2.9755   48.9972   23.5947 H   0  0  0  0  0  0
   -2.9257   47.3689   24.3067 H   0  0  0  0  0  0
   -4.8508   48.5745   25.0706 H   0  0  0  0  0  0
   -4.1243   50.8724   24.9509 H   0  0  0  0  0  0
   -4.7584   50.4570   26.5574 H   0  0  0  0  0  0
   -2.5024   50.0960   27.4607 H   0  0  0  0  0  0
   -2.5381   51.6647   26.8141 H   0  0  0  0  0  0
   -0.2273   51.4949   29.3647 H   0  0  0  0  0  0
    1.1058   51.6969   30.4073 H   0  0  0  0  0  0
   -0.2058   53.6269   30.8083 H   0  0  0  0  0  0
   -0.3206   54.0452   29.1202 H   0  0  0  0  0  0
    1.5960   55.3600   30.4445 H   0  0  0  0  0  0
    3.6845   54.5918   29.6787 H   0  0  0  0  0  0
    3.5826   51.9590   29.4609 H   0  0  0  0  0  0
    3.7164   52.7477   27.9313 H   0  0  0  0  0  0
   -3.8591   48.2638   26.3239 H   0  0  0  0  0  0
  1  2  1  0  0  0
  1 35  1  0  0  0
  1 36  1  0  0  0
  1 37  1  0  0  0
  2  6  1  0  0  0
  2  3  2  0  0  0
  3  4  1  0  0  0
  3  9  1  0  0  0
  4  5  2  0  0  0
  4  8  1  0  0  0
  5  6  1  0  0  0
  6  7  1  0  0  0
  8 38  1  0  0  0
  8 39  1  0  0  0
  8 40  1  0  0  0
  9 10  1  0  0  0
  9 11  1  0  0  0
  9 12  1  0  0  0
 11 41  1  0  0  0
 11 42  1  0  0  0
 11 43  1  0  0  0
 12 13  1  0  0  0
 12 44  1  0  0  0
 13 14  2  0  0  0
 13 15  1  0  0  0
 15 16  1  0  0  0
 15 20  1  0  0  0
 15 17  1  0  0  0
 17 18  1  0  0  0
 17 45  1  0  0  0
 17 46  1  0  0  0
 18 19  1  0  0  0
 18 26  1  0  0  0
 19 20  1  0  0  0
 19 47  1  0  0  0
 19 48  1  0  0  0
 20 25  1  0  0  0
 20 21  1  0  0  0
 21 22  1  0  0  0
 21 49  1  0  0  0
 21 50  1  0  0  0
 22 23  1  0  0  0
 22 51  1  0  0  0
 22 52  1  0  0  0
 23 24  1  0  0  0
 23 53  1  0  0  0
 23 66  1  0  0  0
 24 25  1  0  0  0
 24 54  1  0  0  0
 24 55  1  0  0  0
 25 56  1  0  0  0
 25 57  1  0  0  0
 26 27  2  0  0  0
 26 28  1  0  0  0
 28 29  1  0  0  0
 28 34  1  0  0  0
 28 30  1  0  0  0
 30 31  1  0  0  0
 30 58  1  0  0  0
 30 59  1  0  0  0
 31 32  1  0  0  0
 31 60  1  0  0  0
 31 61  1  0  0  0
 32 33  2  0  0  0
 32 62  1  0  0  0
 33 34  1  0  0  0
 33 63  1  0  0  0
 34 64  1  0  0  0
 34 65  1  0  0  0
M  CHG  1  23   1
M  END
> <i_i_glide_confnum>
93

> <i_i_glide_lignum>
6198

> <i_i_glide_posenum>
8

> <i_i_glide_rotatable_bonds>
6

> <i_m_Source_File_Index>
357

> <b_m_subgroup_collapsed>
0

> <r_i_docking_score>
-3.97811

> <r_i_glide_ecoul>
-3.34609

> <r_i_glide_eff_state_penalty>
0

> <r_i_glide_einternal>
13.5885

> <r_i_glide_emodel>
-46.883

> <r_i_glide_energy>
-41.4369

> <r_i_glide_erotb>
0.689106

> <r_i_glide_esite>
-0.0332143

> <r_i_glide_evdw>
-38.0909

> <r_i_glide_gscore>
-3.97811

> <r_i_glide_hbond>
0

> <r_i_glide_ligand_efficiency>
-0.132604

> <r_i_glide_ligand_efficiency_ln>
-0.90387

> <r_i_glide_ligand_efficiency_sa>
-0.41203

> <r_i_glide_lipo>
-1.4331

> <r_i_glide_metal>
0

> <r_i_glide_rewards>
-0.794441

> <s_i_glide_gridfile>
wee1_glide-grid

> <s_m_Source_File>
wee1_decoys_glide_SP.sdf

> <s_m_Source_Path>
/Users/zhangxujun/Desktop

> <s_m_entry_id>
632

> <s_m_entry_name>
wee1_decoys_glide_SP.357

> <s_m_subgroup_title>
wee1_decoys_glide_SP

> <s_m_subgroupid>
wee1_decoys_glide_SP


$$$$
