ZINC04235383_3750
                    3D
 Schrodinger Suite 2024-2.
 58 61  0  0  1  0            999 V2000
    5.6821   54.6040   17.4178 C   0  0  0  0  0  0
    6.4599   55.2433   18.3835 C   0  0  0  0  0  0
    6.2636   54.9767   19.7437 C   0  0  0  0  0  0
    5.2778   54.0574   20.1218 C   0  0  0  0  0  0
    4.5039   53.4053   19.1535 C   0  0  0  0  0  0
    4.7021   53.6907   17.8025 C   0  0  0  0  0  0
    3.4972   52.4947   19.4943 N   0  0  0  0  0  0
    3.5189   51.5837   20.5388 C   0  0  0  0  0  0
    4.4712   51.3313   21.2808 O   0  0  0  0  0  0
    2.2960   51.0251   20.6387 O   0  0  0  0  0  0
    1.9786   50.0613   21.6525 C   0  0  2  0  0  0
    2.7322   49.2721   21.6213 H   0  0  0  0  0  0
    0.5823   49.5249   21.3419 C   0  0  0  0  0  0
   -0.2941   50.3834   22.0635 O   0  0  0  0  0  0
    0.3092   50.6677   23.3258 C   0  0  1  0  0  0
   -0.0105   49.9090   24.0465 H   0  0  0  0  0  0
    1.8175   50.6475   23.0609 C   0  0  2  0  0  0
    2.3081   50.0170   23.8030 H   0  0  0  0  0  0
    2.2463   52.0094   23.2249 O   0  0  0  0  0  0
    1.1291   52.8829   23.1532 C   0  0  0  0  0  0
    0.0066   52.0774   23.7994 C   0  0  2  0  0  0
   -0.9554   52.4611   23.4589 H   0  0  0  0  0  0
    0.1332   52.1968   25.2584 N   0  0  0  0  0  0
   -0.8960   52.2596   26.1596 C   0  0  0  0  0  0
   -2.5166   52.0944   25.8010 S   0  0  0  0  0  0
   -0.5600   52.4921   27.4608 N   0  0  0  0  0  0
    0.7769   52.8811   27.9315 C   0  0  0  0  0  0
    0.7383   54.0805   28.9047 C   0  0  0  0  0  0
    2.1185   54.4776   29.4625 C   0  0  0  0  0  0
    2.8817   53.2753   30.0441 C   0  0  0  0  0  0
    2.9958   52.1467   29.0117 C   0  0  0  0  0  0
    1.6209   51.7044   28.4755 C   0  0  0  0  0  0
    7.1055   55.6945   20.7923 C   0  0  0  0  0  0
    6.7027   56.9597   20.8519 F   0  0  0  0  0  0
    8.3956   55.6726   20.4566 F   0  0  0  0  0  0
    6.9792   55.1633   22.0084 F   0  0  0  0  0  0
    5.8425   54.8102   16.3693 H   0  0  0  0  0  0
    7.2158   55.9498   18.0664 H   0  0  0  0  0  0
    5.1059   53.8545   21.1719 H   0  0  0  0  0  0
    4.1129   53.1911   17.0446 H   0  0  0  0  0  0
    2.6959   52.4492   18.8865 H   0  0  0  0  0  0
    0.3410   49.5318   20.2787 H   0  0  0  0  0  0
    0.4353   48.4963   21.6638 H   0  0  0  0  0  0
    1.3150   53.8445   23.6314 H   0  0  0  0  0  0
    0.8990   53.1533   22.1202 H   0  0  0  0  0  0
    1.0735   52.1885   25.6242 H   0  0  0  0  0  0
   -1.2958   52.4476   28.1500 H   0  0  0  0  0  0
    1.3519   53.2740   27.0899 H   0  0  0  0  0  0
    0.3046   54.9391   28.3960 H   0  0  0  0  0  0
    0.0854   53.8424   29.7479 H   0  0  0  0  0  0
    2.7124   54.9245   28.6609 H   0  0  0  0  0  0
    2.0005   55.2544   30.2186 H   0  0  0  0  0  0
    3.8776   53.5835   30.3678 H   0  0  0  0  0  0
    2.3676   52.9006   30.9319 H   0  0  0  0  0  0
    3.6128   52.4862   28.1738 H   0  0  0  0  0  0
    3.5231   51.2957   29.4431 H   0  0  0  0  0  0
    1.0693   51.2185   29.2827 H   0  0  0  0  0  0
    1.7583   50.9497   27.6974 H   0  0  0  0  0  0
  1  6  2  0  0  0
  1  2  1  0  0  0
  1 37  1  0  0  0
  2  3  2  0  0  0
  2 38  1  0  0  0
  3  4  1  0  0  0
  3 33  1  0  0  0
  4  5  2  0  0  0
  4 39  1  0  0  0
  5  6  1  0  0  0
  5  7  1  0  0  0
  6 40  1  0  0  0
  7  8  1  0  0  0
  7 41  1  0  0  0
  8  9  2  0  0  0
  8 10  1  0  0  0
 10 11  1  0  0  0
 11 12  1  0  0  0
 11 17  1  0  0  0
 11 13  1  0  0  0
 13 14  1  0  0  0
 13 42  1  0  0  0
 13 43  1  0  0  0
 14 15  1  0  0  0
 15 16  1  0  0  0
 15 21  1  0  0  0
 15 17  1  0  0  0
 17 18  1  0  0  0
 17 19  1  0  0  0
 19 20  1  0  0  0
 20 21  1  0  0  0
 20 44  1  0  0  0
 20 45  1  0  0  0
 21 22  1  0  0  0
 21 23  1  0  0  0
 23 24  1  0  0  0
 23 46  1  0  0  0
 24 25  2  0  0  0
 24 26  1  0  0  0
 26 27  1  0  0  0
 26 47  1  0  0  0
 27 32  1  0  0  0
 27 28  1  0  0  0
 27 48  1  0  0  0
 28 29  1  0  0  0
 28 49  1  0  0  0
 28 50  1  0  0  0
 29 30  1  0  0  0
 29 51  1  0  0  0
 29 52  1  0  0  0
 30 31  1  0  0  0
 30 53  1  0  0  0
 30 54  1  0  0  0
 31 32  1  0  0  0
 31 55  1  0  0  0
 31 56  1  0  0  0
 32 57  1  0  0  0
 32 58  1  0  0  0
 33 34  1  0  0  0
 33 35  1  0  0  0
 33 36  1  0  0  0
M  END
> <i_i_glide_confnum>
385

> <i_i_glide_lignum>
3751

> <i_i_glide_posenum>
233

> <i_i_glide_rotatable_bonds>
9

> <i_m_Source_File_Index>
507

> <b_m_subgroup_collapsed>
0

> <r_i_docking_score>
-4.33607

> <r_i_glide_ecoul>
-2.97594

> <r_i_glide_eff_state_penalty>
0

> <r_i_glide_einternal>
10.6754

> <r_i_glide_emodel>
-52.5158

> <r_i_glide_energy>
-45.2483

> <r_i_glide_erotb>
0.63153

> <r_i_glide_esite>
-0.176359

> <r_i_glide_evdw>
-42.2723

> <r_i_glide_gscore>
-4.33607

> <r_i_glide_hbond>
0

> <r_i_glide_ligand_efficiency>
-0.135502

> <r_i_glide_ligand_efficiency_ln>
-0.970964

> <r_i_glide_ligand_efficiency_sa>
-0.430193

> <r_i_glide_lipo>
-1.68956

> <r_i_glide_metal>
0

> <r_i_glide_rewards>
-0.54167

> <s_i_glide_gridfile>
wee1_glide-grid

> <s_m_Source_File>
wee1_decoys_glide_SP.sdf

> <s_m_Source_Path>
/Users/zhangxujun/Desktop

> <s_m_entry_id>
782

> <s_m_entry_name>
wee1_decoys_glide_SP.507

> <s_m_subgroup_title>
wee1_decoys_glide_SP

> <s_m_subgroupid>
wee1_decoys_glide_SP


$$$$
