ZINC39689491_4085
                    3D
 Schrodinger Suite 2024-2.
 69 73  0  0  1  0            999 V2000
    4.8418   54.5261   28.7775 C   0  0  0  0  0  0
    4.9888   54.4964   27.2667 C   0  0  0  0  0  0
    6.1687   54.9401   26.6654 C   0  0  0  0  0  0
    6.2850   54.9618   25.2751 C   0  0  0  0  0  0
    5.2360   54.4962   24.4818 C   0  0  0  0  0  0
    4.0718   53.9961   25.0753 C   0  0  0  0  0  0
    3.9421   54.0279   26.4683 C   0  0  0  0  0  0
    3.0156   53.2891   24.2333 C   0  0  0  0  0  0
    1.7017   54.0522   24.0267 C   0  0  0  0  0  0
    0.6123   53.1749   23.5992 N   0  0  0  0  0  0
   -0.1434   52.4319   24.4285 C   0  0  0  0  0  0
   -0.0092   52.4724   25.6502 O   0  0  0  0  0  0
   -1.1480   51.4225   23.8137 C   0  0  1  0  0  0
   -1.9292   51.2934   24.5600 H   0  0  0  0  0  0
   -1.7950   51.9131   22.5047 C   0  0  0  0  0  0
   -0.9201   51.3868   21.4502 N   0  0  0  0  0  0
    0.0142   50.3790   21.9794 C   0  0  0  0  0  0
   -0.4784   50.0701   23.4134 C   0  0  0  0  0  0
    0.6720   49.4912   24.2816 C   0  0  0  0  0  0
    0.2107   49.2027   25.7232 C   0  0  0  0  0  0
   -0.9509   48.1909   25.6816 N   0  3  0  0  0  0
   -2.1028   48.5459   24.7138 C   0  0  0  0  0  0
   -1.5063   48.9001   23.3311 C   0  0  0  0  0  0
   -1.1159   51.6919   20.1385 C   0  0  0  0  0  0
   -2.0970   52.3327   19.7528 O   0  0  0  0  0  0
   -0.1138   51.2888   19.1700 C   0  0  0  0  0  0
    1.2391   50.9636   19.2646 C   0  0  0  0  0  0
    1.6992   50.7646   17.9663 C   0  0  0  0  0  0
    0.6381   51.0076   17.1076 C   0  0  0  0  0  0
   -0.4517   51.3490   17.8497 O   0  0  0  0  0  0
    0.4982   50.9880   15.6205 C   0  0  0  0  0  0
    1.5896   50.6114   14.8299 C   0  0  0  0  0  0
    1.4759   50.5955   13.4415 C   0  0  0  0  0  0
    0.2730   50.9592   12.8407 C   0  0  0  0  0  0
   -0.8200   51.3343   13.6182 C   0  0  0  0  0  0
   -0.7092   51.3468   15.0080 C   0  0  0  0  0  0
    0.1651   50.9522   11.4920 F   0  0  0  0  0  0
    3.8241   54.8003   29.0566 H   0  0  0  0  0  0
    5.0625   53.5462   29.2002 H   0  0  0  0  0  0
    5.5022   55.2665   29.2311 H   0  0  0  0  0  0
    6.9805   55.2932   27.2834 H   0  0  0  0  0  0
    7.1917   55.3193   24.8082 H   0  0  0  0  0  0
    5.3528   54.4763   23.4076 H   0  0  0  0  0  0
    3.0456   53.6410   26.9314 H   0  0  0  0  0  0
    3.4293   52.9842   23.2705 H   0  0  0  0  0  0
    2.7822   52.3590   24.7516 H   0  0  0  0  0  0
    1.4197   54.4966   24.9791 H   0  0  0  0  0  0
    1.8464   54.8957   23.3555 H   0  0  0  0  0  0
    0.4668   53.0825   22.6042 H   0  0  0  0  0  0
   -2.7870   51.4687   22.4085 H   0  0  0  0  0  0
   -1.9387   52.9941   22.4835 H   0  0  0  0  0  0
    0.9925   50.8473   22.0938 H   0  0  0  0  0  0
    0.1241   49.4645   21.3944 H   0  0  0  0  0  0
    1.1016   48.5986   23.8246 H   0  0  0  0  0  0
    1.4984   50.1992   24.3265 H   0  0  0  0  0  0
    0.9917   48.7391   26.3283 H   0  0  0  0  0  0
   -0.1760   50.0696   26.2570 H   0  0  0  0  0  0
   -0.5625   47.2855   25.4607 H   0  0  0  0  0  0
   -2.7500   47.6690   24.6794 H   0  0  0  0  0  0
   -2.6566   49.3582   25.1846 H   0  0  0  0  0  0
   -2.3264   49.1652   22.6615 H   0  0  0  0  0  0
   -1.0581   48.0147   22.8755 H   0  0  0  0  0  0
    1.8498   50.8914   20.1507 H   0  0  0  0  0  0
    2.7055   50.4937   17.6811 H   0  0  0  0  0  0
    2.5314   50.3279   15.2824 H   0  0  0  0  0  0
    2.3186   50.3056   12.8315 H   0  0  0  0  0  0
   -1.7501   51.6092   13.1433 H   0  0  0  0  0  0
   -1.5620   51.6391   15.6034 H   0  0  0  0  0  0
   -1.2950   48.0979   26.6440 H   0  0  0  0  0  0
  1  2  1  0  0  0
  1 38  1  0  0  0
  1 39  1  0  0  0
  1 40  1  0  0  0
  2  7  2  0  0  0
  2  3  1  0  0  0
  3  4  2  0  0  0
  3 41  1  0  0  0
  4  5  1  0  0  0
  4 42  1  0  0  0
  5  6  2  0  0  0
  5 43  1  0  0  0
  6  7  1  0  0  0
  6  8  1  0  0  0
  7 44  1  0  0  0
  8  9  1  0  0  0
  8 45  1  0  0  0
  8 46  1  0  0  0
  9 10  1  0  0  0
  9 47  1  0  0  0
  9 48  1  0  0  0
 10 11  1  0  0  0
 10 49  1  0  0  0
 11 12  2  0  0  0
 11 13  1  0  0  0
 13 14  1  0  0  0
 13 18  1  0  0  0
 13 15  1  0  0  0
 15 16  1  0  0  0
 15 50  1  0  0  0
 15 51  1  0  0  0
 16 17  1  0  0  0
 16 24  1  0  0  0
 17 18  1  0  0  0
 17 52  1  0  0  0
 17 53  1  0  0  0
 18 23  1  0  0  0
 18 19  1  0  0  0
 19 20  1  0  0  0
 19 54  1  0  0  0
 19 55  1  0  0  0
 20 21  1  0  0  0
 20 56  1  0  0  0
 20 57  1  0  0  0
 21 22  1  0  0  0
 21 58  1  0  0  0
 21 69  1  0  0  0
 22 23  1  0  0  0
 22 59  1  0  0  0
 22 60  1  0  0  0
 23 61  1  0  0  0
 23 62  1  0  0  0
 24 25  2  0  0  0
 24 26  1  0  0  0
 26 30  1  0  0  0
 26 27  2  0  0  0
 27 28  1  0  0  0
 27 63  1  0  0  0
 28 29  2  0  0  0
 28 64  1  0  0  0
 29 30  1  0  0  0
 29 31  1  0  0  0
 31 36  2  0  0  0
 31 32  1  0  0  0
 32 33  2  0  0  0
 32 65  1  0  0  0
 33 34  1  0  0  0
 33 66  1  0  0  0
 34 35  2  0  0  0
 34 37  1  0  0  0
 35 36  1  0  0  0
 35 67  1  0  0  0
 36 68  1  0  0  0
M  CHG  1  21   1
M  END
> <i_i_glide_confnum>
465

> <i_i_glide_lignum>
4086

> <i_i_glide_posenum>
299

> <i_i_glide_rotatable_bonds>
8

> <i_m_Source_File_Index>
2637

> <b_m_subgroup_collapsed>
0

> <r_i_docking_score>
-5.72936

> <r_i_glide_ecoul>
-10.3065

> <r_i_glide_eff_state_penalty>
0

> <r_i_glide_einternal>
11.1921

> <r_i_glide_emodel>
-55.6764

> <r_i_glide_energy>
-42.9802

> <r_i_glide_erotb>
0.676477

> <r_i_glide_esite>
-0.127042

> <r_i_glide_evdw>
-32.6738

> <r_i_glide_gscore>
-5.72936

> <r_i_glide_hbond>
-0.52

> <r_i_glide_ligand_efficiency>
-0.159149

> <r_i_glide_ligand_efficiency_ln>
-1.24999

> <r_i_glide_ligand_efficiency_sa>
-0.525498

> <r_i_glide_lipo>
-2.30147

> <r_i_glide_metal>
0

> <r_i_glide_rewards>
-0.277664

> <s_i_glide_gridfile>
wee1_glide-grid

> <s_m_Source_File>
wee1_decoys_glide_SP.sdf

> <s_m_Source_Path>
/Users/zhangxujun/Desktop

> <s_m_entry_id>
2912

> <s_m_entry_name>
wee1_decoys_glide_SP.2637

> <s_m_subgroup_title>
wee1_decoys_glide_SP

> <s_m_subgroupid>
wee1_decoys_glide_SP


$$$$
