ZINC09781159_1234
                    3D
 Schrodinger Suite 2024-2.
 59 63  0  0  1  0            999 V2000
   -0.8113   54.6728   16.8544 C   0  0  0  0  0  0
   -1.8995   53.6289   17.0878 C   0  0  0  0  0  0
   -3.0832   53.7133   16.3473 C   0  0  0  0  0  0
   -4.0989   52.7735   16.5226 C   0  0  0  0  0  0
   -3.9459   51.7501   17.4570 C   0  0  0  0  0  0
   -2.7726   51.6566   18.2047 C   0  0  0  0  0  0
   -1.7388   52.5900   18.0250 C   0  0  0  0  0  0
   -0.5086   52.4966   18.7025 N   0  0  0  0  0  0
   -0.2258   51.9395   19.8986 C   0  0  0  0  0  0
   -1.0742   51.4761   20.6619 O   0  0  0  0  0  0
    1.1869   51.9972   20.2439 C   0  0  0  0  0  0
    2.1738   51.6172   19.3739 C   0  0  0  0  0  0
    3.5011   51.7596   19.7337 N   0  3  0  0  0  0
    3.8729   52.3828   20.8538 C   0  0  0  0  0  0
    5.1043   52.6248   21.2565 N   0  0  0  0  0  0
    4.9687   53.2966   22.3337 C   0  0  0  0  0  0
    3.6066   53.5032   22.6638 N   0  0  0  0  0  0
    2.9596   52.8176   21.6919 N   0  0  0  0  0  0
    1.5094   52.6177   21.6316 C   0  0  2  0  0  0
    1.0759   53.6172   21.6824 H   0  0  0  0  0  0
    1.0328   51.8335   22.8606 C   0  0  0  0  0  0
    1.1380   50.4377   22.9311 C   0  0  0  0  0  0
    0.7042   49.7927   24.0921 C   0  0  0  0  0  0
    0.1904   50.5462   25.1474 C   0  0  0  0  0  0
    0.1288   51.9338   25.0058 C   0  0  0  0  0  0
    0.5453   52.5817   23.8864 N   0  0  0  0  0  0
    6.3195   53.8906   23.3783 S   0  0  0  0  0  0
    5.4695   54.9807   24.5668 C   0  0  0  0  0  0
    5.2832   54.3543   25.9388 C   0  0  0  0  0  0
    6.3749   54.2147   26.7998 C   0  0  0  0  0  0
    6.1899   53.6959   28.0770 C   0  0  0  0  0  0
    4.9142   53.3087   28.4835 C   0  0  0  0  0  0
    3.8214   53.4464   27.6321 C   0  0  0  0  0  0
    4.0051   53.9719   26.3576 C   0  0  0  0  0  0
    1.9895   50.9971   17.9966 C   0  0  0  0  0  0
    0.0828   54.2010   16.4413 H   0  0  0  0  0  0
   -1.1295   55.4621   16.1713 H   0  0  0  0  0  0
   -0.5312   55.1480   17.7960 H   0  0  0  0  0  0
   -3.2183   54.5041   15.6209 H   0  0  0  0  0  0
   -5.0061   52.8439   15.9396 H   0  0  0  0  0  0
   -4.7308   51.0200   17.5937 H   0  0  0  0  0  0
   -2.6704   50.8352   18.8978 H   0  0  0  0  0  0
    0.2524   52.9934   18.2621 H   0  0  0  0  0  0
    1.5444   49.8655   22.1102 H   0  0  0  0  0  0
    0.7738   48.7174   24.1761 H   0  0  0  0  0  0
   -0.1503   50.0613   26.0523 H   0  0  0  0  0  0
   -0.2643   52.5497   25.8000 H   0  0  0  0  0  0
    6.0642   55.8888   24.6738 H   0  0  0  0  0  0
    4.5038   55.2967   24.1882 H   0  0  0  0  0  0
    7.3657   54.5007   26.4842 H   0  0  0  0  0  0
    7.0322   53.5910   28.7474 H   0  0  0  0  0  0
    4.7684   52.8967   29.4706 H   0  0  0  0  0  0
    2.8368   53.1414   27.9564 H   0  0  0  0  0  0
    3.1518   54.0774   25.7021 H   0  0  0  0  0  0
    1.1867   50.2565   17.9934 H   0  0  0  0  0  0
    1.7717   51.7626   17.2480 H   0  0  0  0  0  0
    2.8982   50.4966   17.6816 H   0  0  0  0  0  0
    4.2200   51.4000   19.1083 H   0  0  0  0  0  0
    3.2168   54.4185   22.8246 H   0  0  0  0  0  0
  1  2  1  0  0  0
  1 36  1  0  0  0
  1 37  1  0  0  0
  1 38  1  0  0  0
  2  7  2  0  0  0
  2  3  1  0  0  0
  3  4  2  0  0  0
  3 39  1  0  0  0
  4  5  1  0  0  0
  4 40  1  0  0  0
  5  6  2  0  0  0
  5 41  1  0  0  0
  6  7  1  0  0  0
  6 42  1  0  0  0
  7  8  1  0  0  0
  8  9  1  0  0  0
  8 43  1  0  0  0
  9 10  2  0  0  0
  9 11  1  0  0  0
 11 19  1  0  0  0
 11 12  2  0  0  0
 12 13  1  0  0  0
 12 35  1  0  0  0
 13 14  2  0  0  0
 13 58  1  0  0  0
 14 18  1  0  0  0
 14 15  1  0  0  0
 15 16  2  0  0  0
 16 17  1  0  0  0
 16 27  1  0  0  0
 17 18  1  0  0  0
 17 59  1  0  0  0
 18 19  1  0  0  0
 19 20  1  0  0  0
 19 21  1  0  0  0
 21 26  2  0  0  0
 21 22  1  0  0  0
 22 23  2  0  0  0
 22 44  1  0  0  0
 23 24  1  0  0  0
 23 45  1  0  0  0
 24 25  2  0  0  0
 24 46  1  0  0  0
 25 26  1  0  0  0
 25 47  1  0  0  0
 27 28  1  0  0  0
 28 29  1  0  0  0
 28 48  1  0  0  0
 28 49  1  0  0  0
 29 34  2  0  0  0
 29 30  1  0  0  0
 30 31  2  0  0  0
 30 50  1  0  0  0
 31 32  1  0  0  0
 31 51  1  0  0  0
 32 33  2  0  0  0
 32 52  1  0  0  0
 33 34  1  0  0  0
 33 53  1  0  0  0
 34 54  1  0  0  0
 35 55  1  0  0  0
 35 56  1  0  0  0
 35 57  1  0  0  0
M  CHG  1  13   1
M  END
> <i_i_glide_confnum>
50

> <i_i_glide_lignum>
1235

> <i_i_glide_posenum>
293

> <i_i_glide_rotatable_bonds>
7

> <i_m_Source_File_Index>
4910

> <b_m_subgroup_collapsed>
0

> <r_i_docking_score>
-5.62143

> <r_i_glide_ecoul>
-6.72242

> <r_i_glide_eff_state_penalty>
0

> <r_i_glide_einternal>
6.17991

> <r_i_glide_emodel>
-60.8293

> <r_i_glide_energy>
-45.3324

> <r_i_glide_erotb>
0.641204

> <r_i_glide_esite>
-0.111627

> <r_i_glide_evdw>
-38.61

> <r_i_glide_gscore>
-5.62143

> <r_i_glide_hbond>
-0.2

> <r_i_glide_ligand_efficiency>
-0.165336

> <r_i_glide_ligand_efficiency_ln>
-1.24193

> <r_i_glide_ligand_efficiency_sa>
-0.535625

> <r_i_glide_lipo>
-2.41597

> <r_i_glide_metal>
0

> <r_i_glide_rewards>
-0.596184

> <s_i_glide_gridfile>
wee1_glide-grid

> <s_m_Source_File>
wee1_decoys_glide_SP.sdf

> <s_m_Source_Path>
/Users/zhangxujun/Desktop

> <s_m_entry_id>
5185

> <s_m_entry_name>
wee1_decoys_glide_SP.4910

> <s_m_subgroup_title>
wee1_decoys_glide_SP

> <s_m_subgroupid>
wee1_decoys_glide_SP


$$$$
