ZINC37350137_3881
                    3D
 Schrodinger Suite 2024-2.
 33 35  0  0  1  0            999 V2000
    0.0009   53.1699   29.8353 C   0  0  0  0  0  0
    1.1823   53.5069   28.9394 C   0  0  0  0  0  0
    1.4396   52.7432   27.8001 C   0  0  0  0  0  0
    2.5152   53.0647   26.9725 C   0  0  0  0  0  0
    3.3649   54.1361   27.2556 C   0  0  0  0  0  0
    3.1068   54.8791   28.4154 C   0  0  0  0  0  0
    2.0164   54.5893   29.2331 C   0  0  0  0  0  0
    1.7714   55.3672   30.3099 F   0  0  0  0  0  0
    4.5235   54.4688   26.3494 C   0  0  0  0  0  0
    4.6492   54.3878   24.9341 C   0  0  0  0  0  0
    5.9429   54.8472   24.7175 C   0  0  0  0  0  0
    6.5454   55.1477   25.8872 O   0  0  0  0  0  0
    5.6387   54.8960   26.9100 N   0  0  0  0  0  0
    6.7045   55.0563   23.6086 N   0  0  0  0  0  0
    3.6858   53.9200   23.8689 C   0  0  0  0  0  0
    2.3060   54.0499   24.0369 C   0  0  0  0  0  0
    1.4216   53.5099   23.1127 C   0  0  0  0  0  0
    1.9111   52.8697   21.9801 C   0  0  0  0  0  0
    3.2815   52.7817   21.7568 C   0  0  0  0  0  0
    4.1628   53.3004   22.7020 C   0  0  0  0  0  0
    0.6957   52.0963   20.7370 Br  0  0  0  0  0  0
   -0.7499   52.5715   29.3145 H   0  0  0  0  0  0
   -0.4946   54.0817   30.1676 H   0  0  0  0  0  0
    0.3376   52.6278   30.7198 H   0  0  0  0  0  0
    0.8129   51.9009   27.5484 H   0  0  0  0  0  0
    2.6930   52.4897   26.0835 H   0  0  0  0  0  0
    3.7484   55.6967   28.6894 H   0  0  0  0  0  0
    6.3328   54.9187   22.6825 H   0  0  0  0  0  0
    7.6869   55.2957   23.6795 H   0  0  0  0  0  0
    1.8942   54.5140   24.9141 H   0  0  0  0  0  0
    0.3572   53.5830   23.2792 H   0  0  0  0  0  0
    3.6568   52.2864   20.8716 H   0  0  0  0  0  0
    5.2204   53.1675   22.5412 H   0  0  0  0  0  0
  1  2  1  0  0  0
  1 22  1  0  0  0
  1 23  1  0  0  0
  1 24  1  0  0  0
  2  7  2  0  0  0
  2  3  1  0  0  0
  3  4  2  0  0  0
  3 25  1  0  0  0
  4  5  1  0  0  0
  4 26  1  0  0  0
  5  6  2  0  0  0
  5  9  1  0  0  0
  6  7  1  0  0  0
  6 27  1  0  0  0
  7  8  1  0  0  0
  9 13  2  0  0  0
  9 10  1  0  0  0
 10 11  2  0  0  0
 10 15  1  0  0  0
 11 12  1  0  0  0
 11 14  1  0  0  0
 12 13  1  0  0  0
 14 28  1  0  0  0
 14 29  1  0  0  0
 15 20  2  0  0  0
 15 16  1  0  0  0
 16 17  2  0  0  0
 16 30  1  0  0  0
 17 18  1  0  0  0
 17 31  1  0  0  0
 18 19  2  0  0  0
 18 21  1  0  0  0
 19 20  1  0  0  0
 19 32  1  0  0  0
 20 33  1  0  0  0
M  END
> <i_i_glide_confnum>
16

> <i_i_glide_lignum>
3882

> <i_i_glide_posenum>
147

> <i_i_glide_rotatable_bonds>
2

> <i_m_Source_File_Index>
501

> <b_m_subgroup_collapsed>
0

> <r_i_docking_score>
-6.65304

> <r_i_glide_ecoul>
-2.68513

> <r_i_glide_eff_state_penalty>
0

> <r_i_glide_einternal>
0.622106

> <r_i_glide_emodel>
-51.7739

> <r_i_glide_energy>
-36.0015

> <r_i_glide_erotb>
0.315613

> <r_i_glide_esite>
0

> <r_i_glide_evdw>
-33.3164

> <r_i_glide_gscore>
-6.65304

> <r_i_glide_hbond>
-0.32

> <r_i_glide_ligand_efficiency>
-0.316811

> <r_i_glide_ligand_efficiency_ln>
-1.64495

> <r_i_glide_ligand_efficiency_sa>
-0.874058

> <r_i_glide_lipo>
-3.09087

> <r_i_glide_metal>
0

> <r_i_glide_rewards>
-1.4892

> <s_i_glide_gridfile>
wee1_glide-grid

> <s_m_Source_File>
wee1_decoys_glide_SP.sdf

> <s_m_Source_Path>
/Users/zhangxujun/Desktop

> <s_m_entry_id>
776

> <s_m_entry_name>
wee1_decoys_glide_SP.501

> <s_m_subgroup_title>
wee1_decoys_glide_SP

> <s_m_subgroupid>
wee1_decoys_glide_SP


$$$$
