ZINC63478901_3241
                    3D
 Schrodinger Suite 2024-2.
 57 60  0  0  1  0            999 V2000
    6.0661   53.5199   18.9255 C   0  0  0  0  0  0
    5.1013   53.2482   20.0669 C   0  0  0  0  0  0
    4.8608   51.9514   20.4930 C   0  0  0  0  0  0
    3.9237   51.6921   21.4763 C   0  0  0  0  0  0
    3.2319   52.7280   22.1195 C   0  0  0  0  0  0
    3.5044   54.0389   21.6949 C   0  0  0  0  0  0
    4.4238   54.2928   20.6766 C   0  0  0  0  0  0
    2.3045   52.4114   23.1603 N   0  0  0  0  0  0
    1.7533   51.0571   23.2775 C   0  0  0  0  0  0
    0.8918   50.6185   22.0737 C   0  0  0  0  0  0
    0.5597   51.4277   21.2062 O   0  0  0  0  0  0
    0.5378   49.3185   22.0543 N   0  0  0  0  0  0
   -0.0591   48.5577   20.9463 C   0  0  1  0  0  0
   -0.4960   47.6311   21.3220 H   0  0  0  0  0  0
   -1.1170   49.2418   20.2142 N   0  0  0  0  0  0
   -0.7402   49.7136   18.9592 C   0  0  0  0  0  0
   -1.4495   50.6079   18.1574 C   0  0  0  0  0  0
   -0.9356   50.9737   16.9107 C   0  0  0  0  0  0
    0.2787   50.4403   16.4627 C   0  0  0  0  0  0
    0.9719   49.5288   17.2646 C   0  0  0  0  0  0
    0.4608   49.1761   18.5131 C   0  0  0  0  0  0
    1.1492   48.0599   19.6814 S   0  0  0  0  0  0
    0.8332   50.8284   15.1049 C   0  0  0  0  0  0
    1.8894   53.5688   24.4840 S   0  0  0  0  0  0
    1.5318   54.8301   23.8370 O   0  0  0  0  0  0
    0.8726   52.8986   25.3040 O   0  0  0  0  0  0
    3.3054   53.9012   25.5933 C   0  0  0  0  0  0
    4.6172   54.0969   25.3688 C   0  0  0  0  0  0
    5.2388   54.4417   26.5208 N   0  0  0  0  0  0
    4.4315   54.4969   27.4936 N   0  0  0  0  0  0
    3.1111   54.1553   27.0675 C   0  0  2  0  0  0
    2.4573   55.0016   27.2738 H   0  0  0  0  0  0
    2.6467   52.9366   27.8867 C   0  0  0  0  0  0
    5.5220   54.0248   24.1549 C   0  0  0  0  0  0
    5.6001   54.1811   18.1929 H   0  0  0  0  0  0
    6.3381   52.6027   18.4008 H   0  0  0  0  0  0
    6.9709   54.0131   19.2815 H   0  0  0  0  0  0
    5.3982   51.1198   20.0817 H   0  0  0  0  0  0
    3.7748   50.6574   21.7366 H   0  0  0  0  0  0
    3.0069   54.8960   22.1092 H   0  0  0  0  0  0
    4.6147   55.2966   20.3442 H   0  0  0  0  0  0
    2.5272   50.3145   23.4720 H   0  0  0  0  0  0
    1.1010   50.9023   24.1330 H   0  0  0  0  0  0
    0.9134   48.7512   22.7999 H   0  0  0  0  0  0
   -1.9645   49.4817   20.7065 H   0  0  0  0  0  0
   -2.3876   51.0248   18.4897 H   0  0  0  0  0  0
   -1.4824   51.6711   16.2934 H   0  0  0  0  0  0
    1.9041   49.1091   16.9170 H   0  0  0  0  0  0
    1.3832   49.9986   14.6587 H   0  0  0  0  0  0
    0.0335   51.0868   14.4096 H   0  0  0  0  0  0
    1.5089   51.6778   15.2005 H   0  0  0  0  0  0
    1.6461   52.6039   27.6177 H   0  0  0  0  0  0
    3.3260   52.0963   27.7613 H   0  0  0  0  0  0
    2.6188   53.1717   28.9515 H   0  0  0  0  0  0
    5.3432   53.1227   23.5798 H   0  0  0  0  0  0
    5.3748   54.8963   23.5202 H   0  0  0  0  0  0
    6.5751   54.0000   24.4403 H   0  0  0  0  0  0
  1  2  1  0  0  0
  1 35  1  0  0  0
  1 36  1  0  0  0
  1 37  1  0  0  0
  2  7  2  0  0  0
  2  3  1  0  0  0
  3  4  2  0  0  0
  3 38  1  0  0  0
  4  5  1  0  0  0
  4 39  1  0  0  0
  5  6  2  0  0  0
  5  8  1  0  0  0
  6  7  1  0  0  0
  6 40  1  0  0  0
  7 41  1  0  0  0
  8  9  1  0  0  0
  8 24  1  0  0  0
  9 10  1  0  0  0
  9 42  1  0  0  0
  9 43  1  0  0  0
 10 11  2  0  0  0
 10 12  1  0  0  0
 12 13  1  0  0  0
 12 44  1  0  0  0
 13 14  1  0  0  0
 13 22  1  0  0  0
 13 15  1  0  0  0
 15 16  1  0  0  0
 15 45  1  0  0  0
 16 21  2  0  0  0
 16 17  1  0  0  0
 17 18  2  0  0  0
 17 46  1  0  0  0
 18 19  1  0  0  0
 18 47  1  0  0  0
 19 20  2  0  0  0
 19 23  1  0  0  0
 20 21  1  0  0  0
 20 48  1  0  0  0
 21 22  1  0  0  0
 23 49  1  0  0  0
 23 50  1  0  0  0
 23 51  1  0  0  0
 24 25  2  0  0  0
 24 26  2  0  0  0
 24 27  1  0  0  0
 27 31  1  0  0  0
 27 28  2  0  0  0
 28 29  1  0  0  0
 28 34  1  0  0  0
 29 30  2  0  0  0
 30 31  1  0  0  0
 31 32  1  0  0  0
 31 33  1  0  0  0
 33 52  1  0  0  0
 33 53  1  0  0  0
 33 54  1  0  0  0
 34 55  1  0  0  0
 34 56  1  0  0  0
 34 57  1  0  0  0
M  END
> <i_i_glide_confnum>
140

> <i_i_glide_lignum>
3242

> <i_i_glide_posenum>
263

> <i_i_glide_rotatable_bonds>
7

> <i_m_Source_File_Index>
3801

> <b_m_subgroup_collapsed>
0

> <r_i_docking_score>
-3.16605

> <r_i_glide_ecoul>
-0.511901

> <r_i_glide_eff_state_penalty>
0

> <r_i_glide_einternal>
5.89356

> <r_i_glide_emodel>
-39.2176

> <r_i_glide_energy>
-32.1544

> <r_i_glide_erotb>
0.636212

> <r_i_glide_esite>
0

> <r_i_glide_evdw>
-31.6425

> <r_i_glide_gscore>
-3.16605

> <r_i_glide_hbond>
0

> <r_i_glide_ligand_efficiency>
-0.0989389

> <r_i_glide_ligand_efficiency_ln>
-0.708964

> <r_i_glide_ligand_efficiency_sa>
-0.314111

> <r_i_glide_lipo>
-1.37212

> <r_i_glide_metal>
0

> <r_i_glide_rewards>
-0.771229

> <s_i_glide_gridfile>
wee1_glide-grid

> <s_m_Source_File>
wee1_decoys_glide_SP.sdf

> <s_m_Source_Path>
/Users/zhangxujun/Desktop

> <s_m_entry_id>
4076

> <s_m_entry_name>
wee1_decoys_glide_SP.3801

> <s_m_subgroup_title>
wee1_decoys_glide_SP

> <s_m_subgroupid>
wee1_decoys_glide_SP


$$$$
