ZINC28365029_3536
                    3D
 Schrodinger Suite 2024-2.
 62 66  0  0  1  0            999 V2000
    9.1306   56.0504   15.9644 C   0  0  0  0  0  0
    8.5750   55.7871   17.3516 C   0  0  0  0  0  0
    7.4549   54.9756   17.5187 C   0  0  0  0  0  0
    6.9576   54.7308   18.7964 C   0  0  0  0  0  0
    7.5675   55.2967   19.9262 C   0  0  0  0  0  0
    8.7042   56.0878   19.7395 C   0  0  0  0  0  0
    9.2034   56.3394   18.4644 C   0  0  0  0  0  0
    7.0903   55.0794   21.3195 C   0  0  0  0  0  0
    5.8896   54.6189   21.7429 C   0  0  0  0  0  0
    4.6673   54.2141   20.9375 C   0  0  0  0  0  0
    3.5162   54.0938   21.9199 C   0  0  0  0  0  0
    4.1484   54.0965   23.2883 C   0  0  0  0  0  0
    5.4990   54.3983   23.1578 C   0  0  0  0  0  0
    6.3388   54.5216   24.2069 N   0  0  0  0  0  0
    5.8448   54.3079   25.4532 C   0  0  0  0  0  0
    6.7714   54.3367   26.5196 C   0  0  0  0  0  0
    6.3733   54.0967   27.8253 C   0  0  0  0  0  0
    5.0450   53.8397   28.1058 C   0  0  0  0  0  0
    4.1053   53.7984   27.0837 C   0  0  0  0  0  0
    4.4637   54.0223   25.7077 C   0  0  0  0  0  0
    3.5628   53.9310   24.5651 C   0  0  0  0  0  0
    2.0978   53.6121   24.7568 C   0  0  0  0  0  0
    1.5044   53.6966   25.8269 O   0  0  0  0  0  0
    1.4797   53.1530   23.6328 O   0  0  0  0  0  0
    0.0861   52.8076   23.5928 C   0  0  0  0  0  0
   -0.1502   51.3646   24.0792 C   0  0  0  0  0  0
    0.7047   50.8042   24.7681 O   0  0  0  0  0  0
   -1.3600   50.8299   23.8013 N   0  0  0  0  0  0
   -1.8342   49.5793   24.2365 C   0  0  0  0  0  0
   -0.9849   48.4886   24.4751 C   0  0  0  0  0  0
   -1.4902   47.3342   25.0505 C   0  0  0  0  0  0
   -2.8441   47.2423   25.3759 C   0  0  0  0  0  0
   -3.7147   48.2818   25.0323 C   0  0  0  0  0  0
   -3.2067   49.4523   24.4692 C   0  0  0  0  0  0
   -3.3345   46.0490   26.1353 C   0  0  0  0  0  0
   -4.1941   45.2971   25.6823 O   0  0  0  0  0  0
   -2.6995   45.8168   27.2819 N   0  0  0  0  0  0
    8.7482   55.3392   15.2309 H   0  0  0  0  0  0
   10.2165   55.9525   15.9685 H   0  0  0  0  0  0
    8.8859   57.0635   15.6410 H   0  0  0  0  0  0
    6.9747   54.5213   16.6647 H   0  0  0  0  0  0
    6.1129   54.0686   18.8722 H   0  0  0  0  0  0
    9.2282   56.4967   20.5897 H   0  0  0  0  0  0
   10.0880   56.9483   18.3481 H   0  0  0  0  0  0
    7.8209   55.3062   22.0854 H   0  0  0  0  0  0
    4.4238   54.8951   20.1213 H   0  0  0  0  0  0
    4.8405   53.2313   20.4932 H   0  0  0  0  0  0
    2.8495   54.9457   21.8154 H   0  0  0  0  0  0
    2.9540   53.1893   21.6863 H   0  0  0  0  0  0
    7.8140   54.4972   26.3112 H   0  0  0  0  0  0
    7.0998   54.0978   28.6259 H   0  0  0  0  0  0
    4.7425   53.6455   29.1243 H   0  0  0  0  0  0
    3.1077   53.5494   27.3901 H   0  0  0  0  0  0
   -0.5269   53.4868   24.1901 H   0  0  0  0  0  0
   -0.2494   52.8964   22.5601 H   0  0  0  0  0  0
   -2.0470   51.4329   23.3783 H   0  0  0  0  0  0
    0.0744   48.5346   24.2712 H   0  0  0  0  0  0
   -0.8113   46.5288   25.2816 H   0  0  0  0  0  0
   -4.7696   48.2148   25.2607 H   0  0  0  0  0  0
   -3.8794   50.2741   24.2696 H   0  0  0  0  0  0
   -2.8954   44.9870   27.8399 H   0  0  0  0  0  0
   -2.1456   46.5755   27.6818 H   0  0  0  0  0  0
  1  2  1  0  0  0
  1 38  1  0  0  0
  1 39  1  0  0  0
  1 40  1  0  0  0
  2  7  2  0  0  0
  2  3  1  0  0  0
  3  4  2  0  0  0
  3 41  1  0  0  0
  4  5  1  0  0  0
  4 42  1  0  0  0
  5  6  2  0  0  0
  5  8  1  0  0  0
  6  7  1  0  0  0
  6 43  1  0  0  0
  7 44  1  0  0  0
  8  9  2  0  0  0
  8 45  1  0  0  0
  9 13  1  0  0  0
  9 10  1  0  0  0
 10 11  1  0  0  0
 10 46  1  0  0  0
 10 47  1  0  0  0
 11 12  1  0  0  0
 11 48  1  0  0  0
 11 49  1  0  0  0
 12 21  2  0  0  0
 12 13  1  0  0  0
 13 14  2  0  0  0
 14 15  1  0  0  0
 15 20  2  0  0  0
 15 16  1  0  0  0
 16 17  2  0  0  0
 16 50  1  0  0  0
 17 18  1  0  0  0
 17 51  1  0  0  0
 18 19  2  0  0  0
 18 52  1  0  0  0
 19 20  1  0  0  0
 19 53  1  0  0  0
 20 21  1  0  0  0
 21 22  1  0  0  0
 22 23  2  0  0  0
 22 24  1  0  0  0
 24 25  1  0  0  0
 25 26  1  0  0  0
 25 54  1  0  0  0
 25 55  1  0  0  0
 26 27  2  0  0  0
 26 28  1  0  0  0
 28 29  1  0  0  0
 28 56  1  0  0  0
 29 34  2  0  0  0
 29 30  1  0  0  0
 30 31  2  0  0  0
 30 57  1  0  0  0
 31 32  1  0  0  0
 31 58  1  0  0  0
 32 33  2  0  0  0
 32 35  1  0  0  0
 33 34  1  0  0  0
 33 59  1  0  0  0
 34 60  1  0  0  0
 35 36  2  0  0  0
 35 37  1  0  0  0
 37 61  1  0  0  0
 37 62  1  0  0  0
M  END
> <i_i_glide_confnum>
45

> <i_i_glide_lignum>
3537

> <i_i_glide_posenum>
252

> <i_i_glide_rotatable_bonds>
8

> <i_m_Source_File_Index>
5283

> <b_m_subgroup_collapsed>
0

> <r_i_docking_score>
-6.92889

> <r_i_glide_ecoul>
-7.39142

> <r_i_glide_eff_state_penalty>
0

> <r_i_glide_einternal>
13.8003

> <r_i_glide_emodel>
-69.3101

> <r_i_glide_energy>
-51.0979

> <r_i_glide_erotb>
0.589828

> <r_i_glide_esite>
-0.200528

> <r_i_glide_evdw>
-43.7064

> <r_i_glide_gscore>
-6.92889

> <r_i_glide_hbond>
-0.456

> <r_i_glide_ligand_efficiency>
-0.187267

> <r_i_glide_ligand_efficiency_ln>
-1.50271

> <r_i_glide_ligand_efficiency_sa>
-0.624016

> <r_i_glide_lipo>
-3.09064

> <r_i_glide_metal>
0

> <r_i_glide_rewards>
-0.477518

> <s_i_glide_gridfile>
wee1_glide-grid

> <s_m_Source_File>
wee1_decoys_glide_SP.sdf

> <s_m_Source_Path>
/Users/zhangxujun/Desktop

> <s_m_entry_id>
5558

> <s_m_entry_name>
wee1_decoys_glide_SP.5283

> <s_m_subgroup_title>
wee1_decoys_glide_SP

> <s_m_subgroupid>
wee1_decoys_glide_SP


$$$$
