ZINC39984442_1448
                    3D
 Schrodinger Suite 2024-2.
 49 52  0  0  1  0            999 V2000
    3.4300   54.5239   24.1349 C   0  0  0  0  0  0
    3.8319   53.3626   24.8377 O   0  0  0  0  0  0
    4.6430   53.4902   26.0181 C   0  0  2  0  0  0
    4.9748   52.4973   26.3058 H   0  0  0  0  0  0
    3.7795   54.0008   27.1948 C   0  0  1  0  0  0
    3.3952   55.0014   26.9903 H   0  0  0  0  0  0
    2.6667   53.0947   27.6118 C   0  0  0  0  0  0
    2.8663   52.9970   29.1025 C   0  0  0  0  0  0
    3.9392   53.5687   29.5051 N   0  0  0  0  0  0
    4.6290   54.0644   28.4478 C   0  0  0  0  0  0
    5.9030   54.4964   28.3477 C   0  0  0  0  0  0
    6.4886   54.8176   27.0499 C   0  0  0  0  0  0
    5.9228   54.3290   25.9209 C   0  0  0  0  0  0
    6.3554   54.4737   24.6432 O   0  0  0  0  0  0
    6.9958   55.6899   24.3082 C   0  0  0  0  0  0
    1.9556   52.2933   30.0213 C   0  0  0  0  0  0
    2.2221   52.1968   31.2183 O   0  0  0  0  0  0
    0.8173   51.6969   29.6032 N   0  0  0  0  0  0
    0.2647   51.2953   28.2940 C   0  0  0  0  0  0
   -0.5322   52.4415   27.6479 C   0  0  0  0  0  0
   -0.4954   53.5896   28.0863 O   0  0  0  0  0  0
   -1.3743   52.0977   26.6106 N   0  0  0  0  0  0
   -0.9245   51.9196   25.4297 C   0  0  0  0  0  0
    0.3581   51.9721   24.8970 N   0  0  0  0  0  0
    1.1483   52.2269   25.4683 H   0  0  0  0  0  0
    0.5098   51.6953   23.5411 C   0  0  0  0  0  0
    1.6982   51.6512   22.8122 C   0  0  0  0  0  0
    1.6594   51.3726   21.4441 C   0  0  0  0  0  0
    0.4366   51.1323   20.8130 C   0  0  0  0  0  0
   -0.7508   51.1667   21.5484 C   0  0  0  0  0  0
   -0.7012   51.4495   22.9140 C   0  0  0  0  0  0
   -2.0269   51.5457   24.0542 S   0  0  0  0  0  0
    3.0968   55.3008   24.8116 H   0  0  0  0  0  0
    4.2363   54.8966   23.5078 H   0  0  0  0  0  0
    2.5972   54.2863   23.4739 H   0  0  0  0  0  0
    1.7499   53.5914   27.3297 H   0  0  0  0  0  0
    2.7156   52.1133   27.1403 H   0  0  0  0  0  0
    6.5382   54.4962   29.2188 H   0  0  0  0  0  0
    7.3831   55.4128   27.0265 H   0  0  0  0  0  0
    6.3004   56.5088   24.4713 H   0  0  0  0  0  0
    7.9029   55.8754   24.8799 H   0  0  0  0  0  0
    7.2584   55.6862   23.2503 H   0  0  0  0  0  0
    0.2849   51.3234   30.3769 H   0  0  0  0  0  0
    1.0119   50.8801   27.6217 H   0  0  0  0  0  0
   -0.4534   50.4972   28.4787 H   0  0  0  0  0  0
    2.6497   51.8303   23.2855 H   0  0  0  0  0  0
    2.5762   51.3419   20.8719 H   0  0  0  0  0  0
    0.4147   50.9151   19.7547 H   0  0  0  0  0  0
   -1.6913   50.9700   21.0563 H   0  0  0  0  0  0
  1  2  1  0  0  0
  1 33  1  0  0  0
  1 34  1  0  0  0
  1 35  1  0  0  0
  2  3  1  0  0  0
  3  4  1  0  0  0
  3 13  1  0  0  0
  3  5  1  0  0  0
  5  6  1  0  0  0
  5 10  1  0  0  0
  5  7  1  0  0  0
  7  8  1  0  0  0
  7 36  1  0  0  0
  7 37  1  0  0  0
  8  9  2  0  0  0
  8 16  1  0  0  0
  9 10  1  0  0  0
 10 11  2  0  0  0
 11 12  1  0  0  0
 11 38  1  0  0  0
 12 13  2  0  0  0
 12 39  1  0  0  0
 13 14  1  0  0  0
 14 15  1  0  0  0
 15 40  1  0  0  0
 15 41  1  0  0  0
 15 42  1  0  0  0
 16 17  2  0  0  0
 16 18  1  0  0  0
 18 19  1  0  0  0
 18 43  1  0  0  0
 19 20  1  0  0  0
 19 44  1  0  0  0
 19 45  1  0  0  0
 20 21  2  0  0  0
 20 22  1  0  0  0
 22 23  2  0  0  0
 23 32  1  0  0  0
 23 24  1  0  0  0
 24 25  1  0  0  0
 24 26  1  0  0  0
 26 31  2  0  0  0
 26 27  1  0  0  0
 27 28  2  0  0  0
 27 46  1  0  0  0
 28 29  1  0  0  0
 28 47  1  0  0  0
 29 30  2  0  0  0
 29 48  1  0  0  0
 30 31  1  0  0  0
 30 49  1  0  0  0
 31 32  1  0  0  0
M  END
> <i_i_glide_confnum>
44

> <i_i_glide_lignum>
1449

> <i_i_glide_posenum>
293

> <i_i_glide_rotatable_bonds>
7

> <i_m_Source_File_Index>
1464

> <b_m_subgroup_collapsed>
0

> <r_i_docking_score>
-3.0927

> <r_i_glide_ecoul>
-4.00024

> <r_i_glide_eff_state_penalty>
0

> <r_i_glide_einternal>
14.4552

> <r_i_glide_emodel>
-31.0882

> <r_i_glide_energy>
-37.6284

> <r_i_glide_erotb>
0.579546

> <r_i_glide_esite>
-0.0144459

> <r_i_glide_evdw>
-33.6281

> <r_i_glide_gscore>
-3.0927

> <r_i_glide_hbond>
-0.21382

> <r_i_glide_ligand_efficiency>
-0.106645

> <r_i_glide_ligand_efficiency_ln>
-0.70815

> <r_i_glide_ligand_efficiency_sa>
-0.327647

> <r_i_glide_lipo>
-2.03724

> <r_i_glide_metal>
0

> <r_i_glide_rewards>
0.874703

> <s_i_glide_gridfile>
wee1_glide-grid

> <s_m_Source_File>
wee1_decoys_glide_SP.sdf

> <s_m_Source_Path>
/Users/zhangxujun/Desktop

> <s_m_entry_id>
1739

> <s_m_entry_name>
wee1_decoys_glide_SP.1464

> <s_m_subgroup_title>
wee1_decoys_glide_SP

> <s_m_subgroupid>
wee1_decoys_glide_SP


$$$$
