ZINC32117804_3572
                    3D
 Schrodinger Suite 2024-2.
 39 41  0  0  1  0            999 V2000
    1.2740   52.1283   31.9096 C   0  0  0  0  0  0
    1.9509   52.6310   30.6470 C   0  0  0  0  0  0
    3.3312   52.4963   30.4885 C   0  0  0  0  0  0
    3.9475   52.9592   29.3296 C   0  0  0  0  0  0
    3.1823   53.5645   28.3228 C   0  0  0  0  0  0
    1.8007   53.6913   28.4847 C   0  0  0  0  0  0
    1.1857   53.2262   29.6441 C   0  0  0  0  0  0
    3.7105   54.0043   27.0979 N   0  0  0  0  0  0
    4.9936   54.1974   26.7324 C   0  0  0  0  0  0
    5.9421   54.2653   27.5159 O   0  0  0  0  0  0
    5.1841   54.3473   25.2986 C   0  0  0  0  0  0
    4.3409   54.0303   24.2200 C   0  0  0  0  0  0
    4.9410   54.2777   22.9372 C   0  0  0  0  0  0
    4.4903   54.0384   21.6121 C   0  0  0  0  0  0
    5.2789   54.5150   20.5608 C   0  0  0  0  0  0
    6.4719   55.1905   20.8284 C   0  0  0  0  0  0
    6.9704   55.3541   22.0819 N   0  0  0  0  0  0
    6.2184   54.8962   23.0833 C   0  0  0  0  0  0
    6.7043   55.0391   24.7581 S   0  0  0  0  0  0
    7.3115   55.7905   19.7024 C   0  0  0  0  0  0
    6.9762   55.2941   18.5103 F   0  0  0  0  0  0
    7.1047   57.1078   19.6808 F   0  0  0  0  0  0
    8.6116   55.5620   19.8946 F   0  0  0  0  0  0
    3.2063   53.2983   21.2629 C   0  0  0  0  0  0
    3.0834   53.4836   24.3436 N   0  0  0  0  0  0
    0.3021   51.6968   31.6756 H   0  0  0  0  0  0
    1.1027   52.9463   32.6084 H   0  0  0  0  0  0
    1.8571   51.3518   32.4067 H   0  0  0  0  0  0
    3.9313   52.0372   31.2611 H   0  0  0  0  0  0
    5.0125   52.8212   29.2244 H   0  0  0  0  0  0
    1.1933   54.1442   27.7140 H   0  0  0  0  0  0
    0.1161   53.3268   29.7605 H   0  0  0  0  0  0
    3.0396   54.1373   26.3565 H   0  0  0  0  0  0
    4.9503   54.3795   19.5391 H   0  0  0  0  0  0
    3.0483   53.2214   20.1861 H   0  0  0  0  0  0
    3.2361   52.2863   21.6676 H   0  0  0  0  0  0
    2.3382   53.8006   21.6875 H   0  0  0  0  0  0
    2.5005   53.3458   23.5289 H   0  0  0  0  0  0
    2.8146   52.9507   25.1588 H   0  0  0  0  0  0
  1  2  1  0  0  0
  1 26  1  0  0  0
  1 27  1  0  0  0
  1 28  1  0  0  0
  2  7  2  0  0  0
  2  3  1  0  0  0
  3  4  2  0  0  0
  3 29  1  0  0  0
  4  5  1  0  0  0
  4 30  1  0  0  0
  5  6  2  0  0  0
  5  8  1  0  0  0
  6  7  1  0  0  0
  6 31  1  0  0  0
  7 32  1  0  0  0
  8  9  1  0  0  0
  8 33  1  0  0  0
  9 10  2  0  0  0
  9 11  1  0  0  0
 11 19  1  0  0  0
 11 12  2  0  0  0
 12 13  1  0  0  0
 12 25  1  0  0  0
 13 18  2  0  0  0
 13 14  1  0  0  0
 14 15  2  0  0  0
 14 24  1  0  0  0
 15 16  1  0  0  0
 15 34  1  0  0  0
 16 17  2  0  0  0
 16 20  1  0  0  0
 17 18  1  0  0  0
 18 19  1  0  0  0
 20 21  1  0  0  0
 20 22  1  0  0  0
 20 23  1  0  0  0
 24 35  1  0  0  0
 24 36  1  0  0  0
 24 37  1  0  0  0
 25 38  1  0  0  0
 25 39  1  0  0  0
M  END
> <i_i_glide_confnum>
7

> <i_i_glide_lignum>
3573

> <i_i_glide_posenum>
215

> <i_i_glide_rotatable_bonds>
4

> <i_m_Source_File_Index>
1693

> <b_m_subgroup_collapsed>
0

> <r_i_docking_score>
-6.0814

> <r_i_glide_ecoul>
-1.28488

> <r_i_glide_eff_state_penalty>
0

> <r_i_glide_einternal>
5.23938

> <r_i_glide_emodel>
-57.8618

> <r_i_glide_energy>
-43.4251

> <r_i_glide_erotb>
0.432263

> <r_i_glide_esite>
-0.0472383

> <r_i_glide_evdw>
-42.1402

> <r_i_glide_gscore>
-6.0814

> <r_i_glide_hbond>
0

> <r_i_glide_ligand_efficiency>
-0.243256

> <r_i_glide_ligand_efficiency_ln>
-1.44147

> <r_i_glide_ligand_efficiency_sa>
-0.711285

> <r_i_glide_lipo>
-2.54483

> <r_i_glide_metal>
0

> <r_i_glide_rewards>
-1.62185

> <s_i_glide_gridfile>
wee1_glide-grid

> <s_m_Source_File>
wee1_decoys_glide_SP.sdf

> <s_m_Source_Path>
/Users/zhangxujun/Desktop

> <s_m_entry_id>
1968

> <s_m_entry_name>
wee1_decoys_glide_SP.1693

> <s_m_subgroup_title>
wee1_decoys_glide_SP

> <s_m_subgroupid>
wee1_decoys_glide_SP


$$$$
