ZINC28284270_4626
                    3D
 Schrodinger Suite 2024-2.
 48 50  0  0  1  0            999 V2000
    5.0624   54.1786   19.5879 C   0  0  0  0  0  0
    5.9037   54.5055   20.6895 O   0  0  0  0  0  0
    5.4234   54.3550   21.9758 C   0  0  0  0  0  0
    4.1124   53.9699   22.2937 C   0  0  0  0  0  0
    3.7021   53.8390   23.6300 C   0  0  0  0  0  0
    4.6347   54.1011   24.6459 C   0  0  0  0  0  0
    5.9486   54.4955   24.3515 C   0  0  0  0  0  0
    6.3204   54.6132   23.0136 C   0  0  0  0  0  0
    6.9133   54.7795   25.3017 O   0  0  0  0  0  0
    6.6083   54.5869   26.6792 C   0  0  0  0  0  0
    2.2925   53.4294   23.9971 C   0  0  0  0  0  0
    1.8545   53.6963   25.1182 O   0  0  0  0  0  0
    1.6050   52.7310   23.0660 N   0  0  0  0  0  0
    0.3130   52.1816   23.1740 C   0  0  0  0  0  0
   -0.6871   52.7813   23.9571 C   0  0  0  0  0  0
   -1.9566   52.2154   24.0519 C   0  0  0  0  0  0
   -2.2416   51.0345   23.3773 C   0  0  0  0  0  0
   -1.2655   50.4317   22.5901 C   0  0  0  0  0  0
    0.0086   51.0076   22.4565 C   0  0  0  0  0  0
    1.2058   50.2199   21.3452 S   0  0  0  0  0  0
    2.4043   50.0526   22.1719 O   0  0  0  0  0  0
    0.5561   48.9989   20.8496 O   0  0  0  0  0  0
    1.3805   51.3520   20.2666 N   0  5  0  0  0  0
    0.4147   51.7596   19.3752 C   0  0  0  0  0  0
    0.7577   52.7864   18.4881 C   0  0  0  0  0  0
   -0.1809   53.3497   17.6286 C   0  0  0  0  0  0
   -1.4887   52.8785   17.6355 C   0  0  0  0  0  0
   -1.8460   51.8182   18.4590 C   0  0  0  0  0  0
   -0.8992   51.2625   19.3148 C   0  0  0  0  0  0
   -2.8001   53.6997   16.5277 Br  0  0  0  0  0  0
   -3.4718   50.4819   23.4694 F   0  0  0  0  0  0
    5.6149   54.3298   18.6598 H   0  0  0  0  0  0
    4.7509   53.1343   19.6172 H   0  0  0  0  0  0
    4.1783   54.8164   19.5522 H   0  0  0  0  0  0
    3.4105   53.7828   21.4943 H   0  0  0  0  0  0
    4.3252   53.9950   25.6739 H   0  0  0  0  0  0
    7.3311   54.9120   22.7755 H   0  0  0  0  0  0
    7.4862   54.8268   27.2771 H   0  0  0  0  0  0
    6.3417   53.5497   26.8877 H   0  0  0  0  0  0
    5.7978   55.2395   27.0058 H   0  0  0  0  0  0
    2.1082   52.4499   22.2330 H   0  0  0  0  0  0
   -0.4978   53.7028   24.4813 H   0  0  0  0  0  0
   -2.7158   52.6904   24.6545 H   0  0  0  0  0  0
   -1.5164   49.5204   22.0663 H   0  0  0  0  0  0
    1.7605   53.1886   18.5004 H   0  0  0  0  0  0
    0.1010   54.1684   16.9834 H   0  0  0  0  0  0
   -2.8571   51.4363   18.4501 H   0  0  0  0  0  0
   -1.2159   50.4492   19.9423 H   0  0  0  0  0  0
  1  2  1  0  0  0
  1 32  1  0  0  0
  1 33  1  0  0  0
  1 34  1  0  0  0
  2  3  1  0  0  0
  3  8  2  0  0  0
  3  4  1  0  0  0
  4  5  2  0  0  0
  4 35  1  0  0  0
  5  6  1  0  0  0
  5 11  1  0  0  0
  6  7  2  0  0  0
  6 36  1  0  0  0
  7  8  1  0  0  0
  7  9  1  0  0  0
  8 37  1  0  0  0
  9 10  1  0  0  0
 10 38  1  0  0  0
 10 39  1  0  0  0
 10 40  1  0  0  0
 11 12  2  0  0  0
 11 13  1  0  0  0
 13 14  1  0  0  0
 13 41  1  0  0  0
 14 19  2  0  0  0
 14 15  1  0  0  0
 15 16  2  0  0  0
 15 42  1  0  0  0
 16 17  1  0  0  0
 16 43  1  0  0  0
 17 18  2  0  0  0
 17 31  1  0  0  0
 18 19  1  0  0  0
 18 44  1  0  0  0
 19 20  1  0  0  0
 20 21  2  0  0  0
 20 22  2  0  0  0
 20 23  1  0  0  0
 23 24  1  0  0  0
 24 29  2  0  0  0
 24 25  1  0  0  0
 25 26  2  0  0  0
 25 45  1  0  0  0
 26 27  1  0  0  0
 26 46  1  0  0  0
 27 28  2  0  0  0
 27 30  1  0  0  0
 28 29  1  0  0  0
 28 47  1  0  0  0
 29 48  1  0  0  0
M  CHG  1  23  -1
M  END
> <i_i_glide_confnum>
17

> <i_i_glide_lignum>
4627

> <i_i_glide_posenum>
113

> <i_i_glide_rotatable_bonds>
8

> <i_m_Source_File_Index>
2842

> <b_m_subgroup_collapsed>
0

> <r_i_docking_score>
-4.0078

> <r_i_glide_ecoul>
-3.90393

> <r_i_glide_eff_state_penalty>
0

> <r_i_glide_einternal>
7.77102

> <r_i_glide_emodel>
-47.7044

> <r_i_glide_energy>
-42.0008

> <r_i_glide_erotb>
0.475356

> <r_i_glide_esite>
-2.13736e-05

> <r_i_glide_evdw>
-38.0969

> <r_i_glide_gscore>
-4.0078

> <r_i_glide_hbond>
-0.219296

> <r_i_glide_ligand_efficiency>
-0.129284

> <r_i_glide_ligand_efficiency_ln>
-0.903882

> <r_i_glide_ligand_efficiency_sa>
-0.40613

> <r_i_glide_lipo>
-2.05289

> <r_i_glide_metal>
0

> <r_i_glide_rewards>
0.279487

> <s_i_glide_gridfile>
wee1_glide-grid

> <s_m_Source_File>
wee1_decoys_glide_SP.sdf

> <s_m_Source_Path>
/Users/zhangxujun/Desktop

> <s_m_entry_id>
3117

> <s_m_entry_name>
wee1_decoys_glide_SP.2842

> <s_m_subgroup_title>
wee1_decoys_glide_SP

> <s_m_subgroupid>
wee1_decoys_glide_SP


$$$$
