ZINC36708774_4402
                    3D
 Schrodinger Suite 2024-2.
 53 55  0  0  1  0            999 V2000
    1.4029   51.7905   21.5928 C   0  0  0  0  0  0
    0.3438   50.6667   21.7325 C   0  0  0  0  0  0
   -0.8123   50.9755   20.7469 C   0  0  0  0  0  0
    0.9909   49.3338   21.2785 C   0  0  0  0  0  0
   -0.2023   50.5381   23.2066 C   0  0  2  0  0  0
   -0.9981   51.7804   23.7020 C   0  0  0  0  0  0
   -1.5972   51.5745   25.1116 C   0  0  0  0  0  0
   -0.5656   51.1579   26.1996 C   0  0  1  0  0  0
    0.3095   49.9820   25.6796 C   0  0  0  0  0  0
    0.8909   50.1974   24.2616 C   0  0  0  0  0  0
    0.3092   52.3463   26.5911 C   0  0  0  0  0  0
    1.0624   52.9669   25.8354 O   0  0  0  0  0  0
    0.0496   52.5941   27.8996 N   0  0  0  0  0  0
   -0.7951   51.7008   28.4633 C   0  0  0  0  0  0
   -1.2361   51.6967   29.6078 O   0  0  0  0  0  0
   -1.1699   50.8967   27.4723 N   0  0  0  0  0  0
    0.4944   53.7940   28.6517 C   0  0  0  0  0  0
    2.0086   53.8090   28.8853 C   0  0  0  0  0  0
    2.4476   53.6620   30.0262 O   0  0  0  0  0  0
    2.7423   54.0422   27.7818 N   0  0  0  0  0  0
    4.1256   54.0683   27.6058 C   0  0  0  0  0  0
    5.0478   53.6454   28.5723 C   0  0  0  0  0  0
    6.4098   53.6967   28.2992 C   0  0  0  0  0  0
    6.8520   54.1659   27.0704 C   0  0  0  0  0  0
    5.9480   54.5773   26.0985 C   0  0  0  0  0  0
    4.5815   54.5159   26.3614 C   0  0  0  0  0  0
    6.6574   55.2967   24.2692 I   0  0  0  0  0  0
    1.7515   51.8800   20.5627 H   0  0  0  0  0  0
    2.2861   51.6031   22.2033 H   0  0  0  0  0  0
    1.0101   52.7673   21.8746 H   0  0  0  0  0  0
   -1.6383   50.2730   20.8654 H   0  0  0  0  0  0
   -1.2104   51.9815   20.8790 H   0  0  0  0  0  0
   -0.4828   50.9130   19.7086 H   0  0  0  0  0  0
    0.3045   48.4967   21.4062 H   0  0  0  0  0  0
    1.2724   49.3611   20.2246 H   0  0  0  0  0  0
    1.9026   49.1026   21.8297 H   0  0  0  0  0  0
   -0.9004   49.6984   23.2296 H   0  0  0  0  0  0
   -0.3692   52.6700   23.6796 H   0  0  0  0  0  0
   -1.8154   52.0070   23.0191 H   0  0  0  0  0  0
   -2.1351   52.4697   25.4310 H   0  0  0  0  0  0
   -2.4124   50.8489   25.1018 H   0  0  0  0  0  0
   -0.2665   49.0565   25.7434 H   0  0  0  0  0  0
    1.1033   49.7576   26.3956 H   0  0  0  0  0  0
    1.4330   49.2967   23.9775 H   0  0  0  0  0  0
    1.6505   50.9776   24.2773 H   0  0  0  0  0  0
   -1.4926   49.9495   27.6817 H   0  0  0  0  0  0
    0.2348   54.6854   28.0817 H   0  0  0  0  0  0
   -0.0143   53.9040   29.6113 H   0  0  0  0  0  0
    2.2138   54.1196   26.9218 H   0  0  0  0  0  0
    4.7337   53.2654   29.5310 H   0  0  0  0  0  0
    7.1297   53.3860   29.0397 H   0  0  0  0  0  0
    7.9044   54.2101   26.8817 H   0  0  0  0  0  0
    3.8838   54.8319   25.5989 H   0  0  0  0  0  0
  1  2  1  0  0  0
  1 28  1  0  0  0
  1 29  1  0  0  0
  1 30  1  0  0  0
  2  3  1  0  0  0
  2  4  1  0  0  0
  2  5  1  0  0  0
  3 31  1  0  0  0
  3 32  1  0  0  0
  3 33  1  0  0  0
  4 34  1  0  0  0
  4 35  1  0  0  0
  4 36  1  0  0  0
  5 10  1  0  0  0
  5  6  1  0  0  0
  5 37  1  0  0  0
  6  7  1  0  0  0
  6 38  1  0  0  0
  6 39  1  0  0  0
  7  8  1  0  0  0
  7 40  1  0  0  0
  7 41  1  0  0  0
  8 16  1  0  0  0
  8  9  1  0  0  0
  8 11  1  0  0  0
  9 10  1  0  0  0
  9 42  1  0  0  0
  9 43  1  0  0  0
 10 44  1  0  0  0
 10 45  1  0  0  0
 11 12  2  0  0  0
 11 13  1  0  0  0
 13 14  1  0  0  0
 13 17  1  0  0  0
 14 15  2  0  0  0
 14 16  1  0  0  0
 16 46  1  0  0  0
 17 18  1  0  0  0
 17 47  1  0  0  0
 17 48  1  0  0  0
 18 19  2  0  0  0
 18 20  1  0  0  0
 20 21  1  0  0  0
 20 49  1  0  0  0
 21 26  2  0  0  0
 21 22  1  0  0  0
 22 23  2  0  0  0
 22 50  1  0  0  0
 23 24  1  0  0  0
 23 51  1  0  0  0
 24 25  2  0  0  0
 24 52  1  0  0  0
 25 26  1  0  0  0
 25 27  1  0  0  0
 26 53  1  0  0  0
M  END
> <i_i_glide_confnum>
5

> <i_i_glide_lignum>
4403

> <i_i_glide_posenum>
265

> <i_i_glide_rotatable_bonds>
5

> <i_m_Source_File_Index>
3330

> <b_m_subgroup_collapsed>
0

> <r_i_docking_score>
-5.81633

> <r_i_glide_ecoul>
-4.83728

> <r_i_glide_eff_state_penalty>
0

> <r_i_glide_einternal>
6.6863

> <r_i_glide_emodel>
-56.1495

> <r_i_glide_energy>
-43.2908

> <r_i_glide_erotb>
0.26068

> <r_i_glide_esite>
-0.160528

> <r_i_glide_evdw>
-38.4535

> <r_i_glide_gscore>
-5.81633

> <r_i_glide_hbond>
-0.449985

> <r_i_glide_ligand_efficiency>
-0.21542

> <r_i_glide_ligand_efficiency_ln>
-1.35395

> <r_i_glide_ligand_efficiency_sa>
-0.646259

> <r_i_glide_lipo>
-2.23651

> <r_i_glide_metal>
0

> <r_i_glide_rewards>
-0.581721

> <s_i_glide_gridfile>
wee1_glide-grid

> <s_m_Source_File>
wee1_decoys_glide_SP.sdf

> <s_m_Source_Path>
/Users/zhangxujun/Desktop

> <s_m_entry_id>
3605

> <s_m_entry_name>
wee1_decoys_glide_SP.3330

> <s_m_subgroup_title>
wee1_decoys_glide_SP

> <s_m_subgroupid>
wee1_decoys_glide_SP


$$$$
