ZINC40947305_3744
                    3D
 Schrodinger Suite 2024-2.
 47 49  0  0  1  0            999 V2000
    0.1037   53.5790   31.2370 C   0  0  0  0  0  0
    1.1797   53.6765   30.1715 C   0  0  0  0  0  0
    1.7003   52.5078   29.6166 C   0  0  0  0  0  0
    2.7065   52.5828   28.6587 C   0  0  0  0  0  0
    3.1930   53.8247   28.2462 C   0  0  0  0  0  0
    2.6610   54.9943   28.7956 C   0  0  0  0  0  0
    1.6508   54.9224   29.7515 C   0  0  0  0  0  0
    4.2910   53.8946   27.1864 C   0  0  0  0  0  0
    3.9096   54.6989   26.0656 O   0  0  0  0  0  0
    3.1760   54.0754   25.0750 C   0  0  0  0  0  0
    1.8591   53.6960   25.3522 C   0  0  0  0  0  0
    1.0634   53.1013   24.3809 C   0  0  0  0  0  0
    1.5865   52.8650   23.1178 C   0  0  0  0  0  0
    2.9025   53.2195   22.8331 C   0  0  0  0  0  0
    3.7207   53.8567   23.7889 C   0  0  0  0  0  0
    5.1350   54.2477   23.5269 C   0  0  0  0  0  0
    5.7786   54.4826   22.4448 N   0  0  0  0  0  0
    5.1073   54.4113   21.2786 N   0  0  0  0  0  0
    5.7163   54.4851   20.0809 C   0  0  0  0  0  0
    6.8669   54.9005   19.9186 O   0  0  0  0  0  0
    4.8823   53.9735   18.8945 C   0  0  0  0  0  0
    5.6647   54.1558   17.2527 S   0  0  0  0  0  0
    5.3899   55.8726   16.9598 C   0  0  0  0  0  0
    4.7281   56.6917   17.7442 N   0  0  0  0  0  0
    4.7046   57.9960   17.2765 N   0  0  0  0  0  0
    5.3361   58.1263   16.1412 C   0  0  0  0  0  0
    6.0321   56.6536   15.5433 S   0  0  0  0  0  0
    5.4736   59.2961   15.4601 N   0  0  0  0  0  0
    0.5054   52.0574   21.7761 Br  0  0  0  0  0  0
   -0.3512   54.5461   31.4517 H   0  0  0  0  0  0
   -0.6858   52.8992   30.9152 H   0  0  0  0  0  0
    0.5165   53.1727   32.1611 H   0  0  0  0  0  0
    1.3232   51.5439   29.9241 H   0  0  0  0  0  0
    3.0991   51.6761   28.2278 H   0  0  0  0  0  0
    3.0238   55.9600   28.4821 H   0  0  0  0  0  0
    1.2485   55.8329   30.1732 H   0  0  0  0  0  0
    4.6003   52.8966   26.8671 H   0  0  0  0  0  0
    5.1744   54.3447   27.6406 H   0  0  0  0  0  0
    1.4368   53.8813   26.3267 H   0  0  0  0  0  0
    0.0450   52.8224   24.6091 H   0  0  0  0  0  0
    3.2577   52.9472   21.8534 H   0  0  0  0  0  0
    5.7062   54.3418   24.4462 H   0  0  0  0  0  0
    4.1327   54.1654   21.3540 H   0  0  0  0  0  0
    3.8911   54.4290   18.8901 H   0  0  0  0  0  0
    4.7295   52.9029   19.0402 H   0  0  0  0  0  0
    5.0895   60.1633   15.8523 H   0  0  0  0  0  0
    6.1101   59.4016   14.6873 H   0  0  0  0  0  0
  1  2  1  0  0  0
  1 30  1  0  0  0
  1 31  1  0  0  0
  1 32  1  0  0  0
  2  7  2  0  0  0
  2  3  1  0  0  0
  3  4  2  0  0  0
  3 33  1  0  0  0
  4  5  1  0  0  0
  4 34  1  0  0  0
  5  6  2  0  0  0
  5  8  1  0  0  0
  6  7  1  0  0  0
  6 35  1  0  0  0
  7 36  1  0  0  0
  8  9  1  0  0  0
  8 37  1  0  0  0
  8 38  1  0  0  0
  9 10  1  0  0  0
 10 15  2  0  0  0
 10 11  1  0  0  0
 11 12  2  0  0  0
 11 39  1  0  0  0
 12 13  1  0  0  0
 12 40  1  0  0  0
 13 14  2  0  0  0
 13 29  1  0  0  0
 14 15  1  0  0  0
 14 41  1  0  0  0
 15 16  1  0  0  0
 16 17  2  0  0  0
 16 42  1  0  0  0
 17 18  1  0  0  0
 18 19  1  0  0  0
 18 43  1  0  0  0
 19 20  2  0  0  0
 19 21  1  0  0  0
 21 22  1  0  0  0
 21 44  1  0  0  0
 21 45  1  0  0  0
 22 23  1  0  0  0
 23 27  1  0  0  0
 23 24  2  0  0  0
 24 25  1  0  0  0
 25 26  2  0  0  0
 26 27  1  0  0  0
 26 28  1  0  0  0
 28 46  1  0  0  0
 28 47  1  0  0  0
M  END
> <i_i_glide_confnum>
128

> <i_i_glide_lignum>
3745

> <i_i_glide_posenum>
188

> <i_i_glide_rotatable_bonds>
9

> <i_m_Source_File_Index>
1350

> <b_m_subgroup_collapsed>
0

> <r_i_docking_score>
-5.18793

> <r_i_glide_ecoul>
-4.69827

> <r_i_glide_eff_state_penalty>
0

> <r_i_glide_einternal>
12.4951

> <r_i_glide_emodel>
-53.0198

> <r_i_glide_energy>
-43.7421

> <r_i_glide_erotb>
0.755879

> <r_i_glide_esite>
-0.126819

> <r_i_glide_evdw>
-39.0439

> <r_i_glide_gscore>
-5.18793

> <r_i_glide_hbond>
-0.16

> <r_i_glide_ligand_efficiency>
-0.178894

> <r_i_glide_ligand_efficiency_ln>
-1.1879

> <r_i_glide_ligand_efficiency_sa>
-0.54962

> <r_i_glide_lipo>
-2.57935

> <r_i_glide_metal>
0

> <r_i_glide_rewards>
-0.420712

> <s_i_glide_gridfile>
wee1_glide-grid

> <s_m_Source_File>
wee1_decoys_glide_SP.sdf

> <s_m_Source_Path>
/Users/zhangxujun/Desktop

> <s_m_entry_id>
1625

> <s_m_entry_name>
wee1_decoys_glide_SP.1350

> <s_m_subgroup_title>
wee1_decoys_glide_SP

> <s_m_subgroupid>
wee1_decoys_glide_SP


$$$$
