ZINC46560473_4859
                    3D
 Schrodinger Suite 2024-2.
 66 69  0  0  1  0            999 V2000
    2.6412   51.4654   19.4020 C   0  0  0  0  0  0
    3.6661   52.3330   20.1460 C   0  0  1  0  0  0
    4.4783   51.6991   20.5081 H   0  0  0  0  0  0
    4.2448   53.3773   19.1534 C   0  0  0  0  0  0
    4.0770   54.5831   19.3347 O   0  0  0  0  0  0
    4.9320   52.9036   18.1025 N   0  0  0  0  0  0
    5.6017   53.6912   17.0488 C   0  0  2  0  0  0
    5.6362   52.9978   16.2043 H   0  0  0  0  0  0
    7.0660   53.9947   17.4035 C   0  0  0  0  0  0
    7.3921   54.7206   18.5591 C   0  0  0  0  0  0
    8.7219   55.0070   18.8524 C   0  0  0  0  0  0
    9.7293   54.5545   18.0017 C   0  0  0  0  0  0
    9.4209   53.8115   16.8664 C   0  0  0  0  0  0
    8.0904   53.5296   16.5678 C   0  0  0  0  0  0
    4.7697   54.8884   16.5238 C   0  0  0  0  0  0
    5.2204   56.2149   16.6243 C   0  0  0  0  0  0
    4.3935   57.2689   16.2502 C   0  0  0  0  0  0
    3.1076   57.0196   15.7454 C   0  0  0  0  0  0
    2.6827   55.6991   15.5894 C   0  0  0  0  0  0
    3.5045   54.6429   15.9759 C   0  0  0  0  0  0
    2.2098   58.0063   15.3854 O   0  0  0  0  0  0
    2.5408   59.3693   15.6388 C   0  0  0  0  0  0
    3.1525   53.0954   21.4090 N   0  3  0  0  0  0
    2.1853   52.2806   22.2949 C   0  0  0  0  0  0
    1.6871   53.1572   23.4683 C   0  0  0  0  0  0
    2.7694   53.7645   24.2739 N   0  0  0  0  0  0
    3.7139   54.4860   23.4066 C   0  0  0  0  0  0
    4.3093   53.6196   22.2898 C   0  0  0  0  0  0
    2.9089   53.6275   25.6570 C   0  0  0  0  0  0
    4.0798   53.9911   26.3393 C   0  0  0  0  0  0
    4.1825   53.7401   27.7073 C   0  0  0  0  0  0
    3.1169   53.1426   28.3891 C   0  0  0  0  0  0
    1.9620   52.8426   27.6614 C   0  0  0  0  0  0
    1.8559   53.0748   26.3290 N   0  0  0  0  0  0
    3.2186   52.8484   29.8784 C   0  0  0  0  0  0
    2.0195   52.7619   30.4543 F   0  0  0  0  0  0
    3.8598   51.6973   30.0594 F   0  0  0  0  0  0
    3.9044   53.8154   30.4796 F   0  0  0  0  0  0
    3.0806   51.0027   18.5143 H   0  0  0  0  0  0
    2.2960   50.6520   20.0383 H   0  0  0  0  0  0
    1.7823   52.0638   19.0939 H   0  0  0  0  0  0
    5.1044   51.8909   18.0798 H   0  0  0  0  0  0
    6.6199   55.0755   19.2274 H   0  0  0  0  0  0
    8.9785   55.5802   19.7319 H   0  0  0  0  0  0
   10.7621   54.7803   18.2287 H   0  0  0  0  0  0
   10.2107   53.4635   16.2150 H   0  0  0  0  0  0
    7.8596   52.9572   15.6786 H   0  0  0  0  0  0
    6.1940   56.4574   17.0246 H   0  0  0  0  0  0
    4.7642   58.2768   16.3722 H   0  0  0  0  0  0
    1.6979   55.4970   15.1883 H   0  0  0  0  0  0
    3.1435   53.6276   15.8836 H   0  0  0  0  0  0
    1.7200   60.0112   15.3253 H   0  0  0  0  0  0
    3.4299   59.6808   15.0878 H   0  0  0  0  0  0
    2.7042   59.5466   16.7047 H   0  0  0  0  0  0
    1.3336   52.0311   21.6621 H   0  0  0  0  0  0
    2.7035   51.3734   22.6142 H   0  0  0  0  0  0
    1.1075   53.9995   23.0877 H   0  0  0  0  0  0
    0.9950   52.5744   24.0763 H   0  0  0  0  0  0
    4.5216   54.9629   23.9563 H   0  0  0  0  0  0
    3.1368   55.2967   22.9671 H   0  0  0  0  0  0
    4.9035   52.7814   22.6525 H   0  0  0  0  0  0
    4.9384   54.2543   21.6669 H   0  0  0  0  0  0
    4.9368   54.4186   25.8455 H   0  0  0  0  0  0
    5.0963   53.9975   28.2272 H   0  0  0  0  0  0
    1.0998   52.3876   28.1318 H   0  0  0  0  0  0
    2.6383   53.8982   21.0571 H   0  0  0  0  0  0
  1  2  1  0  0  0
  1 39  1  0  0  0
  1 40  1  0  0  0
  1 41  1  0  0  0
  2  3  1  0  0  0
  2  4  1  0  0  0
  2 23  1  0  0  0
  4  5  2  0  0  0
  4  6  1  0  0  0
  6  7  1  0  0  0
  6 42  1  0  0  0
  7  8  1  0  0  0
  7  9  1  0  0  0
  7 15  1  0  0  0
  9 14  2  0  0  0
  9 10  1  0  0  0
 10 11  2  0  0  0
 10 43  1  0  0  0
 11 12  1  0  0  0
 11 44  1  0  0  0
 12 13  2  0  0  0
 12 45  1  0  0  0
 13 14  1  0  0  0
 13 46  1  0  0  0
 14 47  1  0  0  0
 15 20  2  0  0  0
 15 16  1  0  0  0
 16 17  2  0  0  0
 16 48  1  0  0  0
 17 18  1  0  0  0
 17 49  1  0  0  0
 18 19  2  0  0  0
 18 21  1  0  0  0
 19 20  1  0  0  0
 19 50  1  0  0  0
 20 51  1  0  0  0
 21 22  1  0  0  0
 22 52  1  0  0  0
 22 53  1  0  0  0
 22 54  1  0  0  0
 23 28  1  0  0  0
 23 24  1  0  0  0
 23 66  1  0  0  0
 24 25  1  0  0  0
 24 55  1  0  0  0
 24 56  1  0  0  0
 25 26  1  0  0  0
 25 57  1  0  0  0
 25 58  1  0  0  0
 26 27  1  0  0  0
 26 29  1  0  0  0
 27 28  1  0  0  0
 27 59  1  0  0  0
 27 60  1  0  0  0
 28 61  1  0  0  0
 28 62  1  0  0  0
 29 34  2  0  0  0
 29 30  1  0  0  0
 30 31  2  0  0  0
 30 63  1  0  0  0
 31 32  1  0  0  0
 31 64  1  0  0  0
 32 33  2  0  0  0
 32 35  1  0  0  0
 33 34  1  0  0  0
 33 65  1  0  0  0
 35 36  1  0  0  0
 35 37  1  0  0  0
 35 38  1  0  0  0
M  CHG  1  23   1
M  END
> <i_i_glide_confnum>
59

> <i_i_glide_lignum>
4860

> <i_i_glide_posenum>
384

> <i_i_glide_rotatable_bonds>
9

> <i_m_Source_File_Index>
1358

> <b_m_subgroup_collapsed>
0

> <r_i_docking_score>
-5.36094

> <r_i_glide_ecoul>
-7.5801

> <r_i_glide_eff_state_penalty>
0

> <r_i_glide_einternal>
3.9028

> <r_i_glide_emodel>
-54.9496

> <r_i_glide_energy>
-40.5095

> <r_i_glide_erotb>
0.572615

> <r_i_glide_esite>
-0.168994

> <r_i_glide_evdw>
-32.9294

> <r_i_glide_gscore>
-5.36094

> <r_i_glide_hbond>
-0.16

> <r_i_glide_ligand_efficiency>
-0.148915

> <r_i_glide_ligand_efficiency_ln>
-1.16961

> <r_i_glide_ligand_efficiency_sa>
-0.491707

> <r_i_glide_lipo>
-2.1684

> <r_i_glide_metal>
0

> <r_i_glide_rewards>
-0.652677

> <s_i_glide_gridfile>
wee1_glide-grid

> <s_m_Source_File>
wee1_decoys_glide_SP.sdf

> <s_m_Source_Path>
/Users/zhangxujun/Desktop

> <s_m_entry_id>
1633

> <s_m_entry_name>
wee1_decoys_glide_SP.1358

> <s_m_subgroup_title>
wee1_decoys_glide_SP

> <s_m_subgroupid>
wee1_decoys_glide_SP


$$$$
