ZINC39886749_2639
                    3D
 Schrodinger Suite 2024-2.
 46 49  0  0  1  0            999 V2000
   -1.4632   50.5817   21.0912 C   0  0  0  0  0  0
   -1.2239   50.8026   22.6054 C   0  0  0  0  0  0
   -2.5109   51.4439   23.1891 C   0  0  0  0  0  0
   -1.0327   49.4316   23.2979 C   0  0  0  0  0  0
    0.0456   51.6687   22.8094 C   0  0  0  0  0  0
    0.0104   52.8970   23.4817 C   0  0  0  0  0  0
    1.1607   53.6708   23.6129 C   0  0  0  0  0  0
    2.3959   53.2163   23.1401 C   0  0  0  0  0  0
    2.4316   51.9815   22.4772 C   0  0  0  0  0  0
    1.2754   51.2260   22.3063 C   0  0  0  0  0  0
    3.6661   54.0617   23.4373 C   0  0  1  0  0  0
    3.3919   55.0689   23.1233 H   0  0  0  0  0  0
    3.9920   54.1084   24.9338 C   0  0  0  0  0  0
    5.1661   54.5906   25.4999 C   0  0  0  0  0  0
    5.2675   54.5924   26.8161 N   0  0  0  0  0  0
    4.1776   54.1425   27.3826 C   0  0  0  0  0  0
    3.9049   54.0354   29.1154 S   0  5  0  0  0  0
    2.9395   53.6855   26.2661 S   0  0  0  0  0  0
    6.4839   55.2955   24.5952 S   0  0  0  0  0  0
    6.2807   54.3814   23.0157 C   0  0  1  0  0  0
    7.0947   53.6539   23.0595 H   0  0  0  0  0  0
    4.9852   53.6594   22.6659 C   0  0  2  0  0  0
    5.1902   52.6003   22.8261 H   0  0  0  0  0  0
    4.9111   53.8940   21.1519 C   0  0  0  0  0  0
    4.2169   53.2013   20.4024 O   0  0  0  0  0  0
    5.7449   54.9269   20.7930 N   0  0  0  0  0  0
    6.5831   55.2668   21.8171 C   0  0  0  0  0  0
    7.4952   56.0931   21.7974 O   0  0  0  0  0  0
    5.8399   55.5034   19.5428 C   0  0  0  0  0  0
    6.2829   56.6357   19.3365 O   0  0  0  0  0  0
    5.4230   54.8055   18.4782 N   0  0  0  0  0  0
   -2.3725   50.0055   20.9077 H   0  0  0  0  0  0
   -0.6473   50.0335   20.6174 H   0  0  0  0  0  0
   -1.5663   51.5320   20.5613 H   0  0  0  0  0  0
   -2.4412   51.5822   24.2691 H   0  0  0  0  0  0
   -2.7218   52.4155   22.7387 H   0  0  0  0  0  0
   -3.3865   50.8171   23.0115 H   0  0  0  0  0  0
   -0.8482   49.5516   24.3662 H   0  0  0  0  0  0
   -1.9130   48.7962   23.1874 H   0  0  0  0  0  0
   -0.1895   48.8795   22.8844 H   0  0  0  0  0  0
   -0.9026   53.2882   23.9020 H   0  0  0  0  0  0
    1.1058   54.6154   24.1346 H   0  0  0  0  0  0
    3.3519   51.5753   22.0864 H   0  0  0  0  0  0
    1.3497   50.2806   21.7904 H   0  0  0  0  0  0
    4.9812   53.9010   18.6018 H   0  0  0  0  0  0
    5.4973   55.2195   17.5609 H   0  0  0  0  0  0
  1  2  1  0  0  0
  1 32  1  0  0  0
  1 33  1  0  0  0
  1 34  1  0  0  0
  2  3  1  0  0  0
  2  4  1  0  0  0
  2  5  1  0  0  0
  3 35  1  0  0  0
  3 36  1  0  0  0
  3 37  1  0  0  0
  4 38  1  0  0  0
  4 39  1  0  0  0
  4 40  1  0  0  0
  5 10  2  0  0  0
  5  6  1  0  0  0
  6  7  2  0  0  0
  6 41  1  0  0  0
  7  8  1  0  0  0
  7 42  1  0  0  0
  8  9  2  0  0  0
  8 11  1  0  0  0
  9 10  1  0  0  0
  9 43  1  0  0  0
 10 44  1  0  0  0
 11 12  1  0  0  0
 11 22  1  0  0  0
 11 13  1  0  0  0
 13 18  1  0  0  0
 13 14  2  0  0  0
 14 15  1  0  0  0
 14 19  1  0  0  0
 15 16  2  0  0  0
 16 17  1  0  0  0
 16 18  1  0  0  0
 19 20  1  0  0  0
 20 21  1  0  0  0
 20 27  1  0  0  0
 20 22  1  0  0  0
 22 23  1  0  0  0
 22 24  1  0  0  0
 24 25  2  0  0  0
 24 26  1  0  0  0
 26 27  1  0  0  0
 26 29  1  0  0  0
 27 28  2  0  0  0
 29 30  2  0  0  0
 29 31  1  0  0  0
 31 45  1  0  0  0
 31 46  1  0  0  0
M  CHG  1  17  -1
M  END
> <i_i_glide_confnum>
6

> <i_i_glide_lignum>
2640

> <i_i_glide_posenum>
331

> <i_i_glide_rotatable_bonds>
3

> <i_m_Source_File_Index>
230

> <b_m_subgroup_collapsed>
0

> <r_i_docking_score>
-6.23955

> <r_i_glide_ecoul>
-1.81588

> <r_i_glide_eff_state_penalty>
0

> <r_i_glide_einternal>
9.10041

> <r_i_glide_emodel>
-55.1545

> <r_i_glide_energy>
-41.3284

> <r_i_glide_erotb>
0.106352

> <r_i_glide_esite>
0

> <r_i_glide_evdw>
-39.5125

> <r_i_glide_gscore>
-6.23955

> <r_i_glide_hbond>
-0.0445619

> <r_i_glide_ligand_efficiency>
-0.222841

> <r_i_glide_ligand_efficiency_ln>
-1.44027

> <r_i_glide_ligand_efficiency_sa>
-0.676677

> <r_i_glide_lipo>
-2.72085

> <r_i_glide_metal>
0

> <r_i_glide_rewards>
-1.33248

> <s_i_glide_gridfile>
wee1_glide-grid

> <s_m_Source_File>
wee1_decoys_glide_SP.sdf

> <s_m_Source_Path>
/Users/zhangxujun/Desktop

> <s_m_entry_id>
505

> <s_m_entry_name>
wee1_decoys_glide_SP.230

> <s_m_subgroup_title>
wee1_decoys_glide_SP

> <s_m_subgroupid>
wee1_decoys_glide_SP


$$$$
