ZINC45108677_4797
                    3D
 Schrodinger Suite 2024-2.
 29 30  0  0  1  0            999 V2000
    3.9036   54.2740   19.0438 C   0  0  0  0  0  0
    4.8231   54.0114   20.2603 C   0  0  0  0  0  0
    5.3152   52.5434   20.1577 C   0  0  0  0  0  0
    5.9863   55.0649   20.1786 C   0  0  0  0  0  0
    6.0197   56.0734   20.8820 O   0  0  0  0  0  0
    6.9556   54.8740   19.2812 N   0  0  0  0  0  0
    4.0174   54.1611   21.4845 N   0  0  0  0  0  0
    4.3407   54.0994   22.8222 C   0  0  0  0  0  0
    3.4144   54.0963   23.7383 N   0  0  0  0  0  0
    3.9455   54.0972   24.9903 C   0  0  0  0  0  0
    3.1994   54.0967   26.1770 C   0  0  0  0  0  0
    3.8813   54.1207   27.3948 C   0  0  0  0  0  0
    5.2746   54.1291   27.4394 C   0  0  0  0  0  0
    6.0391   54.1174   26.2737 C   0  0  0  0  0  0
    5.3634   54.1070   25.0470 C   0  0  0  0  0  0
    5.9983   54.0964   23.4089 S   0  0  0  0  0  0
    2.8985   54.1531   29.0245 Br  0  0  0  0  0  0
    4.4208   54.1196   18.0947 H   0  0  0  0  0  0
    3.0432   53.6026   19.0394 H   0  0  0  0  0  0
    3.5068   55.2916   19.0340 H   0  0  0  0  0  0
    5.9440   52.3725   19.2837 H   0  0  0  0  0  0
    5.8659   52.2231   21.0410 H   0  0  0  0  0  0
    4.4742   51.8548   20.0663 H   0  0  0  0  0  0
    6.9310   54.0828   18.6548 H   0  0  0  0  0  0
    7.6997   55.5510   19.2130 H   0  0  0  0  0  0
    3.0318   54.1737   21.2566 H   0  0  0  0  0  0
    2.1220   54.0826   26.1497 H   0  0  0  0  0  0
    5.7726   54.1473   28.3987 H   0  0  0  0  0  0
    7.1151   54.1121   26.3195 H   0  0  0  0  0  0
  1  2  1  0  0  0
  1 18  1  0  0  0
  1 19  1  0  0  0
  1 20  1  0  0  0
  2  3  1  0  0  0
  2  4  1  0  0  0
  2  7  1  0  0  0
  3 21  1  0  0  0
  3 22  1  0  0  0
  3 23  1  0  0  0
  4  5  2  0  0  0
  4  6  1  0  0  0
  6 24  1  0  0  0
  6 25  1  0  0  0
  7  8  1  0  0  0
  7 26  1  0  0  0
  8 16  1  0  0  0
  8  9  2  0  0  0
  9 10  1  0  0  0
 10 15  2  0  0  0
 10 11  1  0  0  0
 11 12  2  0  0  0
 11 27  1  0  0  0
 12 13  1  0  0  0
 12 17  1  0  0  0
 13 14  2  0  0  0
 13 28  1  0  0  0
 14 15  1  0  0  0
 14 29  1  0  0  0
 15 16  1  0  0  0
M  END
> <i_i_glide_confnum>
2

> <i_i_glide_lignum>
4798

> <i_i_glide_posenum>
211

> <i_i_glide_rotatable_bonds>
3

> <i_m_Source_File_Index>
846

> <b_m_subgroup_collapsed>
0

> <r_i_docking_score>
-5.75374

> <r_i_glide_ecoul>
-3.16121

> <r_i_glide_eff_state_penalty>
0

> <r_i_glide_einternal>
2.00258

> <r_i_glide_emodel>
-45.3599

> <r_i_glide_energy>
-33.3597

> <r_i_glide_erotb>
0.188254

> <r_i_glide_esite>
0

> <r_i_glide_evdw>
-30.1985

> <r_i_glide_gscore>
-5.75374

> <r_i_glide_hbond>
-0.125907

> <r_i_glide_ligand_efficiency>
-0.338455

> <r_i_glide_ligand_efficiency_ln>
-1.50102

> <r_i_glide_ligand_efficiency_sa>
-0.870264

> <r_i_glide_lipo>
-2.31729

> <r_i_glide_metal>
0

> <r_i_glide_rewards>
-1.51469

> <s_i_glide_gridfile>
wee1_glide-grid

> <s_m_Source_File>
wee1_decoys_glide_SP.sdf

> <s_m_Source_Path>
/Users/zhangxujun/Desktop

> <s_m_entry_id>
1121

> <s_m_entry_name>
wee1_decoys_glide_SP.846

> <s_m_subgroup_title>
wee1_decoys_glide_SP

> <s_m_subgroupid>
wee1_decoys_glide_SP


$$$$
