ZINC63514451_5117
                    3D
 Schrodinger Suite 2024-2.
 70 74  0  0  1  0            999 V2000
    2.3026   52.3765   31.1711 C   0  0  0  0  0  0
    2.8398   52.6286   29.7453 C   0  0  0  0  0  0
    1.8100   52.5647   28.7026 N   0  0  0  0  0  0
    1.2334   51.2287   28.6535 C   0  0  0  0  0  0
    0.3849   51.1711   27.3946 C   0  0  2  0  0  0
    0.5018   50.1880   26.9349 H   0  0  0  0  0  0
    1.0956   52.2232   26.5751 C   0  0  0  0  0  0
    2.0085   52.9368   27.3682 C   0  0  0  0  0  0
    2.8389   53.8993   26.7938 C   0  0  0  0  0  0
    2.8158   54.0959   25.4124 C   0  0  0  0  0  0
    1.9197   53.3834   24.6168 C   0  0  0  0  0  0
    1.0585   52.4516   25.1954 C   0  0  0  0  0  0
   -1.0966   51.3918   27.7000 C   0  0  0  0  0  0
   -2.1405   51.1500   26.8699 C   0  0  0  0  0  0
   -3.5010   51.2380   27.3970 C   0  0  0  0  0  0
   -4.4113   51.8674   26.8593 O   0  0  0  0  0  0
   -3.6961   50.5096   28.5167 N   0  0  0  0  0  0
   -4.9776   50.3379   29.2034 C   0  0  0  0  0  0
   -5.9672   49.3979   28.4693 C   0  0  0  0  0  0
   -5.5454   47.9398   28.3040 C   0  0  0  0  0  0
   -6.2851   46.8171   28.2072 C   0  0  0  0  0  0
   -7.7437   46.6235   28.2096 C   0  0  0  0  0  0
   -8.2751   45.3891   28.0944 C   0  0  0  0  0  0
   -7.3662   44.2592   27.9601 C   0  0  0  0  0  0
   -6.0155   44.4190   27.9557 C   0  0  0  0  0  0
   -5.4544   45.6969   28.0822 C   0  0  0  0  0  0
   -4.1936   46.0481   28.1220 N   0  3  0  0  0  0
   -4.0956   47.5034   28.2795 C   0  0  0  0  0  0
   -1.9193   50.7435   25.5782 N   0  0  0  0  0  0
   -2.3740   51.2966   24.4303 C   0  0  0  0  0  0
   -3.1156   52.2797   24.3624 O   0  0  0  0  0  0
   -1.8297   50.6656   23.1715 C   0  0  0  0  0  0
   -1.5836   49.2856   23.0998 C   0  0  0  0  0  0
   -1.0669   48.7246   21.9358 C   0  0  0  0  0  0
   -0.7817   49.5355   20.8373 C   0  0  0  0  0  0
   -1.0356   50.9058   20.8934 C   0  0  0  0  0  0
   -1.5625   51.4665   22.0537 C   0  0  0  0  0  0
   -0.2112   48.9284   19.5688 C   0  0  0  0  0  0
    3.0991   52.4932   31.9092 H   0  0  0  0  0  0
    1.5003   53.0739   31.4219 H   0  0  0  0  0  0
    1.9041   51.3709   31.3077 H   0  0  0  0  0  0
    3.6589   51.9467   29.5019 H   0  0  0  0  0  0
    3.2874   53.6242   29.7094 H   0  0  0  0  0  0
    2.0384   50.4973   28.6062 H   0  0  0  0  0  0
    0.6532   51.0013   29.5466 H   0  0  0  0  0  0
    3.5201   54.4766   27.4025 H   0  0  0  0  0  0
    3.4805   54.8204   24.9616 H   0  0  0  0  0  0
    1.9013   53.5434   23.5484 H   0  0  0  0  0  0
    0.4026   51.8900   24.5498 H   0  0  0  0  0  0
   -1.2964   51.7498   28.7028 H   0  0  0  0  0  0
   -2.9162   49.9605   28.8627 H   0  0  0  0  0  0
   -4.7585   49.9353   30.1943 H   0  0  0  0  0  0
   -5.4378   51.3146   29.3649 H   0  0  0  0  0  0
   -6.9226   49.4114   28.9925 H   0  0  0  0  0  0
   -6.1715   49.8047   27.4783 H   0  0  0  0  0  0
   -8.4239   47.4592   28.3058 H   0  0  0  0  0  0
   -9.3461   45.2380   28.0986 H   0  0  0  0  0  0
   -7.7834   43.2649   27.8616 H   0  0  0  0  0  0
   -5.3850   43.5464   27.8513 H   0  0  0  0  0  0
   -3.5188   47.8973   27.4406 H   0  0  0  0  0  0
   -3.5692   47.7010   29.2162 H   0  0  0  0  0  0
   -1.0931   50.1803   25.4506 H   0  0  0  0  0  0
   -1.7982   48.6350   23.9362 H   0  0  0  0  0  0
   -0.8906   47.6592   21.8885 H   0  0  0  0  0  0
   -0.8209   51.5343   20.0409 H   0  0  0  0  0  0
   -1.7507   52.5305   22.0848 H   0  0  0  0  0  0
   -0.6056   49.4337   18.6859 H   0  0  0  0  0  0
    0.8767   49.0172   19.5549 H   0  0  0  0  0  0
   -0.4831   47.8763   19.4766 H   0  0  0  0  0  0
   -3.3942   45.4148   28.0815 H   0  0  0  0  0  0
  1  2  1  0  0  0
  1 39  1  0  0  0
  1 40  1  0  0  0
  1 41  1  0  0  0
  2  3  1  0  0  0
  2 42  1  0  0  0
  2 43  1  0  0  0
  3  8  1  0  0  0
  3  4  1  0  0  0
  4  5  1  0  0  0
  4 44  1  0  0  0
  4 45  1  0  0  0
  5  6  1  0  0  0
  5  7  1  0  0  0
  5 13  1  0  0  0
  7 12  2  0  0  0
  7  8  1  0  0  0
  8  9  2  0  0  0
  9 10  1  0  0  0
  9 46  1  0  0  0
 10 11  2  0  0  0
 10 47  1  0  0  0
 11 12  1  0  0  0
 11 48  1  0  0  0
 12 49  1  0  0  0
 13 14  2  0  0  0
 13 50  1  0  0  0
 14 15  1  0  0  0
 14 29  1  0  0  0
 15 16  2  0  0  0
 15 17  1  0  0  0
 17 18  1  0  0  0
 17 51  1  0  0  0
 18 19  1  0  0  0
 18 52  1  0  0  0
 18 53  1  0  0  0
 19 20  1  0  0  0
 19 54  1  0  0  0
 19 55  1  0  0  0
 20 28  1  0  0  0
 20 21  2  0  0  0
 21 26  1  0  0  0
 21 22  1  0  0  0
 22 23  2  0  0  0
 22 56  1  0  0  0
 23 24  1  0  0  0
 23 57  1  0  0  0
 24 25  2  0  0  0
 24 58  1  0  0  0
 25 26  1  0  0  0
 25 59  1  0  0  0
 26 27  2  0  0  0
 27 28  1  0  0  0
 27 70  1  0  0  0
 28 60  1  0  0  0
 28 61  1  0  0  0
 29 30  1  0  0  0
 29 62  1  0  0  0
 30 31  2  0  0  0
 30 32  1  0  0  0
 32 37  2  0  0  0
 32 33  1  0  0  0
 33 34  2  0  0  0
 33 63  1  0  0  0
 34 35  1  0  0  0
 34 64  1  0  0  0
 35 36  2  0  0  0
 35 38  1  0  0  0
 36 37  1  0  0  0
 36 65  1  0  0  0
 37 66  1  0  0  0
 38 67  1  0  0  0
 38 68  1  0  0  0
 38 69  1  0  0  0
M  CHG  1  27   1
M  END
> <i_i_glide_confnum>
119

> <i_i_glide_lignum>
5118

> <i_i_glide_posenum>
92

> <i_i_glide_rotatable_bonds>
10

> <i_m_Source_File_Index>
5466

> <b_m_subgroup_collapsed>
0

> <r_i_docking_score>
-4.05516

> <r_i_glide_ecoul>
-7.37463

> <r_i_glide_eff_state_penalty>
0

> <r_i_glide_einternal>
12.3691

> <r_i_glide_emodel>
-46.9997

> <r_i_glide_energy>
-40.3864

> <r_i_glide_erotb>
0.668892

> <r_i_glide_esite>
-0.264386

> <r_i_glide_evdw>
-33.0118

> <r_i_glide_gscore>
-4.05516

> <r_i_glide_hbond>
-0.207538

> <r_i_glide_ligand_efficiency>
-0.109599

> <r_i_glide_ligand_efficiency_ln>
-0.879469

> <r_i_glide_ligand_efficiency_sa>
-0.365208

> <r_i_glide_lipo>
-1.21386

> <r_i_glide_metal>
0

> <r_i_glide_rewards>
-0.28149

> <s_i_glide_gridfile>
wee1_glide-grid

> <s_m_Source_File>
wee1_decoys_glide_SP.sdf

> <s_m_Source_Path>
/Users/zhangxujun/Desktop

> <s_m_entry_id>
5741

> <s_m_entry_name>
wee1_decoys_glide_SP.5466

> <s_m_subgroup_title>
wee1_decoys_glide_SP

> <s_m_subgroupid>
wee1_decoys_glide_SP


$$$$
