ZINC58941305_708
                    3D
 Schrodinger Suite 2024-2.
 52 55  0  0  1  0            999 V2000
    3.7636   54.1893   28.7425 C   0  0  0  0  0  0
    5.1043   54.4967   28.5229 C   0  0  0  0  0  0
    5.6104   54.4967   27.2269 C   0  0  0  0  0  0
    4.7690   54.1850   26.1481 C   0  0  0  0  0  0
    3.4316   53.8570   26.3808 C   0  0  0  0  0  0
    2.9255   53.8676   27.6776 C   0  0  0  0  0  0
    5.2268   54.0967   24.8238 N   0  0  0  0  0  0
    6.2571   54.7531   24.2578 C   0  0  0  0  0  0
    6.8475   55.6964   24.7826 O   0  0  0  0  0  0
    6.7045   54.2432   22.8815 C   0  0  0  0  0  0
    6.2182   55.0951   21.6554 C   0  0  1  0  0  0
    5.9045   56.0920   21.9538 H   0  0  0  0  0  0
    7.3132   55.3364   20.6394 C   0  0  0  0  0  0
    8.4637   55.6966   20.8870 O   0  0  0  0  0  0
    6.7378   55.0864   19.4420 N   0  0  0  0  0  0
    5.4649   54.5595   19.4661 C   0  0  0  0  0  0
    4.4584   54.1269   18.1924 S   0  0  0  0  0  0
    5.2172   54.4748   20.8093 N   0  0  0  0  0  0
    3.9976   54.1166   21.3946 N   0  0  0  0  0  0
    3.7490   52.8229   21.6962 C   0  0  0  0  0  0
    4.5520   51.9057   21.4984 O   0  0  0  0  0  0
    2.4303   52.5475   22.3869 C   0  0  0  0  0  0
    1.9436   51.2336   22.4563 C   0  0  0  0  0  0
    0.7592   50.9526   23.1325 C   0  0  0  0  0  0
    0.0488   51.9843   23.7404 C   0  0  0  0  0  0
    0.5174   53.2929   23.6817 C   0  0  0  0  0  0
    1.7007   53.5755   23.0079 C   0  0  0  0  0  0
   -1.4227   51.6419   24.5734 Cl  0  0  0  0  0  0
    7.4592   55.3647   18.2570 C   0  0  0  0  0  0
    7.1171   56.4806   17.4820 C   0  0  0  0  0  0
    7.8419   56.7701   16.3294 C   0  0  0  0  0  0
    8.9050   55.9508   15.9557 C   0  0  0  0  0  0
    9.2542   54.8430   16.7254 C   0  0  0  0  0  0
    8.5341   54.5488   17.8797 C   0  0  0  0  0  0
    9.6078   56.2366   14.8369 F   0  0  0  0  0  0
    3.3706   54.1942   29.7471 H   0  0  0  0  0  0
    5.7538   54.7440   29.3499 H   0  0  0  0  0  0
    6.6566   54.7195   27.0802 H   0  0  0  0  0  0
    2.7802   53.5855   25.5642 H   0  0  0  0  0  0
    1.8901   53.6170   27.8565 H   0  0  0  0  0  0
    4.7306   53.4371   24.2448 H   0  0  0  0  0  0
    7.7932   54.1819   22.9228 H   0  0  0  0  0  0
    6.4056   53.2005   22.7749 H   0  0  0  0  0  0
    3.2742   54.8095   21.2659 H   0  0  0  0  0  0
    2.4860   50.4186   21.9955 H   0  0  0  0  0  0
    0.3967   49.9362   23.1867 H   0  0  0  0  0  0
   -0.0386   54.0914   24.1490 H   0  0  0  0  0  0
    2.0396   54.6011   22.9917 H   0  0  0  0  0  0
    6.2941   57.1202   17.7685 H   0  0  0  0  0  0
    7.5828   57.6275   15.7257 H   0  0  0  0  0  0
   10.0841   54.2188   16.4289 H   0  0  0  0  0  0
    8.8173   53.6973   18.4815 H   0  0  0  0  0  0
  1  6  2  0  0  0
  1  2  1  0  0  0
  1 36  1  0  0  0
  2  3  2  0  0  0
  2 37  1  0  0  0
  3  4  1  0  0  0
  3 38  1  0  0  0
  4  5  2  0  0  0
  4  7  1  0  0  0
  5  6  1  0  0  0
  5 39  1  0  0  0
  6 40  1  0  0  0
  7  8  1  0  0  0
  7 41  1  0  0  0
  8  9  2  0  0  0
  8 10  1  0  0  0
 10 11  1  0  0  0
 10 42  1  0  0  0
 10 43  1  0  0  0
 11 12  1  0  0  0
 11 18  1  0  0  0
 11 13  1  0  0  0
 13 14  2  0  0  0
 13 15  1  0  0  0
 15 16  1  0  0  0
 15 29  1  0  0  0
 16 17  2  0  0  0
 16 18  1  0  0  0
 18 19  1  0  0  0
 19 20  1  0  0  0
 19 44  1  0  0  0
 20 21  2  0  0  0
 20 22  1  0  0  0
 22 27  2  0  0  0
 22 23  1  0  0  0
 23 24  2  0  0  0
 23 45  1  0  0  0
 24 25  1  0  0  0
 24 46  1  0  0  0
 25 26  2  0  0  0
 25 28  1  0  0  0
 26 27  1  0  0  0
 26 47  1  0  0  0
 27 48  1  0  0  0
 29 34  2  0  0  0
 29 30  1  0  0  0
 30 31  2  0  0  0
 30 49  1  0  0  0
 31 32  1  0  0  0
 31 50  1  0  0  0
 32 33  2  0  0  0
 32 35  1  0  0  0
 33 34  1  0  0  0
 33 51  1  0  0  0
 34 52  1  0  0  0
M  END
> <i_i_glide_confnum>
93

> <i_i_glide_lignum>
709

> <i_i_glide_posenum>
163

> <i_i_glide_rotatable_bonds>
8

> <i_m_Source_File_Index>
1498

> <b_m_subgroup_collapsed>
0

> <r_i_docking_score>
-6.14731

> <r_i_glide_ecoul>
-1.26238

> <r_i_glide_eff_state_penalty>
0

> <r_i_glide_einternal>
6.69956

> <r_i_glide_emodel>
-66.0646

> <r_i_glide_energy>
-50.8861

> <r_i_glide_erotb>
0.578131

> <r_i_glide_esite>
-0.0137474

> <r_i_glide_evdw>
-49.6237

> <r_i_glide_gscore>
-6.14731

> <r_i_glide_hbond>
-0.291256

> <r_i_glide_ligand_efficiency>
-0.180803

> <r_i_glide_ligand_efficiency_ln>
-1.35811

> <r_i_glide_ligand_efficiency_sa>
-0.585732

> <r_i_glide_lipo>
-2.72988

> <r_i_glide_metal>
0

> <r_i_glide_rewards>
-1.02001

> <s_i_glide_gridfile>
wee1_glide-grid

> <s_m_Source_File>
wee1_decoys_glide_SP.sdf

> <s_m_Source_Path>
/Users/zhangxujun/Desktop

> <s_m_entry_id>
1773

> <s_m_entry_name>
wee1_decoys_glide_SP.1498

> <s_m_subgroup_title>
wee1_decoys_glide_SP

> <s_m_subgroupid>
wee1_decoys_glide_SP


$$$$
