ZINC53602520_1333
                    3D
 Schrodinger Suite 2024-2.
 49 52  0  0  1  0            999 V2000
   -3.8578   51.8065   26.2986 C   0  0  0  0  0  0
   -4.5681   51.0969   27.2709 C   0  0  0  0  0  0
   -3.8949   50.6371   28.4048 C   0  0  0  0  0  0
   -2.5780   50.8967   28.5397 N   0  3  0  0  0  0
   -1.8397   51.5670   27.6249 C   0  0  0  0  0  0
   -2.4896   52.0428   26.4746 C   0  0  0  0  0  0
   -0.4498   51.8235   27.8721 N   0  0  0  0  0  0
    0.1728   51.7651   29.2071 C   0  0  0  0  0  0
    1.1141   52.9704   29.4217 C   0  0  0  0  0  0
    2.1666   53.0138   28.3987 N   0  0  0  0  0  0
    1.5946   53.0115   27.0410 C   0  0  0  0  0  0
    0.5707   51.8799   26.8075 C   0  0  0  0  0  0
    3.0220   54.1930   28.6425 C   0  0  0  0  0  0
    4.3071   54.2363   27.8270 C   0  0  0  0  0  0
    5.6202   54.1020   28.2753 C   0  0  0  0  0  0
    6.7036   54.1681   26.9190 S   0  0  0  0  0  0
    5.3255   54.3980   25.8875 C   0  0  0  0  0  0
    4.1888   54.4565   26.5322 N   0  0  0  0  0  0
    5.4219   54.4539   24.3965 C   0  0  0  0  0  0
    4.3076   54.0967   23.6275 C   0  0  0  0  0  0
    4.3617   54.1339   22.2384 C   0  0  0  0  0  0
    5.5298   54.5551   21.5869 C   0  0  0  0  0  0
    6.6476   54.9005   22.3625 C   0  0  0  0  0  0
    6.5964   54.8466   23.7520 C   0  0  0  0  0  0
    5.6089   54.6559   20.0770 C   0  0  0  0  0  0
    6.6706   54.8918   19.5054 O   0  0  0  0  0  0
    4.4839   54.4956   19.3771 N   0  0  0  0  0  0
   -4.3633   52.1689   25.4153 H   0  0  0  0  0  0
   -5.6220   50.8904   27.1343 H   0  0  0  0  0  0
   -4.3413   50.0465   29.1935 H   0  0  0  0  0  0
   -1.9551   52.6048   25.7228 H   0  0  0  0  0  0
   -0.5991   51.7528   29.9758 H   0  0  0  0  0  0
    0.7236   50.8311   29.2818 H   0  0  0  0  0  0
    1.5505   52.9013   30.4185 H   0  0  0  0  0  0
    0.5164   53.8818   29.3566 H   0  0  0  0  0  0
    1.0988   53.9663   26.8819 H   0  0  0  0  0  0
    2.3765   52.8644   26.3006 H   0  0  0  0  0  0
    0.1037   51.9926   25.8319 H   0  0  0  0  0  0
    1.0742   50.9124   26.7745 H   0  0  0  0  0  0
    3.2862   54.2185   29.7007 H   0  0  0  0  0  0
    2.4416   55.1036   28.4759 H   0  0  0  0  0  0
    5.9923   53.9665   29.2809 H   0  0  0  0  0  0
    3.3914   53.7801   24.1016 H   0  0  0  0  0  0
    3.4768   53.8494   21.6881 H   0  0  0  0  0  0
    7.5697   55.2202   21.8968 H   0  0  0  0  0  0
    7.4775   55.1200   24.3160 H   0  0  0  0  0  0
    3.5902   54.3853   19.8310 H   0  0  0  0  0  0
    4.5312   54.5361   18.3717 H   0  0  0  0  0  0
   -2.0950   50.4536   29.3154 H   0  0  0  0  0  0
  1  6  2  0  0  0
  1  2  1  0  0  0
  1 28  1  0  0  0
  2  3  2  0  0  0
  2 29  1  0  0  0
  3  4  1  0  0  0
  3 30  1  0  0  0
  4  5  2  0  0  0
  4 49  1  0  0  0
  5  6  1  0  0  0
  5  7  1  0  0  0
  6 31  1  0  0  0
  7 12  1  0  0  0
  7  8  1  0  0  0
  8  9  1  0  0  0
  8 32  1  0  0  0
  8 33  1  0  0  0
  9 10  1  0  0  0
  9 34  1  0  0  0
  9 35  1  0  0  0
 10 11  1  0  0  0
 10 13  1  0  0  0
 11 12  1  0  0  0
 11 36  1  0  0  0
 11 37  1  0  0  0
 12 38  1  0  0  0
 12 39  1  0  0  0
 13 14  1  0  0  0
 13 40  1  0  0  0
 13 41  1  0  0  0
 14 18  1  0  0  0
 14 15  2  0  0  0
 15 16  1  0  0  0
 15 42  1  0  0  0
 16 17  1  0  0  0
 17 18  2  0  0  0
 17 19  1  0  0  0
 19 24  2  0  0  0
 19 20  1  0  0  0
 20 21  2  0  0  0
 20 43  1  0  0  0
 21 22  1  0  0  0
 21 44  1  0  0  0
 22 23  2  0  0  0
 22 25  1  0  0  0
 23 24  1  0  0  0
 23 45  1  0  0  0
 24 46  1  0  0  0
 25 26  2  0  0  0
 25 27  1  0  0  0
 27 47  1  0  0  0
 27 48  1  0  0  0
M  CHG  1   4   1
M  END
> <i_i_glide_confnum>
78

> <i_i_glide_lignum>
1334

> <i_i_glide_posenum>
101

> <i_i_glide_rotatable_bonds>
5

> <i_m_Source_File_Index>
2025

> <b_m_subgroup_collapsed>
0

> <r_i_docking_score>
-6.18767

> <r_i_glide_ecoul>
-1.56043

> <r_i_glide_eff_state_penalty>
0

> <r_i_glide_einternal>
0.686368

> <r_i_glide_emodel>
-61.3943

> <r_i_glide_energy>
-42.9913

> <r_i_glide_erotb>
0.536048

> <r_i_glide_esite>
-0.140582

> <r_i_glide_evdw>
-41.4309

> <r_i_glide_gscore>
-6.18767

> <r_i_glide_hbond>
-0.0916351

> <r_i_glide_ligand_efficiency>
-0.229173

> <r_i_glide_ligand_efficiency_ln>
-1.44039

> <r_i_glide_ligand_efficiency_sa>
-0.687519

> <r_i_glide_lipo>
-3.1607

> <r_i_glide_metal>
0

> <r_i_glide_rewards>
-1.02519

> <s_i_glide_gridfile>
wee1_glide-grid

> <s_m_Source_File>
wee1_decoys_glide_SP.sdf

> <s_m_Source_Path>
/Users/zhangxujun/Desktop

> <s_m_entry_id>
2300

> <s_m_entry_name>
wee1_decoys_glide_SP.2025

> <s_m_subgroup_title>
wee1_decoys_glide_SP

> <s_m_subgroupid>
wee1_decoys_glide_SP


$$$$
