ZINC08935649_464
                    3D
 Schrodinger Suite 2024-2.
 57 61  0  0  1  0            999 V2000
    6.4853   54.5002   27.0643 C   0  0  0  0  0  0
    5.6411   53.6718   27.7955 C   0  0  0  0  0  0
    4.3591   53.3999   27.3259 C   0  0  0  0  0  0
    3.8920   53.9877   26.1386 C   0  0  0  0  0  0
    4.7600   54.8199   25.4154 C   0  0  0  0  0  0
    6.0522   55.0711   25.8704 C   0  0  0  0  0  0
    2.5187   53.6967   25.5848 C   0  0  0  0  0  0
    2.2197   54.0120   24.4307 O   0  0  0  0  0  0
    1.5033   53.0139   26.4081 C   0  0  0  0  0  0
    1.1054   53.3931   27.7253 C   0  0  0  0  0  0
    0.2421   52.4635   28.3199 C   0  0  0  0  0  0
   -0.2875   51.2677   27.2077 S   0  0  0  0  0  0
    0.7432   51.9089   25.9593 C   0  0  0  0  0  0
    0.8545   51.3080   24.6981 N   0  0  0  0  0  0
    0.2579   50.1872   24.2242 C   0  0  0  0  0  0
   -0.6165   49.5514   24.8089 O   0  0  0  0  0  0
    0.7334   49.6427   22.8651 C   0  0  0  0  0  0
    1.2912   50.6225   21.9379 N   0  0  0  0  0  0
    2.5081   51.1500   22.0998 N   0  0  0  0  0  0
    2.5301   52.0649   21.1530 C   0  0  0  0  0  0
    1.4348   52.0963   20.4058 N   0  0  0  0  0  0
    0.5799   51.1587   20.9468 N   0  0  0  0  0  0
    3.6679   53.0238   20.9850 C   0  0  0  0  0  0
    3.9167   53.6439   19.7570 C   0  0  0  0  0  0
    4.9440   54.5786   19.6356 C   0  0  0  0  0  0
    5.7441   54.8967   20.7398 C   0  0  0  0  0  0
    5.5047   54.2633   21.9638 C   0  0  0  0  0  0
    4.4750   53.3403   22.0824 C   0  0  0  0  0  0
    6.8335   55.9273   20.6089 C   0  0  0  0  0  0
    6.7052   56.9299   19.9130 O   0  0  0  0  0  0
    7.9590   55.6962   21.2817 N   0  0  0  0  0  0
   -0.1740   52.4386   29.7817 C   0  0  0  0  0  0
    0.0635   53.8242   30.4079 C   0  0  0  0  0  0
    1.4294   54.4163   30.0203 C   0  0  0  0  0  0
    1.5483   54.6464   28.4981 C   0  0  0  0  0  0
    7.4820   54.6997   27.4329 H   0  0  0  0  0  0
    5.9891   53.2255   28.7152 H   0  0  0  0  0  0
    3.7415   52.7221   27.8964 H   0  0  0  0  0  0
    4.4403   55.2787   24.4901 H   0  0  0  0  0  0
    6.7072   55.7153   25.3019 H   0  0  0  0  0  0
    1.5087   51.7575   24.0722 H   0  0  0  0  0  0
    1.5053   48.8983   23.0627 H   0  0  0  0  0  0
   -0.0947   49.1311   22.3728 H   0  0  0  0  0  0
    3.3024   53.4166   18.8972 H   0  0  0  0  0  0
    5.1063   55.0590   18.6803 H   0  0  0  0  0  0
    6.0972   54.4938   22.8365 H   0  0  0  0  0  0
    4.2883   52.8966   23.0461 H   0  0  0  0  0  0
    8.0438   54.8959   21.8885 H   0  0  0  0  0  0
    8.7342   56.3353   21.1882 H   0  0  0  0  0  0
   -1.2134   52.1275   29.8998 H   0  0  0  0  0  0
    0.4236   51.6975   30.3121 H   0  0  0  0  0  0
   -0.7251   54.4969   30.0815 H   0  0  0  0  0  0
   -0.0274   53.7530   31.4926 H   0  0  0  0  0  0
    1.5831   55.3620   30.5427 H   0  0  0  0  0  0
    2.2237   53.7457   30.3516 H   0  0  0  0  0  0
    2.5563   54.9824   28.2650 H   0  0  0  0  0  0
    0.9036   55.4764   28.2115 H   0  0  0  0  0  0
  1  6  2  0  0  0
  1  2  1  0  0  0
  1 36  1  0  0  0
  2  3  2  0  0  0
  2 37  1  0  0  0
  3  4  1  0  0  0
  3 38  1  0  0  0
  4  5  2  0  0  0
  4  7  1  0  0  0
  5  6  1  0  0  0
  5 39  1  0  0  0
  6 40  1  0  0  0
  7  8  2  0  0  0
  7  9  1  0  0  0
  9 13  2  0  0  0
  9 10  1  0  0  0
 10 35  1  0  0  0
 10 11  2  0  0  0
 11 12  1  0  0  0
 11 32  1  0  0  0
 12 13  1  0  0  0
 13 14  1  0  0  0
 14 15  1  0  0  0
 14 41  1  0  0  0
 15 16  2  0  0  0
 15 17  1  0  0  0
 17 18  1  0  0  0
 17 42  1  0  0  0
 17 43  1  0  0  0
 18 22  1  0  0  0
 18 19  1  0  0  0
 19 20  2  0  0  0
 20 21  1  0  0  0
 20 23  1  0  0  0
 21 22  2  0  0  0
 23 28  2  0  0  0
 23 24  1  0  0  0
 24 25  2  0  0  0
 24 44  1  0  0  0
 25 26  1  0  0  0
 25 45  1  0  0  0
 26 27  2  0  0  0
 26 29  1  0  0  0
 27 28  1  0  0  0
 27 46  1  0  0  0
 28 47  1  0  0  0
 29 30  2  0  0  0
 29 31  1  0  0  0
 31 48  1  0  0  0
 31 49  1  0  0  0
 32 33  1  0  0  0
 32 50  1  0  0  0
 32 51  1  0  0  0
 33 34  1  0  0  0
 33 52  1  0  0  0
 33 53  1  0  0  0
 34 35  1  0  0  0
 34 54  1  0  0  0
 34 55  1  0  0  0
 35 56  1  0  0  0
 35 57  1  0  0  0
M  END
> <i_i_glide_confnum>
270

> <i_i_glide_lignum>
465

> <i_i_glide_posenum>
89

> <i_i_glide_rotatable_bonds>
8

> <i_m_Source_File_Index>
3554

> <b_m_subgroup_collapsed>
0

> <r_i_docking_score>
-6.58447

> <r_i_glide_ecoul>
-0.421106

> <r_i_glide_eff_state_penalty>
0

> <r_i_glide_einternal>
6.07634

> <r_i_glide_emodel>
-73.0296

> <r_i_glide_energy>
-53.918

> <r_i_glide_erotb>
0.600948

> <r_i_glide_esite>
-0.0233324

> <r_i_glide_evdw>
-53.4969

> <r_i_glide_gscore>
-6.58447

> <r_i_glide_hbond>
-0.306438

> <r_i_glide_ligand_efficiency>
-0.188128

> <r_i_glide_ligand_efficiency_ln>
-1.44544

> <r_i_glide_ligand_efficiency_sa>
-0.615378

> <r_i_glide_lipo>
-3.33277

> <r_i_glide_metal>
0

> <r_i_glide_rewards>
-0.784864

> <s_i_glide_gridfile>
wee1_glide-grid

> <s_m_Source_File>
wee1_decoys_glide_SP.sdf

> <s_m_Source_Path>
/Users/zhangxujun/Desktop

> <s_m_entry_id>
3829

> <s_m_entry_name>
wee1_decoys_glide_SP.3554

> <s_m_subgroup_title>
wee1_decoys_glide_SP

> <s_m_subgroupid>
wee1_decoys_glide_SP


$$$$
