ZINC34107785_29
                    3D
 Schrodinger Suite 2024-2.
 50 53  0  0  1  0            999 V2000
    0.1807   48.8969   25.6815 C   0  0  0  0  0  0
   -1.0693   49.7959   25.6162 C   0  0  2  0  0  0
   -1.9051   49.2084   26.0001 H   0  0  0  0  0  0
   -1.3947   50.2152   24.1670 C   0  0  0  0  0  0
   -0.4651   51.3301   23.6663 C   0  0  0  0  0  0
   -0.4146   52.4973   24.6661 C   0  0  0  0  0  0
    0.0076   52.0217   25.9959 N   0  0  0  0  0  0
   -0.9167   51.0204   26.5625 C   0  0  0  0  0  0
    1.1367   52.4984   26.6671 C   0  0  0  0  0  0
    1.4208   52.2468   27.8752 N   0  0  0  0  0  0
    2.6295   52.7456   28.3171 C   0  0  0  0  0  0
    3.0303   52.6036   29.4733 O   0  0  0  0  0  0
    3.3573   53.4066   27.2474 C   0  0  0  0  0  0
    4.6142   53.8812   27.4194 C   0  0  0  0  0  0
    5.4776   54.4852   26.4174 C   0  0  0  0  0  0
    6.6364   55.2446   26.4964 C   0  0  0  0  0  0
    7.0503   55.5145   25.1850 C   0  0  0  0  0  0
    6.1447   54.8872   24.3419 C   0  0  0  0  0  0
    5.1987   54.2807   25.1047 O   0  0  0  0  0  0
    5.9942   54.7699   22.8606 C   0  0  0  0  0  0
    6.9099   55.3769   21.9943 C   0  0  0  0  0  0
    6.7350   55.2905   20.6135 C   0  0  0  0  0  0
    5.6603   54.5574   20.0977 C   0  0  0  0  0  0
    4.7342   53.9650   20.9552 C   0  0  0  0  0  0
    4.8976   54.0800   22.3309 C   0  0  0  0  0  0
    5.4784   54.3297   18.3324 S   0  0  0  0  0  0
    4.0706   54.0254   18.0563 O   0  0  0  0  0  0
    6.1559   55.4546   17.6805 O   0  0  0  0  0  0
    6.4106   52.8979   17.9832 N   0  0  0  0  0  0
    2.3574   53.4350   25.7900 S   0  0  0  0  0  0
    1.0890   49.4218   25.3822 H   0  0  0  0  0  0
    0.3285   48.5260   26.6951 H   0  0  0  0  0  0
    0.0854   48.0245   25.0343 H   0  0  0  0  0  0
   -2.4244   50.5749   24.1295 H   0  0  0  0  0  0
   -1.3574   49.3547   23.4972 H   0  0  0  0  0  0
   -0.7833   51.6863   22.6869 H   0  0  0  0  0  0
    0.5423   50.9380   23.5186 H   0  0  0  0  0  0
   -1.4364   52.8490   24.8156 H   0  0  0  0  0  0
    0.1370   53.3567   24.2860 H   0  0  0  0  0  0
   -0.5634   50.6569   27.5302 H   0  0  0  0  0  0
   -1.8850   51.4680   26.7974 H   0  0  0  0  0  0
    5.0810   53.8273   28.3943 H   0  0  0  0  0  0
    7.1045   55.5684   27.4148 H   0  0  0  0  0  0
    7.9041   56.0954   24.8671 H   0  0  0  0  0  0
    7.7612   55.9133   22.3889 H   0  0  0  0  0  0
    7.4563   55.7491   19.9521 H   0  0  0  0  0  0
    3.8946   53.4119   20.5587 H   0  0  0  0  0  0
    4.1677   53.6163   22.9800 H   0  0  0  0  0  0
    5.9020   51.9949   18.0820 H   0  0  0  0  0  0
    6.9111   52.9459   17.0930 H   0  0  0  0  0  0
  1  2  1  0  0  0
  1 31  1  0  0  0
  1 32  1  0  0  0
  1 33  1  0  0  0
  2  3  1  0  0  0
  2  8  1  0  0  0
  2  4  1  0  0  0
  4  5  1  0  0  0
  4 34  1  0  0  0
  4 35  1  0  0  0
  5  6  1  0  0  0
  5 36  1  0  0  0
  5 37  1  0  0  0
  6  7  1  0  0  0
  6 38  1  0  0  0
  6 39  1  0  0  0
  7  8  1  0  0  0
  7  9  1  0  0  0
  8 40  1  0  0  0
  8 41  1  0  0  0
  9 30  1  0  0  0
  9 10  2  0  0  0
 10 11  1  0  0  0
 11 12  2  0  0  0
 11 13  1  0  0  0
 13 14  2  0  0  0
 13 30  1  0  0  0
 14 15  1  0  0  0
 14 42  1  0  0  0
 15 19  1  0  0  0
 15 16  2  0  0  0
 16 17  1  0  0  0
 16 43  1  0  0  0
 17 18  2  0  0  0
 17 44  1  0  0  0
 18 19  1  0  0  0
 18 20  1  0  0  0
 20 25  2  0  0  0
 20 21  1  0  0  0
 21 22  2  0  0  0
 21 45  1  0  0  0
 22 23  1  0  0  0
 22 46  1  0  0  0
 23 24  2  0  0  0
 23 26  1  0  0  0
 24 25  1  0  0  0
 24 47  1  0  0  0
 25 48  1  0  0  0
 26 27  2  0  0  0
 26 28  2  0  0  0
 26 29  1  0  0  0
 29 49  1  0  0  0
 29 50  1  0  0  0
M  END
> <i_i_glide_confnum>
14

> <i_i_glide_lignum>
30

> <i_i_glide_posenum>
267

> <i_i_glide_rotatable_bonds>
4

> <i_m_Source_File_Index>
3432

> <b_m_subgroup_collapsed>
0

> <r_i_docking_score>
-6.38614

> <r_i_glide_ecoul>
-6.62278

> <r_i_glide_eff_state_penalty>
0

> <r_i_glide_einternal>
0.990877

> <r_i_glide_emodel>
-67.4557

> <r_i_glide_energy>
-47.3523

> <r_i_glide_erotb>
0.320441

> <r_i_glide_esite>
-0.122994

> <r_i_glide_evdw>
-40.7295

> <r_i_glide_gscore>
-6.38614

> <r_i_glide_hbond>
-0.16

> <r_i_glide_ligand_efficiency>
-0.220212

> <r_i_glide_ligand_efficiency_ln>
-1.46226

> <r_i_glide_ligand_efficiency_sa>
-0.67656

> <r_i_glide_lipo>
-2.34913

> <r_i_glide_metal>
0

> <r_i_glide_rewards>
-1.04457

> <s_i_glide_gridfile>
wee1_glide-grid

> <s_m_Source_File>
wee1_decoys_glide_SP.sdf

> <s_m_Source_Path>
/Users/zhangxujun/Desktop

> <s_m_entry_id>
3707

> <s_m_entry_name>
wee1_decoys_glide_SP.3432

> <s_m_subgroup_title>
wee1_decoys_glide_SP

> <s_m_subgroupid>
wee1_decoys_glide_SP


$$$$
