ZINC02962919_5203
                    3D
 Schrodinger Suite 2024-2.
 64 68  0  0  1  0            999 V2000
   -2.4064   50.2908   18.3019 C   0  0  0  0  0  0
   -2.1970   50.3689   19.8027 C   0  0  0  0  0  0
   -3.2994   50.4337   20.6588 C   0  0  0  0  0  0
   -3.1080   50.4969   22.0369 C   0  0  0  0  0  0
   -1.8093   50.4845   22.5551 C   0  0  0  0  0  0
   -0.7044   50.4106   21.7003 C   0  0  0  0  0  0
   -0.9005   50.3523   20.3233 C   0  0  0  0  0  0
   -1.6011   50.6003   23.9529 N   0  0  0  0  0  0
   -1.3879   49.4761   24.7459 C   0  0  0  0  0  0
   -1.3039   47.8794   24.2497 S   0  0  0  0  0  0
   -1.2360   49.6967   26.0817 N   0  0  0  0  0  0
   -1.5375   50.9456   26.7909 C   0  0  2  0  0  0
   -1.0280   50.9169   27.7553 H   0  0  0  0  0  0
   -3.0281   51.1649   26.9951 C   0  0  0  0  0  0
   -3.6957   50.7858   28.1636 C   0  0  0  0  0  0
   -5.0624   51.0192   28.3321 C   0  0  0  0  0  0
   -5.7765   51.6326   27.2899 C   0  0  0  0  0  0
   -5.1295   52.0090   26.1139 C   0  0  0  0  0  0
   -3.7635   51.7830   25.9669 C   0  0  0  0  0  0
   -3.2020   52.2259   24.7727 O   0  0  0  0  0  0
   -1.8242   51.9521   24.5420 C   0  0  1  0  0  0
   -1.0450   52.1030   25.8971 C   0  0  2  0  0  0
   -1.3432   53.0540   26.3395 H   0  0  0  0  0  0
    0.5040   52.1926   25.8065 C   0  0  0  0  0  0
    1.1044   51.6530   24.8795 O   0  0  0  0  0  0
    1.1020   52.9226   26.7718 N   0  0  0  0  0  0
    2.4550   53.2907   26.8655 C   0  0  0  0  0  0
    3.0567   53.0758   28.1098 C   0  0  0  0  0  0
    4.3907   53.4171   28.3231 C   0  0  0  0  0  0
    5.1381   53.9967   27.2989 C   0  0  0  0  0  0
    4.5384   54.2364   26.0608 C   0  0  0  0  0  0
    3.2001   53.8965   25.8271 C   0  0  0  0  0  0
    2.6059   54.2515   24.4681 C   0  0  0  0  0  0
    6.5965   54.3508   27.5216 C   0  0  0  0  0  0
   -1.3897   53.0643   23.5614 C   0  0  0  0  0  0
   -5.6152   50.6331   29.5369 O   0  0  0  0  0  0
   -7.0108   50.8047   29.7501 C   0  0  0  0  0  0
   -3.3568   49.8117   18.0601 H   0  0  0  0  0  0
   -2.3918   51.2874   17.8585 H   0  0  0  0  0  0
   -1.6262   49.6891   17.8322 H   0  0  0  0  0  0
   -4.3035   50.4377   20.2600 H   0  0  0  0  0  0
   -3.9603   50.5569   22.6996 H   0  0  0  0  0  0
    0.2988   50.4076   22.1057 H   0  0  0  0  0  0
   -0.0446   50.2951   19.6656 H   0  0  0  0  0  0
   -1.1869   48.8542   26.6510 H   0  0  0  0  0  0
   -3.1429   50.2973   28.9561 H   0  0  0  0  0  0
   -6.8344   51.8261   27.3766 H   0  0  0  0  0  0
   -5.6856   52.4820   25.3180 H   0  0  0  0  0  0
    0.5431   53.1392   27.5812 H   0  0  0  0  0  0
    2.4985   52.6236   28.9163 H   0  0  0  0  0  0
    4.8437   53.2236   29.2836 H   0  0  0  0  0  0
    5.1182   54.6920   25.2712 H   0  0  0  0  0  0
    2.7288   53.4234   23.7694 H   0  0  0  0  0  0
    1.5460   54.4962   24.5385 H   0  0  0  0  0  0
    3.0903   55.1320   24.0443 H   0  0  0  0  0  0
    7.0169   53.8205   28.3767 H   0  0  0  0  0  0
    6.7044   55.4226   27.6806 H   0  0  0  0  0  0
    7.1905   54.0719   26.6512 H   0  0  0  0  0  0
   -0.3944   52.8754   23.1576 H   0  0  0  0  0  0
   -2.0957   53.1406   22.7335 H   0  0  0  0  0  0
   -1.3684   54.0255   24.0684 H   0  0  0  0  0  0
   -7.2699   50.4334   30.7411 H   0  0  0  0  0  0
   -7.2962   51.8569   29.7074 H   0  0  0  0  0  0
   -7.5988   50.2425   29.0237 H   0  0  0  0  0  0
  1  2  1  0  0  0
  1 38  1  0  0  0
  1 39  1  0  0  0
  1 40  1  0  0  0
  2  7  2  0  0  0
  2  3  1  0  0  0
  3  4  2  0  0  0
  3 41  1  0  0  0
  4  5  1  0  0  0
  4 42  1  0  0  0
  5  6  2  0  0  0
  5  8  1  0  0  0
  6  7  1  0  0  0
  6 43  1  0  0  0
  7 44  1  0  0  0
  8 21  1  0  0  0
  8  9  1  0  0  0
  9 10  2  0  0  0
  9 11  1  0  0  0
 11 12  1  0  0  0
 11 45  1  0  0  0
 12 13  1  0  0  0
 12 22  1  0  0  0
 12 14  1  0  0  0
 14 19  2  0  0  0
 14 15  1  0  0  0
 15 16  2  0  0  0
 15 46  1  0  0  0
 16 17  1  0  0  0
 16 36  1  0  0  0
 17 18  2  0  0  0
 17 47  1  0  0  0
 18 19  1  0  0  0
 18 48  1  0  0  0
 19 20  1  0  0  0
 20 21  1  0  0  0
 21 22  1  0  0  0
 21 35  1  0  0  0
 22 23  1  0  0  0
 22 24  1  0  0  0
 24 25  2  0  0  0
 24 26  1  0  0  0
 26 27  1  0  0  0
 26 49  1  0  0  0
 27 32  2  0  0  0
 27 28  1  0  0  0
 28 29  2  0  0  0
 28 50  1  0  0  0
 29 30  1  0  0  0
 29 51  1  0  0  0
 30 31  2  0  0  0
 30 34  1  0  0  0
 31 32  1  0  0  0
 31 52  1  0  0  0
 32 33  1  0  0  0
 33 53  1  0  0  0
 33 54  1  0  0  0
 33 55  1  0  0  0
 34 56  1  0  0  0
 34 57  1  0  0  0
 34 58  1  0  0  0
 35 59  1  0  0  0
 35 60  1  0  0  0
 35 61  1  0  0  0
 36 37  1  0  0  0
 37 62  1  0  0  0
 37 63  1  0  0  0
 37 64  1  0  0  0
M  END
> <i_i_glide_confnum>
3

> <i_i_glide_lignum>
5204

> <i_i_glide_posenum>
135

> <i_i_glide_rotatable_bonds>
5

> <i_m_Source_File_Index>
422

> <b_m_subgroup_collapsed>
0

> <r_i_docking_score>
-4.23019

> <r_i_glide_ecoul>
-1.92301

> <r_i_glide_eff_state_penalty>
0

> <r_i_glide_einternal>
3.26617

> <r_i_glide_emodel>
-48.2175

> <r_i_glide_energy>
-38.605

> <r_i_glide_erotb>
0.342025

> <r_i_glide_esite>
-0.179064

> <r_i_glide_evdw>
-36.682

> <r_i_glide_gscore>
-4.23019

> <r_i_glide_hbond>
-0.125957

> <r_i_glide_ligand_efficiency>
-0.120863

> <r_i_glide_ligand_efficiency_ln>
-0.928621

> <r_i_glide_ligand_efficiency_sa>
-0.39535

> <r_i_glide_lipo>
-1.97691

> <r_i_glide_metal>
0

> <r_i_glide_rewards>
-0.167737

> <s_i_glide_gridfile>
wee1_glide-grid

> <s_m_Source_File>
wee1_decoys_glide_SP.sdf

> <s_m_Source_Path>
/Users/zhangxujun/Desktop

> <s_m_entry_id>
697

> <s_m_entry_name>
wee1_decoys_glide_SP.422

> <s_m_subgroup_title>
wee1_decoys_glide_SP

> <s_m_subgroupid>
wee1_decoys_glide_SP


$$$$
