ZINC35867388_5600
                    3D
 Schrodinger Suite 2024-2.
 71 75  0  0  1  0            999 V2000
    6.5479   56.5141   15.7605 C   0  0  0  0  0  0
    6.3150   55.6808   17.0327 C   0  0  2  0  0  0
    6.5394   54.6456   16.7663 H   0  0  0  0  0  0
    4.8598   55.8022   17.5239 C   0  0  0  0  0  0
    4.5728   54.7706   18.6302 C   0  0  0  0  0  0
    5.6264   54.9167   19.7352 C   0  0  0  0  0  0
    6.8615   55.5266   19.4858 C   0  0  0  0  0  0
    7.8663   55.6966   20.8965 S   0  0  0  0  0  0
    6.6032   55.0159   21.8881 C   0  0  0  0  0  0
    5.4911   54.5405   21.1234 C   0  0  0  0  0  0
    4.4822   53.8856   21.8889 C   0  0  0  0  0  0
    4.5126   53.9410   23.2495 N   0  0  0  0  0  0
    5.5952   54.4999   23.8456 C   0  0  0  0  0  0
    6.7000   54.9824   23.2164 N   0  0  0  0  0  0
    5.5037   54.8135   25.3495 C   0  0  0  0  0  0
    4.2104   54.3420   26.0547 C   0  0  0  0  0  0
    6.7516   54.3667   26.1268 C   0  0  0  0  0  0
    3.4275   53.1745   21.3156 N   0  0  0  0  0  0
    3.6602   52.2492   20.1969 C   0  0  0  0  0  0
    3.5362   50.7593   20.5688 C   0  0  0  0  0  0
    2.2379   50.5258   21.2268 N   0  0  0  0  0  0
    1.9868   51.3671   22.4094 C   0  0  0  0  0  0
    2.1693   52.8501   22.0119 C   0  0  0  0  0  0
    1.4090   49.4804   20.9316 C   0  0  0  0  0  0
    0.4629   49.1719   21.6547 O   0  0  0  0  0  0
    1.6924   48.8402   19.7730 N   0  0  0  0  0  0
    1.0968   47.7187   19.1698 C   0  0  0  0  0  0
    1.6781   47.3002   17.9732 C   0  0  0  0  0  0
    1.1893   46.1836   17.2809 C   0  0  0  0  0  0
    0.1101   45.4836   17.8176 C   0  0  0  0  0  0
   -0.4902   45.8739   19.0153 C   0  0  0  0  0  0
    0.0013   47.0068   19.6815 C   0  0  0  0  0  0
   -1.5386   45.0948   19.4657 O   0  0  0  0  0  0
   -2.1771   45.4343   20.6917 C   0  0  0  0  0  0
    1.7176   45.7074   16.0971 O   0  0  0  0  0  0
    2.8265   46.3908   15.5163 C   0  0  0  0  0  0
    7.2933   56.1239   18.1484 C   0  0  0  0  0  0
    6.3643   57.5731   15.9407 H   0  0  0  0  0  0
    7.5733   56.4112   15.4052 H   0  0  0  0  0  0
    5.8914   56.1997   14.9481 H   0  0  0  0  0  0
    4.1776   55.6155   16.6941 H   0  0  0  0  0  0
    4.6361   56.8237   17.8342 H   0  0  0  0  0  0
    3.5659   54.9208   19.0184 H   0  0  0  0  0  0
    4.6009   53.7757   18.1858 H   0  0  0  0  0  0
    5.4854   55.9046   25.3962 H   0  0  0  0  0  0
    3.3181   54.7346   25.5635 H   0  0  0  0  0  0
    4.1364   53.2552   26.0689 H   0  0  0  0  0  0
    4.1811   54.6849   27.0894 H   0  0  0  0  0  0
    7.6539   54.6839   25.6106 H   0  0  0  0  0  0
    6.7702   54.7931   27.1286 H   0  0  0  0  0  0
    6.7923   53.2876   26.2292 H   0  0  0  0  0  0
    2.9446   52.5031   19.4138 H   0  0  0  0  0  0
    4.6638   52.3715   19.7907 H   0  0  0  0  0  0
    3.7044   50.1537   19.6827 H   0  0  0  0  0  0
    4.3265   50.5058   21.2717 H   0  0  0  0  0  0
    2.7039   51.1171   23.1892 H   0  0  0  0  0  0
    0.9880   51.2243   22.8250 H   0  0  0  0  0  0
    2.0413   53.4797   22.8930 H   0  0  0  0  0  0
    1.3742   53.1330   21.3180 H   0  0  0  0  0  0
    2.4701   49.2097   19.2491 H   0  0  0  0  0  0
    2.5234   47.8523   17.5887 H   0  0  0  0  0  0
   -0.2679   44.6176   17.2946 H   0  0  0  0  0  0
   -0.4646   47.3155   20.5994 H   0  0  0  0  0  0
   -2.9726   44.7189   20.8889 H   0  0  0  0  0  0
   -1.4793   45.3927   21.5302 H   0  0  0  0  0  0
   -2.6317   46.4250   20.6505 H   0  0  0  0  0  0
    3.1011   45.8973   14.5858 H   0  0  0  0  0  0
    2.5811   47.4268   15.2761 H   0  0  0  0  0  0
    3.6945   46.3726   16.1746 H   0  0  0  0  0  0
    8.3107   55.8230   17.8945 H   0  0  0  0  0  0
    7.2807   57.2134   18.2345 H   0  0  0  0  0  0
  1  2  1  0  0  0
  1 38  1  0  0  0
  1 39  1  0  0  0
  1 40  1  0  0  0
  2  3  1  0  0  0
  2 37  1  0  0  0
  2  4  1  0  0  0
  4  5  1  0  0  0
  4 41  1  0  0  0
  4 42  1  0  0  0
  5  6  1  0  0  0
  5 43  1  0  0  0
  5 44  1  0  0  0
  6 10  1  0  0  0
  6  7  2  0  0  0
  7  8  1  0  0  0
  7 37  1  0  0  0
  8  9  1  0  0  0
  9 14  2  0  0  0
  9 10  1  0  0  0
 10 11  2  0  0  0
 11 12  1  0  0  0
 11 18  1  0  0  0
 12 13  2  0  0  0
 13 14  1  0  0  0
 13 15  1  0  0  0
 15 16  1  0  0  0
 15 17  1  0  0  0
 15 45  1  0  0  0
 16 46  1  0  0  0
 16 47  1  0  0  0
 16 48  1  0  0  0
 17 49  1  0  0  0
 17 50  1  0  0  0
 17 51  1  0  0  0
 18 23  1  0  0  0
 18 19  1  0  0  0
 19 20  1  0  0  0
 19 52  1  0  0  0
 19 53  1  0  0  0
 20 21  1  0  0  0
 20 54  1  0  0  0
 20 55  1  0  0  0
 21 22  1  0  0  0
 21 24  1  0  0  0
 22 23  1  0  0  0
 22 56  1  0  0  0
 22 57  1  0  0  0
 23 58  1  0  0  0
 23 59  1  0  0  0
 24 25  2  0  0  0
 24 26  1  0  0  0
 26 27  1  0  0  0
 26 60  1  0  0  0
 27 32  2  0  0  0
 27 28  1  0  0  0
 28 29  2  0  0  0
 28 61  1  0  0  0
 29 30  1  0  0  0
 29 35  1  0  0  0
 30 31  2  0  0  0
 30 62  1  0  0  0
 31 32  1  0  0  0
 31 33  1  0  0  0
 32 63  1  0  0  0
 33 34  1  0  0  0
 34 64  1  0  0  0
 34 65  1  0  0  0
 34 66  1  0  0  0
 35 36  1  0  0  0
 36 67  1  0  0  0
 36 68  1  0  0  0
 36 69  1  0  0  0
 37 70  1  0  0  0
 37 71  1  0  0  0
M  END
> <i_i_glide_confnum>
74

> <i_i_glide_lignum>
5601

> <i_i_glide_posenum>
297

> <i_i_glide_rotatable_bonds>
7

> <i_m_Source_File_Index>
3013

> <b_m_subgroup_collapsed>
0

> <r_i_docking_score>
-4.73801

> <r_i_glide_ecoul>
-1.04

> <r_i_glide_eff_state_penalty>
0

> <r_i_glide_einternal>
11.2813

> <r_i_glide_emodel>
-52.3959

> <r_i_glide_energy>
-44.3901

> <r_i_glide_erotb>
0.315392

> <r_i_glide_esite>
-0.0333149

> <r_i_glide_evdw>
-43.3501

> <r_i_glide_gscore>
-4.73801

> <r_i_glide_hbond>
0

> <r_i_glide_ligand_efficiency>
-0.131611

> <r_i_glide_ligand_efficiency_ln>
-1.03371

> <r_i_glide_ligand_efficiency_sa>
-0.434572

> <r_i_glide_lipo>
-2.04331

> <r_i_glide_metal>
0

> <r_i_glide_rewards>
-0.653275

> <s_i_glide_gridfile>
wee1_glide-grid

> <s_m_Source_File>
wee1_decoys_glide_SP.sdf

> <s_m_Source_Path>
/Users/zhangxujun/Desktop

> <s_m_entry_id>
3288

> <s_m_entry_name>
wee1_decoys_glide_SP.3013

> <s_m_subgroup_title>
wee1_decoys_glide_SP

> <s_m_subgroupid>
wee1_decoys_glide_SP


$$$$
