ZINC17099034_1959
                    3D
 Schrodinger Suite 2024-2.
 59 62  0  0  1  0            999 V2000
    3.6906   55.3599   15.5826 C   0  0  0  0  0  0
    2.8099   54.2094   16.0946 C   0  0  0  0  0  0
    3.5965   53.2394   17.0067 C   0  0  0  0  0  0
    2.7041   52.0879   17.5096 C   0  0  0  0  0  0
    1.4896   52.6322   18.1709 N   0  0  0  0  0  0
    0.6775   53.5780   17.3622 C   0  0  0  0  0  0
    1.5617   54.7313   16.8442 C   0  0  0  0  0  0
    0.6520   51.5936   19.3443 S   0  0  0  0  0  0
    1.1014   50.2094   19.1607 O   0  0  0  0  0  0
   -0.7788   51.9287   19.3318 O   0  0  0  0  0  0
    1.2687   52.0963   20.9501 C   0  0  0  0  0  0
    2.5969   52.4971   21.1115 C   0  0  0  0  0  0
    3.0372   52.9535   22.3527 C   0  0  0  0  0  0
    2.1665   52.9810   23.4451 C   0  0  0  0  0  0
    0.8417   52.5441   23.2787 C   0  0  0  0  0  0
    0.3993   52.0968   22.0392 C   0  0  0  0  0  0
    2.6949   53.4670   24.6590 N   0  0  0  0  0  0
    2.1752   53.3919   25.9039 C   0  0  0  0  0  0
    1.0920   52.8735   26.1694 O   0  0  0  0  0  0
    2.9848   54.0917   27.0224 C   0  0  2  0  0  0
    3.1042   55.0904   26.5975 H   0  0  0  0  0  0
    4.4302   53.4744   27.1951 C   0  0  2  0  0  0
    4.5135   52.4968   26.7274 H   0  0  0  0  0  0
    4.7142   53.2950   28.7230 C   0  0  1  0  0  0
    4.5125   54.6411   29.4595 C   0  0  0  0  0  0
    3.0589   55.1764   29.2819 C   0  0  0  0  0  0
    2.2361   54.2147   28.3915 C   0  0  2  0  0  0
    2.2206   52.8328   29.1132 C   0  0  0  0  0  0
    3.6708   52.3082   29.3250 C   0  0  0  0  0  0
    5.5243   54.2875   26.4400 C   0  0  0  0  0  0
    6.6863   54.3222   26.9046 O   0  0  0  0  0  0
    5.2109   54.7211   25.3062 O   0  5  0  0  0  0
    4.0648   55.9720   16.4030 H   0  0  0  0  0  0
    4.5515   54.9799   15.0317 H   0  0  0  0  0  0
    3.1352   56.0119   14.9106 H   0  0  0  0  0  0
    2.4549   53.6322   15.2377 H   0  0  0  0  0  0
    4.0153   53.7801   17.8576 H   0  0  0  0  0  0
    4.4648   52.8411   16.4792 H   0  0  0  0  0  0
    3.2441   51.4317   18.1929 H   0  0  0  0  0  0
    2.3915   51.5210   16.6310 H   0  0  0  0  0  0
    0.3061   53.0450   16.4863 H   0  0  0  0  0  0
   -0.1493   53.9630   17.9599 H   0  0  0  0  0  0
    0.9859   55.3957   16.1995 H   0  0  0  0  0  0
    1.8703   55.3598   17.6813 H   0  0  0  0  0  0
    3.2826   52.4891   20.2772 H   0  0  0  0  0  0
    4.0607   53.2861   22.4572 H   0  0  0  0  0  0
    0.1255   52.5554   24.0838 H   0  0  0  0  0  0
   -0.6252   51.7747   21.9239 H   0  0  0  0  0  0
    3.6220   53.8873   24.6107 H   0  0  0  0  0  0
    5.7223   52.9063   28.8817 H   0  0  0  0  0  0
    4.7044   54.4967   30.5190 H   0  0  0  0  0  0
    5.2563   55.3624   29.1243 H   0  0  0  0  0  0
    2.5737   55.2738   30.2535 H   0  0  0  0  0  0
    3.0683   56.1862   28.8814 H   0  0  0  0  0  0
    1.2212   54.5966   28.2638 H   0  0  0  0  0  0
    1.6405   52.1031   28.5482 H   0  0  0  0  0  0
    1.7117   52.9198   30.0747 H   0  0  0  0  0  0
    3.8628   52.1679   30.3901 H   0  0  0  0  0  0
    3.7711   51.3214   28.8816 H   0  0  0  0  0  0
  1  2  1  0  0  0
  1 33  1  0  0  0
  1 34  1  0  0  0
  1 35  1  0  0  0
  2  7  1  0  0  0
  2  3  1  0  0  0
  2 36  1  0  0  0
  3  4  1  0  0  0
  3 37  1  0  0  0
  3 38  1  0  0  0
  4  5  1  0  0  0
  4 39  1  0  0  0
  4 40  1  0  0  0
  5  6  1  0  0  0
  5  8  1  0  0  0
  6  7  1  0  0  0
  6 41  1  0  0  0
  6 42  1  0  0  0
  7 43  1  0  0  0
  7 44  1  0  0  0
  8  9  2  0  0  0
  8 10  2  0  0  0
  8 11  1  0  0  0
 11 16  2  0  0  0
 11 12  1  0  0  0
 12 13  2  0  0  0
 12 45  1  0  0  0
 13 14  1  0  0  0
 13 46  1  0  0  0
 14 15  2  0  0  0
 14 17  1  0  0  0
 15 16  1  0  0  0
 15 47  1  0  0  0
 16 48  1  0  0  0
 17 18  1  0  0  0
 17 49  1  0  0  0
 18 19  2  0  0  0
 18 20  1  0  0  0
 20 21  1  0  0  0
 20 27  1  0  0  0
 20 22  1  0  0  0
 22 23  1  0  0  0
 22 24  1  0  0  0
 22 30  1  0  0  0
 24 29  1  0  0  0
 24 25  1  0  0  0
 24 50  1  0  0  0
 25 26  1  0  0  0
 25 51  1  0  0  0
 25 52  1  0  0  0
 26 27  1  0  0  0
 26 53  1  0  0  0
 26 54  1  0  0  0
 27 28  1  0  0  0
 27 55  1  0  0  0
 28 29  1  0  0  0
 28 56  1  0  0  0
 28 57  1  0  0  0
 29 58  1  0  0  0
 29 59  1  0  0  0
 30 31  2  0  0  0
 30 32  1  0  0  0
M  CHG  1  32  -1
M  END
> <i_i_glide_confnum>
19

> <i_i_glide_lignum>
1960

> <i_i_glide_posenum>
64

> <i_i_glide_rotatable_bonds>
6

> <i_m_Source_File_Index>
1400

> <b_m_subgroup_collapsed>
0

> <r_i_docking_score>
-4.23395

> <r_i_glide_ecoul>
-2.72976

> <r_i_glide_eff_state_penalty>
0

> <r_i_glide_einternal>
7.80812

> <r_i_glide_emodel>
-47.0897

> <r_i_glide_energy>
-37.9483

> <r_i_glide_erotb>
0.529586

> <r_i_glide_esite>
-0.0704905

> <r_i_glide_evdw>
-35.2185

> <r_i_glide_gscore>
-4.23395

> <r_i_glide_hbond>
0

> <r_i_glide_ligand_efficiency>
-0.141132

> <r_i_glide_ligand_efficiency_ln>
-0.962

> <r_i_glide_ligand_efficiency_sa>
-0.438529

> <r_i_glide_lipo>
-1.95317

> <r_i_glide_metal>
0

> <r_i_glide_rewards>
-0.569491

> <s_i_glide_gridfile>
wee1_glide-grid

> <s_m_Source_File>
wee1_decoys_glide_SP.sdf

> <s_m_Source_Path>
/Users/zhangxujun/Desktop

> <s_m_entry_id>
1675

> <s_m_entry_name>
wee1_decoys_glide_SP.1400

> <s_m_subgroup_title>
wee1_decoys_glide_SP

> <s_m_subgroupid>
wee1_decoys_glide_SP


$$$$
