ZINC39977209_1150
                    3D
 Schrodinger Suite 2024-2.
 44 47  0  0  1  0            999 V2000
    4.9097   55.8031   16.9342 C   0  0  0  0  0  0
    5.9364   56.5196   17.6975 C   0  0  0  0  0  0
    6.2073   56.1556   18.9746 C   0  0  0  0  0  0
    5.5056   55.0800   19.6429 C   0  0  0  0  0  0
    5.7423   54.7491   20.8642 N   0  0  0  0  0  0
    5.0495   53.7374   21.5378 C   0  0  0  0  0  0
    5.2481   53.3620   22.7377 N   0  0  0  0  0  0
    6.4964   54.1454   23.6911 S   0  0  0  0  0  0
    7.6706   53.2999   23.9218 O   0  0  0  0  0  0
    6.7416   55.5769   23.4841 O   0  0  0  0  0  0
    5.6631   54.1734   25.2941 C   0  0  0  0  0  0
    4.2744   54.3273   25.3931 C   0  0  0  0  0  0
    3.6700   54.3791   26.6480 C   0  0  0  0  0  0
    4.4486   54.2910   27.8021 C   0  0  0  0  0  0
    5.8297   54.1485   27.7098 C   0  0  0  0  0  0
    6.4329   54.0961   26.4589 C   0  0  0  0  0  0
    3.6213   54.3906   29.5151 Br  0  0  0  0  0  0
    3.9310   52.9659   20.7724 C   0  0  2  0  0  0
    4.2832   51.9370   20.6855 H   0  0  0  0  0  0
    3.7558   53.3990   19.3429 N   0  3  0  0  0  0
    4.4467   54.3814   18.7821 C   0  0  0  0  0  0
    4.1991   54.7730   17.4654 C   0  0  0  0  0  0
    2.6796   52.9941   21.5364 N   0  0  0  0  0  0
    2.0266   51.8236   21.9317 C   0  0  0  0  0  0
    1.3474   51.8148   23.1529 C   0  0  0  0  0  0
    0.6727   50.6665   23.5724 C   0  0  0  0  0  0
    0.6493   49.5380   22.7532 C   0  0  0  0  0  0
    1.3005   49.5605   21.5196 C   0  0  0  0  0  0
    2.0013   50.6915   21.1163 C   0  0  0  0  0  0
    1.2410   48.4958   20.6965 F   0  0  0  0  0  0
    4.7157   56.1076   15.9147 H   0  0  0  0  0  0
    6.4786   57.3362   17.2361 H   0  0  0  0  0  0
    6.9762   56.6969   19.5038 H   0  0  0  0  0  0
    3.6610   54.4126   24.5113 H   0  0  0  0  0  0
    2.6000   54.4975   26.7286 H   0  0  0  0  0  0
    6.4305   54.0912   28.6056 H   0  0  0  0  0  0
    7.5041   53.9962   26.4015 H   0  0  0  0  0  0
    3.4528   54.2567   16.8752 H   0  0  0  0  0  0
    2.4776   53.8414   22.0477 H   0  0  0  0  0  0
    1.3542   52.6865   23.7908 H   0  0  0  0  0  0
    0.1629   50.6539   24.5260 H   0  0  0  0  0  0
    0.1176   48.6541   23.0680 H   0  0  0  0  0  0
    2.4909   50.6813   20.1560 H   0  0  0  0  0  0
    3.0458   52.9233   18.7928 H   0  0  0  0  0  0
  1 22  2  0  0  0
  1  2  1  0  0  0
  1 31  1  0  0  0
  2  3  2  0  0  0
  2 32  1  0  0  0
  3  4  1  0  0  0
  3 33  1  0  0  0
  4 21  1  0  0  0
  4  5  2  0  0  0
  5  6  1  0  0  0
  6  7  2  0  0  0
  6 18  1  0  0  0
  7  8  1  0  0  0
  8  9  2  0  0  0
  8 10  2  0  0  0
  8 11  1  0  0  0
 11 16  2  0  0  0
 11 12  1  0  0  0
 12 13  2  0  0  0
 12 34  1  0  0  0
 13 14  1  0  0  0
 13 35  1  0  0  0
 14 15  2  0  0  0
 14 17  1  0  0  0
 15 16  1  0  0  0
 15 36  1  0  0  0
 16 37  1  0  0  0
 18 19  1  0  0  0
 18 20  1  0  0  0
 18 23  1  0  0  0
 20 21  2  0  0  0
 20 44  1  0  0  0
 21 22  1  0  0  0
 22 38  1  0  0  0
 23 24  1  0  0  0
 23 39  1  0  0  0
 24 29  2  0  0  0
 24 25  1  0  0  0
 25 26  2  0  0  0
 25 40  1  0  0  0
 26 27  1  0  0  0
 26 41  1  0  0  0
 27 28  2  0  0  0
 27 42  1  0  0  0
 28 29  1  0  0  0
 28 30  1  0  0  0
 29 43  1  0  0  0
M  CHG  1  20   1
M  END
> <i_i_glide_confnum>
9

> <i_i_glide_lignum>
1151

> <i_i_glide_posenum>
288

> <i_i_glide_rotatable_bonds>
4

> <i_m_Source_File_Index>
2419

> <b_m_subgroup_collapsed>
0

> <r_i_docking_score>
-4.59224

> <r_i_glide_ecoul>
-0.699984

> <r_i_glide_eff_state_penalty>
0

> <r_i_glide_einternal>
7.73638

> <r_i_glide_emodel>
-48.871

> <r_i_glide_energy>
-40.8912

> <r_i_glide_erotb>
0.269805

> <r_i_glide_esite>
-0.0426096

> <r_i_glide_evdw>
-40.1912

> <r_i_glide_gscore>
-4.59224

> <r_i_glide_hbond>
0

> <r_i_glide_ligand_efficiency>
-0.158353

> <r_i_glide_ligand_efficiency_ln>
-1.05151

> <r_i_glide_ligand_efficiency_sa>
-0.486511

> <r_i_glide_lipo>
-2.29289

> <r_i_glide_metal>
0

> <r_i_glide_rewards>
-0.411982

> <s_i_glide_gridfile>
wee1_glide-grid

> <s_m_Source_File>
wee1_decoys_glide_SP.sdf

> <s_m_Source_Path>
/Users/zhangxujun/Desktop

> <s_m_entry_id>
2694

> <s_m_entry_name>
wee1_decoys_glide_SP.2419

> <s_m_subgroup_title>
wee1_decoys_glide_SP

> <s_m_subgroupid>
wee1_decoys_glide_SP


$$$$
