ZINC37205715_1834
                    3D
 Schrodinger Suite 2024-2.
 32 32  0  0  1  0            999 V2000
    0.1753   53.1374   30.4965 C   0  0  0  0  0  0
    0.8259   53.0355   29.1017 C   0  0  1  0  0  0
    0.6029   53.9755   28.5964 H   0  0  0  0  0  0
    2.3548   52.8549   29.2176 C   0  0  0  0  0  0
    2.8132   52.0966   30.0790 O   0  0  0  0  0  0
    3.0974   53.5863   28.3532 N   0  0  0  0  0  0
    4.4383   53.5749   28.2071 C   0  0  0  0  0  0
    5.2219   52.8967   28.8709 O   0  0  0  0  0  0
    4.8346   54.4123   27.2357 N   0  0  0  0  0  0
    6.2326   54.6751   26.9118 C   0  0  0  0  0  0
    0.0330   51.6969   28.1414 S   0  0  0  0  0  0
    0.5167   51.7089   26.4229 C   0  0  0  0  0  0
    1.1013   52.8524   25.8645 C   0  0  0  0  0  0
    1.4854   52.8761   24.5254 C   0  0  0  0  0  0
    1.2893   51.7527   23.7271 C   0  0  0  0  0  0
    0.7017   50.6097   24.2660 C   0  0  0  0  0  0
    0.3045   50.5796   25.6059 C   0  0  0  0  0  0
   -0.2690   49.3984   26.0817 N   0  0  0  0  0  0
    1.8239   51.7814   21.9017 Br  0  0  0  0  0  0
    0.5841   53.9626   31.0813 H   0  0  0  0  0  0
   -0.8955   53.3001   30.4058 H   0  0  0  0  0  0
    0.3048   52.2224   31.0781 H   0  0  0  0  0  0
    2.5871   54.1930   27.7351 H   0  0  0  0  0  0
    4.1467   54.8822   26.6671 H   0  0  0  0  0  0
    6.3040   55.1978   25.9575 H   0  0  0  0  0  0
    6.8009   53.7460   26.8341 H   0  0  0  0  0  0
    6.6920   55.2972   27.6817 H   0  0  0  0  0  0
    1.2425   53.7414   26.4522 H   0  0  0  0  0  0
    1.9322   53.7649   24.1043 H   0  0  0  0  0  0
    0.5583   49.7444   23.6356 H   0  0  0  0  0  0
   -0.2245   48.5608   25.5215 H   0  0  0  0  0  0
   -0.6076   49.3222   27.0429 H   0  0  0  0  0  0
  1  2  1  0  0  0
  1 20  1  0  0  0
  1 21  1  0  0  0
  1 22  1  0  0  0
  2  3  1  0  0  0
  2  4  1  0  0  0
  2 11  1  0  0  0
  4  5  2  0  0  0
  4  6  1  0  0  0
  6  7  1  0  0  0
  6 23  1  0  0  0
  7  8  2  0  0  0
  7  9  1  0  0  0
  9 10  1  0  0  0
  9 24  1  0  0  0
 10 25  1  0  0  0
 10 26  1  0  0  0
 10 27  1  0  0  0
 11 12  1  0  0  0
 12 17  2  0  0  0
 12 13  1  0  0  0
 13 14  2  0  0  0
 13 28  1  0  0  0
 14 15  1  0  0  0
 14 29  1  0  0  0
 15 16  2  0  0  0
 15 19  1  0  0  0
 16 17  1  0  0  0
 16 30  1  0  0  0
 17 18  1  0  0  0
 18 31  1  0  0  0
 18 32  1  0  0  0
M  END
> <i_i_glide_confnum>
1

> <i_i_glide_lignum>
1835

> <i_i_glide_posenum>
208

> <i_i_glide_rotatable_bonds>
6

> <i_m_Source_File_Index>
3271

> <b_m_subgroup_collapsed>
0

> <r_i_docking_score>
-4.71354

> <r_i_glide_ecoul>
-4.65739

> <r_i_glide_eff_state_penalty>
0

> <r_i_glide_einternal>
1.65155

> <r_i_glide_emodel>
-46.2569

> <r_i_glide_energy>
-35.4416

> <r_i_glide_erotb>
0.853121

> <r_i_glide_esite>
-0.1

> <r_i_glide_evdw>
-30.7842

> <r_i_glide_gscore>
-4.71354

> <r_i_glide_hbond>
-0.43443

> <r_i_glide_ligand_efficiency>
-0.261863

> <r_i_glide_ligand_efficiency_ln>
-1.21159

> <r_i_glide_ligand_efficiency_sa>
-0.686276

> <r_i_glide_lipo>
-1.07596

> <r_i_glide_metal>
0

> <r_i_glide_rewards>
-1.71845

> <s_i_glide_gridfile>
wee1_glide-grid

> <s_m_Source_File>
wee1_decoys_glide_SP.sdf

> <s_m_Source_Path>
/Users/zhangxujun/Desktop

> <s_m_entry_id>
3546

> <s_m_entry_name>
wee1_decoys_glide_SP.3271

> <s_m_subgroup_title>
wee1_decoys_glide_SP

> <s_m_subgroupid>
wee1_decoys_glide_SP


$$$$
