ZINC41251280_5252
                    3D
 Schrodinger Suite 2024-2.
 60 64  0  0  1  0            999 V2000
    1.2858   53.1053   24.6777 C   0  0  0  0  0  0
    0.9431   52.5736   23.4342 C   0  0  0  0  0  0
    1.8578   52.6090   22.3806 C   0  0  0  0  0  0
    3.1143   53.1913   22.5723 C   0  0  0  0  0  0
    3.4378   53.7672   23.8055 C   0  0  0  0  0  0
    2.5351   53.6975   24.8670 C   0  0  0  0  0  0
    4.8558   54.2968   23.7849 C   0  0  0  0  0  0
    5.1927   54.3161   22.2924 C   0  0  0  0  0  0
    4.3089   53.2476   21.6393 C   0  0  2  0  0  0
    4.8250   52.2866   21.6670 H   0  0  0  0  0  0
    3.9057   53.6099   20.2829 N   0  0  0  0  0  0
    4.7037   53.5487   19.2038 C   0  0  0  0  0  0
    5.9040   53.2970   19.2793 O   0  0  0  0  0  0
    4.0510   53.8127   17.8328 C   0  0  2  0  0  0
    3.7488   55.3241   17.6869 C   0  0  0  0  0  0
    2.9835   55.6132   16.3845 C   0  0  0  0  0  0
    1.7106   54.7281   16.3401 N   0  3  2  0  0  0
    2.0887   53.2265   16.3294 C   0  0  0  0  0  0
    2.8036   52.9056   17.6520 C   0  0  0  0  0  0
    0.8353   55.0582   15.1039 C   0  0  0  0  0  0
    0.1872   56.4139   15.2815 C   0  0  0  0  0  0
    0.6630   57.5786   14.9386 N   0  0  0  0  0  0
   -0.2679   58.4014   15.3850 C   0  0  0  0  0  0
   -1.3102   57.8359   15.9637 N   0  0  0  0  0  0
   -1.0067   56.4760   15.9182 O   0  0  0  0  0  0
   -0.1221   59.8885   15.2822 C   0  0  0  0  0  0
    1.1535   60.4660   15.2812 C   0  0  0  0  0  0
    1.3032   61.8480   15.2610 C   0  0  0  0  0  0
    0.1777   62.6771   15.2495 C   0  0  0  0  0  0
   -1.0979   62.1054   15.2339 C   0  0  0  0  0  0
   -1.2475   60.7202   15.2523 C   0  0  0  0  0  0
    0.3276   64.1984   15.2480 C   0  0  0  0  0  0
   -0.5610   64.7572   14.4242 F   0  0  0  0  0  0
    0.1058   64.6523   16.4817 F   0  0  0  0  0  0
    1.5459   64.5849   14.8672 F   0  0  0  0  0  0
    0.5878   53.0459   25.4993 H   0  0  0  0  0  0
   -0.0221   52.1051   23.2966 H   0  0  0  0  0  0
    1.5987   52.1525   21.4363 H   0  0  0  0  0  0
    2.7955   54.0942   25.8384 H   0  0  0  0  0  0
    4.9584   55.2846   24.2341 H   0  0  0  0  0  0
    5.5263   53.6204   24.3156 H   0  0  0  0  0  0
    4.9445   55.2958   21.8836 H   0  0  0  0  0  0
    6.2519   54.1681   22.0807 H   0  0  0  0  0  0
    2.9500   53.9276   20.1627 H   0  0  0  0  0  0
    4.8016   53.5188   17.0949 H   0  0  0  0  0  0
    3.1037   55.6841   18.4893 H   0  0  0  0  0  0
    4.6719   55.9070   17.6453 H   0  0  0  0  0  0
    3.5717   55.4032   15.4888 H   0  0  0  0  0  0
    2.6727   56.6575   16.3829 H   0  0  0  0  0  0
    2.7053   53.0304   15.4487 H   0  0  0  0  0  0
    1.1620   52.6534   16.2676 H   0  0  0  0  0  0
    3.0937   51.8520   17.6086 H   0  0  0  0  0  0
    2.0575   53.0775   18.4302 H   0  0  0  0  0  0
    1.4838   54.9904   14.2263 H   0  0  0  0  0  0
    0.0835   54.2711   15.0212 H   0  0  0  0  0  0
    2.0413   59.8509   15.3268 H   0  0  0  0  0  0
    2.3044   62.2604   15.2827 H   0  0  0  0  0  0
   -1.9766   62.7338   15.2167 H   0  0  0  0  0  0
   -2.2393   60.2972   15.2522 H   0  0  0  0  0  0
    1.1459   54.9095   17.1634 H   0  0  0  0  0  0
  1  6  2  0  0  0
  1  2  1  0  0  0
  1 36  1  0  0  0
  2  3  2  0  0  0
  2 37  1  0  0  0
  3  4  1  0  0  0
  3 38  1  0  0  0
  4  9  1  0  0  0
  4  5  2  0  0  0
  5  6  1  0  0  0
  5  7  1  0  0  0
  6 39  1  0  0  0
  7  8  1  0  0  0
  7 40  1  0  0  0
  7 41  1  0  0  0
  8  9  1  0  0  0
  8 42  1  0  0  0
  8 43  1  0  0  0
  9 10  1  0  0  0
  9 11  1  0  0  0
 11 12  1  0  0  0
 11 44  1  0  0  0
 12 13  2  0  0  0
 12 14  1  0  0  0
 14 19  1  0  0  0
 14 15  1  0  0  0
 14 45  1  0  0  0
 15 16  1  0  0  0
 15 46  1  0  0  0
 15 47  1  0  0  0
 16 17  1  0  0  0
 16 48  1  0  0  0
 16 49  1  0  0  0
 17 18  1  0  0  0
 17 20  1  0  0  0
 17 60  1  0  0  0
 18 19  1  0  0  0
 18 50  1  0  0  0
 18 51  1  0  0  0
 19 52  1  0  0  0
 19 53  1  0  0  0
 20 21  1  0  0  0
 20 54  1  0  0  0
 20 55  1  0  0  0
 21 25  1  0  0  0
 21 22  2  0  0  0
 22 23  1  0  0  0
 23 24  2  0  0  0
 23 26  1  0  0  0
 24 25  1  0  0  0
 26 31  2  0  0  0
 26 27  1  0  0  0
 27 28  2  0  0  0
 27 56  1  0  0  0
 28 29  1  0  0  0
 28 57  1  0  0  0
 29 30  2  0  0  0
 29 32  1  0  0  0
 30 31  1  0  0  0
 30 58  1  0  0  0
 31 59  1  0  0  0
 32 33  1  0  0  0
 32 34  1  0  0  0
 32 35  1  0  0  0
M  CHG  1  17   1
M  END
> <i_i_glide_confnum>
44

> <i_i_glide_lignum>
5253

> <i_i_glide_posenum>
99

> <i_i_glide_rotatable_bonds>
7

> <i_m_Source_File_Index>
5786

> <b_m_subgroup_collapsed>
0

> <r_i_docking_score>
-3.77562

> <r_i_glide_ecoul>
-4.73139

> <r_i_glide_eff_state_penalty>
0

> <r_i_glide_einternal>
9.64249

> <r_i_glide_emodel>
-38.3743

> <r_i_glide_energy>
-33.4391

> <r_i_glide_erotb>
0.545542

> <r_i_glide_esite>
-0.0848946

> <r_i_glide_evdw>
-28.7077

> <r_i_glide_gscore>
-3.77562

> <r_i_glide_hbond>
-0.31898

> <r_i_glide_ligand_efficiency>
-0.111048

> <r_i_glide_ligand_efficiency_ln>
-0.834141

> <r_i_glide_ligand_efficiency_sa>
-0.359752

> <r_i_glide_lipo>
-1.57901

> <r_i_glide_metal>
0

> <r_i_glide_rewards>
-0.193187

> <s_i_glide_gridfile>
wee1_glide-grid

> <s_m_Source_File>
wee1_decoys_glide_SP.sdf

> <s_m_Source_Path>
/Users/zhangxujun/Desktop

> <s_m_entry_id>
6061

> <s_m_entry_name>
wee1_decoys_glide_SP.5786

> <s_m_subgroup_title>
wee1_decoys_glide_SP

> <s_m_subgroupid>
wee1_decoys_glide_SP


$$$$
