ZINC38688477_6120
                    3D
 Schrodinger Suite 2024-2.
 44 48  0  0  1  0            999 V2000
    8.1676   53.0445   15.1836 C   0  0  0  0  0  0
    7.1087   52.9122   16.0724 C   0  0  0  0  0  0
    7.1059   53.7124   17.2217 C   0  0  0  0  0  0
    8.1504   54.6454   17.5122 C   0  0  0  0  0  0
    9.2069   54.7497   16.5678 C   0  0  0  0  0  0
    9.1930   53.9478   15.4260 C   0  0  0  0  0  0
   10.5477   55.8250   16.7620 Cl  0  0  0  0  0  0
    7.9086   55.3060   18.7705 C   0  0  0  0  0  0
    6.7552   54.8622   19.4188 C   0  0  0  0  0  0
    5.8690   53.6960   18.4532 S   0  0  0  0  0  0
    6.2730   55.1802   20.7729 C   0  0  0  0  0  0
    6.7245   56.1021   21.4532 O   0  0  0  0  0  0
    5.3109   54.2933   21.1862 O   0  0  0  0  0  0
    4.8657   54.2426   22.4900 C   0  0  0  0  0  0
    3.4907   54.2291   22.7117 C   0  0  0  0  0  0
    2.9808   54.1785   24.0078 C   0  0  0  0  0  0
    3.8212   54.0961   25.1292 C   0  0  0  0  0  0
    5.2119   54.0969   24.8827 C   0  0  0  0  0  0
    5.7290   54.1628   23.5891 C   0  0  0  0  0  0
    6.1512   53.9975   25.8868 O   0  0  0  0  0  0
    5.7310   53.8962   27.1667 C   0  0  0  0  0  0
    4.4459   53.9123   27.5697 C   0  0  0  0  0  0
    3.2805   54.0408   26.5801 C   0  0  2  0  0  0
    2.8548   55.0177   26.7937 H   0  0  0  0  0  0
    2.1553   53.0248   26.8383 C   0  0  0  0  0  0
    1.8956   52.0685   27.8202 C   0  0  0  0  0  0
    0.6657   51.4778   27.5277 C   0  0  0  0  0  0
    0.2109   52.0958   26.3815 C   0  0  0  0  0  0
    1.1060   53.0274   25.9719 O   0  0  0  0  0  0
    4.1534   53.8355   28.9604 C   0  0  0  0  0  0
    3.8990   53.7413   30.0820 N   0  0  0  0  0  0
    6.8360   53.7451   27.9562 N   0  0  0  0  0  0
    8.9906   56.4825   19.4252 Cl  0  0  0  0  0  0
    8.1964   52.4349   14.2909 H   0  0  0  0  0  0
    6.3129   52.2020   15.8876 H   0  0  0  0  0  0
   10.0018   54.0240   14.7122 H   0  0  0  0  0  0
    2.8119   54.2847   21.8724 H   0  0  0  0  0  0
    1.9095   54.2176   24.1233 H   0  0  0  0  0  0
    6.7992   54.1514   23.4416 H   0  0  0  0  0  0
    2.5270   51.8139   28.6574 H   0  0  0  0  0  0
    0.1638   50.6946   28.0795 H   0  0  0  0  0  0
   -0.6781   51.9833   25.7785 H   0  0  0  0  0  0
    6.7868   53.8822   28.9553 H   0  0  0  0  0  0
    7.6840   53.3508   27.5766 H   0  0  0  0  0  0
  1  6  2  0  0  0
  1  2  1  0  0  0
  1 34  1  0  0  0
  2  3  2  0  0  0
  2 35  1  0  0  0
  3 10  1  0  0  0
  3  4  1  0  0  0
  4  5  2  0  0  0
  4  8  1  0  0  0
  5  6  1  0  0  0
  5  7  1  0  0  0
  6 36  1  0  0  0
  8  9  2  0  0  0
  8 33  1  0  0  0
  9 10  1  0  0  0
  9 11  1  0  0  0
 11 12  2  0  0  0
 11 13  1  0  0  0
 13 14  1  0  0  0
 14 19  2  0  0  0
 14 15  1  0  0  0
 15 16  2  0  0  0
 15 37  1  0  0  0
 16 17  1  0  0  0
 16 38  1  0  0  0
 17 23  1  0  0  0
 17 18  2  0  0  0
 18 19  1  0  0  0
 18 20  1  0  0  0
 19 39  1  0  0  0
 20 21  1  0  0  0
 21 22  2  0  0  0
 21 32  1  0  0  0
 22 23  1  0  0  0
 22 30  1  0  0  0
 23 24  1  0  0  0
 23 25  1  0  0  0
 25 29  1  0  0  0
 25 26  2  0  0  0
 26 27  1  0  0  0
 26 40  1  0  0  0
 27 28  2  0  0  0
 27 41  1  0  0  0
 28 29  1  0  0  0
 28 42  1  0  0  0
 30 31  3  0  0  0
 32 43  1  0  0  0
 32 44  1  0  0  0
M  END
> <i_i_glide_confnum>
11

> <i_i_glide_lignum>
6121

> <i_i_glide_posenum>
329

> <i_i_glide_rotatable_bonds>
5

> <i_m_Source_File_Index>
746

> <b_m_subgroup_collapsed>
0

> <r_i_docking_score>
-5.71188

> <r_i_glide_ecoul>
-5.22402

> <r_i_glide_eff_state_penalty>
0

> <r_i_glide_einternal>
6.67947

> <r_i_glide_emodel>
-60.2001

> <r_i_glide_energy>
-48.7396

> <r_i_glide_erotb>
0.347599

> <r_i_glide_esite>
0

> <r_i_glide_evdw>
-43.5155

> <r_i_glide_gscore>
-5.71188

> <r_i_glide_hbond>
-0.301502

> <r_i_glide_ligand_efficiency>
-0.178496

> <r_i_glide_ligand_efficiency_ln>
-1.27905

> <r_i_glide_ligand_efficiency_sa>
-0.56669

> <r_i_glide_lipo>
-2.73728

> <r_i_glide_metal>
0

> <r_i_glide_rewards>
-0.0613131

> <s_i_glide_gridfile>
wee1_glide-grid

> <s_m_Source_File>
wee1_decoys_glide_SP.sdf

> <s_m_Source_Path>
/Users/zhangxujun/Desktop

> <s_m_entry_id>
1021

> <s_m_entry_name>
wee1_decoys_glide_SP.746

> <s_m_subgroup_title>
wee1_decoys_glide_SP

> <s_m_subgroupid>
wee1_decoys_glide_SP


$$$$
