ZINC20764563_3468
                    3D
 Schrodinger Suite 2024-2.
 53 56  0  0  1  0            999 V2000
    6.0406   54.8794   26.8391 C   0  0  0  0  0  0
    6.6193   55.3123   25.6122 O   0  0  0  0  0  0
    6.0616   54.8909   24.4190 C   0  0  0  0  0  0
    6.7044   55.2966   23.2559 C   0  0  0  0  0  0
    6.2501   54.8973   22.0047 C   0  0  0  0  0  0
    5.1107   54.0865   21.8761 C   0  0  0  0  0  0
    4.4470   53.6988   23.0528 C   0  0  0  0  0  0
    4.9136   54.0968   24.3065 C   0  0  0  0  0  0
    4.6571   53.6467   20.5233 C   0  0  0  0  0  0
    5.3194   53.9931   19.4744 N   0  0  0  0  0  0
    5.0004   53.5712   18.1040 C   0  0  1  0  0  0
    5.8796   53.0776   17.6818 H   0  0  0  0  0  0
    3.9045   52.4968   17.9780 N   0  3  0  0  0  0
    2.8013   52.7051   19.0146 C   0  0  2  0  0  0
    2.4186   53.6966   18.7746 H   0  0  0  0  0  0
    3.4437   52.6977   20.4173 C   0  0  0  0  0  0
    1.7224   51.6427   18.8035 C   0  0  0  0  0  0
    2.0462   50.2864   18.9638 C   0  0  0  0  0  0
    1.0835   49.2958   18.7775 C   0  0  0  0  0  0
   -0.2153   49.6503   18.4172 C   0  0  0  0  0  0
   -0.5494   50.9940   18.2499 C   0  0  0  0  0  0
    0.4074   51.9900   18.4468 C   0  0  0  0  0  0
    0.0228   53.2963   18.2816 O   0  0  0  0  0  0
    1.5028   47.6346   18.9932 Cl  0  0  0  0  0  0
    4.6157   54.7297   17.1763 C   0  0  0  0  0  0
    4.8727   54.6094   15.8076 C   0  0  0  0  0  0
    4.5092   55.6269   14.9307 C   0  0  0  0  0  0
    3.8895   56.7844   15.4132 C   0  0  0  0  0  0
    3.6505   56.9184   16.7847 C   0  0  0  0  0  0
    4.0097   55.8968   17.6601 C   0  0  0  0  0  0
    3.4670   57.8979   14.4548 C   0  0  0  0  0  0
    4.0757   57.7981   13.2712 F   0  0  0  0  0  0
    3.7515   59.0945   14.9652 F   0  0  0  0  0  0
    2.1513   57.8198   14.2558 F   0  0  0  0  0  0
    6.6106   55.2908   27.6725 H   0  0  0  0  0  0
    5.0118   55.2274   26.9418 H   0  0  0  0  0  0
    6.0623   53.7920   26.9299 H   0  0  0  0  0  0
    7.5718   55.9326   23.3254 H   0  0  0  0  0  0
    6.8014   55.2333   21.1373 H   0  0  0  0  0  0
    3.5719   53.0686   23.0384 H   0  0  0  0  0  0
    4.3804   53.7605   25.1825 H   0  0  0  0  0  0
    3.5160   52.4922   17.0466 H   0  0  0  0  0  0
    3.7785   51.6963   20.6891 H   0  0  0  0  0  0
    2.6751   52.9758   21.1366 H   0  0  0  0  0  0
    3.0543   49.9900   19.2195 H   0  0  0  0  0  0
   -0.9628   48.8856   18.2657 H   0  0  0  0  0  0
   -1.5561   51.2649   17.9685 H   0  0  0  0  0  0
    0.6108   53.9298   18.7071 H   0  0  0  0  0  0
    5.3470   53.7215   15.4137 H   0  0  0  0  0  0
    4.7068   55.5059   13.8751 H   0  0  0  0  0  0
    3.1799   57.8128   17.1711 H   0  0  0  0  0  0
    3.8060   56.0133   18.7138 H   0  0  0  0  0  0
    4.3515   51.5756   18.0818 H   0  0  0  0  0  0
  1  2  1  0  0  0
  1 35  1  0  0  0
  1 36  1  0  0  0
  1 37  1  0  0  0
  2  3  1  0  0  0
  3  8  2  0  0  0
  3  4  1  0  0  0
  4  5  2  0  0  0
  4 38  1  0  0  0
  5  6  1  0  0  0
  5 39  1  0  0  0
  6  7  2  0  0  0
  6  9  1  0  0  0
  7  8  1  0  0  0
  7 40  1  0  0  0
  8 41  1  0  0  0
  9 16  1  0  0  0
  9 10  2  0  0  0
 10 11  1  0  0  0
 11 12  1  0  0  0
 11 13  1  0  0  0
 11 25  1  0  0  0
 13 14  1  0  0  0
 13 42  1  0  0  0
 13 53  1  0  0  0
 14 15  1  0  0  0
 14 16  1  0  0  0
 14 17  1  0  0  0
 16 43  1  0  0  0
 16 44  1  0  0  0
 17 22  2  0  0  0
 17 18  1  0  0  0
 18 19  2  0  0  0
 18 45  1  0  0  0
 19 20  1  0  0  0
 19 24  1  0  0  0
 20 21  2  0  0  0
 20 46  1  0  0  0
 21 22  1  0  0  0
 21 47  1  0  0  0
 22 23  1  0  0  0
 23 48  1  0  0  0
 25 30  2  0  0  0
 25 26  1  0  0  0
 26 27  2  0  0  0
 26 49  1  0  0  0
 27 28  1  0  0  0
 27 50  1  0  0  0
 28 29  2  0  0  0
 28 31  1  0  0  0
 29 30  1  0  0  0
 29 51  1  0  0  0
 30 52  1  0  0  0
 31 32  1  0  0  0
 31 33  1  0  0  0
 31 34  1  0  0  0
M  CHG  1  13   1
M  END
> <i_i_glide_confnum>
7

> <i_i_glide_lignum>
3469

> <i_i_glide_posenum>
158

> <i_i_glide_rotatable_bonds>
6

> <i_m_Source_File_Index>
2235

> <b_m_subgroup_collapsed>
0

> <r_i_docking_score>
-5.94605

> <r_i_glide_ecoul>
-10.4805

> <r_i_glide_eff_state_penalty>
0

> <r_i_glide_einternal>
1.26305

> <r_i_glide_emodel>
-59.0296

> <r_i_glide_energy>
-40.1282

> <r_i_glide_erotb>
0.28321

> <r_i_glide_esite>
-0.215465

> <r_i_glide_evdw>
-29.6477

> <r_i_glide_gscore>
-5.94605

> <r_i_glide_hbond>
-0.738186

> <r_i_glide_ligand_efficiency>
-0.185814

> <r_i_glide_ligand_efficiency_ln>
-1.33148

> <r_i_glide_ligand_efficiency_sa>
-0.589923

> <r_i_glide_lipo>
-1.89837

> <r_i_glide_metal>
0

> <r_i_glide_rewards>
-0.322772

> <s_i_glide_gridfile>
wee1_glide-grid

> <s_m_Source_File>
wee1_decoys_glide_SP.sdf

> <s_m_Source_Path>
/Users/zhangxujun/Desktop

> <s_m_entry_id>
2510

> <s_m_entry_name>
wee1_decoys_glide_SP.2235

> <s_m_subgroup_title>
wee1_decoys_glide_SP

> <s_m_subgroupid>
wee1_decoys_glide_SP


$$$$
