ZINC39655894_5539
                    3D
 Schrodinger Suite 2024-2.
 70 74  0  0  1  0            999 V2000
    7.0996   54.7636   22.6985 C   0  0  0  0  0  0
    5.7923   54.4410   23.3852 C   0  0  0  0  0  0
    5.6425   54.7096   24.7457 C   0  0  0  0  0  0
    4.4365   54.4950   25.4126 C   0  0  0  0  0  0
    3.3725   54.0026   24.6502 C   0  0  0  0  0  0
    2.0728   53.7111   24.9949 N   0  0  0  0  0  0
    1.3846   53.2961   23.8857 C   0  0  0  0  0  0
    2.2363   53.1818   22.8072 C   0  0  0  0  0  0
    3.5007   53.6970   23.2605 C   0  0  0  0  0  0
    4.7367   53.9206   22.6371 C   0  0  0  0  0  0
    1.9146   52.6141   21.4384 C   0  0  0  0  0  0
    2.2819   51.1169   21.2973 C   0  0  0  0  0  0
    1.7182   50.2468   22.3366 N   0  0  0  0  0  0
    0.4136   49.9579   22.4776 C   0  0  0  0  0  0
   -0.4442   50.3539   21.6858 O   0  0  0  0  0  0
    0.0481   49.0067   23.6450 C   0  0  2  0  0  0
    0.9558   48.4961   23.9700 H   0  0  0  0  0  0
   -0.9607   47.9586   23.1478 C   0  0  0  0  0  0
   -1.6752   47.5659   24.3625 N   0  0  0  0  0  0
   -1.3259   48.4233   25.5021 C   0  0  0  0  0  0
   -0.6526   49.6632   24.8676 C   0  0  0  0  0  0
   -1.7198   50.7412   24.4915 C   0  0  0  0  0  0
   -2.4931   51.2655   25.7206 C   0  0  0  0  0  0
   -1.4784   51.8422   26.7339 N   0  3  0  0  0  0
   -0.3105   50.8959   27.0919 C   0  0  0  0  0  0
    0.3497   50.3723   25.8043 C   0  0  0  0  0  0
   -2.7099   46.6893   24.3091 C   0  0  0  0  0  0
   -3.0159   46.0936   23.2737 O   0  0  0  0  0  0
   -3.5489   46.4611   25.5423 C   0  0  0  0  0  0
   -2.9628   46.2228   26.7922 C   0  0  0  0  0  0
   -3.7602   46.0971   27.9239 C   0  0  0  0  0  0
   -5.1465   46.1914   27.8134 C   0  0  0  0  0  0
   -5.7403   46.3535   26.5641 C   0  0  0  0  0  0
   -4.9446   46.4827   25.4302 C   0  0  0  0  0  0
   -5.9433   46.0971   28.9253 O   0  0  0  0  0  0
   -6.0474   47.2840   29.7102 C   0  0  0  0  0  0
   -6.9246   47.0393   30.6822 F   0  0  0  0  0  0
   -6.5074   48.3130   28.9954 F   0  0  0  0  0  0
   -4.8863   47.5973   30.2830 F   0  0  0  0  0  0
    6.9737   54.8981   21.6238 H   0  0  0  0  0  0
    7.5041   55.7016   23.0800 H   0  0  0  0  0  0
    7.8296   53.9751   22.8822 H   0  0  0  0  0  0
    6.4796   55.1082   25.2998 H   0  0  0  0  0  0
    4.3353   54.7141   26.4651 H   0  0  0  0  0  0
    0.3366   53.0567   23.9630 H   0  0  0  0  0  0
    1.6445   53.8255   25.9014 H   0  0  0  0  0  0
    4.8572   53.7114   21.5844 H   0  0  0  0  0  0
    2.4320   53.1802   20.6634 H   0  0  0  0  0  0
    0.8557   52.7454   21.2123 H   0  0  0  0  0  0
    3.3662   51.0138   21.3540 H   0  0  0  0  0  0
    1.9967   50.7481   20.3096 H   0  0  0  0  0  0
    2.3738   49.8444   22.9899 H   0  0  0  0  0  0
   -0.5000   47.1240   22.6276 H   0  0  0  0  0  0
   -1.7124   48.4239   22.5062 H   0  0  0  0  0  0
   -2.1281   48.6769   26.1914 H   0  0  0  0  0  0
   -0.5406   47.9201   26.0684 H   0  0  0  0  0  0
   -1.2859   51.5702   23.9362 H   0  0  0  0  0  0
   -2.4499   50.3049   23.8081 H   0  0  0  0  0  0
   -3.1680   52.0829   25.4627 H   0  0  0  0  0  0
   -3.0682   50.5041   26.2488 H   0  0  0  0  0  0
   -1.0965   52.6972   26.3556 H   0  0  0  0  0  0
    0.3778   51.4606   27.7221 H   0  0  0  0  0  0
   -0.7436   50.0972   27.6818 H   0  0  0  0  0  0
    1.1045   49.6450   26.1082 H   0  0  0  0  0  0
    0.9024   51.1499   25.2864 H   0  0  0  0  0  0
   -1.8888   46.1734   26.9136 H   0  0  0  0  0  0
   -3.2924   45.9432   28.8856 H   0  0  0  0  0  0
   -6.8162   46.4003   26.4793 H   0  0  0  0  0  0
   -5.4208   46.6371   24.4714 H   0  0  0  0  0  0
   -1.9657   52.0910   27.5847 H   0  0  0  0  0  0
  1 40  1  0  0  0
  1 41  1  0  0  0
  1 42  1  0  0  0
  1  2  1  0  0  0
  2  3  2  0  0  0
  2 10  1  0  0  0
  3  4  1  0  0  0
  3 43  1  0  0  0
  4  5  2  0  0  0
  4 44  1  0  0  0
  5  6  1  0  0  0
  5  9  1  0  0  0
  6 46  1  0  0  0
  6  7  1  0  0  0
  7  8  2  0  0  0
  7 45  1  0  0  0
  8  9  1  0  0  0
  8 11  1  0  0  0
  9 10  2  0  0  0
 10 47  1  0  0  0
 11 12  1  0  0  0
 11 48  1  0  0  0
 11 49  1  0  0  0
 12 13  1  0  0  0
 12 50  1  0  0  0
 12 51  1  0  0  0
 13 14  1  0  0  0
 13 52  1  0  0  0
 14 15  2  0  0  0
 14 16  1  0  0  0
 16 17  1  0  0  0
 16 21  1  0  0  0
 16 18  1  0  0  0
 18 19  1  0  0  0
 18 53  1  0  0  0
 18 54  1  0  0  0
 19 20  1  0  0  0
 19 27  1  0  0  0
 20 21  1  0  0  0
 20 55  1  0  0  0
 20 56  1  0  0  0
 21 26  1  0  0  0
 21 22  1  0  0  0
 22 23  1  0  0  0
 22 57  1  0  0  0
 22 58  1  0  0  0
 23 24  1  0  0  0
 23 59  1  0  0  0
 23 60  1  0  0  0
 24 25  1  0  0  0
 24 61  1  0  0  0
 24 70  1  0  0  0
 25 26  1  0  0  0
 25 62  1  0  0  0
 25 63  1  0  0  0
 26 64  1  0  0  0
 26 65  1  0  0  0
 27 28  2  0  0  0
 27 29  1  0  0  0
 29 34  2  0  0  0
 29 30  1  0  0  0
 30 31  2  0  0  0
 30 66  1  0  0  0
 31 32  1  0  0  0
 31 67  1  0  0  0
 32 33  2  0  0  0
 32 35  1  0  0  0
 33 34  1  0  0  0
 33 68  1  0  0  0
 34 69  1  0  0  0
 35 36  1  0  0  0
 36 37  1  0  0  0
 36 38  1  0  0  0
 36 39  1  0  0  0
M  CHG  1  24   1
M  END
> <i_i_glide_confnum>
277

> <i_i_glide_lignum>
5540

> <i_i_glide_posenum>
278

> <i_i_glide_rotatable_bonds>
9

> <i_m_Source_File_Index>
1053

> <b_m_subgroup_collapsed>
0

> <r_i_docking_score>
-2.77541

> <r_i_glide_ecoul>
-6.31412

> <r_i_glide_eff_state_penalty>
0

> <r_i_glide_einternal>
3.94366

> <r_i_glide_emodel>
-45.1909

> <r_i_glide_energy>
-44.0281

> <r_i_glide_erotb>
0.587872

> <r_i_glide_esite>
-0.214367

> <r_i_glide_evdw>
-37.714

> <r_i_glide_gscore>
-2.77541

> <r_i_glide_hbond>
-0.16

> <r_i_glide_ligand_efficiency>
-0.0730372

> <r_i_glide_ligand_efficiency_ln>
-0.598461

> <r_i_glide_ligand_efficiency_sa>
-0.245549

> <r_i_glide_lipo>
-1.91093

> <r_i_glide_metal>
0

> <r_i_glide_rewards>
1.75483

> <s_i_glide_gridfile>
wee1_glide-grid

> <s_m_Source_File>
wee1_decoys_glide_SP.sdf

> <s_m_Source_Path>
/Users/zhangxujun/Desktop

> <s_m_entry_id>
1328

> <s_m_entry_name>
wee1_decoys_glide_SP.1053

> <s_m_subgroup_title>
wee1_decoys_glide_SP

> <s_m_subgroupid>
wee1_decoys_glide_SP


$$$$
