ZINC36056505_4287
                    3D
 Schrodinger Suite 2024-2.
 41 43  0  0  1  0            999 V2000
    0.7164   51.5930   21.5475 C   0  0  0  0  0  0
    0.1709   52.0963   20.3715 C   0  0  0  0  0  0
   -1.1049   51.6977   19.9781 C   0  0  0  0  0  0
   -1.8175   50.7679   20.7275 C   0  0  0  0  0  0
   -1.2662   50.2585   21.8991 C   0  0  0  0  0  0
   -0.0057   50.6866   22.3329 C   0  0  0  0  0  0
    0.5808   50.2055   23.6730 C   0  0  1  0  0  0
    1.6636   50.1945   23.5236 H   0  0  0  0  0  0
    0.2498   51.0529   24.9491 C   0  0  2  0  0  0
    0.9727   50.7407   25.7028 H   0  0  0  0  0  0
   -1.1539   50.6985   25.5642 C   0  0  1  0  0  0
   -1.1729   49.2254   25.6812 N   0  0  0  0  0  0
   -0.6705   48.3318   24.8022 C   0  0  0  0  0  0
   -1.1378   47.2073   24.6449 O   0  0  0  0  0  0
    0.3040   48.7986   23.9961 N   0  0  0  0  0  0
   -1.4218   51.3716   26.9510 C   0  0  0  0  0  0
   -1.4862   52.7011   26.8816 F   0  0  0  0  0  0
   -2.5829   50.9690   27.4770 F   0  0  0  0  0  0
   -0.4666   51.0800   27.8334 F   0  0  0  0  0  0
   -2.2218   51.0922   24.7156 O   0  0  0  0  0  0
    0.5068   52.5708   24.7338 C   0  0  0  0  0  0
   -0.2481   53.2383   24.0243 O   0  0  0  0  0  0
    1.7884   53.1210   25.2582 C   0  0  0  0  0  0
    2.6092   53.8782   24.4128 C   0  0  0  0  0  0
    3.7997   54.4183   24.8940 C   0  0  0  0  0  0
    4.1530   54.2372   26.2284 C   0  0  0  0  0  0
    3.3185   53.5261   27.0897 C   0  0  0  0  0  0
    2.1349   52.9694   26.6056 C   0  0  0  0  0  0
    5.6385   54.8956   26.8191 Cl  0  0  0  0  0  0
   -1.8983   52.4681   18.4308 Br  0  0  0  0  0  0
    1.6935   51.9320   21.8598 H   0  0  0  0  0  0
    0.7225   52.8180   19.7847 H   0  0  0  0  0  0
   -2.8035   50.4559   20.4143 H   0  0  0  0  0  0
   -1.8414   49.5543   22.4824 H   0  0  0  0  0  0
   -1.6923   48.8264   26.4547 H   0  0  0  0  0  0
    0.8532   48.0990   23.5232 H   0  0  0  0  0  0
   -2.9921   50.5653   24.9422 H   0  0  0  0  0  0
    2.3412   54.0358   23.3765 H   0  0  0  0  0  0
    4.4497   54.9691   24.2316 H   0  0  0  0  0  0
    3.5942   53.3953   28.1257 H   0  0  0  0  0  0
    1.5019   52.4263   27.2910 H   0  0  0  0  0  0
  1  6  2  0  0  0
  1  2  1  0  0  0
  1 31  1  0  0  0
  2  3  2  0  0  0
  2 32  1  0  0  0
  3  4  1  0  0  0
  3 30  1  0  0  0
  4  5  2  0  0  0
  4 33  1  0  0  0
  5  6  1  0  0  0
  5 34  1  0  0  0
  6  7  1  0  0  0
  7  8  1  0  0  0
  7 15  1  0  0  0
  7  9  1  0  0  0
  9 10  1  0  0  0
  9 11  1  0  0  0
  9 21  1  0  0  0
 11 12  1  0  0  0
 11 16  1  0  0  0
 11 20  1  0  0  0
 12 13  1  0  0  0
 12 35  1  0  0  0
 13 14  2  0  0  0
 13 15  1  0  0  0
 15 36  1  0  0  0
 16 17  1  0  0  0
 16 18  1  0  0  0
 16 19  1  0  0  0
 20 37  1  0  0  0
 21 22  2  0  0  0
 21 23  1  0  0  0
 23 28  2  0  0  0
 23 24  1  0  0  0
 24 25  2  0  0  0
 24 38  1  0  0  0
 25 26  1  0  0  0
 25 39  1  0  0  0
 26 27  2  0  0  0
 26 29  1  0  0  0
 27 28  1  0  0  0
 27 40  1  0  0  0
 28 41  1  0  0  0
M  END
> <i_i_glide_confnum>
9

> <i_i_glide_lignum>
4288

> <i_i_glide_posenum>
40

> <i_i_glide_rotatable_bonds>
5

> <i_m_Source_File_Index>
5860

> <b_m_subgroup_collapsed>
0

> <r_i_docking_score>
-4.70512

> <r_i_glide_ecoul>
-5.71231

> <r_i_glide_eff_state_penalty>
0

> <r_i_glide_einternal>
1.39824

> <r_i_glide_emodel>
-49.2357

> <r_i_glide_energy>
-36.9814

> <r_i_glide_erotb>
0.266377

> <r_i_glide_esite>
-0.425424

> <r_i_glide_evdw>
-31.269

> <r_i_glide_gscore>
-4.70512

> <r_i_glide_hbond>
-0.154774

> <r_i_glide_ligand_efficiency>
-0.16804

> <r_i_glide_ligand_efficiency_ln>
-1.08608

> <r_i_glide_ligand_efficiency_sa>
-0.510269

> <r_i_glide_lipo>
-1.65322

> <r_i_glide_metal>
0

> <r_i_glide_rewards>
-0.317785

> <s_i_glide_gridfile>
wee1_glide-grid

> <s_m_Source_File>
wee1_decoys_glide_SP.sdf

> <s_m_Source_Path>
/Users/zhangxujun/Desktop

> <s_m_entry_id>
6135

> <s_m_entry_name>
wee1_decoys_glide_SP.5860

> <s_m_subgroup_title>
wee1_decoys_glide_SP

> <s_m_subgroupid>
wee1_decoys_glide_SP


$$$$
