ZINC63480288_4099
                    3D
 Schrodinger Suite 2024-2.
 61 67  0  0  1  0            999 V2000
   -2.4885   50.9091   27.7506 C   0  0  0  0  0  0
   -2.4535   51.1111   26.2450 C   0  0  0  0  0  0
   -2.9029   52.3165   25.6925 C   0  0  0  0  0  0
   -2.9229   52.4965   24.3054 C   0  0  0  0  0  0
   -2.4904   51.4727   23.4589 C   0  0  0  0  0  0
   -2.0130   50.2756   24.0022 C   0  0  0  0  0  0
   -2.0073   50.1081   25.3758 C   0  0  0  0  0  0
   -1.5441   48.8395   25.6787 N   0  0  0  0  0  0
   -1.2595   48.0975   24.5928 C   0  0  0  0  0  0
   -0.8883   46.9231   24.5913 O   0  0  0  0  0  0
   -1.4766   49.0183   23.3526 C   0  0  1  0  0  0
   -2.4043   48.4517   22.2172 C   0  0  1  0  0  0
   -3.4280   48.8134   22.3428 H   0  0  0  0  0  0
   -1.8042   48.9762   20.9427 C   0  0  1  0  0  0
   -2.4472   49.7672   20.5556 H   0  0  0  0  0  0
   -0.3704   49.4536   21.2928 C   0  0  2  0  0  0
    0.3676   48.8196   20.7898 H   0  0  0  0  0  0
   -0.1717   49.1839   22.7078 N   0  0  0  0  0  0
   -0.0735   50.9067   20.8576 C   0  0  0  0  0  0
    1.3965   51.2270   20.6553 C   0  0  0  0  0  0
    2.2136   52.0767   21.3077 C   0  0  0  0  0  0
    1.9718   52.9476   22.4702 C   0  0  0  0  0  0
    2.9504   53.7432   22.9498 C   0  0  0  0  0  0
    4.2468   53.7096   22.2828 C   0  0  0  0  0  0
    4.4880   52.9091   21.2103 C   0  0  0  0  0  0
    3.4769   52.0825   20.7041 C   0  0  0  0  0  0
    3.5047   51.2579   19.6829 N   0  3  0  0  0  0
    2.1976   50.6053   19.5263 C   0  0  0  0  0  0
   -1.7550   47.7817   20.0050 C   0  0  0  0  0  0
   -1.4342   47.8629   18.8188 O   0  0  0  0  0  0
   -2.1348   46.6728   20.6917 N   0  0  0  0  0  0
   -2.5149   46.9368   21.9721 C   0  0  0  0  0  0
   -2.9624   46.1259   22.7882 O   0  0  0  0  0  0
   -2.1509   45.3831   20.1134 C   0  0  0  0  0  0
   -0.9811   44.8619   19.5421 C   0  0  0  0  0  0
   -1.0051   43.6213   18.9146 C   0  0  0  0  0  0
   -2.1954   42.8991   18.8629 C   0  0  0  0  0  0
   -3.3574   43.3952   19.4496 C   0  0  0  0  0  0
   -3.3366   44.6375   20.0776 C   0  0  0  0  0  0
   -2.9685   51.7292   28.2831 H   0  0  0  0  0  0
   -3.0556   50.0076   27.9877 H   0  0  0  0  0  0
   -1.4784   50.7676   28.1379 H   0  0  0  0  0  0
   -3.2552   53.1099   26.3357 H   0  0  0  0  0  0
   -3.2872   53.4249   23.8882 H   0  0  0  0  0  0
   -2.5431   51.6163   22.3905 H   0  0  0  0  0  0
   -1.4467   48.4986   26.6401 H   0  0  0  0  0  0
    0.3649   49.9102   23.1597 H   0  0  0  0  0  0
   -0.4986   51.6191   21.5596 H   0  0  0  0  0  0
   -0.5587   51.1033   19.9009 H   0  0  0  0  0  0
    1.0135   52.9708   22.9747 H   0  0  0  0  0  0
    2.7803   54.3817   23.8067 H   0  0  0  0  0  0
    5.0397   54.3462   22.6532 H   0  0  0  0  0  0
    5.4653   52.9294   20.7491 H   0  0  0  0  0  0
    1.8263   50.8418   18.5288 H   0  0  0  0  0  0
    2.3521   49.5278   19.6184 H   0  0  0  0  0  0
   -0.0589   45.4243   19.5738 H   0  0  0  0  0  0
   -0.1067   43.2344   18.4569 H   0  0  0  0  0  0
   -2.2141   41.9427   18.3613 H   0  0  0  0  0  0
   -4.2744   42.8297   19.4072 H   0  0  0  0  0  0
   -4.2440   45.0286   20.5142 H   0  0  0  0  0  0
    4.3165   51.0575   19.0702 H   0  0  0  0  0  0
  1  2  1  0  0  0
  1 40  1  0  0  0
  1 41  1  0  0  0
  1 42  1  0  0  0
  2  7  2  0  0  0
  2  3  1  0  0  0
  3  4  2  0  0  0
  3 43  1  0  0  0
  4  5  1  0  0  0
  4 44  1  0  0  0
  5  6  2  0  0  0
  5 45  1  0  0  0
  6 11  1  0  0  0
  6  7  1  0  0  0
  7  8  1  0  0  0
  8  9  1  0  0  0
  8 46  1  0  0  0
  9 10  2  0  0  0
  9 11  1  0  0  0
 11 18  1  0  0  0
 11 12  1  0  0  0
 12 13  1  0  0  0
 12 32  1  0  0  0
 12 14  1  0  0  0
 14 15  1  0  0  0
 14 16  1  0  0  0
 14 29  1  0  0  0
 16 17  1  0  0  0
 16 18  1  0  0  0
 16 19  1  0  0  0
 18 47  1  0  0  0
 19 20  1  0  0  0
 19 48  1  0  0  0
 19 49  1  0  0  0
 20 28  1  0  0  0
 20 21  2  0  0  0
 21 26  1  0  0  0
 21 22  1  0  0  0
 22 23  2  0  0  0
 22 50  1  0  0  0
 23 24  1  0  0  0
 23 51  1  0  0  0
 24 25  2  0  0  0
 24 52  1  0  0  0
 25 26  1  0  0  0
 25 53  1  0  0  0
 26 27  2  0  0  0
 27 28  1  0  0  0
 27 61  1  0  0  0
 28 54  1  0  0  0
 28 55  1  0  0  0
 29 30  2  0  0  0
 29 31  1  0  0  0
 31 32  1  0  0  0
 31 34  1  0  0  0
 32 33  2  0  0  0
 34 39  2  0  0  0
 34 35  1  0  0  0
 35 36  2  0  0  0
 35 56  1  0  0  0
 36 37  1  0  0  0
 36 57  1  0  0  0
 37 38  2  0  0  0
 37 58  1  0  0  0
 38 39  1  0  0  0
 38 59  1  0  0  0
 39 60  1  0  0  0
M  CHG  1  27   1
M  END
> <i_i_glide_confnum>
13

> <i_i_glide_lignum>
4100

> <i_i_glide_posenum>
282

> <i_i_glide_rotatable_bonds>
3

> <i_m_Source_File_Index>
2668

> <b_m_subgroup_collapsed>
0

> <r_i_docking_score>
-3.9997

> <r_i_glide_ecoul>
-7.70361

> <r_i_glide_eff_state_penalty>
0

> <r_i_glide_einternal>
2.67046

> <r_i_glide_emodel>
-47.9204

> <r_i_glide_energy>
-38.4619

> <r_i_glide_erotb>
0.266505

> <r_i_glide_esite>
-0.25302

> <r_i_glide_evdw>
-30.7583

> <r_i_glide_gscore>
-3.9997

> <r_i_glide_hbond>
-0.453617

> <r_i_glide_ligand_efficiency>
-0.111103

> <r_i_glide_ligand_efficiency_ln>
-0.872627

> <r_i_glide_ligand_efficiency_sa>
-0.366853

> <r_i_glide_lipo>
-0.706182

> <r_i_glide_metal>
0

> <r_i_glide_rewards>
-0.159933

> <s_i_glide_gridfile>
wee1_glide-grid

> <s_m_Source_File>
wee1_decoys_glide_SP.sdf

> <s_m_Source_Path>
/Users/zhangxujun/Desktop

> <s_m_entry_id>
2943

> <s_m_entry_name>
wee1_decoys_glide_SP.2668

> <s_m_subgroup_title>
wee1_decoys_glide_SP

> <s_m_subgroupid>
wee1_decoys_glide_SP


$$$$
