ZINC13124513_4055
                    3D
 Schrodinger Suite 2024-2.
 51 54  0  0  1  0            999 V2000
    0.9524   55.5360   30.7640 C   0  0  0  0  0  0
    0.8141   54.3326   29.8549 C   0  0  0  0  0  0
    1.5241   54.0288   28.6736 C   0  0  0  0  0  0
    0.9801   52.8237   28.2614 C   0  0  0  0  0  0
    0.0280   52.4941   29.1841 N   0  0  0  0  0  0
   -0.0819   53.4120   30.1467 N   0  0  0  0  0  0
   -0.8558   51.3446   29.1856 C   0  0  0  0  0  0
    2.5645   54.8660   27.9552 C   0  0  0  0  0  0
    3.9593   54.4331   28.1882 N   0  0  0  0  0  0
    4.3338   54.4290   29.6021 C   0  0  0  0  0  0
    4.9125   54.1470   27.2503 C   0  0  0  0  0  0
    6.0874   53.9166   27.5550 O   0  0  0  0  0  0
    4.5515   54.0975   25.8479 C   0  0  0  0  0  0
    5.3948   54.4965   24.7889 C   0  0  0  0  0  0
    4.7343   54.1150   23.6374 C   0  0  0  0  0  0
    3.5049   53.6298   24.0378 N   0  0  0  0  0  0
    3.4303   53.5965   25.3717 N   0  0  0  0  0  0
    2.5184   52.9555   23.1757 C   0  0  2  0  0  0
    2.7201   51.8860   23.1967 H   0  0  0  0  0  0
    2.7898   53.4650   21.7457 C   0  0  0  0  0  0
    4.2849   53.4007   21.3596 C   0  0  2  0  0  0
    4.6267   52.3705   21.4755 H   0  0  0  0  0  0
    5.0471   54.2288   22.2980 N   0  0  0  0  0  0
    4.5158   53.8187   19.9151 C   0  0  0  0  0  0
    5.2436   54.8916   19.3873 C   0  0  0  0  0  0
    5.2246   54.9789   17.9938 C   0  0  0  0  0  0
    4.4667   53.9784   17.4159 C   0  0  0  0  0  0
    3.7739   52.9341   18.6070 S   0  0  0  0  0  0
    1.0486   53.0942   23.6241 C   0  0  0  0  0  0
    0.2209   52.4971   22.7650 F   0  0  0  0  0  0
    0.8245   52.5549   24.8231 F   0  0  0  0  0  0
    0.7063   54.3742   23.6832 F   0  0  0  0  0  0
    7.0963   55.3472   24.8806 Br  0  0  0  0  0  0
    0.7047   55.2972   31.7990 H   0  0  0  0  0  0
    1.9597   55.9417   30.7616 H   0  0  0  0  0  0
    0.3101   56.3591   30.4671 H   0  0  0  0  0  0
    1.1731   52.1920   27.4068 H   0  0  0  0  0  0
   -0.4950   50.5984   28.4742 H   0  0  0  0  0  0
   -1.8590   51.6564   28.8933 H   0  0  0  0  0  0
   -0.8956   50.9002   30.1834 H   0  0  0  0  0  0
    2.3036   54.8964   26.9042 H   0  0  0  0  0  0
    2.4853   55.9024   28.2871 H   0  0  0  0  0  0
    5.4122   54.4972   29.7428 H   0  0  0  0  0  0
    3.9008   55.2967   30.0816 H   0  0  0  0  0  0
    3.9589   53.5346   30.1015 H   0  0  0  0  0  0
    2.1742   52.9156   21.0339 H   0  0  0  0  0  0
    2.4527   54.4962   21.6825 H   0  0  0  0  0  0
    6.0072   54.3693   22.0186 H   0  0  0  0  0  0
    5.7791   55.5983   20.0054 H   0  0  0  0  0  0
    5.7415   55.7443   17.4334 H   0  0  0  0  0  0
    4.2840   53.7994   16.3672 H   0  0  0  0  0  0
  1  2  1  0  0  0
  1 34  1  0  0  0
  1 35  1  0  0  0
  1 36  1  0  0  0
  2  6  2  0  0  0
  2  3  1  0  0  0
  3  4  2  0  0  0
  3  8  1  0  0  0
  4  5  1  0  0  0
  4 37  1  0  0  0
  5  6  1  0  0  0
  5  7  1  0  0  0
  7 38  1  0  0  0
  7 39  1  0  0  0
  7 40  1  0  0  0
  8  9  1  0  0  0
  8 41  1  0  0  0
  8 42  1  0  0  0
  9 10  1  0  0  0
  9 11  1  0  0  0
 10 43  1  0  0  0
 10 44  1  0  0  0
 10 45  1  0  0  0
 11 12  2  0  0  0
 11 13  1  0  0  0
 13 17  2  0  0  0
 13 14  1  0  0  0
 14 15  2  0  0  0
 14 33  1  0  0  0
 15 23  1  0  0  0
 15 16  1  0  0  0
 16 17  1  0  0  0
 16 18  1  0  0  0
 18 19  1  0  0  0
 18 20  1  0  0  0
 18 29  1  0  0  0
 20 21  1  0  0  0
 20 46  1  0  0  0
 20 47  1  0  0  0
 21 22  1  0  0  0
 21 23  1  0  0  0
 21 24  1  0  0  0
 23 48  1  0  0  0
 24 28  1  0  0  0
 24 25  2  0  0  0
 25 26  1  0  0  0
 25 49  1  0  0  0
 26 27  2  0  0  0
 26 50  1  0  0  0
 27 28  1  0  0  0
 27 51  1  0  0  0
 29 30  1  0  0  0
 29 31  1  0  0  0
 29 32  1  0  0  0
M  END
> <i_i_glide_confnum>
52

> <i_i_glide_lignum>
4056

> <i_i_glide_posenum>
81

> <i_i_glide_rotatable_bonds>
6

> <i_m_Source_File_Index>
166

> <b_m_subgroup_collapsed>
0

> <r_i_docking_score>
-5.50689

> <r_i_glide_ecoul>
-1.14017

> <r_i_glide_eff_state_penalty>
0

> <r_i_glide_einternal>
4.41027

> <r_i_glide_emodel>
-57.4605

> <r_i_glide_energy>
-44.8393

> <r_i_glide_erotb>
0.383525

> <r_i_glide_esite>
0

> <r_i_glide_evdw>
-43.6991

> <r_i_glide_gscore>
-5.50689

> <r_i_glide_hbond>
0

> <r_i_glide_ligand_efficiency>
-0.177642

> <r_i_glide_ligand_efficiency_ln>
-1.24197

> <r_i_glide_ligand_efficiency_sa>
-0.55804

> <r_i_glide_lipo>
-2.37616

> <r_i_glide_metal>
0

> <r_i_glide_rewards>
-1.15828

> <s_i_glide_gridfile>
wee1_glide-grid

> <s_m_Source_File>
wee1_decoys_glide_SP.sdf

> <s_m_Source_Path>
/Users/zhangxujun/Desktop

> <s_m_entry_id>
441

> <s_m_entry_name>
wee1_decoys_glide_SP.166

> <s_m_subgroup_title>
wee1_decoys_glide_SP

> <s_m_subgroupid>
wee1_decoys_glide_SP


$$$$
