ZINC39636127_176
                    3D
 Schrodinger Suite 2024-2.
 75 78  0  0  1  0            999 V2000
    2.0079   48.9583   20.6449 C   0  0  0  0  0  0
    1.8396   50.0414   19.5565 C   0  0  1  0  0  0
    2.7925   50.5580   19.4178 H   0  0  0  0  0  0
    1.5019   49.4081   18.1898 C   0  0  0  0  0  0
    1.5044   50.4806   17.0823 C   0  0  0  0  0  0
    0.5128   51.6178   17.4002 C   0  0  0  0  0  0
    0.7020   52.2007   18.8198 C   0  0  0  0  0  0
    0.7582   51.1032   19.9108 C   0  0  2  0  0  0
   -0.1965   50.5691   19.8940 H   0  0  0  0  0  0
    0.9027   51.6425   21.2624 N   0  0  0  0  0  0
   -0.0772   52.0967   22.0647 C   0  0  0  0  0  0
   -1.2607   52.0966   21.7262 O   0  0  0  0  0  0
    0.2919   52.6583   23.4662 C   0  0  2  0  0  0
   -0.2984   53.5650   23.6106 H   0  0  0  0  0  0
    1.7581   53.1288   23.4955 C   0  0  0  0  0  0
    2.1017   53.0771   24.9147 N   0  0  0  0  0  0
    1.1043   52.3401   25.7034 C   0  0  0  0  0  0
    0.1514   51.6826   24.6657 C   0  0  0  0  0  0
    0.6046   50.2188   24.3412 C   0  0  0  0  0  0
    0.4899   49.2653   25.5567 C   0  0  0  0  0  0
   -0.9612   49.2976   26.0817 N   0  3  0  0  0  0
   -1.4771   50.7186   26.3902 C   0  0  0  0  0  0
   -1.3256   51.5701   25.1191 C   0  0  0  0  0  0
    3.1783   53.7579   25.3884 C   0  0  0  0  0  0
    3.8665   54.4440   24.6301 O   0  0  0  0  0  0
    3.5814   53.6469   26.8845 C   0  0  1  0  0  0
    3.2081   52.6914   27.2326 H   0  0  0  0  0  0
    5.1200   53.5743   27.1758 C   0  0  0  0  0  0
    5.9739   54.7818   26.7301 C   0  0  0  0  0  0
    5.3837   53.3121   28.6703 C   0  0  0  0  0  0
    3.0347   54.7853   27.5633 O   0  0  0  0  0  0
    2.1771   54.6633   28.6414 C   0  0  0  0  0  0
    1.5796   53.4695   29.0837 C   0  0  0  0  0  0
    0.7476   53.4727   30.1996 C   0  0  0  0  0  0
    0.5180   54.6619   30.8817 C   0  0  0  0  0  0
    1.1044   55.8518   30.4580 C   0  0  0  0  0  0
    1.9161   55.8490   29.3296 C   0  0  0  0  0  0
    1.0568   48.4769   20.8731 H   0  0  0  0  0  0
    2.7044   48.1817   20.3273 H   0  0  0  0  0  0
    2.3989   49.3777   21.5723 H   0  0  0  0  0  0
    2.2464   48.6469   17.9481 H   0  0  0  0  0  0
    0.5542   48.8693   18.2312 H   0  0  0  0  0  0
    1.2658   50.0270   16.1195 H   0  0  0  0  0  0
    2.5093   50.8967   16.9777 H   0  0  0  0  0  0
   -0.5052   51.2375   17.3034 H   0  0  0  0  0  0
    0.6093   52.4107   16.6571 H   0  0  0  0  0  0
   -0.1094   52.8966   19.0324 H   0  0  0  0  0  0
    1.6232   52.7859   18.8451 H   0  0  0  0  0  0
    1.8439   51.6282   21.6221 H   0  0  0  0  0  0
    1.8576   54.1217   23.0503 H   0  0  0  0  0  0
    2.4250   52.4072   23.0234 H   0  0  0  0  0  0
    1.4837   51.6504   26.4530 H   0  0  0  0  0  0
    0.5366   53.0974   26.2452 H   0  0  0  0  0  0
    0.0357   49.7995   23.5096 H   0  0  0  0  0  0
    1.6411   50.2186   23.9998 H   0  0  0  0  0  0
    0.7044   48.2264   25.2967 H   0  0  0  0  0  0
    1.1044   49.5405   26.4112 H   0  0  0  0  0  0
   -1.5806   48.8458   25.4249 H   0  0  0  0  0  0
   -2.5165   50.5985   26.7008 H   0  0  0  0  0  0
   -0.8977   51.0848   27.2393 H   0  0  0  0  0  0
   -1.7124   52.5663   25.3405 H   0  0  0  0  0  0
   -1.9582   51.1921   24.3134 H   0  0  0  0  0  0
    5.5056   52.7094   26.6398 H   0  0  0  0  0  0
    5.5930   55.6966   27.1712 H   0  0  0  0  0  0
    7.0105   54.6749   27.0532 H   0  0  0  0  0  0
    6.0087   54.9104   25.6500 H   0  0  0  0  0  0
    4.9538   54.0996   29.2896 H   0  0  0  0  0  0
    4.9616   52.3603   28.9941 H   0  0  0  0  0  0
    6.4535   53.2959   28.8817 H   0  0  0  0  0  0
    1.7293   52.5234   28.5952 H   0  0  0  0  0  0
    0.2883   52.5564   30.5450 H   0  0  0  0  0  0
   -0.1095   54.6555   31.7604 H   0  0  0  0  0  0
    0.9300   56.7725   30.9966 H   0  0  0  0  0  0
    2.3663   56.7731   28.9980 H   0  0  0  0  0  0
   -1.0433   48.7688   26.9671 H   0  0  0  0  0  0
  1  2  1  0  0  0
  1 38  1  0  0  0
  1 39  1  0  0  0
  1 40  1  0  0  0
  2  3  1  0  0  0
  2  8  1  0  0  0
  2  4  1  0  0  0
  4  5  1  0  0  0
  4 41  1  0  0  0
  4 42  1  0  0  0
  5  6  1  0  0  0
  5 43  1  0  0  0
  5 44  1  0  0  0
  6  7  1  0  0  0
  6 45  1  0  0  0
  6 46  1  0  0  0
  7  8  1  0  0  0
  7 47  1  0  0  0
  7 48  1  0  0  0
  8  9  1  0  0  0
  8 10  1  0  0  0
 10 11  1  0  0  0
 10 49  1  0  0  0
 11 12  2  0  0  0
 11 13  1  0  0  0
 13 14  1  0  0  0
 13 18  1  0  0  0
 13 15  1  0  0  0
 15 16  1  0  0  0
 15 50  1  0  0  0
 15 51  1  0  0  0
 16 17  1  0  0  0
 16 24  1  0  0  0
 17 18  1  0  0  0
 17 52  1  0  0  0
 17 53  1  0  0  0
 18 23  1  0  0  0
 18 19  1  0  0  0
 19 20  1  0  0  0
 19 54  1  0  0  0
 19 55  1  0  0  0
 20 21  1  0  0  0
 20 56  1  0  0  0
 20 57  1  0  0  0
 21 22  1  0  0  0
 21 58  1  0  0  0
 21 75  1  0  0  0
 22 23  1  0  0  0
 22 59  1  0  0  0
 22 60  1  0  0  0
 23 61  1  0  0  0
 23 62  1  0  0  0
 24 25  2  0  0  0
 24 26  1  0  0  0
 26 27  1  0  0  0
 26 28  1  0  0  0
 26 31  1  0  0  0
 28 29  1  0  0  0
 28 30  1  0  0  0
 28 63  1  0  0  0
 29 64  1  0  0  0
 29 65  1  0  0  0
 29 66  1  0  0  0
 30 67  1  0  0  0
 30 68  1  0  0  0
 30 69  1  0  0  0
 31 32  1  0  0  0
 32 37  2  0  0  0
 32 33  1  0  0  0
 33 34  2  0  0  0
 33 70  1  0  0  0
 34 35  1  0  0  0
 34 71  1  0  0  0
 35 36  2  0  0  0
 35 72  1  0  0  0
 36 37  1  0  0  0
 36 73  1  0  0  0
 37 74  1  0  0  0
M  CHG  1  21   1
M  END
> <i_i_glide_confnum>
100

> <i_i_glide_lignum>
177

> <i_i_glide_posenum>
30

> <i_i_glide_rotatable_bonds>
8

> <i_m_Source_File_Index>
453

> <b_m_subgroup_collapsed>
0

> <r_i_docking_score>
-6.77226

> <r_i_glide_ecoul>
-8.90997

> <r_i_glide_eff_state_penalty>
0

> <r_i_glide_einternal>
7.07553

> <r_i_glide_emodel>
-70.3784

> <r_i_glide_energy>
-49.6806

> <r_i_glide_erotb>
0.578319

> <r_i_glide_esite>
-0.101143

> <r_i_glide_evdw>
-40.7706

> <r_i_glide_gscore>
-6.77226

> <r_i_glide_hbond>
-0.197783

> <r_i_glide_ligand_efficiency>
-0.20522

> <r_i_glide_ligand_efficiency_ln>
-1.50612

> <r_i_glide_ligand_efficiency_sa>
-0.65825

> <r_i_glide_lipo>
-2.78465

> <r_i_glide_metal>
0

> <r_i_glide_rewards>
-0.89198

> <s_i_glide_gridfile>
wee1_glide-grid

> <s_m_Source_File>
wee1_decoys_glide_SP.sdf

> <s_m_Source_Path>
/Users/zhangxujun/Desktop

> <s_m_entry_id>
728

> <s_m_entry_name>
wee1_decoys_glide_SP.453

> <s_m_subgroup_title>
wee1_decoys_glide_SP

> <s_m_subgroupid>
wee1_decoys_glide_SP


$$$$
