ZINC26964465_1532
                    3D
 Schrodinger Suite 2024-2.
 44 47  0  0  1  0            999 V2000
    4.6669   54.2466   28.0436 C   0  0  0  0  0  0
    4.9464   54.3840   26.6806 C   0  0  0  0  0  0
    3.8589   54.0974   25.8354 C   0  0  0  0  0  0
    2.4677   53.6811   26.8182 S   0  0  0  0  0  0
    3.3611   53.8684   28.2846 C   0  0  0  0  0  0
    3.6959   54.0984   24.3741 C   0  0  0  0  0  0
    2.5747   53.8585   23.9133 O   0  0  0  0  0  0
    4.7487   54.3508   23.5394 N   0  0  0  0  0  0
    6.1160   54.7339   23.9026 C   0  0  0  0  0  0
    6.8993   54.8972   22.6115 C   0  0  0  0  0  0
    5.8681   55.0020   21.5071 C   0  0  0  0  0  0
    4.5853   54.3604   22.0630 C   0  0  1  0  0  0
    3.7411   55.0057   21.8126 H   0  0  0  0  0  0
    4.3162   52.9755   21.4535 C   0  0  0  0  0  0
    5.1046   52.0568   21.6802 O   0  0  0  0  0  0
    3.2195   52.8969   20.6698 N   0  0  0  0  0  0
    2.8120   51.6669   20.1494 N   0  0  0  0  0  0
    2.0411   50.8432   20.9000 C   0  0  0  0  0  0
    1.6579   51.1086   22.0452 O   0  0  0  0  0  0
    1.5902   49.5634   20.2320 C   0  0  0  0  0  0
    2.3011   49.0103   19.1428 C   0  0  0  0  0  0
    1.9037   47.8129   18.5356 C   0  0  0  0  0  0
    0.7717   47.1862   19.0395 C   0  0  0  0  0  0
    0.0628   47.7116   20.0813 C   0  0  0  0  0  0
    0.4445   48.8949   20.7064 C   0  0  0  0  0  0
   -0.9613   46.8781   20.3946 O   0  0  0  0  0  0
   -0.9892   45.9089   19.3787 C   0  0  0  0  0  0
    0.2148   46.0056   18.6631 O   0  0  0  0  0  0
    5.3941   54.4205   28.8216 H   0  0  0  0  0  0
    5.9339   54.6853   26.3810 H   0  0  0  0  0  0
    2.8830   53.6908   29.2342 H   0  0  0  0  0  0
    6.5962   53.9698   24.5159 H   0  0  0  0  0  0
    6.0916   55.6859   24.4369 H   0  0  0  0  0  0
    7.5165   54.0124   22.4823 H   0  0  0  0  0  0
    7.5746   55.7515   22.6312 H   0  0  0  0  0  0
    6.2202   54.5475   20.5799 H   0  0  0  0  0  0
    5.6757   56.0505   21.2815 H   0  0  0  0  0  0
    2.5709   53.6521   20.4859 H   0  0  0  0  0  0
    3.3637   51.3726   19.3543 H   0  0  0  0  0  0
    3.1832   49.4980   18.7568 H   0  0  0  0  0  0
    2.4742   47.4063   17.7140 H   0  0  0  0  0  0
   -0.1226   49.2791   21.5435 H   0  0  0  0  0  0
   -1.0954   44.9119   19.8100 H   0  0  0  0  0  0
   -1.8269   46.1153   18.7061 H   0  0  0  0  0  0
  1  5  2  0  0  0
  1  2  1  0  0  0
  1 29  1  0  0  0
  2  3  2  0  0  0
  2 30  1  0  0  0
  3  4  1  0  0  0
  3  6  1  0  0  0
  4  5  1  0  0  0
  5 31  1  0  0  0
  6  7  2  0  0  0
  6  8  1  0  0  0
  8 12  1  0  0  0
  8  9  1  0  0  0
  9 10  1  0  0  0
  9 32  1  0  0  0
  9 33  1  0  0  0
 10 11  1  0  0  0
 10 34  1  0  0  0
 10 35  1  0  0  0
 11 12  1  0  0  0
 11 36  1  0  0  0
 11 37  1  0  0  0
 12 13  1  0  0  0
 12 14  1  0  0  0
 14 15  2  0  0  0
 14 16  1  0  0  0
 16 17  1  0  0  0
 16 38  1  0  0  0
 17 18  1  0  0  0
 17 39  1  0  0  0
 18 19  2  0  0  0
 18 20  1  0  0  0
 20 25  2  0  0  0
 20 21  1  0  0  0
 21 22  2  0  0  0
 21 40  1  0  0  0
 22 23  1  0  0  0
 22 41  1  0  0  0
 23 28  1  0  0  0
 23 24  2  0  0  0
 24 25  1  0  0  0
 24 26  1  0  0  0
 25 42  1  0  0  0
 26 27  1  0  0  0
 27 28  1  0  0  0
 27 43  1  0  0  0
 27 44  1  0  0  0
M  END
> <i_i_glide_confnum>
83

> <i_i_glide_lignum>
1533

> <i_i_glide_posenum>
190

> <i_i_glide_rotatable_bonds>
7

> <i_m_Source_File_Index>
354

> <b_m_subgroup_collapsed>
0

> <r_i_docking_score>
-5.70234

> <r_i_glide_ecoul>
-4.84192

> <r_i_glide_eff_state_penalty>
0

> <r_i_glide_einternal>
2.09761

> <r_i_glide_emodel>
-58.8705

> <r_i_glide_energy>
-43.5307

> <r_i_glide_erotb>
0.778486

> <r_i_glide_esite>
-0.0307347

> <r_i_glide_evdw>
-38.6888

> <r_i_glide_gscore>
-5.70234

> <r_i_glide_hbond>
-0.32

> <r_i_glide_ligand_efficiency>
-0.211198

> <r_i_glide_ligand_efficiency_ln>
-1.32741

> <r_i_glide_ligand_efficiency_sa>
-0.633593

> <r_i_glide_lipo>
-1.93907

> <r_i_glide_metal>
0

> <r_i_glide_rewards>
-1.53029

> <s_i_glide_gridfile>
wee1_glide-grid

> <s_m_Source_File>
wee1_decoys_glide_SP.sdf

> <s_m_Source_Path>
/Users/zhangxujun/Desktop

> <s_m_entry_id>
629

> <s_m_entry_name>
wee1_decoys_glide_SP.354

> <s_m_subgroup_title>
wee1_decoys_glide_SP

> <s_m_subgroupid>
wee1_decoys_glide_SP


$$$$
