ZINC35693552_5954
                    3D
 Schrodinger Suite 2024-2.
 61 64  0  0  1  0            999 V2000
   -1.5263   47.4957   19.2318 C   0  0  0  0  0  0
   -0.2483   47.0475   19.9546 C   0  0  0  0  0  0
    0.6677   48.1322   20.0825 O   0  0  0  0  0  0
    0.5853   49.0370   21.0938 C   0  0  0  0  0  0
   -0.1658   48.8702   22.0555 O   0  0  0  0  0  0
    1.4787   50.2248   20.9647 C   0  0  0  0  0  0
    2.1078   50.5658   19.7947 C   0  0  0  0  0  0
    2.9501   51.6261   19.6826 N   0  0  0  0  0  0
    3.1228   52.4026   20.6685 C   0  0  0  0  0  0
    2.5356   52.3240   21.9323 N   0  0  0  0  0  0
    1.6968   51.1116   22.2505 C   0  0  1  0  0  0
    2.3218   50.5155   22.9178 H   0  0  0  0  0  0
    0.4155   51.4559   23.0501 C   0  0  0  0  0  0
    0.3556   51.0826   24.4012 C   0  0  0  0  0  0
   -0.7469   51.3998   25.1958 C   0  0  0  0  0  0
   -1.8287   52.0713   24.6284 C   0  0  0  0  0  0
   -1.8144   52.3958   23.2743 C   0  0  0  0  0  0
   -0.7122   52.0744   22.4730 C   0  0  0  0  0  0
   -0.7971   52.3460   20.9799 C   0  0  0  0  0  0
   -0.7645   51.0038   26.6612 C   0  0  0  0  0  0
    3.0064   53.2963   22.8230 C   0  0  0  0  0  0
    3.9317   54.0971   22.2629 C   0  0  0  0  0  0
    4.3045   53.7191   20.5993 S   0  0  0  0  0  0
    2.6696   53.4098   24.2368 C   0  0  0  0  0  0
    3.5046   53.7421   25.2400 C   0  0  0  0  0  0
    4.7429   54.0965   25.2256 O   0  5  0  0  0  0
    3.0584   53.6975   26.5363 N   0  0  0  0  0  0
    3.2298   54.7426   27.5329 C   0  0  0  0  0  0
    2.2721   54.6211   28.7081 C   0  0  0  0  0  0
    1.7181   53.3999   29.1239 C   0  0  0  0  0  0
    0.8486   53.3717   30.2158 C   0  0  0  0  0  0
    0.5626   54.5718   30.8658 C   0  0  0  0  0  0
    1.0928   55.7635   30.4841 N   0  0  0  0  0  0
    1.9253   55.7745   29.4172 C   0  0  0  0  0  0
    1.9508   49.9231   18.4167 C   0  0  0  0  0  0
   -2.2079   46.6571   19.0917 H   0  0  0  0  0  0
   -1.2969   47.9070   18.2487 H   0  0  0  0  0  0
   -2.0531   48.2628   19.8008 H   0  0  0  0  0  0
   -0.4955   46.6091   20.9214 H   0  0  0  0  0  0
    0.2398   46.2653   19.3731 H   0  0  0  0  0  0
    1.1852   50.5598   24.8487 H   0  0  0  0  0  0
   -2.6917   52.3207   25.2284 H   0  0  0  0  0  0
   -2.6790   52.8798   22.8454 H   0  0  0  0  0  0
   -1.6961   52.8966   20.7201 H   0  0  0  0  0  0
    0.0766   52.8965   20.6328 H   0  0  0  0  0  0
   -0.8392   51.4127   20.4218 H   0  0  0  0  0  0
   -1.7529   51.1190   27.1091 H   0  0  0  0  0  0
   -0.4815   49.9556   26.7712 H   0  0  0  0  0  0
   -0.0464   51.5997   27.2255 H   0  0  0  0  0  0
    4.4607   54.8946   22.7603 H   0  0  0  0  0  0
    1.6514   53.2116   24.5182 H   0  0  0  0  0  0
    3.0776   52.7802   26.9520 H   0  0  0  0  0  0
    4.2523   54.7182   27.9127 H   0  0  0  0  0  0
    3.1043   55.6965   27.0313 H   0  0  0  0  0  0
    1.9534   52.4786   28.6124 H   0  0  0  0  0  0
    0.4079   52.4438   30.5532 H   0  0  0  0  0  0
   -0.0961   54.5870   31.7223 H   0  0  0  0  0  0
    2.3222   56.7414   29.1419 H   0  0  0  0  0  0
    2.5286   49.0004   18.3789 H   0  0  0  0  0  0
    0.9078   49.7001   18.1965 H   0  0  0  0  0  0
    2.3032   50.5568   17.5998 H   0  0  0  0  0  0
  1  2  1  0  0  0
  1 36  1  0  0  0
  1 37  1  0  0  0
  1 38  1  0  0  0
  2  3  1  0  0  0
  2 39  1  0  0  0
  2 40  1  0  0  0
  3  4  1  0  0  0
  4  5  2  0  0  0
  4  6  1  0  0  0
  6 11  1  0  0  0
  6  7  2  0  0  0
  7  8  1  0  0  0
  7 35  1  0  0  0
  8  9  2  0  0  0
  9 23  1  0  0  0
  9 10  1  0  0  0
 10 11  1  0  0  0
 10 21  1  0  0  0
 11 12  1  0  0  0
 11 13  1  0  0  0
 13 18  2  0  0  0
 13 14  1  0  0  0
 14 15  2  0  0  0
 14 41  1  0  0  0
 15 16  1  0  0  0
 15 20  1  0  0  0
 16 17  2  0  0  0
 16 42  1  0  0  0
 17 18  1  0  0  0
 17 43  1  0  0  0
 18 19  1  0  0  0
 19 44  1  0  0  0
 19 45  1  0  0  0
 19 46  1  0  0  0
 20 47  1  0  0  0
 20 48  1  0  0  0
 20 49  1  0  0  0
 21 22  2  0  0  0
 21 24  1  0  0  0
 22 23  1  0  0  0
 22 50  1  0  0  0
 24 25  2  0  0  0
 24 51  1  0  0  0
 25 26  1  0  0  0
 25 27  1  0  0  0
 27 28  1  0  0  0
 27 52  1  0  0  0
 28 29  1  0  0  0
 28 53  1  0  0  0
 28 54  1  0  0  0
 29 34  2  0  0  0
 29 30  1  0  0  0
 30 31  2  0  0  0
 30 55  1  0  0  0
 31 32  1  0  0  0
 31 56  1  0  0  0
 32 33  2  0  0  0
 32 57  1  0  0  0
 33 34  1  0  0  0
 34 58  1  0  0  0
 35 59  1  0  0  0
 35 60  1  0  0  0
 35 61  1  0  0  0
M  CHG  1  26  -1
M  END
> <i_i_glide_confnum>
55

> <i_i_glide_lignum>
5955

> <i_i_glide_posenum>
292

> <i_i_glide_rotatable_bonds>
8

> <i_m_Source_File_Index>
2051

> <b_m_subgroup_collapsed>
0

> <r_i_docking_score>
-4.14616

> <r_i_glide_ecoul>
1.02454

> <r_i_glide_eff_state_penalty>
0

> <r_i_glide_einternal>
12.2142

> <r_i_glide_emodel>
-46.9686

> <r_i_glide_energy>
-41.3446

> <r_i_glide_erotb>
0.53701

> <r_i_glide_esite>
-0.0104926

> <r_i_glide_evdw>
-42.3691

> <r_i_glide_gscore>
-4.14616

> <r_i_glide_hbond>
0

> <r_i_glide_ligand_efficiency>
-0.121946

> <r_i_glide_ligand_efficiency_ln>
-0.916004

> <r_i_glide_ligand_efficiency_sa>
-0.395058

> <r_i_glide_lipo>
-2.41404

> <r_i_glide_metal>
0

> <r_i_glide_rewards>
-0.293861

> <s_i_glide_gridfile>
wee1_glide-grid

> <s_m_Source_File>
wee1_decoys_glide_SP.sdf

> <s_m_Source_Path>
/Users/zhangxujun/Desktop

> <s_m_entry_id>
2326

> <s_m_entry_name>
wee1_decoys_glide_SP.2051

> <s_m_subgroup_title>
wee1_decoys_glide_SP

> <s_m_subgroupid>
wee1_decoys_glide_SP


$$$$
