ZINC35300569_5500
                    3D
 Schrodinger Suite 2024-2.
 58 60  0  0  1  0            999 V2000
    7.2187   58.8678   16.6888 C   0  0  0  0  0  0
    6.6772   57.9660   17.8117 C   0  0  0  0  0  0
    7.0817   56.4725   17.6667 C   0  0  1  0  0  0
    6.8744   56.2085   16.6276 H   0  0  0  0  0  0
    8.6066   56.2769   17.8254 C   0  0  0  0  0  0
    6.2266   55.4641   18.5164 C   0  0  1  0  0  0
    6.6131   54.4675   18.2924 H   0  0  0  0  0  0
    6.3929   55.6122   20.0574 C   0  0  0  0  0  0
    7.1050   56.4971   20.5312 O   0  0  0  0  0  0
    5.7065   54.7181   20.8039 N   0  0  0  0  0  0
    5.7319   54.6439   22.1890 C   0  0  0  0  0  0
    6.7051   55.0056   22.9987 N   0  0  0  0  0  0
    6.3596   54.8668   24.3389 N   0  0  0  0  0  0
    5.1414   54.4013   24.5159 C   0  0  0  0  0  0
    4.3048   54.0953   23.0091 S   0  0  0  0  0  0
    4.5205   54.0971   25.8525 C   0  0  0  0  0  0
    5.3085   54.0526   27.0068 C   0  0  0  0  0  0
    4.7537   53.6909   28.2322 C   0  0  0  0  0  0
    3.3932   53.3618   28.3479 C   0  0  0  0  0  0
    2.6008   53.4639   27.1942 C   0  0  0  0  0  0
    3.1536   53.8235   25.9682 C   0  0  0  0  0  0
    2.8399   52.9300   29.5897 N   0  0  0  0  0  0
    1.4523   52.4709   29.6649 C   0  0  0  0  0  0
    3.7272   52.5291   30.6824 C   0  0  0  0  0  0
    4.8111   55.5100   18.1261 N   0  0  0  0  0  0
    4.2088   54.6952   17.2409 C   0  0  0  0  0  0
    4.7789   53.7701   16.6650 O   0  0  0  0  0  0
    2.7417   54.9606   17.0234 C   0  0  0  0  0  0
    1.8397   53.8885   16.9925 C   0  0  0  0  0  0
    0.4696   54.1315   16.9066 C   0  0  0  0  0  0
    0.0006   55.4417   16.8343 C   0  0  0  0  0  0
    0.8929   56.5098   16.7918 C   0  0  0  0  0  0
    2.2620   56.2708   16.8812 C   0  0  0  0  0  0
   -1.8729   55.7769   16.8409 Br  0  0  0  0  0  0
    6.5381   59.6940   16.4809 H   0  0  0  0  0  0
    8.1790   59.3040   16.9659 H   0  0  0  0  0  0
    7.3596   58.3215   15.7565 H   0  0  0  0  0  0
    5.5916   58.0624   17.8282 H   0  0  0  0  0  0
    7.0199   58.3588   18.7681 H   0  0  0  0  0  0
    8.9708   56.5966   18.8030 H   0  0  0  0  0  0
    8.8843   55.2304   17.6957 H   0  0  0  0  0  0
    9.1565   56.8486   17.0768 H   0  0  0  0  0  0
    5.0872   54.0837   20.3210 H   0  0  0  0  0  0
    6.3658   54.2721   26.9595 H   0  0  0  0  0  0
    5.4128   53.6581   29.0846 H   0  0  0  0  0  0
    1.5471   53.2356   27.2112 H   0  0  0  0  0  0
    2.5023   53.8634   25.1098 H   0  0  0  0  0  0
    0.7669   53.2039   29.2379 H   0  0  0  0  0  0
    1.3306   51.5425   29.1051 H   0  0  0  0  0  0
    1.1344   52.2860   30.6928 H   0  0  0  0  0  0
    4.3039   53.3838   31.0279 H   0  0  0  0  0  0
    3.1805   52.1285   31.5380 H   0  0  0  0  0  0
    4.4287   51.7625   30.3477 H   0  0  0  0  0  0
    4.2618   56.2322   18.5665 H   0  0  0  0  0  0
    2.1945   52.8692   17.0791 H   0  0  0  0  0  0
   -0.2241   53.3033   16.9202 H   0  0  0  0  0  0
    0.5271   57.5243   16.7259 H   0  0  0  0  0  0
    2.9386   57.1148   16.8726 H   0  0  0  0  0  0
  1  2  1  0  0  0
  1 35  1  0  0  0
  1 36  1  0  0  0
  1 37  1  0  0  0
  2  3  1  0  0  0
  2 38  1  0  0  0
  2 39  1  0  0  0
  3  4  1  0  0  0
  3  5  1  0  0  0
  3  6  1  0  0  0
  5 40  1  0  0  0
  5 41  1  0  0  0
  5 42  1  0  0  0
  6  7  1  0  0  0
  6  8  1  0  0  0
  6 25  1  0  0  0
  8  9  2  0  0  0
  8 10  1  0  0  0
 10 11  1  0  0  0
 10 43  1  0  0  0
 11 15  1  0  0  0
 11 12  2  0  0  0
 12 13  1  0  0  0
 13 14  2  0  0  0
 14 15  1  0  0  0
 14 16  1  0  0  0
 16 21  2  0  0  0
 16 17  1  0  0  0
 17 18  2  0  0  0
 17 44  1  0  0  0
 18 19  1  0  0  0
 18 45  1  0  0  0
 19 20  2  0  0  0
 19 22  1  0  0  0
 20 21  1  0  0  0
 20 46  1  0  0  0
 21 47  1  0  0  0
 22 23  1  0  0  0
 22 24  1  0  0  0
 23 48  1  0  0  0
 23 49  1  0  0  0
 23 50  1  0  0  0
 24 51  1  0  0  0
 24 52  1  0  0  0
 24 53  1  0  0  0
 25 26  1  0  0  0
 25 54  1  0  0  0
 26 27  2  0  0  0
 26 28  1  0  0  0
 28 33  2  0  0  0
 28 29  1  0  0  0
 29 30  2  0  0  0
 29 55  1  0  0  0
 30 31  1  0  0  0
 30 56  1  0  0  0
 31 32  2  0  0  0
 31 34  1  0  0  0
 32 33  1  0  0  0
 32 57  1  0  0  0
 33 58  1  0  0  0
M  END
> <i_i_glide_confnum>
203

> <i_i_glide_lignum>
5501

> <i_i_glide_posenum>
110

> <i_i_glide_rotatable_bonds>
10

> <i_m_Source_File_Index>
4914

> <b_m_subgroup_collapsed>
0

> <r_i_docking_score>
-5.57292

> <r_i_glide_ecoul>
-3.90615

> <r_i_glide_eff_state_penalty>
0

> <r_i_glide_einternal>
7.58397

> <r_i_glide_emodel>
-63.6886

> <r_i_glide_energy>
-49.7269

> <r_i_glide_erotb>
0.53868

> <r_i_glide_esite>
-0.00230642

> <r_i_glide_evdw>
-45.8207

> <r_i_glide_gscore>
-5.57292

> <r_i_glide_hbond>
-0.277034

> <r_i_glide_ligand_efficiency>
-0.174154

> <r_i_glide_ligand_efficiency_ln>
-1.24793

> <r_i_glide_ligand_efficiency_sa>
-0.552903

> <r_i_glide_lipo>
-2.50502

> <r_i_glide_metal>
0

> <r_i_glide_rewards>
-0.450276

> <s_i_glide_gridfile>
wee1_glide-grid

> <s_m_Source_File>
wee1_decoys_glide_SP.sdf

> <s_m_Source_Path>
/Users/zhangxujun/Desktop

> <s_m_entry_id>
5189

> <s_m_entry_name>
wee1_decoys_glide_SP.4914

> <s_m_subgroup_title>
wee1_decoys_glide_SP

> <s_m_subgroupid>
wee1_decoys_glide_SP


$$$$
