ZINC63472946_1258
                    3D
 Schrodinger Suite 2024-2.
 64 70  0  0  1  0            999 V2000
    4.1947   52.3385   29.7708 C   0  0  0  0  0  0
    3.5069   52.0983   31.0357 C   0  0  0  0  0  0
    2.1476   52.0983   31.1220 C   0  0  0  0  0  0
    1.3664   52.2914   29.9725 C   0  0  0  0  0  0
    0.0629   52.2924   29.8230 N   0  3  0  0  0  0
   -0.2790   52.5223   28.4006 C   0  0  0  0  0  0
    1.0899   52.6910   27.7717 C   0  0  0  0  0  0
    1.9917   52.5142   28.7456 C   0  0  0  0  0  0
    3.4535   52.5521   28.6740 C   0  0  0  0  0  0
    1.3499   53.0045   26.3082 C   0  0  0  0  0  0
    0.2914   52.5899   25.2692 C   0  0  1  0  0  0
   -0.6384   53.0331   25.6175 H   0  0  0  0  0  0
    0.5120   53.0582   23.8080 C   0  0  2  0  0  0
    0.1294   54.0703   23.6817 H   0  0  0  0  0  0
   -0.1759   52.0296   22.9521 C   0  0  1  0  0  0
   -0.9357   52.4974   22.3248 H   0  0  0  0  0  0
    0.9280   51.5218   22.0190 C   0  0  0  0  0  0
    0.7196   50.6781   21.1485 O   0  0  0  0  0  0
    2.0912   52.1821   22.2879 N   0  0  0  0  0  0
    1.9639   53.0540   23.3315 C   0  0  0  0  0  0
    2.8211   53.7834   23.8330 O   0  0  0  0  0  0
    3.3888   51.8423   21.5950 C   0  0  0  0  0  0
    3.3281   51.6357   20.0455 C   0  0  0  0  0  0
    2.9989   52.9320   19.2831 C   0  0  0  0  0  0
    4.0598   54.0163   19.5643 C   0  0  0  0  0  0
    4.3494   54.1904   21.0716 C   0  0  0  0  0  0
    4.5938   52.8279   21.7667 C   0  0  0  0  0  0
   -0.8205   51.0285   23.9866 C   0  0  1  0  0  0
    0.0270   51.1717   25.1707 N   0  0  0  0  0  0
   -2.2914   51.2892   24.2048 C   0  0  0  0  0  0
   -2.9928   52.4631   24.4885 C   0  0  0  0  0  0
   -4.3813   52.4284   24.6346 C   0  0  0  0  0  0
   -5.0725   51.2179   24.4903 C   0  0  0  0  0  0
   -4.3751   50.0460   24.1887 C   0  0  0  0  0  0
   -2.9880   50.1052   24.0422 C   0  0  0  0  0  0
   -2.0998   49.0929   23.7167 N   0  0  0  0  0  0
   -0.8223   49.5091   23.6340 C   0  0  0  0  0  0
    0.1464   48.8014   23.3735 O   0  0  0  0  0  0
   -5.2416   53.8869   24.9807 Cl  0  0  0  0  0  0
    5.2684   52.3627   29.6826 H   0  0  0  0  0  0
    4.0957   51.9454   31.9306 H   0  0  0  0  0  0
    1.6856   51.9367   32.0878 H   0  0  0  0  0  0
   -0.8324   51.6513   28.0448 H   0  0  0  0  0  0
   -0.8914   53.4188   28.3310 H   0  0  0  0  0  0
    3.9734   52.7289   27.7403 H   0  0  0  0  0  0
    1.5043   54.0817   26.2420 H   0  0  0  0  0  0
    2.3050   52.5451   26.0490 H   0  0  0  0  0  0
    3.6851   50.8927   22.0451 H   0  0  0  0  0  0
    4.3007   51.2966   19.6894 H   0  0  0  0  0  0
    2.6630   50.8237   19.7537 H   0  0  0  0  0  0
    2.9590   52.7257   18.2126 H   0  0  0  0  0  0
    2.0091   53.2964   19.5568 H   0  0  0  0  0  0
    4.9856   53.7432   19.0574 H   0  0  0  0  0  0
    3.7478   54.9654   19.1298 H   0  0  0  0  0  0
    5.2188   54.8359   21.2088 H   0  0  0  0  0  0
    3.5139   54.7140   21.5356 H   0  0  0  0  0  0
    4.8569   52.9606   22.8152 H   0  0  0  0  0  0
    5.4889   52.3764   21.3384 H   0  0  0  0  0  0
   -0.4440   50.8101   25.9897 H   0  0  0  0  0  0
   -2.4805   53.4113   24.5764 H   0  0  0  0  0  0
   -6.1473   51.1929   24.6002 H   0  0  0  0  0  0
   -4.9164   49.1185   24.0666 H   0  0  0  0  0  0
   -2.3584   48.1296   23.5777 H   0  0  0  0  0  0
   -0.6145   52.1295   30.5693 H   0  0  0  0  0  0
  1  9  2  0  0  0
  1  2  1  0  0  0
  1 40  1  0  0  0
  2  3  2  0  0  0
  2 41  1  0  0  0
  3  4  1  0  0  0
  3 42  1  0  0  0
  4  8  1  0  0  0
  4  5  2  0  0  0
  5  6  1  0  0  0
  5 64  1  0  0  0
  6  7  1  0  0  0
  6 43  1  0  0  0
  6 44  1  0  0  0
  7  8  2  0  0  0
  7 10  1  0  0  0
  8  9  1  0  0  0
  9 45  1  0  0  0
 10 11  1  0  0  0
 10 46  1  0  0  0
 10 47  1  0  0  0
 11 12  1  0  0  0
 11 29  1  0  0  0
 11 13  1  0  0  0
 13 14  1  0  0  0
 13 20  1  0  0  0
 13 15  1  0  0  0
 15 16  1  0  0  0
 15 17  1  0  0  0
 15 28  1  0  0  0
 17 18  2  0  0  0
 17 19  1  0  0  0
 19 20  1  0  0  0
 19 22  1  0  0  0
 20 21  2  0  0  0
 22 27  1  0  0  0
 22 23  1  0  0  0
 22 48  1  0  0  0
 23 24  1  0  0  0
 23 49  1  0  0  0
 23 50  1  0  0  0
 24 25  1  0  0  0
 24 51  1  0  0  0
 24 52  1  0  0  0
 25 26  1  0  0  0
 25 53  1  0  0  0
 25 54  1  0  0  0
 26 27  1  0  0  0
 26 55  1  0  0  0
 26 56  1  0  0  0
 27 57  1  0  0  0
 27 58  1  0  0  0
 28 37  1  0  0  0
 28 29  1  0  0  0
 28 30  1  0  0  0
 29 59  1  0  0  0
 30 35  2  0  0  0
 30 31  1  0  0  0
 31 32  2  0  0  0
 31 60  1  0  0  0
 32 33  1  0  0  0
 32 39  1  0  0  0
 33 34  2  0  0  0
 33 61  1  0  0  0
 34 35  1  0  0  0
 34 62  1  0  0  0
 35 36  1  0  0  0
 36 37  1  0  0  0
 36 63  1  0  0  0
 37 38  2  0  0  0
M  CHG  1   5   1
M  END
> <i_i_glide_confnum>
25

> <i_i_glide_lignum>
1259

> <i_i_glide_posenum>
345

> <i_i_glide_rotatable_bonds>
3

> <i_m_Source_File_Index>
3493

> <b_m_subgroup_collapsed>
0

> <r_i_docking_score>
-3.92788

> <r_i_glide_ecoul>
-0.249083

> <r_i_glide_eff_state_penalty>
0

> <r_i_glide_einternal>
2.43901

> <r_i_glide_emodel>
-48.9855

> <r_i_glide_energy>
-38.6272

> <r_i_glide_erotb>
0.241446

> <r_i_glide_esite>
-0.0300972

> <r_i_glide_evdw>
-38.3781

> <r_i_glide_gscore>
-3.92788

> <r_i_glide_hbond>
0

> <r_i_glide_ligand_efficiency>
-0.109108

> <r_i_glide_ligand_efficiency_ln>
-0.856958

> <r_i_glide_ligand_efficiency_sa>
-0.360266

> <r_i_glide_lipo>
-1.75784

> <r_i_glide_metal>
0

> <r_i_glide_rewards>
-0.425121

> <s_i_glide_gridfile>
wee1_glide-grid

> <s_m_Source_File>
wee1_decoys_glide_SP.sdf

> <s_m_Source_Path>
/Users/zhangxujun/Desktop

> <s_m_entry_id>
3768

> <s_m_entry_name>
wee1_decoys_glide_SP.3493

> <s_m_subgroup_title>
wee1_decoys_glide_SP

> <s_m_subgroupid>
wee1_decoys_glide_SP


$$$$
