ZINC07298559_1420
                    3D
 Schrodinger Suite 2024-2.
 50 52  0  0  1  0            999 V2000
    4.9539   54.2098   28.5047 C   0  0  0  0  0  0
    5.1868   54.2962   27.0067 C   0  0  0  0  0  0
    6.4872   54.3939   26.5150 C   0  0  0  0  0  0
    6.7033   54.4948   25.1430 C   0  0  0  0  0  0
    5.6276   54.4975   24.2454 C   0  0  0  0  0  0
    4.3257   54.4057   24.7528 C   0  0  0  0  0  0
    4.1053   54.3052   26.1253 C   0  0  0  0  0  0
    5.9059   54.6683   22.7755 C   0  0  0  0  0  0
    6.9673   55.2965   22.3234 N   0  0  0  0  0  0
    6.9100   55.3030   20.9382 N   0  0  0  0  0  0
    5.8260   54.6569   20.5891 C   0  0  0  0  0  0
    5.1282   54.2520   21.7077 N   0  0  0  0  0  0
    3.9308   53.5528   21.7196 N   0  0  0  0  0  0
    5.3642   54.2700   18.9249 S   0  0  0  0  0  0
    5.8673   55.7569   17.9726 C   0  0  1  0  0  0
    5.4678   55.6197   16.9686 H   0  0  0  0  0  0
    5.1856   57.0431   18.4807 C   0  0  0  0  0  0
    7.4058   55.9074   17.8150 C   0  0  0  0  0  0
    7.9588   56.8329   18.4186 O   0  0  0  0  0  0
    8.1160   55.0384   17.0378 N   0  0  0  0  0  0
    7.5099   53.8561   16.3938 C   0  0  0  0  0  0
    9.5949   55.1667   16.9665 C   0  0  1  0  0  0
    9.9420   56.0937   17.4303 H   0  0  0  0  0  0
   10.3076   54.0209   17.7235 C   0  0  0  0  0  0
   11.8170   54.1013   17.4605 C   0  0  0  0  0  0
   11.9639   54.6737   15.6862 S   0  0  0  0  0  0
   12.2213   53.5334   14.8016 O   0  0  0  0  0  0
   12.8213   55.8628   15.6429 O   0  0  0  0  0  0
   10.1644   55.1734   15.5304 C   0  0  0  0  0  0
    5.6764   54.8252   29.0433 H   0  0  0  0  0  0
    3.9658   54.5821   28.7736 H   0  0  0  0  0  0
    5.0532   53.1808   28.8485 H   0  0  0  0  0  0
    7.3284   54.3894   27.1936 H   0  0  0  0  0  0
    7.7152   54.5651   24.7748 H   0  0  0  0  0  0
    3.4732   54.4351   24.0933 H   0  0  0  0  0  0
    3.0945   54.2410   26.5009 H   0  0  0  0  0  0
    3.1830   54.0796   21.2870 H   0  0  0  0  0  0
    4.0379   52.6362   21.3110 H   0  0  0  0  0  0
    5.4186   57.9005   17.8461 H   0  0  0  0  0  0
    4.1020   56.9254   18.4809 H   0  0  0  0  0  0
    5.5040   57.2961   19.4930 H   0  0  0  0  0  0
    6.4218   53.8501   16.3985 H   0  0  0  0  0  0
    7.7945   53.7816   15.3449 H   0  0  0  0  0  0
    7.8261   52.9398   16.8947 H   0  0  0  0  0  0
    9.9332   53.0442   17.4156 H   0  0  0  0  0  0
   10.0854   54.0971   18.7894 H   0  0  0  0  0  0
   12.4070   53.2012   17.6249 H   0  0  0  0  0  0
   12.2304   54.8965   18.0817 H   0  0  0  0  0  0
    9.9886   56.0330   14.8855 H   0  0  0  0  0  0
    9.7506   54.3214   14.9982 H   0  0  0  0  0  0
  1  2  1  0  0  0
  1 30  1  0  0  0
  1 31  1  0  0  0
  1 32  1  0  0  0
  2  7  2  0  0  0
  2  3  1  0  0  0
  3  4  2  0  0  0
  3 33  1  0  0  0
  4  5  1  0  0  0
  4 34  1  0  0  0
  5  6  2  0  0  0
  5  8  1  0  0  0
  6  7  1  0  0  0
  6 35  1  0  0  0
  7 36  1  0  0  0
  8 12  1  0  0  0
  8  9  2  0  0  0
  9 10  1  0  0  0
 10 11  2  0  0  0
 11 12  1  0  0  0
 11 14  1  0  0  0
 12 13  1  0  0  0
 13 37  1  0  0  0
 13 38  1  0  0  0
 14 15  1  0  0  0
 15 16  1  0  0  0
 15 17  1  0  0  0
 15 18  1  0  0  0
 17 39  1  0  0  0
 17 40  1  0  0  0
 17 41  1  0  0  0
 18 19  2  0  0  0
 18 20  1  0  0  0
 20 21  1  0  0  0
 20 22  1  0  0  0
 21 42  1  0  0  0
 21 43  1  0  0  0
 21 44  1  0  0  0
 22 23  1  0  0  0
 22 29  1  0  0  0
 22 24  1  0  0  0
 24 25  1  0  0  0
 24 45  1  0  0  0
 24 46  1  0  0  0
 25 26  1  0  0  0
 25 47  1  0  0  0
 25 48  1  0  0  0
 26 27  2  0  0  0
 26 28  2  0  0  0
 26 29  1  0  0  0
 29 49  1  0  0  0
 29 50  1  0  0  0
M  END
> <i_i_glide_confnum>
138

> <i_i_glide_lignum>
1421

> <i_i_glide_posenum>
136

> <i_i_glide_rotatable_bonds>
6

> <i_m_Source_File_Index>
4248

> <b_m_subgroup_collapsed>
0

> <r_i_docking_score>
-5.04402

> <r_i_glide_ecoul>
-2.75029

> <r_i_glide_eff_state_penalty>
0

> <r_i_glide_einternal>
3.63332

> <r_i_glide_emodel>
-48.4468

> <r_i_glide_energy>
-38.1235

> <r_i_glide_erotb>
0.587062

> <r_i_glide_esite>
0

> <r_i_glide_evdw>
-35.3732

> <r_i_glide_gscore>
-5.04402

> <r_i_glide_hbond>
-0.00318811

> <r_i_glide_ligand_efficiency>
-0.186815

> <r_i_glide_ligand_efficiency_ln>
-1.17416

> <r_i_glide_ligand_efficiency_sa>
-0.560446

> <r_i_glide_lipo>
-2.08057

> <r_i_glide_metal>
0

> <r_i_glide_rewards>
-1.36612

> <s_i_glide_gridfile>
wee1_glide-grid

> <s_m_Source_File>
wee1_decoys_glide_SP.sdf

> <s_m_Source_Path>
/Users/zhangxujun/Desktop

> <s_m_entry_id>
4523

> <s_m_entry_name>
wee1_decoys_glide_SP.4248

> <s_m_subgroup_title>
wee1_decoys_glide_SP

> <s_m_subgroupid>
wee1_decoys_glide_SP


$$$$
