ZINC23377508_2144
                    3D
 Schrodinger Suite 2024-2.
 57 59  0  0  1  0            999 V2000
    4.0137   54.4967   24.7107 C   0  0  0  0  0  0
    4.1575   54.3733   26.0904 C   0  0  0  0  0  0
    5.4126   54.1076   26.6422 C   0  0  0  0  0  0
    6.5270   54.0216   25.8031 C   0  0  0  0  0  0
    6.3781   54.0981   24.4221 C   0  0  0  0  0  0
    5.1162   54.3155   23.8670 C   0  0  0  0  0  0
    4.9779   54.4125   22.3464 C   0  0  0  0  0  0
    4.3607   53.2544   21.6808 N   0  0  0  0  0  0
    2.9273   53.1424   22.0271 C   0  0  0  0  0  0
    2.1542   52.1172   21.1677 C   0  0  0  0  0  0
    2.3876   52.4524   19.6774 N   0  3  0  0  0  0
    3.9010   52.3235   19.4116 C   0  0  0  0  0  0
    4.5985   53.4175   20.2353 C   0  0  0  0  0  0
    1.5673   51.5393   18.7279 C   0  0  0  0  0  0
    0.1904   52.1890   18.5246 C   0  0  0  0  0  0
   -0.6519   52.0967   19.4223 O   0  0  0  0  0  0
    0.0378   52.8721   17.3659 N   0  0  0  0  0  0
   -0.9333   53.7568   17.0537 C   0  0  0  0  0  0
   -1.9786   53.9389   17.6822 O   0  0  0  0  0  0
   -0.5779   54.4892   15.9823 N   0  0  0  0  0  0
   -0.9957   55.8615   15.6630 C   0  0  0  0  0  0
   -2.5025   56.0598   15.3835 C   0  0  0  0  0  0
   -2.8790   57.4302   15.9793 C   0  0  0  0  0  0
   -1.5635   58.0754   16.4283 C   0  0  0  0  0  0
   -0.6515   56.8943   16.7502 C   0  0  0  0  0  0
    5.5531   53.8726   28.1444 C   0  0  0  0  0  0
    6.8282   53.6970   28.4904 F   0  0  0  0  0  0
    5.0655   54.8967   28.8385 F   0  0  0  0  0  0
    4.8730   52.7813   28.4913 F   0  0  0  0  0  0
    3.0381   54.7175   24.3038 H   0  0  0  0  0  0
    3.2914   54.4670   26.7299 H   0  0  0  0  0  0
    7.5039   53.8304   26.2170 H   0  0  0  0  0  0
    7.2479   53.9867   23.7897 H   0  0  0  0  0  0
    5.9764   54.5843   21.9411 H   0  0  0  0  0  0
    4.4029   55.2966   22.0822 H   0  0  0  0  0  0
    2.4682   54.1103   21.8218 H   0  0  0  0  0  0
    2.7918   52.8719   23.0737 H   0  0  0  0  0  0
    1.0835   52.2205   21.3446 H   0  0  0  0  0  0
    2.4673   51.0857   21.3404 H   0  0  0  0  0  0
    4.2135   51.3115   19.6817 H   0  0  0  0  0  0
    4.0684   52.4945   18.3461 H   0  0  0  0  0  0
    5.6672   53.3880   20.0154 H   0  0  0  0  0  0
    4.1890   54.3798   19.9135 H   0  0  0  0  0  0
    1.5217   50.5431   19.1697 H   0  0  0  0  0  0
    2.1204   51.4674   17.7888 H   0  0  0  0  0  0
    0.8136   52.8219   16.7257 H   0  0  0  0  0  0
    0.1098   54.1005   15.3554 H   0  0  0  0  0  0
   -0.4653   56.2041   14.7717 H   0  0  0  0  0  0
   -3.1183   55.2891   15.8505 H   0  0  0  0  0  0
   -2.7098   56.0012   14.3131 H   0  0  0  0  0  0
   -3.5398   57.2958   16.8392 H   0  0  0  0  0  0
   -3.4115   58.0566   15.2602 H   0  0  0  0  0  0
   -1.6908   58.7372   17.2811 H   0  0  0  0  0  0
   -1.1361   58.6678   15.6170 H   0  0  0  0  0  0
    0.4089   57.1501   16.7672 H   0  0  0  0  0  0
   -0.8814   56.5117   17.7463 H   0  0  0  0  0  0
    2.1108   53.4132   19.4986 H   0  0  0  0  0  0
  1  6  2  0  0  0
  1  2  1  0  0  0
  1 30  1  0  0  0
  2  3  2  0  0  0
  2 31  1  0  0  0
  3  4  1  0  0  0
  3 26  1  0  0  0
  4  5  2  0  0  0
  4 32  1  0  0  0
  5  6  1  0  0  0
  5 33  1  0  0  0
  6  7  1  0  0  0
  7  8  1  0  0  0
  7 34  1  0  0  0
  7 35  1  0  0  0
  8 13  1  0  0  0
  8  9  1  0  0  0
  9 10  1  0  0  0
  9 36  1  0  0  0
  9 37  1  0  0  0
 10 11  1  0  0  0
 10 38  1  0  0  0
 10 39  1  0  0  0
 11 12  1  0  0  0
 11 14  1  0  0  0
 11 57  1  0  0  0
 12 13  1  0  0  0
 12 40  1  0  0  0
 12 41  1  0  0  0
 13 42  1  0  0  0
 13 43  1  0  0  0
 14 15  1  0  0  0
 14 44  1  0  0  0
 14 45  1  0  0  0
 15 16  2  0  0  0
 15 17  1  0  0  0
 17 18  1  0  0  0
 17 46  1  0  0  0
 18 19  2  0  0  0
 18 20  1  0  0  0
 20 21  1  0  0  0
 20 47  1  0  0  0
 21 25  1  0  0  0
 21 22  1  0  0  0
 21 48  1  0  0  0
 22 23  1  0  0  0
 22 49  1  0  0  0
 22 50  1  0  0  0
 23 24  1  0  0  0
 23 51  1  0  0  0
 23 52  1  0  0  0
 24 25  1  0  0  0
 24 53  1  0  0  0
 24 54  1  0  0  0
 25 55  1  0  0  0
 25 56  1  0  0  0
 26 27  1  0  0  0
 26 28  1  0  0  0
 26 29  1  0  0  0
M  CHG  1  11   1
M  END
> <i_i_glide_confnum>
398

> <i_i_glide_lignum>
2145

> <i_i_glide_posenum>
386

> <i_i_glide_rotatable_bonds>
9

> <i_m_Source_File_Index>
1439

> <b_m_subgroup_collapsed>
0

> <r_i_docking_score>
-5.4897

> <r_i_glide_ecoul>
-7.76707

> <r_i_glide_eff_state_penalty>
0

> <r_i_glide_einternal>
11.249

> <r_i_glide_emodel>
-51.5019

> <r_i_glide_energy>
-39.6974

> <r_i_glide_erotb>
0.807848

> <r_i_glide_esite>
-0.0550939

> <r_i_glide_evdw>
-31.9304

> <r_i_glide_gscore>
-5.4897

> <r_i_glide_hbond>
0

> <r_i_glide_ligand_efficiency>
-0.1893

> <r_i_glide_ligand_efficiency_ln>
-1.257

> <r_i_glide_ligand_efficiency_sa>
-0.58159

> <r_i_glide_lipo>
-2.29778

> <r_i_glide_metal>
0

> <r_i_glide_rewards>
-1.1831

> <s_i_glide_gridfile>
wee1_glide-grid

> <s_m_Source_File>
wee1_decoys_glide_SP.sdf

> <s_m_Source_Path>
/Users/zhangxujun/Desktop

> <s_m_entry_id>
1714

> <s_m_entry_name>
wee1_decoys_glide_SP.1439

> <s_m_subgroup_title>
wee1_decoys_glide_SP

> <s_m_subgroupid>
wee1_decoys_glide_SP


$$$$
