ZINC39609217_3664
                    3D
 Schrodinger Suite 2024-2.
 68 71  0  0  1  0            999 V2000
    5.7306   54.2858   27.0452 C   0  0  0  0  0  0
    4.9394   54.2024   25.7462 C   0  0  0  0  0  0
    3.5427   54.1743   25.7979 C   0  0  0  0  0  0
    2.7941   54.0987   24.6250 C   0  0  0  0  0  0
    3.4290   54.0321   23.3808 C   0  0  0  0  0  0
    4.8243   54.0630   23.3278 C   0  0  0  0  0  0
    5.5838   54.1496   24.4980 C   0  0  0  0  0  0
    7.0977   54.1736   24.3883 C   0  0  0  0  0  0
    2.6255   54.0019   22.0832 C   0  0  0  0  0  0
    1.7391   52.7599   21.8320 C   0  0  0  0  0  0
    0.7356   52.5747   22.8739 N   0  0  0  0  0  0
   -0.5677   52.2937   22.7263 C   0  0  0  0  0  0
   -1.0998   52.0961   21.6335 O   0  0  0  0  0  0
   -1.3567   52.2312   24.0562 C   0  0  1  0  0  0
   -1.2625   53.2106   24.5297 H   0  0  0  0  0  0
   -2.8623   52.0106   23.7863 C   0  0  0  0  0  0
   -3.3408   51.4640   25.0628 N   0  0  0  0  0  0
   -2.2260   51.0019   25.8989 C   0  0  0  0  0  0
   -0.9711   51.0687   25.0028 C   0  0  0  0  0  0
   -0.7417   49.7200   24.2414 C   0  0  0  0  0  0
   -0.5054   48.5416   25.1991 C   0  0  0  0  0  0
    0.7047   48.8967   26.0818 N   0  3  0  0  0  0
    0.5749   50.2357   26.8410 C   0  0  0  0  0  0
    0.3313   51.3349   25.7986 C   0  0  0  0  0  0
   -4.6138   51.6808   25.4919 C   0  0  0  0  0  0
   -5.4359   52.2898   24.8041 O   0  0  0  0  0  0
   -5.0302   51.2177   26.8732 C   0  0  0  0  0  0
   -4.7027   49.9467   27.3700 C   0  0  0  0  0  0
   -5.0565   49.5729   28.6662 C   0  0  0  0  0  0
   -5.7835   50.4470   29.4837 C   0  0  0  0  0  0
   -6.1576   51.6965   28.9751 C   0  0  0  0  0  0
   -5.7959   52.0688   27.6808 C   0  0  0  0  0  0
   -6.8542   52.5699   29.7399 F   0  0  0  0  0  0
   -6.1728   50.0573   30.9083 C   0  0  0  0  0  0
   -5.7002   48.8597   31.2589 F   0  0  0  0  0  0
   -5.6957   50.9619   31.7622 F   0  0  0  0  0  0
   -7.5010   50.0272   31.0165 F   0  0  0  0  0  0
    6.3379   55.1915   27.0655 H   0  0  0  0  0  0
    5.0860   54.2910   27.9250 H   0  0  0  0  0  0
    6.4065   53.4337   27.1307 H   0  0  0  0  0  0
    3.0316   54.2292   26.7480 H   0  0  0  0  0  0
    1.7180   54.1301   24.6956 H   0  0  0  0  0  0
    5.3222   54.0270   22.3693 H   0  0  0  0  0  0
    7.4455   54.1745   23.3543 H   0  0  0  0  0  0
    7.5041   55.0573   24.8796 H   0  0  0  0  0  0
    7.5042   53.2964   24.8844 H   0  0  0  0  0  0
    2.0032   54.8931   22.0818 H   0  0  0  0  0  0
    3.2905   54.1332   21.2285 H   0  0  0  0  0  0
    1.3223   52.7785   20.8222 H   0  0  0  0  0  0
    2.3683   51.8700   21.8845 H   0  0  0  0  0  0
    1.0864   52.6563   23.8141 H   0  0  0  0  0  0
   -3.3268   52.9521   23.4863 H   0  0  0  0  0  0
   -2.9769   51.2238   23.0386 H   0  0  0  0  0  0
   -2.3408   50.0663   26.4372 H   0  0  0  0  0  0
   -2.1063   51.7588   26.6768 H   0  0  0  0  0  0
   -1.6185   49.4794   23.6385 H   0  0  0  0  0  0
    0.0831   49.7869   23.5299 H   0  0  0  0  0  0
   -1.3316   48.3223   25.8776 H   0  0  0  0  0  0
   -0.2349   47.6241   24.6756 H   0  0  0  0  0  0
    0.8085   48.1394   26.7515 H   0  0  0  0  0  0
   -0.2420   50.1168   27.5548 H   0  0  0  0  0  0
    1.5045   50.3820   27.3900 H   0  0  0  0  0  0
    1.1996   51.4392   25.1500 H   0  0  0  0  0  0
    0.2459   52.2845   26.3301 H   0  0  0  0  0  0
   -4.1747   49.2274   26.7617 H   0  0  0  0  0  0
   -4.7550   48.5989   29.0270 H   0  0  0  0  0  0
   -6.0938   53.0437   27.3204 H   0  0  0  0  0  0
    1.5434   48.8847   25.5149 H   0  0  0  0  0  0
  1  2  1  0  0  0
  1 38  1  0  0  0
  1 39  1  0  0  0
  1 40  1  0  0  0
  2  7  2  0  0  0
  2  3  1  0  0  0
  3  4  2  0  0  0
  3 41  1  0  0  0
  4  5  1  0  0  0
  4 42  1  0  0  0
  5  6  2  0  0  0
  5  9  1  0  0  0
  6  7  1  0  0  0
  6 43  1  0  0  0
  7  8  1  0  0  0
  8 44  1  0  0  0
  8 45  1  0  0  0
  8 46  1  0  0  0
  9 10  1  0  0  0
  9 47  1  0  0  0
  9 48  1  0  0  0
 10 11  1  0  0  0
 10 49  1  0  0  0
 10 50  1  0  0  0
 11 12  1  0  0  0
 11 51  1  0  0  0
 12 13  2  0  0  0
 12 14  1  0  0  0
 14 15  1  0  0  0
 14 19  1  0  0  0
 14 16  1  0  0  0
 16 17  1  0  0  0
 16 52  1  0  0  0
 16 53  1  0  0  0
 17 18  1  0  0  0
 17 25  1  0  0  0
 18 19  1  0  0  0
 18 54  1  0  0  0
 18 55  1  0  0  0
 19 24  1  0  0  0
 19 20  1  0  0  0
 20 21  1  0  0  0
 20 56  1  0  0  0
 20 57  1  0  0  0
 21 22  1  0  0  0
 21 58  1  0  0  0
 21 59  1  0  0  0
 22 23  1  0  0  0
 22 60  1  0  0  0
 22 68  1  0  0  0
 23 24  1  0  0  0
 23 61  1  0  0  0
 23 62  1  0  0  0
 24 63  1  0  0  0
 24 64  1  0  0  0
 25 26  2  0  0  0
 25 27  1  0  0  0
 27 32  2  0  0  0
 27 28  1  0  0  0
 28 29  2  0  0  0
 28 65  1  0  0  0
 29 30  1  0  0  0
 29 66  1  0  0  0
 30 31  2  0  0  0
 30 34  1  0  0  0
 31 32  1  0  0  0
 31 33  1  0  0  0
 32 67  1  0  0  0
 34 35  1  0  0  0
 34 36  1  0  0  0
 34 37  1  0  0  0
M  CHG  1  22   1
M  END
> <i_i_glide_confnum>
6

> <i_i_glide_lignum>
3665

> <i_i_glide_posenum>
169

> <i_i_glide_rotatable_bonds>
8

> <i_m_Source_File_Index>
4265

> <b_m_subgroup_collapsed>
0

> <r_i_docking_score>
-4.36126

> <r_i_glide_ecoul>
-6.4265

> <r_i_glide_eff_state_penalty>
0

> <r_i_glide_einternal>
5.46764

> <r_i_glide_emodel>
-51.623

> <r_i_glide_energy>
-40.4101

> <r_i_glide_erotb>
0.55817

> <r_i_glide_esite>
-0.217827

> <r_i_glide_evdw>
-33.9836

> <r_i_glide_gscore>
-4.36126

> <r_i_glide_hbond>
0

> <r_i_glide_ligand_efficiency>
-0.121146

> <r_i_glide_ligand_efficiency_ln>
-0.951508

> <r_i_glide_ligand_efficiency_sa>
-0.400015

> <r_i_glide_lipo>
-1.96119

> <r_i_glide_metal>
0

> <r_i_glide_rewards>
-0.0772487

> <s_i_glide_gridfile>
wee1_glide-grid

> <s_m_Source_File>
wee1_decoys_glide_SP.sdf

> <s_m_Source_Path>
/Users/zhangxujun/Desktop

> <s_m_entry_id>
4540

> <s_m_entry_name>
wee1_decoys_glide_SP.4265

> <s_m_subgroup_title>
wee1_decoys_glide_SP

> <s_m_subgroupid>
wee1_decoys_glide_SP


$$$$
