ZINC39657127_3678
                    3D
 Schrodinger Suite 2024-2.
 62 66  0  0  1  0            999 V2000
    1.9695   49.2131   21.2506 C   0  0  0  0  0  0
    1.5264   50.6664   21.4875 C   0  0  2  0  0  0
    0.6021   50.8381   20.9280 H   0  0  0  0  0  0
    2.5253   51.6643   20.8892 C   0  0  0  0  0  0
    2.6947   51.6818   19.5000 C   0  0  0  0  0  0
    3.5906   52.5660   18.9108 C   0  0  0  0  0  0
    4.3234   53.4405   19.7075 C   0  0  0  0  0  0
    4.1628   53.4400   21.0888 C   0  0  0  0  0  0
    3.2582   52.5613   21.6807 C   0  0  0  0  0  0
    5.5652   54.6426   18.9091 Br  0  0  0  0  0  0
    1.2162   50.8869   22.9056 N   0  0  0  0  0  0
    0.0718   50.5425   23.5271 C   0  0  0  0  0  0
   -0.8422   49.9813   22.9311 O   0  0  0  0  0  0
   -0.0742   50.8467   25.0447 C   0  0  1  0  0  0
    0.2590   49.9542   25.5764 H   0  0  0  0  0  0
    0.8389   52.0203   25.4458 C   0  0  0  0  0  0
    0.2797   52.4908   26.7079 N   0  0  0  0  0  0
   -1.0967   52.0048   26.8568 C   0  0  0  0  0  0
   -1.4835   51.2869   25.5416 C   0  0  0  0  0  0
   -2.4566   50.0978   25.7395 C   0  0  0  0  0  0
   -3.7349   50.5419   26.4729 C   0  0  0  0  0  0
   -4.4343   51.6208   25.6126 N   0  3  0  0  0  0
   -3.5370   52.8161   25.2057 C   0  0  0  0  0  0
   -2.2306   52.2716   24.5834 C   0  0  0  0  0  0
    0.9404   52.9212   27.8186 C   0  0  0  0  0  0
    0.3436   53.0515   28.8927 O   0  0  0  0  0  0
    2.3780   53.1780   27.8076 C   0  0  0  0  0  0
    3.0952   53.0208   28.9866 C   0  0  0  0  0  0
    4.7983   53.2827   28.8769 S   0  0  0  0  0  0
    4.6249   53.7171   27.2006 C   0  0  0  0  0  0
    3.2598   53.6639   26.7625 C   0  0  0  0  0  0
    3.0127   54.1089   25.4473 C   0  0  0  0  0  0
    4.0578   54.5041   24.6183 C   0  0  0  0  0  0
    5.3708   54.4974   25.0626 C   0  0  0  0  0  0
    5.6772   54.1076   26.3597 C   0  0  0  0  0  0
    2.1051   48.9909   20.1908 H   0  0  0  0  0  0
    2.9111   48.9941   21.7604 H   0  0  0  0  0  0
    1.2159   48.5261   21.6271 H   0  0  0  0  0  0
    2.1474   50.9979   18.8674 H   0  0  0  0  0  0
    3.7362   52.5550   17.8406 H   0  0  0  0  0  0
    4.7432   54.1196   21.6934 H   0  0  0  0  0  0
    3.1458   52.5855   22.7526 H   0  0  0  0  0  0
    1.9601   51.2846   23.4590 H   0  0  0  0  0  0
    1.8865   51.7290   25.4691 H   0  0  0  0  0  0
    0.6317   52.7936   24.7053 H   0  0  0  0  0  0
   -1.8111   52.7082   27.2764 H   0  0  0  0  0  0
   -1.0361   51.2061   27.6021 H   0  0  0  0  0  0
   -2.6758   49.5923   24.7992 H   0  0  0  0  0  0
   -1.9821   49.3410   26.3663 H   0  0  0  0  0  0
   -4.4486   49.7236   26.5883 H   0  0  0  0  0  0
   -3.5417   50.9783   27.4542 H   0  0  0  0  0  0
   -4.7689   51.1755   24.7692 H   0  0  0  0  0  0
   -4.1183   53.4045   24.4940 H   0  0  0  0  0  0
   -3.3830   53.4201   26.0998 H   0  0  0  0  0  0
   -1.5930   53.1314   24.3714 H   0  0  0  0  0  0
   -2.4388   51.8214   23.6128 H   0  0  0  0  0  0
    2.6895   52.7041   29.9388 H   0  0  0  0  0  0
    2.0090   54.2121   25.0777 H   0  0  0  0  0  0
    3.8374   54.8620   23.6228 H   0  0  0  0  0  0
    6.1611   54.8199   24.3985 H   0  0  0  0  0  0
    6.6961   54.1250   26.7189 H   0  0  0  0  0  0
   -5.2537   51.9569   26.0984 H   0  0  0  0  0  0
  1  2  1  0  0  0
  1 36  1  0  0  0
  1 37  1  0  0  0
  1 38  1  0  0  0
  2  3  1  0  0  0
  2  4  1  0  0  0
  2 11  1  0  0  0
  4  9  2  0  0  0
  4  5  1  0  0  0
  5  6  2  0  0  0
  5 39  1  0  0  0
  6  7  1  0  0  0
  6 40  1  0  0  0
  7  8  2  0  0  0
  7 10  1  0  0  0
  8  9  1  0  0  0
  8 41  1  0  0  0
  9 42  1  0  0  0
 11 12  1  0  0  0
 11 43  1  0  0  0
 12 13  2  0  0  0
 12 14  1  0  0  0
 14 15  1  0  0  0
 14 19  1  0  0  0
 14 16  1  0  0  0
 16 17  1  0  0  0
 16 44  1  0  0  0
 16 45  1  0  0  0
 17 18  1  0  0  0
 17 25  1  0  0  0
 18 19  1  0  0  0
 18 46  1  0  0  0
 18 47  1  0  0  0
 19 24  1  0  0  0
 19 20  1  0  0  0
 20 21  1  0  0  0
 20 48  1  0  0  0
 20 49  1  0  0  0
 21 22  1  0  0  0
 21 50  1  0  0  0
 21 51  1  0  0  0
 22 23  1  0  0  0
 22 52  1  0  0  0
 22 62  1  0  0  0
 23 24  1  0  0  0
 23 53  1  0  0  0
 23 54  1  0  0  0
 24 55  1  0  0  0
 24 56  1  0  0  0
 25 26  2  0  0  0
 25 27  1  0  0  0
 27 31  1  0  0  0
 27 28  2  0  0  0
 28 29  1  0  0  0
 28 57  1  0  0  0
 29 30  1  0  0  0
 30 35  2  0  0  0
 30 31  1  0  0  0
 31 32  2  0  0  0
 32 33  1  0  0  0
 32 58  1  0  0  0
 33 34  2  0  0  0
 33 59  1  0  0  0
 34 35  1  0  0  0
 34 60  1  0  0  0
 35 61  1  0  0  0
M  CHG  1  22   1
M  END
> <i_i_glide_confnum>
77

> <i_i_glide_lignum>
3679

> <i_i_glide_posenum>
96

> <i_i_glide_rotatable_bonds>
6

> <i_m_Source_File_Index>
1390

> <b_m_subgroup_collapsed>
0

> <r_i_docking_score>
-4.55709

> <r_i_glide_ecoul>
-0.0826381

> <r_i_glide_eff_state_penalty>
0

> <r_i_glide_einternal>
10.037

> <r_i_glide_emodel>
-52.4529

> <r_i_glide_energy>
-43.963

> <r_i_glide_erotb>
0.370087

> <r_i_glide_esite>
-0.0013301

> <r_i_glide_evdw>
-43.8804

> <r_i_glide_gscore>
-4.55709

> <r_i_glide_hbond>
0

> <r_i_glide_ligand_efficiency>
-0.138094

> <r_i_glide_ligand_efficiency_ln>
-1.01347

> <r_i_glide_ligand_efficiency_sa>
-0.44294

> <r_i_glide_lipo>
-2.40709

> <r_i_glide_metal>
0

> <r_i_glide_rewards>
-0.312339

> <s_i_glide_gridfile>
wee1_glide-grid

> <s_m_Source_File>
wee1_decoys_glide_SP.sdf

> <s_m_Source_Path>
/Users/zhangxujun/Desktop

> <s_m_entry_id>
1665

> <s_m_entry_name>
wee1_decoys_glide_SP.1390

> <s_m_subgroup_title>
wee1_decoys_glide_SP

> <s_m_subgroupid>
wee1_decoys_glide_SP


$$$$
