ZINC49504644_3185
                    3D
 Schrodinger Suite 2024-2.
 68 71  0  0  1  0            999 V2000
    0.4602   45.4190   17.6186 C   0  0  0  0  0  0
    1.0947   46.7376   17.6328 N   0  0  0  0  0  0
    2.3134   46.8978   16.8332 C   0  0  0  0  0  0
    0.8260   47.6557   18.6858 C   0  0  0  0  0  0
    1.5464   48.8523   18.8041 C   0  0  0  0  0  0
    1.3317   49.7197   19.8692 C   0  0  0  0  0  0
    0.4090   49.4104   20.8803 C   0  0  0  0  0  0
   -0.3810   48.2668   20.7112 C   0  0  0  0  0  0
   -0.1689   47.3996   19.6410 C   0  0  0  0  0  0
    0.2369   50.2776   22.1592 C   0  0  1  0  0  0
   -0.7693   50.6844   22.0419 H   0  0  0  0  0  0
    0.2394   49.3986   23.4661 C   0  0  0  0  0  0
   -0.0386   50.0784   24.7363 N   0  0  0  0  0  0
   -1.2194   50.6674   25.0423 C   0  0  0  0  0  0
   -2.1904   50.6448   24.2808 O   0  0  0  0  0  0
   -1.2547   51.4474   26.3186 C   0  0  0  0  0  0
   -2.0260   52.4007   26.4522 O   0  0  0  0  0  0
   -0.4112   51.0458   27.2956 N   0  0  0  0  0  0
   -0.2615   51.7006   28.6008 C   0  0  0  0  0  0
    1.1763   52.0888   28.8990 C   0  0  0  0  0  0
    2.1381   52.4951   27.9567 C   0  0  0  0  0  0
    3.3897   52.7483   28.5019 C   0  0  0  0  0  0
    3.4165   52.4979   30.2087 S   0  0  0  0  0  0
    1.7320   52.0976   30.1764 C   0  0  0  0  0  0
    1.1517   51.4472   22.1805 N   0  0  0  0  0  0
    0.7300   52.5885   23.0112 C   0  0  0  0  0  0
    1.7072   53.8040   22.9876 C   0  0  0  0  0  0
    3.1496   53.4865   22.9277 N   0  0  0  0  0  0
    3.3948   52.3429   22.0382 C   0  0  0  0  0  0
    2.5497   51.1291   22.4668 C   0  0  0  0  0  0
    4.1271   54.0114   23.7694 C   0  0  0  0  0  0
    5.4634   54.0726   23.3454 C   0  0  0  0  0  0
    6.4660   54.5087   24.2075 C   0  0  0  0  0  0
    6.1345   54.9006   25.4992 C   0  0  0  0  0  0
    4.8120   54.8848   25.9268 C   0  0  0  0  0  0
    3.8127   54.4396   25.0666 C   0  0  0  0  0  0
    7.1040   55.2952   26.3494 F   0  0  0  0  0  0
    0.7666   44.8452   18.4939 H   0  0  0  0  0  0
   -0.6272   45.5058   17.6428 H   0  0  0  0  0  0
    0.7287   44.8434   16.7304 H   0  0  0  0  0  0
    2.3017   47.8433   16.2896 H   0  0  0  0  0  0
    3.1943   46.9053   17.4768 H   0  0  0  0  0  0
    2.4475   46.0962   16.1067 H   0  0  0  0  0  0
    2.3040   49.1264   18.0843 H   0  0  0  0  0  0
    1.9252   50.6200   19.9031 H   0  0  0  0  0  0
   -1.1520   48.0176   21.4237 H   0  0  0  0  0  0
   -0.7833   46.5149   19.5860 H   0  0  0  0  0  0
    1.2007   48.8947   23.5612 H   0  0  0  0  0  0
   -0.5045   48.6048   23.3968 H   0  0  0  0  0  0
    0.7314   50.1525   25.3823 H   0  0  0  0  0  0
    0.1189   50.1977   27.1670 H   0  0  0  0  0  0
   -0.6157   50.9978   29.3573 H   0  0  0  0  0  0
   -0.8977   52.5806   28.6955 H   0  0  0  0  0  0
    1.9280   52.5776   26.9000 H   0  0  0  0  0  0
    4.2935   53.0333   27.9838 H   0  0  0  0  0  0
    1.2261   51.8608   31.1025 H   0  0  0  0  0  0
   -0.2875   52.8968   22.7688 H   0  0  0  0  0  0
    0.7599   52.2757   24.0511 H   0  0  0  0  0  0
    1.4646   54.4936   23.7950 H   0  0  0  0  0  0
    1.5185   54.3713   22.0815 H   0  0  0  0  0  0
    4.4405   52.0406   22.0807 H   0  0  0  0  0  0
    3.2209   52.6207   20.9970 H   0  0  0  0  0  0
    2.7034   50.8680   23.5137 H   0  0  0  0  0  0
    2.8737   50.2662   21.8855 H   0  0  0  0  0  0
    5.7361   53.7728   22.3447 H   0  0  0  0  0  0
    7.4967   54.5334   23.8808 H   0  0  0  0  0  0
    4.5664   55.2020   26.9294 H   0  0  0  0  0  0
    2.8009   54.3980   25.4363 H   0  0  0  0  0  0
  1  2  1  0  0  0
  1 38  1  0  0  0
  1 39  1  0  0  0
  1 40  1  0  0  0
  2  3  1  0  0  0
  2  4  1  0  0  0
  3 41  1  0  0  0
  3 42  1  0  0  0
  3 43  1  0  0  0
  4  9  2  0  0  0
  4  5  1  0  0  0
  5  6  2  0  0  0
  5 44  1  0  0  0
  6  7  1  0  0  0
  6 45  1  0  0  0
  7  8  2  0  0  0
  7 10  1  0  0  0
  8  9  1  0  0  0
  8 46  1  0  0  0
  9 47  1  0  0  0
 10 11  1  0  0  0
 10 12  1  0  0  0
 10 25  1  0  0  0
 12 13  1  0  0  0
 12 48  1  0  0  0
 12 49  1  0  0  0
 13 14  1  0  0  0
 13 50  1  0  0  0
 14 15  2  0  0  0
 14 16  1  0  0  0
 16 17  2  0  0  0
 16 18  1  0  0  0
 18 19  1  0  0  0
 18 51  1  0  0  0
 19 20  1  0  0  0
 19 52  1  0  0  0
 19 53  1  0  0  0
 20 24  2  0  0  0
 20 21  1  0  0  0
 21 22  2  0  0  0
 21 54  1  0  0  0
 22 23  1  0  0  0
 22 55  1  0  0  0
 23 24  1  0  0  0
 24 56  1  0  0  0
 25 30  1  0  0  0
 25 26  1  0  0  0
 26 27  1  0  0  0
 26 57  1  0  0  0
 26 58  1  0  0  0
 27 28  1  0  0  0
 27 59  1  0  0  0
 27 60  1  0  0  0
 28 29  1  0  0  0
 28 31  1  0  0  0
 29 30  1  0  0  0
 29 61  1  0  0  0
 29 62  1  0  0  0
 30 63  1  0  0  0
 30 64  1  0  0  0
 31 36  2  0  0  0
 31 32  1  0  0  0
 32 33  2  0  0  0
 32 65  1  0  0  0
 33 34  1  0  0  0
 33 66  1  0  0  0
 34 35  2  0  0  0
 34 37  1  0  0  0
 35 36  1  0  0  0
 35 67  1  0  0  0
 36 68  1  0  0  0
M  END
> <i_i_glide_confnum>
36

> <i_i_glide_lignum>
3186

> <i_i_glide_posenum>
275

> <i_i_glide_rotatable_bonds>
11

> <i_m_Source_File_Index>
150

> <b_m_subgroup_collapsed>
0

> <r_i_docking_score>
-5.72026

> <r_i_glide_ecoul>
-4.63984

> <r_i_glide_eff_state_penalty>
0

> <r_i_glide_einternal>
28.1803

> <r_i_glide_emodel>
-53.4751

> <r_i_glide_energy>
-51.0266

> <r_i_glide_erotb>
0.709696

> <r_i_glide_esite>
-0.19285

> <r_i_glide_evdw>
-46.3868

> <r_i_glide_gscore>
-5.72026

> <r_i_glide_hbond>
0

> <r_i_glide_ligand_efficiency>
-0.158896

> <r_i_glide_ligand_efficiency_ln>
-1.24801

> <r_i_glide_ligand_efficiency_sa>
-0.524664

> <r_i_glide_lipo>
-2.9242

> <r_i_glide_metal>
0

> <r_i_glide_rewards>
-0.297598

> <s_i_glide_gridfile>
wee1_glide-grid

> <s_m_Source_File>
wee1_decoys_glide_SP.sdf

> <s_m_Source_Path>
/Users/zhangxujun/Desktop

> <s_m_entry_id>
425

> <s_m_entry_name>
wee1_decoys_glide_SP.150

> <s_m_subgroup_title>
wee1_decoys_glide_SP

> <s_m_subgroupid>
wee1_decoys_glide_SP


$$$$
