ZINC02841077_3602
                    3D
 Schrodinger Suite 2024-2.
 44 46  0  0  1  0            999 V2000
    5.5306   55.0666   25.9428 C   0  0  0  0  0  0
    4.3917   54.2233   26.5168 C   0  0  0  0  0  0
    4.4747   53.7724   27.8528 C   0  0  0  0  0  0
    3.3816   53.1161   28.4428 C   0  0  0  0  0  0
    2.2212   52.8981   27.7105 C   0  0  0  0  0  0
    2.1454   53.2974   26.3827 C   0  0  0  0  0  0
    3.2259   53.9324   25.7660 C   0  0  0  0  0  0
    3.0127   54.2309   24.4084 N   0  0  0  0  0  0
    3.8395   53.9937   23.3706 C   0  0  0  0  0  0
    5.0279   53.6962   23.4724 O   0  0  0  0  0  0
    3.1924   54.0833   21.9876 C   0  0  0  0  0  0
    4.0137   53.0644   20.7118 S   0  0  0  0  0  0
    3.0704   51.5778   20.8785 C   0  0  0  0  0  0
    2.7026   51.0446   22.0196 N   0  0  0  0  0  0
    1.9627   49.9039   21.7293 N   0  0  0  0  0  0
    1.9114   49.7848   20.4213 C   0  0  0  0  0  0
    2.5743   50.8409   19.8282 N   0  0  0  0  0  0
    2.7043   51.1210   18.4826 N   0  0  0  0  0  0
    1.2447   48.6457   19.7126 C   0  0  0  0  0  0
    0.0684   48.1026   20.2397 C   0  0  0  0  0  0
   -0.5415   47.0111   19.6253 C   0  0  0  0  0  0
    0.0228   46.4628   18.4751 C   0  0  0  0  0  0
    1.1837   47.0057   17.9303 C   0  0  0  0  0  0
    1.7938   48.0944   18.5488 C   0  0  0  0  0  0
   -0.7202   45.0976   17.7231 Cl  0  0  0  0  0  0
    3.4254   52.4968   30.2492 Br  0  0  0  0  0  0
    5.7572   53.9460   28.6586 C   0  0  0  0  0  0
    5.1786   55.7547   25.1762 H   0  0  0  0  0  0
    6.3177   54.4314   25.5362 H   0  0  0  0  0  0
    5.9792   55.6958   26.7084 H   0  0  0  0  0  0
    1.3838   52.3908   28.1674 H   0  0  0  0  0  0
    1.2418   53.0824   25.8294 H   0  0  0  0  0  0
    2.0468   54.3779   24.1660 H   0  0  0  0  0  0
    2.1317   53.8346   22.0308 H   0  0  0  0  0  0
    3.2579   55.1234   21.6812 H   0  0  0  0  0  0
    2.4190   52.0651   18.2670 H   0  0  0  0  0  0
    3.6468   50.8976   18.1533 H   0  0  0  0  0  0
   -0.3667   48.5187   21.1375 H   0  0  0  0  0  0
   -1.4443   46.5907   20.0442 H   0  0  0  0  0  0
    1.6207   46.5841   17.0366 H   0  0  0  0  0  0
    2.7036   48.4918   18.1183 H   0  0  0  0  0  0
    5.9052   53.0693   29.2816 H   0  0  0  0  0  0
    6.6524   53.9968   28.0395 H   0  0  0  0  0  0
    5.7063   54.8345   29.2892 H   0  0  0  0  0  0
  1  2  1  0  0  0
  1 28  1  0  0  0
  1 29  1  0  0  0
  1 30  1  0  0  0
  2  7  2  0  0  0
  2  3  1  0  0  0
  3  4  2  0  0  0
  3 27  1  0  0  0
  4  5  1  0  0  0
  4 26  1  0  0  0
  5  6  2  0  0  0
  5 31  1  0  0  0
  6  7  1  0  0  0
  6 32  1  0  0  0
  7  8  1  0  0  0
  8  9  1  0  0  0
  8 33  1  0  0  0
  9 10  2  0  0  0
  9 11  1  0  0  0
 11 12  1  0  0  0
 11 34  1  0  0  0
 11 35  1  0  0  0
 12 13  1  0  0  0
 13 17  1  0  0  0
 13 14  2  0  0  0
 14 15  1  0  0  0
 15 16  2  0  0  0
 16 17  1  0  0  0
 16 19  1  0  0  0
 17 18  1  0  0  0
 18 36  1  0  0  0
 18 37  1  0  0  0
 19 24  2  0  0  0
 19 20  1  0  0  0
 20 21  2  0  0  0
 20 38  1  0  0  0
 21 22  1  0  0  0
 21 39  1  0  0  0
 22 23  2  0  0  0
 22 25  1  0  0  0
 23 24  1  0  0  0
 23 40  1  0  0  0
 24 41  1  0  0  0
 27 42  1  0  0  0
 27 43  1  0  0  0
 27 44  1  0  0  0
M  END
> <i_i_glide_confnum>
100

> <i_i_glide_lignum>
3603

> <i_i_glide_posenum>
313

> <i_i_glide_rotatable_bonds>
6

> <i_m_Source_File_Index>
167

> <b_m_subgroup_collapsed>
0

> <r_i_docking_score>
-5.1636

> <r_i_glide_ecoul>
-5.9224

> <r_i_glide_eff_state_penalty>
0

> <r_i_glide_einternal>
4.17983

> <r_i_glide_emodel>
-58.2477

> <r_i_glide_energy>
-45.1177

> <r_i_glide_erotb>
0.555629

> <r_i_glide_esite>
-0.166135

> <r_i_glide_evdw>
-39.1953

> <r_i_glide_gscore>
-5.1636

> <r_i_glide_hbond>
-0.18477

> <r_i_glide_ligand_efficiency>
-0.191245

> <r_i_glide_ligand_efficiency_ln>
-1.202

> <r_i_glide_ligand_efficiency_sa>
-0.573734

> <r_i_glide_lipo>
-1.9597

> <r_i_glide_metal>
0

> <r_i_glide_rewards>
-0.5605

> <s_i_glide_gridfile>
wee1_glide-grid

> <s_m_Source_File>
wee1_decoys_glide_SP.sdf

> <s_m_Source_Path>
/Users/zhangxujun/Desktop

> <s_m_entry_id>
442

> <s_m_entry_name>
wee1_decoys_glide_SP.167

> <s_m_subgroup_title>
wee1_decoys_glide_SP

> <s_m_subgroupid>
wee1_decoys_glide_SP


$$$$
