ZINC32878689_4186
                    3D
 Schrodinger Suite 2024-2.
 56 60  0  0  1  0            999 V2000
    3.7132   54.4973   24.8909 C   0  0  0  0  0  0
    3.3391   53.9503   23.6714 C   0  0  0  0  0  0
    2.3427   52.9812   23.6293 C   0  0  0  0  0  0
    1.6884   52.5359   24.7937 C   0  0  0  0  0  0
    2.0497   53.1335   26.0288 C   0  0  0  0  0  0
    3.0654   54.0954   26.0539 C   0  0  0  0  0  0
    1.3830   52.7190   27.3394 C   0  0  0  0  0  0
   -0.0181   52.1334   27.1167 C   0  0  0  0  0  0
    0.0784   50.9728   26.1215 C   0  0  0  0  0  0
    0.6226   51.4102   24.7235 C   0  0  1  0  0  0
   -0.5388   51.8669   23.8444 C   0  0  0  0  0  0
   -1.3054   52.8050   24.0764 O   0  0  0  0  0  0
   -0.6149   50.9643   22.8381 N   0  0  0  0  0  0
    0.3857   50.0497   22.8410 C   0  0  0  0  0  0
    0.7197   49.2981   21.9290 O   0  0  0  0  0  0
    1.0605   50.2620   23.9715 N   0  0  0  0  0  0
   -1.7996   50.8415   21.9549 C   0  0  0  0  0  0
   -3.0473   50.2370   22.6523 C   0  0  0  0  0  0
   -4.1487   50.4866   22.1647 O   0  0  0  0  0  0
   -2.9091   49.4732   23.7757 N   0  0  0  0  0  0
   -3.5709   49.9153   24.9832 C   0  0  0  0  0  0
   -3.9203   51.2769   25.1807 C   0  0  0  0  0  0
   -4.5502   51.7492   26.3245 C   0  0  0  0  0  0
   -4.8744   50.8664   27.3375 C   0  0  0  0  0  0
   -4.5712   49.5219   27.1876 C   0  0  0  0  0  0
   -3.9419   49.0197   26.0397 C   0  0  0  0  0  0
   -3.6788   47.6426   26.1044 N   0  0  0  0  0  0
   -2.6535   46.8688   25.7317 C   0  0  0  0  0  0
   -2.5478   45.6967   26.0832 O   0  0  0  0  0  0
   -1.6976   47.5021   24.7377 C   0  0  0  0  0  0
   -2.3404   48.1299   23.4876 C   0  0  1  0  0  0
   -1.4923   48.2695   22.8193 H   0  0  0  0  0  0
   -3.2959   47.1702   22.6998 C   0  0  0  0  0  0
   -3.4435   47.5525   21.4313 F   0  0  0  0  0  0
   -2.8126   45.9260   22.6629 F   0  0  0  0  0  0
   -4.5153   47.1031   23.2347 F   0  0  0  0  0  0
    4.4956   55.2396   24.9343 H   0  0  0  0  0  0
    3.8282   54.2660   22.7611 H   0  0  0  0  0  0
    2.0861   52.5571   22.6691 H   0  0  0  0  0  0
    3.3612   54.5399   26.9938 H   0  0  0  0  0  0
    2.0129   51.9741   27.8284 H   0  0  0  0  0  0
    1.3231   53.5670   28.0231 H   0  0  0  0  0  0
   -0.4296   51.7799   28.0637 H   0  0  0  0  0  0
   -0.7055   52.8965   26.7499 H   0  0  0  0  0  0
   -0.8959   50.4844   26.0500 H   0  0  0  0  0  0
    0.7404   50.2231   26.5592 H   0  0  0  0  0  0
    1.6044   49.5325   24.4117 H   0  0  0  0  0  0
   -1.5788   50.3008   21.0333 H   0  0  0  0  0  0
   -2.0659   51.8574   21.6617 H   0  0  0  0  0  0
   -3.6930   52.0194   24.4310 H   0  0  0  0  0  0
   -4.7810   52.7997   26.4219 H   0  0  0  0  0  0
   -5.3538   51.2181   28.2390 H   0  0  0  0  0  0
   -4.8186   48.8565   28.0032 H   0  0  0  0  0  0
   -4.2556   47.1453   26.7642 H   0  0  0  0  0  0
   -1.0793   48.2246   25.2713 H   0  0  0  0  0  0
   -0.9779   46.7454   24.4261 H   0  0  0  0  0  0
  1  6  2  0  0  0
  1  2  1  0  0  0
  1 37  1  0  0  0
  2  3  2  0  0  0
  2 38  1  0  0  0
  3  4  1  0  0  0
  3 39  1  0  0  0
  4 10  1  0  0  0
  4  5  2  0  0  0
  5  6  1  0  0  0
  5  7  1  0  0  0
  6 40  1  0  0  0
  7  8  1  0  0  0
  7 41  1  0  0  0
  7 42  1  0  0  0
  8  9  1  0  0  0
  8 43  1  0  0  0
  8 44  1  0  0  0
  9 10  1  0  0  0
  9 45  1  0  0  0
  9 46  1  0  0  0
 10 16  1  0  0  0
 10 11  1  0  0  0
 11 12  2  0  0  0
 11 13  1  0  0  0
 13 14  1  0  0  0
 13 17  1  0  0  0
 14 15  2  0  0  0
 14 16  1  0  0  0
 16 47  1  0  0  0
 17 18  1  0  0  0
 17 48  1  0  0  0
 17 49  1  0  0  0
 18 19  2  0  0  0
 18 20  1  0  0  0
 20 31  1  0  0  0
 20 21  1  0  0  0
 21 26  2  0  0  0
 21 22  1  0  0  0
 22 23  2  0  0  0
 22 50  1  0  0  0
 23 24  1  0  0  0
 23 51  1  0  0  0
 24 25  2  0  0  0
 24 52  1  0  0  0
 25 26  1  0  0  0
 25 53  1  0  0  0
 26 27  1  0  0  0
 27 28  1  0  0  0
 27 54  1  0  0  0
 28 29  2  0  0  0
 28 30  1  0  0  0
 30 31  1  0  0  0
 30 55  1  0  0  0
 30 56  1  0  0  0
 31 32  1  0  0  0
 31 33  1  0  0  0
 33 34  1  0  0  0
 33 35  1  0  0  0
 33 36  1  0  0  0
M  END
> <i_i_glide_confnum>
27

> <i_i_glide_lignum>
4187

> <i_i_glide_posenum>
45

> <i_i_glide_rotatable_bonds>
4

> <i_m_Source_File_Index>
2755

> <b_m_subgroup_collapsed>
0

> <r_i_docking_score>
0.518654

> <r_i_glide_ecoul>
-3.91842

> <r_i_glide_eff_state_penalty>
0

> <r_i_glide_einternal>
2.43906

> <r_i_glide_emodel>
-19.9198

> <r_i_glide_energy>
-34.5744

> <r_i_glide_erotb>
0.25765

> <r_i_glide_esite>
-0.216908

> <r_i_glide_evdw>
-30.656

> <r_i_glide_gscore>
0.518654

> <r_i_glide_hbond>
-0.0965926

> <r_i_glide_ligand_efficiency>
0.0148187

> <r_i_glide_ligand_efficiency_ln>
0.113856

> <r_i_glide_ligand_efficiency_sa>
0.0484729

> <r_i_glide_lipo>
-1.35973

> <r_i_glide_metal>
0

> <r_i_glide_rewards>
4.0548

> <s_i_glide_gridfile>
wee1_glide-grid

> <s_m_Source_File>
wee1_decoys_glide_SP.sdf

> <s_m_Source_Path>
/Users/zhangxujun/Desktop

> <s_m_entry_id>
3030

> <s_m_entry_name>
wee1_decoys_glide_SP.2755

> <s_m_subgroup_title>
wee1_decoys_glide_SP

> <s_m_subgroupid>
wee1_decoys_glide_SP


$$$$
