ZINC25922484_4383
                    3D
 Schrodinger Suite 2024-2.
 62 66  0  0  1  0            999 V2000
    5.3353   55.1673   17.0291 C   0  0  0  0  0  0
    5.1325   55.2703   18.5592 C   0  0  0  0  0  0
    3.9050   54.4162   18.9208 C   0  0  0  0  0  0
    6.4368   54.9318   19.3793 C   0  0  2  0  0  0
    6.6245   53.8616   19.2794 H   0  0  0  0  0  0
    6.2513   55.1938   20.9084 C   0  0  0  0  0  0
    6.8824   56.0967   21.4617 O   0  0  0  0  0  0
    5.4313   54.3454   21.5773 N   0  0  0  0  0  0
    5.2041   54.3100   22.9681 C   0  0  0  0  0  0
    6.2529   54.5021   23.8827 C   0  0  0  0  0  0
    6.0074   54.4670   25.2523 C   0  0  0  0  0  0
    4.7085   54.2398   25.7245 C   0  0  0  0  0  0
    3.6583   54.0693   24.8290 C   0  0  0  0  0  0
    3.9062   54.0704   23.4551 C   0  0  0  0  0  0
    2.4403   53.6968   22.2985 Br  0  0  0  0  0  0
    4.4159   54.1924   27.0709 O   0  0  0  0  0  0
    5.5416   53.8348   27.8770 C   0  0  0  0  0  0
    6.7605   54.6994   27.4828 C   0  0  0  0  0  0
    7.0940   54.5577   26.0976 O   0  0  0  0  0  0
    7.6395   55.5590   18.7941 N   0  0  0  0  0  0
    7.8698   56.8736   18.5927 C   0  0  0  0  0  0
    7.1043   57.7399   19.0219 O   0  0  0  0  0  0
    9.1211   57.2963   17.7609 C   0  0  0  0  0  0
   10.0307   58.2217   18.6296 C   0  0  0  0  0  0
   11.2479   58.7079   17.7975 C   0  0  2  0  0  0
   10.7411   59.4991   16.5631 C   0  0  0  0  0  0
    9.8520   58.5858   15.6815 C   0  0  2  0  0  0
    8.6330   58.0970   16.5093 C   0  0  0  0  0  0
   10.6781   57.3612   15.2081 C   0  0  0  0  0  0
   11.1830   56.5634   16.4401 C   0  0  1  0  0  0
   12.0726   57.4816   17.3189 C   0  0  0  0  0  0
    9.9691   56.0712   17.2697 C   0  0  0  0  0  0
    5.6912   54.1756   16.7423 H   0  0  0  0  0  0
    4.4077   55.3537   16.4882 H   0  0  0  0  0  0
    6.0552   55.8955   16.6571 H   0  0  0  0  0  0
    4.8594   56.3091   18.7537 H   0  0  0  0  0  0
    4.1380   53.3525   18.9130 H   0  0  0  0  0  0
    3.5113   54.6772   19.8948 H   0  0  0  0  0  0
    3.0840   54.5739   18.2216 H   0  0  0  0  0  0
    4.8666   53.7156   21.0237 H   0  0  0  0  0  0
    7.2613   54.6561   23.5313 H   0  0  0  0  0  0
    2.6611   53.8883   25.1996 H   0  0  0  0  0  0
    5.7810   52.7796   27.7291 H   0  0  0  0  0  0
    5.2930   53.9822   28.9281 H   0  0  0  0  0  0
    7.6266   54.4307   28.0833 H   0  0  0  0  0  0
    6.5282   55.7442   27.6811 H   0  0  0  0  0  0
    8.3258   54.9055   18.4489 H   0  0  0  0  0  0
    9.4748   59.0923   18.9830 H   0  0  0  0  0  0
   10.3771   57.6974   19.5244 H   0  0  0  0  0  0
   11.8803   59.3494   18.4108 H   0  0  0  0  0  0
   11.5864   59.8774   15.9831 H   0  0  0  0  0  0
   10.1785   60.3779   16.8820 H   0  0  0  0  0  0
    9.5000   59.1460   14.8136 H   0  0  0  0  0  0
    7.9874   57.4789   15.8818 H   0  0  0  0  0  0
    8.0281   58.9596   16.8044 H   0  0  0  0  0  0
   10.0730   56.7217   14.5632 H   0  0  0  0  0  0
   11.5220   57.6899   14.5992 H   0  0  0  0  0  0
   11.7662   55.7049   16.1031 H   0  0  0  0  0  0
   12.9455   57.8114   16.7533 H   0  0  0  0  0  0
   12.4619   56.9261   18.1729 H   0  0  0  0  0  0
   10.3256   55.4814   18.1162 H   0  0  0  0  0  0
    9.3646   55.3983   16.6595 H   0  0  0  0  0  0
  1  2  1  0  0  0
  1 33  1  0  0  0
  1 34  1  0  0  0
  1 35  1  0  0  0
  2  3  1  0  0  0
  2  4  1  0  0  0
  2 36  1  0  0  0
  3 37  1  0  0  0
  3 38  1  0  0  0
  3 39  1  0  0  0
  4  5  1  0  0  0
  4  6  1  0  0  0
  4 20  1  0  0  0
  6  7  2  0  0  0
  6  8  1  0  0  0
  8  9  1  0  0  0
  8 40  1  0  0  0
  9 14  2  0  0  0
  9 10  1  0  0  0
 10 11  2  0  0  0
 10 41  1  0  0  0
 11 19  1  0  0  0
 11 12  1  0  0  0
 12 13  2  0  0  0
 12 16  1  0  0  0
 13 14  1  0  0  0
 13 42  1  0  0  0
 14 15  1  0  0  0
 16 17  1  0  0  0
 17 18  1  0  0  0
 17 43  1  0  0  0
 17 44  1  0  0  0
 18 19  1  0  0  0
 18 45  1  0  0  0
 18 46  1  0  0  0
 20 21  1  0  0  0
 20 47  1  0  0  0
 21 22  2  0  0  0
 21 23  1  0  0  0
 23 28  1  0  0  0
 23 32  1  0  0  0
 23 24  1  0  0  0
 24 25  1  0  0  0
 24 48  1  0  0  0
 24 49  1  0  0  0
 25 31  1  0  0  0
 25 26  1  0  0  0
 25 50  1  0  0  0
 26 27  1  0  0  0
 26 51  1  0  0  0
 26 52  1  0  0  0
 27 28  1  0  0  0
 27 29  1  0  0  0
 27 53  1  0  0  0
 28 54  1  0  0  0
 28 55  1  0  0  0
 29 30  1  0  0  0
 29 56  1  0  0  0
 29 57  1  0  0  0
 30 31  1  0  0  0
 30 32  1  0  0  0
 30 58  1  0  0  0
 31 59  1  0  0  0
 31 60  1  0  0  0
 32 61  1  0  0  0
 32 62  1  0  0  0
M  END
> <i_i_glide_confnum>
25

> <i_i_glide_lignum>
4384

> <i_i_glide_posenum>
154

> <i_i_glide_rotatable_bonds>
7

> <i_m_Source_File_Index>
27

> <b_m_subgroup_collapsed>
0

> <r_i_docking_score>
-5.65147

> <r_i_glide_ecoul>
-6.86798

> <r_i_glide_eff_state_penalty>
0

> <r_i_glide_einternal>
2.10112

> <r_i_glide_emodel>
-56.8157

> <r_i_glide_energy>
-42.3968

> <r_i_glide_erotb>
0.337195

> <r_i_glide_esite>
-0.00698571

> <r_i_glide_evdw>
-35.5288

> <r_i_glide_gscore>
-5.65147

> <r_i_glide_hbond>
-0.421554

> <r_i_glide_ligand_efficiency>
-0.182305

> <r_i_glide_ligand_efficiency_ln>
-1.27458

> <r_i_glide_ligand_efficiency_sa>
-0.572691

> <r_i_glide_lipo>
-2.13382

> <r_i_glide_metal>
0

> <r_i_glide_rewards>
-0.619669

> <s_i_glide_gridfile>
wee1_glide-grid

> <s_m_Source_File>
wee1_decoys_glide_SP.sdf

> <s_m_Source_Path>
/Users/zhangxujun/Desktop

> <s_m_entry_id>
302

> <s_m_entry_name>
wee1_decoys_glide_SP.27

> <s_m_subgroup_title>
wee1_decoys_glide_SP

> <s_m_subgroupid>
wee1_decoys_glide_SP


$$$$
