ZINC19979766_1883
                    3D
 Schrodinger Suite 2024-2.
 29 30  0  0  1  0            999 V2000
    2.7669   53.3193   22.8233 C   0  0  0  0  0  0
    3.7600   53.8216   21.9881 C   0  0  0  0  0  0
    4.3024   53.0118   20.9951 C   0  0  0  0  0  0
    3.8715   51.6967   20.8446 C   0  0  0  0  0  0
    2.8709   51.1981   21.6753 C   0  0  0  0  0  0
    2.3043   52.0065   22.6640 C   0  0  0  0  0  0
    1.2974   51.4314   23.4564 N   0  0  0  0  0  0
    0.1069   52.3131   24.4349 S   0  0  0  0  0  0
   -1.1095   51.4943   24.4004 O   0  0  0  0  0  0
    0.0608   53.6967   23.9612 O   0  0  0  0  0  0
    0.7609   52.3449   26.1196 C   0  0  0  0  0  0
    1.7413   53.2962   26.4303 C   0  0  0  0  0  0
    2.2774   53.3733   27.7149 C   0  0  0  0  0  0
    1.8330   52.5043   28.7065 C   0  0  0  0  0  0
    0.8535   51.5603   28.4125 C   0  0  0  0  0  0
    0.3218   51.4677   27.1262 C   0  0  0  0  0  0
   -0.6428   50.4968   26.8817 N   0  0  0  0  0  0
    2.3520   52.5769   29.9536 F   0  0  0  0  0  0
    5.5043   53.6500   19.9365 Cl  0  0  0  0  0  0
    2.3706   53.9783   23.5736 H   0  0  0  0  0  0
    4.0961   54.8419   22.1004 H   0  0  0  0  0  0
    4.3015   51.0701   20.0772 H   0  0  0  0  0  0
    2.5376   50.1790   21.5397 H   0  0  0  0  0  0
    1.1004   50.4527   23.3149 H   0  0  0  0  0  0
    2.0887   53.9925   25.6846 H   0  0  0  0  0  0
    3.0345   54.1085   27.9440 H   0  0  0  0  0  0
    0.5073   50.8972   29.1912 H   0  0  0  0  0  0
   -1.0701   50.4730   25.9629 H   0  0  0  0  0  0
   -0.8955   49.7969   27.5839 H   0  0  0  0  0  0
  1  6  2  0  0  0
  1  2  1  0  0  0
  1 20  1  0  0  0
  2  3  2  0  0  0
  2 21  1  0  0  0
  3  4  1  0  0  0
  3 19  1  0  0  0
  4  5  2  0  0  0
  4 22  1  0  0  0
  5  6  1  0  0  0
  5 23  1  0  0  0
  6  7  1  0  0  0
  7  8  1  0  0  0
  7 24  1  0  0  0
  8  9  2  0  0  0
  8 10  2  0  0  0
  8 11  1  0  0  0
 11 16  2  0  0  0
 11 12  1  0  0  0
 12 13  2  0  0  0
 12 25  1  0  0  0
 13 14  1  0  0  0
 13 26  1  0  0  0
 14 15  2  0  0  0
 14 18  1  0  0  0
 15 16  1  0  0  0
 15 27  1  0  0  0
 16 17  1  0  0  0
 17 28  1  0  0  0
 17 29  1  0  0  0
M  END
> <i_i_glide_confnum>
8

> <i_i_glide_lignum>
1884

> <i_i_glide_posenum>
43

> <i_i_glide_rotatable_bonds>
3

> <i_m_Source_File_Index>
5761

> <b_m_subgroup_collapsed>
0

> <r_i_docking_score>
-4.12329

> <r_i_glide_ecoul>
-4.20941

> <r_i_glide_eff_state_penalty>
0

> <r_i_glide_einternal>
2.29045

> <r_i_glide_emodel>
-35.3626

> <r_i_glide_energy>
-28.0647

> <r_i_glide_erotb>
0.609875

> <r_i_glide_esite>
-0.101747

> <r_i_glide_evdw>
-23.8553

> <r_i_glide_gscore>
-4.12329

> <r_i_glide_hbond>
-0.16

> <r_i_glide_ligand_efficiency>
-0.217015

> <r_i_glide_ligand_efficiency_ln>
-1.04534

> <r_i_glide_ligand_efficiency_sa>
-0.579084

> <r_i_glide_lipo>
-1.10892

> <r_i_glide_metal>
0

> <r_i_glide_rewards>
-1.53832

> <s_i_glide_gridfile>
wee1_glide-grid

> <s_m_Source_File>
wee1_decoys_glide_SP.sdf

> <s_m_Source_Path>
/Users/zhangxujun/Desktop

> <s_m_entry_id>
6036

> <s_m_entry_name>
wee1_decoys_glide_SP.5761

> <s_m_subgroup_title>
wee1_decoys_glide_SP

> <s_m_subgroupid>
wee1_decoys_glide_SP


$$$$
