ZINC26326641_835
                    3D
 Schrodinger Suite 2024-2.
 66 68  0  0  1  0            999 V2000
   10.3506   58.1691   12.8559 C   0  0  0  0  0  0
    9.7933   57.1847   13.8674 C   0  0  0  0  0  0
   10.1454   57.2838   15.2064 C   0  0  0  0  0  0
    9.6411   56.3924   16.1581 C   0  0  0  0  0  0
    8.7033   55.3935   15.7745 C   0  0  0  0  0  0
    8.4009   55.2688   14.3928 C   0  0  0  0  0  0
    8.9267   56.1761   13.4688 C   0  0  0  0  0  0
    7.4699   54.2070   13.8219 C   0  0  0  0  0  0
    8.1501   54.1109   16.9669 S   0  0  0  0  0  0
    9.0841   54.0962   18.0945 O   0  0  0  0  0  0
    7.9625   52.8483   16.2452 O   0  0  0  0  0  0
    6.5668   54.6382   17.5925 N   0  0  0  0  0  0
    5.3141   54.2634   16.8873 C   0  0  0  0  0  0
    4.7991   55.6128   16.3990 C   0  0  0  0  0  0
    5.0999   56.5461   17.5587 C   0  0  0  0  0  0
    6.4253   56.0235   18.1537 C   0  0  1  0  0  0
    7.2636   56.6520   17.8622 H   0  0  0  0  0  0
    6.4097   56.0533   19.6983 C   0  0  0  0  0  0
    6.7035   57.1073   20.2700 O   0  0  0  0  0  0
    5.9040   54.9744   20.3392 N   0  0  0  0  0  0
    5.7611   54.8071   21.7249 C   0  0  0  0  0  0
    4.6590   54.0967   22.2019 C   0  0  0  0  0  0
    4.4962   53.9087   23.5754 C   0  0  0  0  0  0
    5.4488   54.3906   24.4806 C   0  0  0  0  0  0
    6.5586   55.0931   23.9929 C   0  0  0  0  0  0
    6.7067   55.2965   22.6276 C   0  0  0  0  0  0
    5.2273   54.0982   25.8426 N   0  0  0  0  0  0
    6.0159   54.3263   26.9172 C   0  0  0  0  0  0
    7.1043   54.8965   26.8766 O   0  0  0  0  0  0
    5.5405   53.7939   28.2811 C   0  0  0  0  0  0
    4.0267   53.4858   28.4587 C   0  0  0  0  0  0
    3.7817   52.7069   29.7648 C   0  0  0  0  0  0
    3.1504   54.7557   28.4165 C   0  0  0  0  0  0
   10.1533   56.5989   17.5829 C   0  0  0  0  0  0
    9.7446   58.2008   11.9492 H   0  0  0  0  0  0
   10.3546   59.1785   13.2680 H   0  0  0  0  0  0
   11.3755   57.9062   12.5930 H   0  0  0  0  0  0
   10.8384   58.0571   15.5057 H   0  0  0  0  0  0
    8.6688   56.0915   12.4229 H   0  0  0  0  0  0
    7.1010   54.4698   12.8292 H   0  0  0  0  0  0
    7.9792   53.2442   13.7532 H   0  0  0  0  0  0
    6.5857   54.0891   14.4389 H   0  0  0  0  0  0
    4.6104   53.8654   17.6218 H   0  0  0  0  0  0
    5.4187   53.4336   16.1873 H   0  0  0  0  0  0
    3.7375   55.5858   16.1480 H   0  0  0  0  0  0
    5.3374   55.9252   15.5023 H   0  0  0  0  0  0
    4.2764   56.5274   18.2771 H   0  0  0  0  0  0
    5.1935   57.5776   17.2140 H   0  0  0  0  0  0
    5.5163   54.2475   19.7564 H   0  0  0  0  0  0
    3.9187   53.7061   21.5179 H   0  0  0  0  0  0
    3.6335   53.3617   23.9266 H   0  0  0  0  0  0
    7.3309   55.4867   24.6313 H   0  0  0  0  0  0
    7.5855   55.8216   22.2807 H   0  0  0  0  0  0
    4.3791   53.5869   26.0290 H   0  0  0  0  0  0
    5.8501   54.5083   29.0468 H   0  0  0  0  0  0
    6.1247   52.8959   28.4818 H   0  0  0  0  0  0
    3.7074   52.8218   27.6533 H   0  0  0  0  0  0
    4.0730   53.2889   30.6389 H   0  0  0  0  0  0
    4.3521   51.7770   29.7833 H   0  0  0  0  0  0
    2.7295   52.4426   29.8775 H   0  0  0  0  0  0
    3.4076   55.4435   29.2232 H   0  0  0  0  0  0
    3.2593   55.2967   27.4765 H   0  0  0  0  0  0
    2.0928   54.5097   28.5212 H   0  0  0  0  0  0
   10.5894   57.5891   17.7233 H   0  0  0  0  0  0
    9.3675   56.5258   18.3311 H   0  0  0  0  0  0
   10.9164   55.8559   17.8191 H   0  0  0  0  0  0
  1  2  1  0  0  0
  1 35  1  0  0  0
  1 36  1  0  0  0
  1 37  1  0  0  0
  2  7  2  0  0  0
  2  3  1  0  0  0
  3  4  2  0  0  0
  3 38  1  0  0  0
  4  5  1  0  0  0
  4 34  1  0  0  0
  5  6  2  0  0  0
  5  9  1  0  0  0
  6  7  1  0  0  0
  6  8  1  0  0  0
  7 39  1  0  0  0
  8 40  1  0  0  0
  8 41  1  0  0  0
  8 42  1  0  0  0
  9 10  2  0  0  0
  9 11  2  0  0  0
  9 12  1  0  0  0
 12 16  1  0  0  0
 12 13  1  0  0  0
 13 14  1  0  0  0
 13 43  1  0  0  0
 13 44  1  0  0  0
 14 15  1  0  0  0
 14 45  1  0  0  0
 14 46  1  0  0  0
 15 16  1  0  0  0
 15 47  1  0  0  0
 15 48  1  0  0  0
 16 17  1  0  0  0
 16 18  1  0  0  0
 18 19  2  0  0  0
 18 20  1  0  0  0
 20 21  1  0  0  0
 20 49  1  0  0  0
 21 26  2  0  0  0
 21 22  1  0  0  0
 22 23  2  0  0  0
 22 50  1  0  0  0
 23 24  1  0  0  0
 23 51  1  0  0  0
 24 25  2  0  0  0
 24 27  1  0  0  0
 25 26  1  0  0  0
 25 52  1  0  0  0
 26 53  1  0  0  0
 27 28  1  0  0  0
 27 54  1  0  0  0
 28 29  2  0  0  0
 28 30  1  0  0  0
 30 31  1  0  0  0
 30 55  1  0  0  0
 30 56  1  0  0  0
 31 32  1  0  0  0
 31 33  1  0  0  0
 31 57  1  0  0  0
 32 58  1  0  0  0
 32 59  1  0  0  0
 32 60  1  0  0  0
 33 61  1  0  0  0
 33 62  1  0  0  0
 33 63  1  0  0  0
 34 64  1  0  0  0
 34 65  1  0  0  0
 34 66  1  0  0  0
M  END
> <i_i_glide_confnum>
20

> <i_i_glide_lignum>
836

> <i_i_glide_posenum>
257

> <i_i_glide_rotatable_bonds>
9

> <i_m_Source_File_Index>
1214

> <b_m_subgroup_collapsed>
0

> <r_i_docking_score>
-5.81607

> <r_i_glide_ecoul>
-7.21878

> <r_i_glide_eff_state_penalty>
0

> <r_i_glide_einternal>
6.60876

> <r_i_glide_emodel>
-57.3336

> <r_i_glide_energy>
-45.2001

> <r_i_glide_erotb>
0.727056

> <r_i_glide_esite>
-0.00357434

> <r_i_glide_evdw>
-37.9813

> <r_i_glide_gscore>
-5.81607

> <r_i_glide_hbond>
-0.56735

> <r_i_glide_ligand_efficiency>
-0.176245

> <r_i_glide_ligand_efficiency_ln>
-1.29346

> <r_i_glide_ligand_efficiency_sa>
-0.565311

> <r_i_glide_lipo>
-2.50232

> <r_i_glide_metal>
0

> <r_i_glide_rewards>
-0.488005

> <s_i_glide_gridfile>
wee1_glide-grid

> <s_m_Source_File>
wee1_decoys_glide_SP.sdf

> <s_m_Source_Path>
/Users/zhangxujun/Desktop

> <s_m_entry_id>
1489

> <s_m_entry_name>
wee1_decoys_glide_SP.1214

> <s_m_subgroup_title>
wee1_decoys_glide_SP

> <s_m_subgroupid>
wee1_decoys_glide_SP


$$$$
