ZINC40315491_3741
                    3D
 Schrodinger Suite 2024-2.
 68 71  0  0  1  0            999 V2000
   -0.9258   51.9488   29.8175 C   0  0  0  0  0  0
    0.4078   52.4456   29.3146 C   0  0  0  0  0  0
    0.5537   52.9036   28.0062 C   0  0  0  0  0  0
    1.7843   53.3938   27.5736 C   0  0  0  0  0  0
    2.8936   53.4147   28.4364 C   0  0  0  0  0  0
    2.7349   52.9310   29.7454 C   0  0  0  0  0  0
    1.4958   52.4632   30.1813 C   0  0  0  0  0  0
    3.9045   52.8962   30.7049 C   0  0  0  0  0  0
    4.1396   53.8957   28.0738 O   0  0  0  0  0  0
    4.3813   54.2468   26.7122 C   0  0  0  0  0  0
    5.8359   54.7329   26.5230 C   0  0  2  0  0  0
    6.0310   55.5459   27.2237 H   0  0  0  0  0  0
    6.1269   55.2292   25.0871 C   0  0  0  0  0  0
    5.8740   54.2436   24.0393 N   0  0  0  0  0  0
    5.9178   54.4963   22.6886 C   0  0  0  0  0  0
    5.0957   53.9578   21.6903 C   0  0  0  0  0  0
    5.3768   54.4960   20.4135 C   0  0  0  0  0  0
    6.4445   55.4081   20.4460 C   0  0  0  0  0  0
    7.1043   55.5791   22.0347 S   0  0  0  0  0  0
    6.9414   56.2262   19.2580 C   0  0  0  0  0  0
    6.3924   55.6013   17.9524 C   0  0  1  0  0  0
    6.9318   54.6703   17.7581 H   0  0  0  0  0  0
    4.8798   55.3266   18.0928 C   0  0  0  0  0  0
    4.6015   54.2100   19.1217 C   0  0  0  0  0  0
    6.6824   56.5282   16.7579 C   0  0  0  0  0  0
    4.0066   53.0585   21.9342 C   0  0  0  0  0  0
    4.0967   51.8587   21.6814 O   0  0  0  0  0  0
    2.9203   53.6732   22.4353 N   0  0  0  0  0  0
    1.5991   53.1025   22.7177 C   0  0  2  0  0  0
    0.9674   53.9082   23.0975 H   0  0  0  0  0  0
    1.6110   51.9949   23.8007 C   0  0  0  0  0  0
    0.1950   51.4076   23.9109 C   0  0  0  0  0  0
   -0.4411   51.3893   22.1439 S   0  0  0  0  0  0
   -0.3023   50.0511   21.5629 O   0  0  0  0  0  0
   -1.7252   52.0968   22.0931 O   0  0  0  0  0  0
    0.9137   52.4957   21.4806 C   0  0  0  0  0  0
    6.7381   53.6965   26.8523 O   0  0  0  0  0  0
   -1.7225   52.0910   29.0898 H   0  0  0  0  0  0
   -1.1799   52.4708   30.7387 H   0  0  0  0  0  0
   -0.8789   50.8965   30.0720 H   0  0  0  0  0  0
   -0.2872   52.8947   27.3291 H   0  0  0  0  0  0
    1.8541   53.7629   26.5632 H   0  0  0  0  0  0
    1.3724   52.1030   31.1937 H   0  0  0  0  0  0
    4.3042   53.9030   30.8306 H   0  0  0  0  0  0
    3.6429   52.4965   31.6864 H   0  0  0  0  0  0
    4.6999   52.2765   30.2860 H   0  0  0  0  0  0
    4.1790   53.3893   26.0660 H   0  0  0  0  0  0
    3.7027   55.0471   26.4108 H   0  0  0  0  0  0
    5.5080   56.1046   24.8894 H   0  0  0  0  0  0
    7.1614   55.5672   25.0170 H   0  0  0  0  0  0
    5.3067   53.4743   24.3658 H   0  0  0  0  0  0
    6.5822   57.2525   19.3551 H   0  0  0  0  0  0
    8.0320   56.2622   19.2329 H   0  0  0  0  0  0
    4.3393   56.2470   18.3259 H   0  0  0  0  0  0
    4.4749   55.0132   17.1286 H   0  0  0  0  0  0
    4.9032   53.2409   18.7183 H   0  0  0  0  0  0
    3.5275   54.1401   19.3022 H   0  0  0  0  0  0
    6.1772   57.4894   16.8602 H   0  0  0  0  0  0
    7.7509   56.7232   16.6606 H   0  0  0  0  0  0
    6.3482   56.0792   15.8229 H   0  0  0  0  0  0
    3.0019   54.6684   22.5785 H   0  0  0  0  0  0
    2.3052   51.2019   23.5235 H   0  0  0  0  0  0
    1.9726   52.3713   24.7574 H   0  0  0  0  0  0
    0.0892   50.4237   24.3671 H   0  0  0  0  0  0
   -0.4287   52.1059   24.4682 H   0  0  0  0  0  0
    0.6429   53.1249   20.6361 H   0  0  0  0  0  0
    1.6185   51.7754   21.0667 H   0  0  0  0  0  0
    6.4199   52.8679   26.4794 H   0  0  0  0  0  0
  1  2  1  0  0  0
  1 38  1  0  0  0
  1 39  1  0  0  0
  1 40  1  0  0  0
  2  7  2  0  0  0
  2  3  1  0  0  0
  3  4  2  0  0  0
  3 41  1  0  0  0
  4  5  1  0  0  0
  4 42  1  0  0  0
  5  6  2  0  0  0
  5  9  1  0  0  0
  6  7  1  0  0  0
  6  8  1  0  0  0
  7 43  1  0  0  0
  8 44  1  0  0  0
  8 45  1  0  0  0
  8 46  1  0  0  0
  9 10  1  0  0  0
 10 11  1  0  0  0
 10 47  1  0  0  0
 10 48  1  0  0  0
 11 12  1  0  0  0
 11 13  1  0  0  0
 11 37  1  0  0  0
 13 14  1  0  0  0
 13 49  1  0  0  0
 13 50  1  0  0  0
 14 15  1  0  0  0
 14 51  1  0  0  0
 15 19  1  0  0  0
 15 16  2  0  0  0
 16 17  1  0  0  0
 16 26  1  0  0  0
 17 24  1  0  0  0
 17 18  2  0  0  0
 18 19  1  0  0  0
 18 20  1  0  0  0
 20 21  1  0  0  0
 20 52  1  0  0  0
 20 53  1  0  0  0
 21 22  1  0  0  0
 21 23  1  0  0  0
 21 25  1  0  0  0
 23 24  1  0  0  0
 23 54  1  0  0  0
 23 55  1  0  0  0
 24 56  1  0  0  0
 24 57  1  0  0  0
 25 58  1  0  0  0
 25 59  1  0  0  0
 25 60  1  0  0  0
 26 27  2  0  0  0
 26 28  1  0  0  0
 28 29  1  0  0  0
 28 61  1  0  0  0
 29 30  1  0  0  0
 29 36  1  0  0  0
 29 31  1  0  0  0
 31 32  1  0  0  0
 31 62  1  0  0  0
 31 63  1  0  0  0
 32 33  1  0  0  0
 32 64  1  0  0  0
 32 65  1  0  0  0
 33 34  2  0  0  0
 33 35  2  0  0  0
 33 36  1  0  0  0
 36 66  1  0  0  0
 36 67  1  0  0  0
 37 68  1  0  0  0
M  END
> <i_i_glide_confnum>
212

> <i_i_glide_lignum>
3742

> <i_i_glide_posenum>
118

> <i_i_glide_rotatable_bonds>
10

> <i_m_Source_File_Index>
2382

> <b_m_subgroup_collapsed>
0

> <r_i_docking_score>
-5.34514

> <r_i_glide_ecoul>
-3.49285

> <r_i_glide_eff_state_penalty>
0

> <r_i_glide_einternal>
4.3293

> <r_i_glide_emodel>
-69.0288

> <r_i_glide_energy>
-52.702

> <r_i_glide_erotb>
0.717324

> <r_i_glide_esite>
-0.0116546

> <r_i_glide_evdw>
-49.2092

> <r_i_glide_gscore>
-5.34514

> <r_i_glide_hbond>
0

> <r_i_glide_ligand_efficiency>
-0.15721

> <r_i_glide_ligand_efficiency_ln>
-1.18089

> <r_i_glide_ligand_efficiency_sa>
-0.509299

> <r_i_glide_lipo>
-2.81905

> <r_i_glide_metal>
0

> <r_i_glide_rewards>
-0.247368

> <s_i_glide_gridfile>
wee1_glide-grid

> <s_m_Source_File>
wee1_decoys_glide_SP.sdf

> <s_m_Source_Path>
/Users/zhangxujun/Desktop

> <s_m_entry_id>
2657

> <s_m_entry_name>
wee1_decoys_glide_SP.2382

> <s_m_subgroup_title>
wee1_decoys_glide_SP

> <s_m_subgroupid>
wee1_decoys_glide_SP


$$$$
