ZINC38748420_2510
                    3D
 Schrodinger Suite 2024-2.
 50 53  0  0  1  0            999 V2000
    5.8776   54.1425   28.4888 C   0  0  0  0  0  0
    5.1293   54.1305   27.1732 C   0  0  0  0  0  0
    3.7357   54.0919   27.1596 C   0  0  0  0  0  0
    3.0565   54.0318   25.9450 C   0  0  0  0  0  0
    3.7568   53.9935   24.7301 C   0  0  0  0  0  0
    5.1537   54.0967   24.7673 C   0  0  0  0  0  0
    5.8371   54.1570   25.9761 C   0  0  0  0  0  0
    2.9647   53.9439   23.4516 C   0  0  0  0  0  0
    1.8700   54.4967   23.3562 O   0  0  0  0  0  0
    3.2756   52.9142   22.3395 C   0  0  0  0  0  0
    4.9876   52.9090   21.6979 S   0  0  0  0  0  0
    5.2459   54.6156   21.1316 C   0  0  1  0  0  0
    4.3447   55.1659   21.3986 H   0  0  0  0  0  0
    6.3401   55.2963   21.8032 N   0  0  0  0  0  0
    7.2163   55.7716   20.7719 N   0  0  0  0  0  0
    6.3489   55.9398   19.6252 C   0  0  2  0  0  0
    5.7499   56.8325   19.8342 H   0  0  0  0  0  0
    5.4850   54.7725   19.7068 N   0  0  0  0  0  0
    4.3108   54.7773   18.8635 N   0  0  0  0  0  0
    7.0863   56.1533   18.2689 C   0  0  2  0  0  0
    7.1842   55.2082   17.7334 H   0  0  0  0  0  0
    8.4176   56.8417   18.3958 C   0  0  0  0  0  0
    8.2532   58.0014   17.7525 C   0  0  0  0  0  0
    7.0283   58.1022   17.1875 N   0  0  0  0  0  0
    6.3391   57.0681   17.4465 N   0  0  0  0  0  0
    9.2452   59.1028   17.6182 C   0  0  0  0  0  0
   10.5398   58.9597   18.1415 C   0  0  0  0  0  0
   11.4686   59.9921   18.0375 C   0  0  0  0  0  0
   11.1129   61.1797   17.4076 C   0  0  0  0  0  0
    9.8358   61.3429   16.8818 C   0  0  0  0  0  0
    8.9074   60.3109   16.9887 C   0  0  0  0  0  0
   12.0072   62.1889   17.3243 F   0  0  0  0  0  0
    5.3923   54.8022   29.2080 H   0  0  0  0  0  0
    5.8968   53.1340   28.8981 H   0  0  0  0  0  0
    6.9023   54.4945   28.3689 H   0  0  0  0  0  0
    3.1783   54.0897   28.0850 H   0  0  0  0  0  0
    1.9755   53.9927   25.9605 H   0  0  0  0  0  0
    5.7538   54.1096   23.8824 H   0  0  0  0  0  0
    6.9163   54.1995   25.9766 H   0  0  0  0  0  0
    3.0362   51.9181   22.7085 H   0  0  0  0  0  0
    2.6102   53.1137   21.4981 H   0  0  0  0  0  0
    6.9042   54.6544   22.3448 H   0  0  0  0  0  0
    7.7681   54.9634   20.5164 H   0  0  0  0  0  0
    4.0153   53.8157   18.7539 H   0  0  0  0  0  0
    3.5810   55.2947   19.3354 H   0  0  0  0  0  0
    9.2695   56.4575   18.9386 H   0  0  0  0  0  0
   10.8400   58.0470   18.6359 H   0  0  0  0  0  0
   12.4614   59.8713   18.4438 H   0  0  0  0  0  0
    9.5623   62.2674   16.3953 H   0  0  0  0  0  0
    7.9129   60.4658   16.5894 H   0  0  0  0  0  0
  1  2  1  0  0  0
  1 33  1  0  0  0
  1 34  1  0  0  0
  1 35  1  0  0  0
  2  7  2  0  0  0
  2  3  1  0  0  0
  3  4  2  0  0  0
  3 36  1  0  0  0
  4  5  1  0  0  0
  4 37  1  0  0  0
  5  6  2  0  0  0
  5  8  1  0  0  0
  6  7  1  0  0  0
  6 38  1  0  0  0
  7 39  1  0  0  0
  8  9  2  0  0  0
  8 10  1  0  0  0
 10 11  1  0  0  0
 10 40  1  0  0  0
 10 41  1  0  0  0
 11 12  1  0  0  0
 12 13  1  0  0  0
 12 18  1  0  0  0
 12 14  1  0  0  0
 14 15  1  0  0  0
 14 42  1  0  0  0
 15 16  1  0  0  0
 15 43  1  0  0  0
 16 17  1  0  0  0
 16 18  1  0  0  0
 16 20  1  0  0  0
 18 19  1  0  0  0
 19 44  1  0  0  0
 19 45  1  0  0  0
 20 21  1  0  0  0
 20 25  1  0  0  0
 20 22  1  0  0  0
 22 23  2  0  0  0
 22 46  1  0  0  0
 23 24  1  0  0  0
 23 26  1  0  0  0
 24 25  2  0  0  0
 26 31  2  0  0  0
 26 27  1  0  0  0
 27 28  2  0  0  0
 27 47  1  0  0  0
 28 29  1  0  0  0
 28 48  1  0  0  0
 29 30  2  0  0  0
 29 32  1  0  0  0
 30 31  1  0  0  0
 30 49  1  0  0  0
 31 50  1  0  0  0
M  END
> <i_i_glide_confnum>
47

> <i_i_glide_lignum>
2511

> <i_i_glide_posenum>
376

> <i_i_glide_rotatable_bonds>
6

> <i_m_Source_File_Index>
3401

> <b_m_subgroup_collapsed>
0

> <r_i_docking_score>
-5.28194

> <r_i_glide_ecoul>
-4.03848

> <r_i_glide_eff_state_penalty>
0

> <r_i_glide_einternal>
7.07738

> <r_i_glide_emodel>
-53.0291

> <r_i_glide_energy>
-41.3483

> <r_i_glide_erotb>
0.69539

> <r_i_glide_esite>
-0.0470595

> <r_i_glide_evdw>
-37.3098

> <r_i_glide_gscore>
-5.28194

> <r_i_glide_hbond>
-0.109316

> <r_i_glide_ligand_efficiency>
-0.182136

> <r_i_glide_ligand_efficiency_ln>
-1.20943

> <r_i_glide_ligand_efficiency_sa>
-0.559579

> <r_i_glide_lipo>
-1.97441

> <r_i_glide_metal>
0

> <r_i_glide_rewards>
-1.37527

> <s_i_glide_gridfile>
wee1_glide-grid

> <s_m_Source_File>
wee1_decoys_glide_SP.sdf

> <s_m_Source_Path>
/Users/zhangxujun/Desktop

> <s_m_entry_id>
3676

> <s_m_entry_name>
wee1_decoys_glide_SP.3401

> <s_m_subgroup_title>
wee1_decoys_glide_SP

> <s_m_subgroupid>
wee1_decoys_glide_SP


$$$$
