ZINC20574243_4275
                    3D
 Schrodinger Suite 2024-2.
 58 61  0  0  1  0            999 V2000
   10.6560   59.7247   16.9759 C   0  0  0  0  0  0
    9.6087   58.7151   17.4023 C   0  0  0  0  0  0
    8.2679   59.0868   17.5013 C   0  0  0  0  0  0
    7.3119   58.1551   17.9009 C   0  0  0  0  0  0
    7.6769   56.8399   18.2187 C   0  0  0  0  0  0
    9.0314   56.4649   18.1257 C   0  0  0  0  0  0
    9.9840   57.4066   17.7181 C   0  0  0  0  0  0
    9.5003   55.0536   18.4477 C   0  0  0  0  0  0
    6.5929   55.8772   18.7147 C   0  0  0  0  0  0
    6.4370   55.8781   20.2425 C   0  0  0  0  0  0
    6.7046   56.8965   20.8817 O   0  0  0  0  0  0
    5.9044   54.7660   20.7842 N   0  0  0  0  0  0
    5.6016   54.5820   22.1315 C   0  0  0  0  0  0
    4.4313   53.9892   22.6345 C   0  0  0  0  0  0
    4.3781   54.0952   24.0534 C   0  0  0  0  0  0
    5.5396   54.6376   24.6152 C   0  0  0  0  0  0
    6.6964   55.0842   23.4034 S   0  0  0  0  0  0
    5.7981   54.6985   26.1234 C   0  0  0  0  0  0
    4.5435   54.5354   26.8822 N   0  0  0  0  0  0
    3.8400   53.3447   26.4056 C   0  0  0  0  0  0
    3.2885   53.5580   24.9838 C   0  0  0  0  0  0
    4.8076   54.4327   28.3278 C   0  0  0  0  0  0
    3.5255   54.3005   29.1562 C   0  0  0  0  0  0
    3.1662   53.0549   29.6849 C   0  0  0  0  0  0
    1.9397   52.8946   30.3301 C   0  0  0  0  0  0
    1.0759   53.9811   30.4485 C   0  0  0  0  0  0
    1.4297   55.2268   29.9365 C   0  0  0  0  0  0
    2.6503   55.3832   29.2817 C   0  0  0  0  0  0
    3.4583   53.3182   21.7789 C   0  0  0  0  0  0
    3.7506   52.8923   20.6650 O   0  0  0  0  0  0
    2.2109   53.2171   22.2373 N   0  0  0  0  0  0
   11.5858   59.5697   17.5255 H   0  0  0  0  0  0
   10.8678   59.6321   15.9090 H   0  0  0  0  0  0
   10.3315   60.7461   17.1869 H   0  0  0  0  0  0
    7.9525   60.0937   17.2673 H   0  0  0  0  0  0
    6.2813   58.4711   17.9808 H   0  0  0  0  0  0
   11.0237   57.1203   17.6505 H   0  0  0  0  0  0
    8.8778   54.3093   17.9466 H   0  0  0  0  0  0
   10.5191   54.8742   18.1015 H   0  0  0  0  0  0
    9.4458   54.8746   19.5241 H   0  0  0  0  0  0
    5.6327   56.1842   18.2982 H   0  0  0  0  0  0
    6.7575   54.8684   18.3363 H   0  0  0  0  0  0
    5.4262   54.1370   20.1503 H   0  0  0  0  0  0
    6.4990   53.8976   26.3726 H   0  0  0  0  0  0
    6.2584   55.6488   26.3964 H   0  0  0  0  0  0
    4.5093   52.4967   26.4907 H   0  0  0  0  0  0
    2.9725   53.1049   27.0192 H   0  0  0  0  0  0
    2.4271   54.2252   25.0207 H   0  0  0  0  0  0
    2.8738   52.6087   24.6462 H   0  0  0  0  0  0
    5.4433   53.5640   28.5144 H   0  0  0  0  0  0
    5.3705   55.2968   28.6765 H   0  0  0  0  0  0
    3.8227   52.2032   29.5709 H   0  0  0  0  0  0
    1.6533   51.9333   30.7301 H   0  0  0  0  0  0
    0.1261   53.8541   30.9476 H   0  0  0  0  0  0
    0.7564   56.0656   30.0422 H   0  0  0  0  0  0
    2.9072   56.3499   28.8817 H   0  0  0  0  0  0
    1.5101   52.8111   21.6356 H   0  0  0  0  0  0
    1.9525   53.6000   23.1317 H   0  0  0  0  0  0
  1  2  1  0  0  0
  1 32  1  0  0  0
  1 33  1  0  0  0
  1 34  1  0  0  0
  2  7  2  0  0  0
  2  3  1  0  0  0
  3  4  2  0  0  0
  3 35  1  0  0  0
  4  5  1  0  0  0
  4 36  1  0  0  0
  5  6  2  0  0  0
  5  9  1  0  0  0
  6  7  1  0  0  0
  6  8  1  0  0  0
  7 37  1  0  0  0
  8 38  1  0  0  0
  8 39  1  0  0  0
  8 40  1  0  0  0
  9 10  1  0  0  0
  9 41  1  0  0  0
  9 42  1  0  0  0
 10 11  2  0  0  0
 10 12  1  0  0  0
 12 13  1  0  0  0
 12 43  1  0  0  0
 13 17  1  0  0  0
 13 14  2  0  0  0
 14 15  1  0  0  0
 14 29  1  0  0  0
 15 21  1  0  0  0
 15 16  2  0  0  0
 16 17  1  0  0  0
 16 18  1  0  0  0
 18 19  1  0  0  0
 18 44  1  0  0  0
 18 45  1  0  0  0
 19 20  1  0  0  0
 19 22  1  0  0  0
 20 21  1  0  0  0
 20 46  1  0  0  0
 20 47  1  0  0  0
 21 48  1  0  0  0
 21 49  1  0  0  0
 22 23  1  0  0  0
 22 50  1  0  0  0
 22 51  1  0  0  0
 23 28  2  0  0  0
 23 24  1  0  0  0
 24 25  2  0  0  0
 24 52  1  0  0  0
 25 26  1  0  0  0
 25 53  1  0  0  0
 26 27  2  0  0  0
 26 54  1  0  0  0
 27 28  1  0  0  0
 27 55  1  0  0  0
 28 56  1  0  0  0
 29 30  2  0  0  0
 29 31  1  0  0  0
 31 57  1  0  0  0
 31 58  1  0  0  0
M  END
> <i_i_glide_confnum>
134

> <i_i_glide_lignum>
4276

> <i_i_glide_posenum>
102

> <i_i_glide_rotatable_bonds>
7

> <i_m_Source_File_Index>
5663

> <b_m_subgroup_collapsed>
0

> <r_i_docking_score>
-6.68908

> <r_i_glide_ecoul>
-5.35224

> <r_i_glide_eff_state_penalty>
0

> <r_i_glide_einternal>
8.37632

> <r_i_glide_emodel>
-66.5934

> <r_i_glide_energy>
-49.3911

> <r_i_glide_erotb>
0.635437

> <r_i_glide_esite>
0

> <r_i_glide_evdw>
-44.0388

> <r_i_glide_gscore>
-6.68908

> <r_i_glide_hbond>
-0.32

> <r_i_glide_ligand_efficiency>
-0.215777

> <r_i_glide_ligand_efficiency_ln>
-1.50859

> <r_i_glide_ligand_efficiency_sa>
-0.677837

> <r_i_glide_lipo>
-3.1594

> <r_i_glide_metal>
0

> <r_i_glide_rewards>
-0.840342

> <s_i_glide_gridfile>
wee1_glide-grid

> <s_m_Source_File>
wee1_decoys_glide_SP.sdf

> <s_m_Source_Path>
/Users/zhangxujun/Desktop

> <s_m_entry_id>
5938

> <s_m_entry_name>
wee1_decoys_glide_SP.5663

> <s_m_subgroup_title>
wee1_decoys_glide_SP

> <s_m_subgroupid>
wee1_decoys_glide_SP


$$$$
