ZINC59882607_5170
                    3D
 Schrodinger Suite 2024-2.
 50 53  0  0  1  0            999 V2000
    6.8176   54.4983   27.2925 C   0  0  0  0  0  0
    6.4087   55.2611   26.2017 C   0  0  0  0  0  0
    5.1523   55.0422   25.6519 C   0  0  0  0  0  0
    4.3281   54.0367   26.1626 C   0  0  0  0  0  0
    4.7386   53.2968   27.2789 C   0  0  0  0  0  0
    5.9807   53.5372   27.8488 C   0  0  0  0  0  0
    3.1186   53.6970   25.5056 N   0  0  0  0  0  0
    1.8959   53.3577   26.0643 C   0  0  0  0  0  0
    1.0655   52.9510   25.1338 N   0  0  0  0  0  0
    1.7042   53.0803   23.9117 N   0  0  0  0  0  0
    2.9192   53.5119   24.1431 C   0  0  0  0  0  0
    4.1659   53.7305   22.9020 S   0  0  0  0  0  0
    3.3214   53.1451   21.4014 C   0  0  0  0  0  0
    4.1698   53.2879   20.1308 C   0  0  0  0  0  0
    5.3505   53.6430   20.1944 O   0  0  0  0  0  0
    3.5366   52.9907   18.9784 N   0  0  0  0  0  0
    4.2969   52.8967   17.8189 N   0  0  0  0  0  0
    4.2214   53.8615   16.8790 C   0  0  0  0  0  0
    3.5493   54.8892   16.9984 O   0  0  0  0  0  0
    5.0397   53.6607   15.5857 C   0  0  0  0  0  0
    6.4517   53.0631   15.7729 C   0  0  0  0  0  0
    6.1779   52.2647   14.4848 C   0  0  0  0  0  0
    4.6750   52.3850   14.8001 C   0  0  0  0  0  0
    1.5159   53.4356   27.5150 C   0  0  0  0  0  0
    1.9208   54.5251   28.2940 C   0  0  0  0  0  0
    1.5502   54.6091   29.6334 C   0  0  0  0  0  0
    0.7753   53.6005   30.1983 C   0  0  0  0  0  0
    0.3508   52.5198   29.4297 C   0  0  0  0  0  0
    0.7162   52.4419   28.0873 C   0  0  0  0  0  0
    0.3037   53.6985   32.0378 Br  0  0  0  0  0  0
    7.7903   54.6676   27.7272 H   0  0  0  0  0  0
    7.0585   56.0145   25.7796 H   0  0  0  0  0  0
    4.8517   55.6343   24.8029 H   0  0  0  0  0  0
    4.1209   52.5037   27.6800 H   0  0  0  0  0  0
    6.3064   52.9627   28.7028 H   0  0  0  0  0  0
    2.3894   53.6960   21.2813 H   0  0  0  0  0  0
    3.0693   52.0927   21.5344 H   0  0  0  0  0  0
    2.6269   52.5626   18.9083 H   0  0  0  0  0  0
    4.7076   51.9741   17.6827 H   0  0  0  0  0  0
    5.0299   54.5592   14.9654 H   0  0  0  0  0  0
    6.5873   52.4058   16.6347 H   0  0  0  0  0  0
    7.2778   53.7753   15.7280 H   0  0  0  0  0  0
    6.5747   51.2487   14.4661 H   0  0  0  0  0  0
    6.4810   52.7839   13.5719 H   0  0  0  0  0  0
    4.0125   52.5250   13.9446 H   0  0  0  0  0  0
    4.3154   51.5449   15.4010 H   0  0  0  0  0  0
    2.5167   55.3140   27.8617 H   0  0  0  0  0  0
    1.8596   55.4554   30.2290 H   0  0  0  0  0  0
   -0.2592   51.7443   29.8713 H   0  0  0  0  0  0
    0.3792   51.6020   27.4979 H   0  0  0  0  0  0
  1  6  2  0  0  0
  1  2  1  0  0  0
  1 31  1  0  0  0
  2  3  2  0  0  0
  2 32  1  0  0  0
  3  4  1  0  0  0
  3 33  1  0  0  0
  4  5  2  0  0  0
  4  7  1  0  0  0
  5  6  1  0  0  0
  5 34  1  0  0  0
  6 35  1  0  0  0
  7 11  1  0  0  0
  7  8  1  0  0  0
  8  9  2  0  0  0
  8 24  1  0  0  0
  9 10  1  0  0  0
 10 11  2  0  0  0
 11 12  1  0  0  0
 12 13  1  0  0  0
 13 14  1  0  0  0
 13 36  1  0  0  0
 13 37  1  0  0  0
 14 15  2  0  0  0
 14 16  1  0  0  0
 16 17  1  0  0  0
 16 38  1  0  0  0
 17 18  1  0  0  0
 17 39  1  0  0  0
 18 19  2  0  0  0
 18 20  1  0  0  0
 20 23  1  0  0  0
 20 21  1  0  0  0
 20 40  1  0  0  0
 21 22  1  0  0  0
 21 41  1  0  0  0
 21 42  1  0  0  0
 22 23  1  0  0  0
 22 43  1  0  0  0
 22 44  1  0  0  0
 23 45  1  0  0  0
 23 46  1  0  0  0
 24 29  2  0  0  0
 24 25  1  0  0  0
 25 26  2  0  0  0
 25 47  1  0  0  0
 26 27  1  0  0  0
 26 48  1  0  0  0
 27 28  2  0  0  0
 27 30  1  0  0  0
 28 29  1  0  0  0
 28 49  1  0  0  0
 29 50  1  0  0  0
M  END
> <i_i_glide_confnum>
145

> <i_i_glide_lignum>
5171

> <i_i_glide_posenum>
392

> <i_i_glide_rotatable_bonds>
9

> <i_m_Source_File_Index>
2729

> <b_m_subgroup_collapsed>
0

> <r_i_docking_score>
-5.95153

> <r_i_glide_ecoul>
-3.2848

> <r_i_glide_eff_state_penalty>
0

> <r_i_glide_einternal>
6.96971

> <r_i_glide_emodel>
-63.2503

> <r_i_glide_energy>
-47.2271

> <r_i_glide_erotb>
0.687214

> <r_i_glide_esite>
-0.149375

> <r_i_glide_evdw>
-43.9423

> <r_i_glide_gscore>
-5.95153

> <r_i_glide_hbond>
-0.16

> <r_i_glide_ligand_efficiency>
-0.198384

> <r_i_glide_ligand_efficiency_ln>
-1.35225

> <r_i_glide_ligand_efficiency_sa>
-0.616426

> <r_i_glide_lipo>
-2.71403

> <r_i_glide_metal>
0

> <r_i_glide_rewards>
-0.925497

> <s_i_glide_gridfile>
wee1_glide-grid

> <s_m_Source_File>
wee1_decoys_glide_SP.sdf

> <s_m_Source_Path>
/Users/zhangxujun/Desktop

> <s_m_entry_id>
3004

> <s_m_entry_name>
wee1_decoys_glide_SP.2729

> <s_m_subgroup_title>
wee1_decoys_glide_SP

> <s_m_subgroupid>
wee1_decoys_glide_SP


$$$$
