ZINC35394266_696
                    3D
 Schrodinger Suite 2024-2.
 75 79  0  0  1  0            999 V2000
    3.9981   54.4450   24.5703 C   0  0  0  0  0  0
    5.5141   54.6834   24.4761 C   0  0  0  0  0  0
    6.2133   53.9748   23.2997 C   0  0  0  0  0  0
    5.9043   54.4962   21.9552 N   0  0  0  0  0  0
    4.6178   54.3469   21.2057 C   0  0  1  0  0  0
    3.8853   55.0638   21.5708 H   0  0  0  0  0  0
    5.0918   54.6689   19.7784 C   0  0  1  0  0  0
    5.5917   53.5228   18.8806 C   0  0  0  0  0  0
    5.7633   54.0586   17.6666 C   0  0  0  0  0  0
    5.4709   55.5301   17.8626 C   0  0  1  0  0  0
    5.1735   56.0709   16.9628 H   0  0  0  0  0  0
    4.3930   55.4257   18.8164 O   0  0  0  0  0  0
    6.5828   56.2295   18.7341 C   0  0  1  0  0  0
    6.5291   57.3128   18.6223 H   0  0  0  0  0  0
    6.0204   55.8136   20.1126 C   0  0  2  0  0  0
    5.5057   56.7018   20.4856 H   0  0  0  0  0  0
    6.7842   55.3319   21.3359 C   0  0  0  0  0  0
    7.9041   55.6966   21.6817 O   0  0  0  0  0  0
    8.0456   55.7928   18.4294 C   0  0  0  0  0  0
    8.4752   54.7307   18.8780 O   0  0  0  0  0  0
    8.7822   56.6476   17.6874 N   0  0  0  0  0  0
   10.1167   56.5102   17.2517 C   0  0  0  0  0  0
   10.7479   57.6714   16.7967 C   0  0  0  0  0  0
   12.0677   57.6305   16.3471 C   0  0  0  0  0  0
   12.7819   56.4271   16.3437 C   0  0  0  0  0  0
   12.1530   55.2512   16.7835 C   0  0  0  0  0  0
   10.8258   55.2967   17.2247 C   0  0  0  0  0  0
   12.8923   53.9180   16.8049 C   0  0  0  0  0  0
   14.2225   56.4198   15.8518 C   0  0  0  0  0  0
    3.9616   52.9519   21.2972 C   0  0  0  0  0  0
    4.5925   51.9649   21.6812 O   0  0  0  0  0  0
    2.6780   52.8857   20.9142 N   0  0  0  0  0  0
    1.8436   51.6837   21.0040 C   0  0  2  0  0  0
    2.4231   50.8675   20.5613 H   0  0  0  0  0  0
    0.6039   51.7582   20.0764 C   0  0  0  0  0  0
   -0.2796   50.4912   20.1235 C   0  0  0  0  0  0
   -0.6261   50.0832   21.5669 C   0  0  0  0  0  0
    0.6511   49.8976   22.4106 C   0  0  1  0  0  0
    1.2749   49.1514   21.9150 H   0  0  0  0  0  0
    1.4692   51.2209   22.4505 C   0  0  2  0  0  0
    2.4104   50.9454   22.9302 H   0  0  0  0  0  0
    0.8429   52.3562   23.2940 C   0  0  0  0  0  0
    0.3259   49.3537   23.8163 C   0  0  0  0  0  0
    3.5948   54.8687   25.4897 H   0  0  0  0  0  0
    3.4608   54.8955   23.7412 H   0  0  0  0  0  0
    3.7693   53.3771   24.5752 H   0  0  0  0  0  0
    5.9576   54.2983   25.3957 H   0  0  0  0  0  0
    5.7430   55.7504   24.4767 H   0  0  0  0  0  0
    5.9532   52.9206   23.3295 H   0  0  0  0  0  0
    7.2911   53.9961   23.4698 H   0  0  0  0  0  0
    5.7535   52.4973   19.1845 H   0  0  0  0  0  0
    6.1124   53.5947   16.7552 H   0  0  0  0  0  0
    8.3424   57.5196   17.4405 H   0  0  0  0  0  0
   10.2257   58.6178   16.7963 H   0  0  0  0  0  0
   12.5369   58.5429   16.0058 H   0  0  0  0  0  0
   10.3668   54.3743   17.5423 H   0  0  0  0  0  0
   13.1645   53.6194   15.7912 H   0  0  0  0  0  0
   13.8140   54.0079   17.3830 H   0  0  0  0  0  0
   12.2949   53.1225   17.2543 H   0  0  0  0  0  0
   14.8924   56.1124   16.6552 H   0  0  0  0  0  0
   14.3384   55.7077   15.0339 H   0  0  0  0  0  0
   14.5447   57.3966   15.4913 H   0  0  0  0  0  0
    2.2121   53.7440   20.6310 H   0  0  0  0  0  0
    0.9173   51.9376   19.0459 H   0  0  0  0  0  0
   -0.0097   52.6104   20.3683 H   0  0  0  0  0  0
    0.2401   49.6682   19.6314 H   0  0  0  0  0  0
   -1.1957   50.6520   19.5528 H   0  0  0  0  0  0
   -1.1942   49.1523   21.5531 H   0  0  0  0  0  0
   -1.2970   50.8078   22.0318 H   0  0  0  0  0  0
   -0.1144   52.6820   22.8889 H   0  0  0  0  0  0
    1.4940   53.2299   23.3340 H   0  0  0  0  0  0
    0.6783   52.0452   24.3261 H   0  0  0  0  0  0
   -0.3946   49.9801   24.3423 H   0  0  0  0  0  0
   -0.0964   48.3501   23.7591 H   0  0  0  0  0  0
    1.2238   49.2946   24.4305 H   0  0  0  0  0  0
  1  2  1  0  0  0
  1 44  1  0  0  0
  1 45  1  0  0  0
  1 46  1  0  0  0
  2  3  1  0  0  0
  2 47  1  0  0  0
  2 48  1  0  0  0
  3  4  1  0  0  0
  3 49  1  0  0  0
  3 50  1  0  0  0
  4 17  1  0  0  0
  4  5  1  0  0  0
  5  6  1  0  0  0
  5  7  1  0  0  0
  5 30  1  0  0  0
  7 12  1  0  0  0
  7 15  1  0  0  0
  7  8  1  0  0  0
  8  9  2  0  0  0
  8 51  1  0  0  0
  9 10  1  0  0  0
  9 52  1  0  0  0
 10 11  1  0  0  0
 10 12  1  0  0  0
 10 13  1  0  0  0
 13 14  1  0  0  0
 13 15  1  0  0  0
 13 19  1  0  0  0
 15 16  1  0  0  0
 15 17  1  0  0  0
 17 18  2  0  0  0
 19 20  2  0  0  0
 19 21  1  0  0  0
 21 22  1  0  0  0
 21 53  1  0  0  0
 22 27  2  0  0  0
 22 23  1  0  0  0
 23 24  2  0  0  0
 23 54  1  0  0  0
 24 25  1  0  0  0
 24 55  1  0  0  0
 25 26  2  0  0  0
 25 29  1  0  0  0
 26 27  1  0  0  0
 26 28  1  0  0  0
 27 56  1  0  0  0
 28 57  1  0  0  0
 28 58  1  0  0  0
 28 59  1  0  0  0
 29 60  1  0  0  0
 29 61  1  0  0  0
 29 62  1  0  0  0
 30 31  2  0  0  0
 30 32  1  0  0  0
 32 33  1  0  0  0
 32 63  1  0  0  0
 33 34  1  0  0  0
 33 40  1  0  0  0
 33 35  1  0  0  0
 35 36  1  0  0  0
 35 64  1  0  0  0
 35 65  1  0  0  0
 36 37  1  0  0  0
 36 66  1  0  0  0
 36 67  1  0  0  0
 37 38  1  0  0  0
 37 68  1  0  0  0
 37 69  1  0  0  0
 38 39  1  0  0  0
 38 40  1  0  0  0
 38 43  1  0  0  0
 40 41  1  0  0  0
 40 42  1  0  0  0
 42 70  1  0  0  0
 42 71  1  0  0  0
 42 72  1  0  0  0
 43 73  1  0  0  0
 43 74  1  0  0  0
 43 75  1  0  0  0
M  END
> <i_i_glide_confnum>
16

> <i_i_glide_lignum>
697

> <i_i_glide_posenum>
335

> <i_i_glide_rotatable_bonds>
8

> <i_m_Source_File_Index>
4883

> <b_m_subgroup_collapsed>
0

> <r_i_docking_score>
-3.98563

> <r_i_glide_ecoul>
-2.38123

> <r_i_glide_eff_state_penalty>
0

> <r_i_glide_einternal>
1.08851

> <r_i_glide_emodel>
-47.7795

> <r_i_glide_energy>
-37.6859

> <r_i_glide_erotb>
0.585241

> <r_i_glide_esite>
-0.0227072

> <r_i_glide_evdw>
-35.3047

> <r_i_glide_gscore>
-3.98563

> <r_i_glide_hbond>
-0.32

> <r_i_glide_ligand_efficiency>
-0.110712

> <r_i_glide_ligand_efficiency_ln>
-0.869557

> <r_i_glide_ligand_efficiency_sa>
-0.365563

> <r_i_glide_lipo>
-1.34526

> <r_i_glide_metal>
0

> <r_i_glide_rewards>
-0.760483

> <s_i_glide_gridfile>
wee1_glide-grid

> <s_m_Source_File>
wee1_decoys_glide_SP.sdf

> <s_m_Source_Path>
/Users/zhangxujun/Desktop

> <s_m_entry_id>
5158

> <s_m_entry_name>
wee1_decoys_glide_SP.4883

> <s_m_subgroup_title>
wee1_decoys_glide_SP

> <s_m_subgroupid>
wee1_decoys_glide_SP


$$$$
