ZINC33113448_4187
                    3D
 Schrodinger Suite 2024-2.
 57 60  0  0  1  0            999 V2000
   -2.4609   51.3264   18.3166 C   0  0  0  0  0  0
   -1.5873   52.5084   17.9392 C   0  0  0  0  0  0
   -2.1630   53.7043   17.5104 C   0  0  0  0  0  0
   -1.3583   54.7966   17.1916 C   0  0  0  0  0  0
    0.0428   54.7134   17.2815 C   0  0  0  0  0  0
    0.6189   53.4868   17.6816 C   0  0  0  0  0  0
   -0.1981   52.4065   18.0282 C   0  0  0  0  0  0
    2.0062   53.2965   17.8217 N   0  0  0  0  0  0
    2.9462   53.5436   16.8834 C   0  0  0  0  0  0
    2.6594   53.9414   15.7499 O   0  0  0  0  0  0
    4.2142   53.1905   17.2393 N   0  0  0  0  0  0
    5.3035   53.3196   16.2540 C   0  0  0  0  0  0
    5.9076   54.7327   16.4169 C   0  0  0  0  0  0
    6.3897   54.9958   17.8602 C   0  0  0  0  0  0
    5.3023   54.6472   18.9180 C   0  0  1  0  0  0
    4.4669   55.3319   18.7565 H   0  0  0  0  0  0
    4.7262   53.2291   18.6312 C   0  0  0  0  0  0
    5.7902   54.8246   20.3585 C   0  0  0  0  0  0
    6.8286   55.5607   20.6818 N   0  0  0  0  0  0
    7.1043   55.5851   22.0399 N   0  0  0  0  0  0
    6.2614   54.8965   22.7717 C   0  0  0  0  0  0
    5.0569   54.0970   21.7688 S   0  0  0  0  0  0
    6.2226   54.8234   24.2188 C   0  0  0  0  0  0
    7.1044   55.3609   24.8900 O   0  0  0  0  0  0
    5.1379   54.2194   24.7515 N   0  0  0  0  0  0
    4.7870   54.1499   26.1107 C   0  0  0  0  0  0
    5.7245   54.1278   27.1569 C   0  0  0  0  0  0
    5.2962   54.0965   28.4819 C   0  0  0  0  0  0
    3.9339   54.0672   28.7761 C   0  0  0  0  0  0
    2.9972   54.0656   27.7427 C   0  0  0  0  0  0
    3.4235   54.0968   26.4143 C   0  0  0  0  0  0
    1.3103   54.0414   28.1067 Cl  0  0  0  0  0  0
    0.8787   55.7890   17.0287 O   0  0  0  0  0  0
    0.3297   57.0481   16.6572 C   0  0  0  0  0  0
   -2.1265   50.8966   19.2615 H   0  0  0  0  0  0
   -3.5056   51.6130   18.4424 H   0  0  0  0  0  0
   -2.3936   50.5474   17.5566 H   0  0  0  0  0  0
   -3.2362   53.7938   17.4253 H   0  0  0  0  0  0
   -1.8424   55.7081   16.8777 H   0  0  0  0  0  0
    0.2477   51.4774   18.3559 H   0  0  0  0  0  0
    2.3087   52.8344   18.6641 H   0  0  0  0  0  0
    4.9815   53.0672   15.2421 H   0  0  0  0  0  0
    6.0437   52.5538   16.4929 H   0  0  0  0  0  0
    5.1723   55.4835   16.1210 H   0  0  0  0  0  0
    6.7413   54.8516   15.7242 H   0  0  0  0  0  0
    6.6856   56.0435   17.9338 H   0  0  0  0  0  0
    7.2645   54.3609   18.0144 H   0  0  0  0  0  0
    5.5335   52.4968   18.6557 H   0  0  0  0  0  0
    4.0002   52.8536   19.3521 H   0  0  0  0  0  0
    4.4498   53.8686   24.1040 H   0  0  0  0  0  0
    6.7861   54.1350   26.9632 H   0  0  0  0  0  0
    6.0246   54.1045   29.2797 H   0  0  0  0  0  0
    3.6063   54.0452   29.8038 H   0  0  0  0  0  0
    2.6857   54.1010   25.6250 H   0  0  0  0  0  0
    1.1399   57.7593   16.4950 H   0  0  0  0  0  0
   -0.2369   56.9799   15.7276 H   0  0  0  0  0  0
   -0.3110   57.4519   17.4426 H   0  0  0  0  0  0
  1  2  1  0  0  0
  1 35  1  0  0  0
  1 36  1  0  0  0
  1 37  1  0  0  0
  2  7  2  0  0  0
  2  3  1  0  0  0
  3  4  2  0  0  0
  3 38  1  0  0  0
  4  5  1  0  0  0
  4 39  1  0  0  0
  5  6  2  0  0  0
  5 33  1  0  0  0
  6  7  1  0  0  0
  6  8  1  0  0  0
  7 40  1  0  0  0
  8  9  1  0  0  0
  8 41  1  0  0  0
  9 10  2  0  0  0
  9 11  1  0  0  0
 11 17  1  0  0  0
 11 12  1  0  0  0
 12 13  1  0  0  0
 12 42  1  0  0  0
 12 43  1  0  0  0
 13 14  1  0  0  0
 13 44  1  0  0  0
 13 45  1  0  0  0
 14 15  1  0  0  0
 14 46  1  0  0  0
 14 47  1  0  0  0
 15 16  1  0  0  0
 15 17  1  0  0  0
 15 18  1  0  0  0
 17 48  1  0  0  0
 17 49  1  0  0  0
 18 22  1  0  0  0
 18 19  2  0  0  0
 19 20  1  0  0  0
 20 21  2  0  0  0
 21 22  1  0  0  0
 21 23  1  0  0  0
 23 24  2  0  0  0
 23 25  1  0  0  0
 25 26  1  0  0  0
 25 50  1  0  0  0
 26 31  2  0  0  0
 26 27  1  0  0  0
 27 28  2  0  0  0
 27 51  1  0  0  0
 28 29  1  0  0  0
 28 52  1  0  0  0
 29 30  2  0  0  0
 29 53  1  0  0  0
 30 31  1  0  0  0
 30 32  1  0  0  0
 31 54  1  0  0  0
 33 34  1  0  0  0
 34 55  1  0  0  0
 34 56  1  0  0  0
 34 57  1  0  0  0
M  END
> <i_i_glide_confnum>
242

> <i_i_glide_lignum>
4188

> <i_i_glide_posenum>
219

> <i_i_glide_rotatable_bonds>
8

> <i_m_Source_File_Index>
4716

> <b_m_subgroup_collapsed>
0

> <r_i_docking_score>
-5.1559

> <r_i_glide_ecoul>
-2.02771

> <r_i_glide_eff_state_penalty>
0

> <r_i_glide_einternal>
6.78467

> <r_i_glide_emodel>
-57.5443

> <r_i_glide_energy>
-46.2059

> <r_i_glide_erotb>
0.602215

> <r_i_glide_esite>
-0.0860267

> <r_i_glide_evdw>
-44.1782

> <r_i_glide_gscore>
-5.1559

> <r_i_glide_hbond>
-0.32

> <r_i_glide_ligand_efficiency>
-0.156239

> <r_i_glide_ligand_efficiency_ln>
-1.14665

> <r_i_glide_ligand_efficiency_sa>
-0.501143

> <r_i_glide_lipo>
-2.3308

> <r_i_glide_metal>
0

> <r_i_glide_rewards>
-0.508223

> <s_i_glide_gridfile>
wee1_glide-grid

> <s_m_Source_File>
wee1_decoys_glide_SP.sdf

> <s_m_Source_Path>
/Users/zhangxujun/Desktop

> <s_m_entry_id>
4991

> <s_m_entry_name>
wee1_decoys_glide_SP.4716

> <s_m_subgroup_title>
wee1_decoys_glide_SP

> <s_m_subgroupid>
wee1_decoys_glide_SP


$$$$
