ZINC13261136_3302
                    3D
 Schrodinger Suite 2024-2.
 47 49  0  0  1  0            999 V2000
    1.2016   55.5883   28.9302 C   0  0  0  0  0  0
    0.4275   54.4960   29.4190 O   0  0  0  0  0  0
    0.5502   53.3285   28.7046 C   0  0  0  0  0  0
   -0.4825   53.0188   27.8157 C   0  0  0  0  0  0
   -0.4724   51.8544   27.0475 C   0  0  0  0  0  0
    0.5877   50.9656   27.1904 C   0  0  0  0  0  0
    1.5825   51.2410   28.1244 C   0  0  0  0  0  0
    1.6015   52.4095   28.8989 C   0  0  0  0  0  0
    2.7177   52.6263   29.8867 C   0  0  0  0  0  0
    3.5269   51.6962   30.0816 O   0  0  0  0  0  0
    0.7019   49.5400   26.1992 Cl  0  0  0  0  0  0
   -1.4241   51.5344   26.0732 N   0  0  0  0  0  0
   -2.6246   52.0681   25.7818 C   0  0  0  0  0  0
   -3.2111   52.8960   26.4786 O   0  0  0  0  0  0
   -3.2926   51.5575   24.4806 C   0  0  2  0  0  0
   -3.4531   52.4574   23.8850 H   0  0  0  0  0  0
   -4.6262   50.8368   24.7786 C   0  0  0  0  0  0
   -4.6232   49.6059   23.8926 C   0  0  0  0  0  0
   -3.1548   49.2075   23.8370 C   0  0  0  0  0  0
   -2.4779   50.5256   23.7387 N   0  0  0  0  0  0
   -1.6103   50.9534   22.2427 S   0  0  0  0  0  0
   -1.2206   49.7077   21.5726 O   0  0  0  0  0  0
   -2.4094   51.9539   21.5277 O   0  0  0  0  0  0
   -0.0848   51.7751   22.7184 C   0  0  0  0  0  0
    1.1406   51.3441   22.1990 C   0  0  0  0  0  0
    2.3044   52.0573   22.4824 C   0  0  0  0  0  0
    2.2482   53.1845   23.3019 C   0  0  0  0  0  0
    1.0361   53.5957   23.8467 C   0  0  0  0  0  0
   -0.1294   52.8967   23.5448 C   0  0  0  0  0  0
    3.6774   54.0959   23.6317 Cl  0  0  0  0  0  0
    1.2909   56.3462   29.7088 H   0  0  0  0  0  0
    2.2109   55.3159   28.6148 H   0  0  0  0  0  0
    0.7045   56.0492   28.0817 H   0  0  0  0  0  0
   -1.2577   53.7499   27.6806 H   0  0  0  0  0  0
    2.3418   50.4971   28.2571 H   0  0  0  0  0  0
   -1.1491   50.7568   25.4915 H   0  0  0  0  0  0
   -4.7184   50.5336   25.8247 H   0  0  0  0  0  0
   -5.4840   51.4747   24.5580 H   0  0  0  0  0  0
   -5.2563   48.8072   24.2808 H   0  0  0  0  0  0
   -4.9853   49.8485   22.8910 H   0  0  0  0  0  0
   -2.8696   48.7340   24.7794 H   0  0  0  0  0  0
   -2.8455   48.4875   23.0789 H   0  0  0  0  0  0
    1.1942   50.4821   21.5489 H   0  0  0  0  0  0
    3.2474   51.7425   22.0596 H   0  0  0  0  0  0
    0.9942   54.4706   24.4807 H   0  0  0  0  0  0
   -1.0688   53.2738   23.9147 H   0  0  0  0  0  0
    2.8179   53.7169   30.4815 O   0  5  0  0  0  0
  1  2  1  0  0  0
  1 31  1  0  0  0
  1 32  1  0  0  0
  1 33  1  0  0  0
  2  3  1  0  0  0
  3  8  2  0  0  0
  3  4  1  0  0  0
  4  5  2  0  0  0
  4 34  1  0  0  0
  5  6  1  0  0  0
  5 12  1  0  0  0
  6  7  2  0  0  0
  6 11  1  0  0  0
  7  8  1  0  0  0
  7 35  1  0  0  0
  8  9  1  0  0  0
  9 10  2  0  0  0
  9 47  1  0  0  0
 12 13  1  0  0  0
 12 36  1  0  0  0
 13 14  2  0  0  0
 13 15  1  0  0  0
 15 16  1  0  0  0
 15 20  1  0  0  0
 15 17  1  0  0  0
 17 18  1  0  0  0
 17 37  1  0  0  0
 17 38  1  0  0  0
 18 19  1  0  0  0
 18 39  1  0  0  0
 18 40  1  0  0  0
 19 20  1  0  0  0
 19 41  1  0  0  0
 19 42  1  0  0  0
 20 21  1  0  0  0
 21 22  2  0  0  0
 21 23  2  0  0  0
 21 24  1  0  0  0
 24 29  2  0  0  0
 24 25  1  0  0  0
 25 26  2  0  0  0
 25 43  1  0  0  0
 26 27  1  0  0  0
 26 44  1  0  0  0
 27 28  2  0  0  0
 27 30  1  0  0  0
 28 29  1  0  0  0
 28 45  1  0  0  0
 29 46  1  0  0  0
M  CHG  1  47  -1
M  END
> <i_i_glide_confnum>
19

> <i_i_glide_lignum>
3303

> <i_i_glide_posenum>
391

> <i_i_glide_rotatable_bonds>
7

> <i_m_Source_File_Index>
4742

> <b_m_subgroup_collapsed>
0

> <r_i_docking_score>
-3.46258

> <r_i_glide_ecoul>
-9.34687

> <r_i_glide_eff_state_penalty>
0

> <r_i_glide_einternal>
13.2643

> <r_i_glide_emodel>
-35.1343

> <r_i_glide_energy>
-35.3442

> <r_i_glide_erotb>
0.453171

> <r_i_glide_esite>
-0.0670152

> <r_i_glide_evdw>
-25.9973

> <r_i_glide_gscore>
-3.46258

> <r_i_glide_hbond>
-0.32

> <r_i_glide_ligand_efficiency>
-0.115419

> <r_i_glide_ligand_efficiency_ln>
-0.786737

> <r_i_glide_ligand_efficiency_sa>
-0.358635

> <r_i_glide_lipo>
-1.73308

> <r_i_glide_metal>
0

> <r_i_glide_rewards>
0.906234

> <s_i_glide_gridfile>
wee1_glide-grid

> <s_m_Source_File>
wee1_decoys_glide_SP.sdf

> <s_m_Source_Path>
/Users/zhangxujun/Desktop

> <s_m_entry_id>
5017

> <s_m_entry_name>
wee1_decoys_glide_SP.4742

> <s_m_subgroup_title>
wee1_decoys_glide_SP

> <s_m_subgroupid>
wee1_decoys_glide_SP


$$$$
