ZINC21399563_4939
                    3D
 Schrodinger Suite 2024-2.
 62 66  0  0  1  0            999 V2000
   -1.3160   48.0468   23.4878 C   0  0  0  0  0  0
   -0.4860   49.3426   23.3923 C   0  0  2  0  0  0
    0.5325   49.0707   23.6790 H   0  0  0  0  0  0
   -1.0239   50.4168   24.3620 C   0  0  0  0  0  0
   -2.1748   50.8423   24.2246 O   0  0  0  0  0  0
   -0.1482   50.8154   25.3092 N   0  0  0  0  0  0
   -0.3010   51.7788   26.2376 C   0  0  0  0  0  0
   -1.3623   52.2946   26.5955 O   0  0  0  0  0  0
    0.9002   52.0998   26.7428 N   0  0  0  0  0  0
    1.2241   52.7178   28.0312 C   0  0  0  0  0  0
    0.7317   54.1938   28.1472 C   0  0  0  0  0  0
    1.1821   54.8371   29.4844 C   0  0  2  0  0  0
    2.7265   54.8164   29.5627 C   0  0  0  0  0  0
    3.2352   53.3556   29.5054 C   0  0  2  0  0  0
    2.7775   52.7215   28.1708 C   0  0  0  0  0  0
    2.6411   52.5299   30.6735 C   0  0  0  0  0  0
    1.0928   52.5597   30.5960 C   0  0  1  0  0  0
    0.5900   54.0240   30.6623 C   0  0  0  0  0  0
    0.6438   51.9307   29.2506 C   0  0  0  0  0  0
   -0.3804   49.9474   21.6671 S   0  0  0  0  0  0
    1.0417   51.0003   21.7025 C   0  0  0  0  0  0
    1.6362   51.4711   22.7729 N   0  0  0  0  0  0
    2.7037   52.3095   22.4819 N   0  0  0  0  0  0
    2.9298   52.4213   21.1970 C   0  0  0  0  0  0
    1.7897   51.5401   20.2251 S   0  0  0  0  0  0
    3.8981   53.1734   20.5714 N   0  0  0  0  0  0
    4.9457   53.9299   21.1253 C   0  0  0  0  0  0
    5.4648   53.7146   22.4091 C   0  0  0  0  0  0
    6.5179   54.4946   22.8840 C   0  0  0  0  0  0
    7.0561   55.4980   22.0819 C   0  0  0  0  0  0
    6.5461   55.7455   20.8082 C   0  0  0  0  0  0
    5.5043   54.9341   20.3299 C   0  0  0  0  0  0
    7.1038   56.7999   20.1109 O   0  0  0  0  0  0
    6.5904   57.1314   18.8241 C   0  0  0  0  0  0
   -1.3386   47.6581   24.5089 H   0  0  0  0  0  0
   -2.3481   48.2072   23.1725 H   0  0  0  0  0  0
   -0.8982   47.2645   22.8532 H   0  0  0  0  0  0
    0.7611   50.3865   25.2658 H   0  0  0  0  0  0
    1.7071   51.8737   26.1824 H   0  0  0  0  0  0
   -0.3563   54.2299   28.0832 H   0  0  0  0  0  0
    1.1048   54.7824   27.3097 H   0  0  0  0  0  0
    0.8293   55.8680   29.5375 H   0  0  0  0  0  0
    3.0565   55.2957   30.4776 H   0  0  0  0  0  0
    3.1552   55.4004   28.7467 H   0  0  0  0  0  0
    4.3248   53.3429   29.5628 H   0  0  0  0  0  0
    3.2351   53.2570   27.3363 H   0  0  0  0  0  0
    3.1511   51.6989   28.1087 H   0  0  0  0  0  0
    2.9871   52.8961   31.6364 H   0  0  0  0  0  0
    3.0076   51.5079   30.6146 H   0  0  0  0  0  0
    0.6656   51.9968   31.4284 H   0  0  0  0  0  0
   -0.4956   54.0409   30.6117 H   0  0  0  0  0  0
    0.8435   54.4791   31.6190 H   0  0  0  0  0  0
    0.9710   50.8954   29.2060 H   0  0  0  0  0  0
   -0.4465   51.8984   29.2050 H   0  0  0  0  0  0
    3.7903   53.3446   19.5832 H   0  0  0  0  0  0
    5.0798   52.9310   23.0407 H   0  0  0  0  0  0
    6.9257   54.3157   23.8682 H   0  0  0  0  0  0
    7.8730   56.0953   22.4598 H   0  0  0  0  0  0
    5.0996   55.0977   19.3432 H   0  0  0  0  0  0
    7.1226   57.9995   18.4348 H   0  0  0  0  0  0
    6.7316   56.3137   18.1152 H   0  0  0  0  0  0
    5.5305   57.3885   18.8683 H   0  0  0  0  0  0
  1  2  1  0  0  0
  1 35  1  0  0  0
  1 36  1  0  0  0
  1 37  1  0  0  0
  2  3  1  0  0  0
  2  4  1  0  0  0
  2 20  1  0  0  0
  4  5  2  0  0  0
  4  6  1  0  0  0
  6  7  1  0  0  0
  6 38  1  0  0  0
  7  8  2  0  0  0
  7  9  1  0  0  0
  9 10  1  0  0  0
  9 39  1  0  0  0
 10 15  1  0  0  0
 10 19  1  0  0  0
 10 11  1  0  0  0
 11 12  1  0  0  0
 11 40  1  0  0  0
 11 41  1  0  0  0
 12 18  1  0  0  0
 12 13  1  0  0  0
 12 42  1  0  0  0
 13 14  1  0  0  0
 13 43  1  0  0  0
 13 44  1  0  0  0
 14 15  1  0  0  0
 14 16  1  0  0  0
 14 45  1  0  0  0
 15 46  1  0  0  0
 15 47  1  0  0  0
 16 17  1  0  0  0
 16 48  1  0  0  0
 16 49  1  0  0  0
 17 18  1  0  0  0
 17 19  1  0  0  0
 17 50  1  0  0  0
 18 51  1  0  0  0
 18 52  1  0  0  0
 19 53  1  0  0  0
 19 54  1  0  0  0
 20 21  1  0  0  0
 21 25  1  0  0  0
 21 22  2  0  0  0
 22 23  1  0  0  0
 23 24  2  0  0  0
 24 25  1  0  0  0
 24 26  1  0  0  0
 26 27  1  0  0  0
 26 55  1  0  0  0
 27 32  2  0  0  0
 27 28  1  0  0  0
 28 29  2  0  0  0
 28 56  1  0  0  0
 29 30  1  0  0  0
 29 57  1  0  0  0
 30 31  2  0  0  0
 30 58  1  0  0  0
 31 32  1  0  0  0
 31 33  1  0  0  0
 32 59  1  0  0  0
 33 34  1  0  0  0
 34 60  1  0  0  0
 34 61  1  0  0  0
 34 62  1  0  0  0
M  END
> <i_i_glide_confnum>
240

> <i_i_glide_lignum>
4940

> <i_i_glide_posenum>
394

> <i_i_glide_rotatable_bonds>
10

> <i_m_Source_File_Index>
3867

> <b_m_subgroup_collapsed>
0

> <r_i_docking_score>
-4.71305

> <r_i_glide_ecoul>
-3.90612

> <r_i_glide_eff_state_penalty>
0

> <r_i_glide_einternal>
7.63493

> <r_i_glide_emodel>
-58.9479

> <r_i_glide_energy>
-45.2017

> <r_i_glide_erotb>
0.683983

> <r_i_glide_esite>
-0.0357677

> <r_i_glide_evdw>
-41.2956

> <r_i_glide_gscore>
-4.71305

> <r_i_glide_hbond>
-0.293954

> <r_i_glide_ligand_efficiency>
-0.14282

> <r_i_glide_ligand_efficiency_ln>
-1.04816

> <r_i_glide_ligand_efficiency_sa>
-0.458099

> <r_i_glide_lipo>
-2.4272

> <r_i_glide_metal>
0

> <r_i_glide_rewards>
0.0105858

> <s_i_glide_gridfile>
wee1_glide-grid

> <s_m_Source_File>
wee1_decoys_glide_SP.sdf

> <s_m_Source_Path>
/Users/zhangxujun/Desktop

> <s_m_entry_id>
4142

> <s_m_entry_name>
wee1_decoys_glide_SP.3867

> <s_m_subgroup_title>
wee1_decoys_glide_SP

> <s_m_subgroupid>
wee1_decoys_glide_SP


$$$$
