ZINC40876413_903
                    3D
 Schrodinger Suite 2024-2.
 78 82  0  0  1  0            999 V2000
    3.5162   55.6001   17.7942 C   0  0  0  0  0  0
    4.5386   54.4968   17.4849 C   0  0  0  0  0  0
    5.9756   54.8475   17.9277 C   0  0  0  0  0  0
    6.1480   54.9997   19.4279 C   0  0  0  0  0  0
    5.4566   54.4428   20.3871 N   0  0  0  0  0  0
    6.0671   54.8857   21.4695 C   0  0  0  0  0  0
    7.0923   55.6920   21.2609 N   0  0  0  0  0  0
    7.1675   55.7732   19.8735 O   0  0  0  0  0  0
    5.6213   54.4997   22.8518 C   0  0  0  0  0  0
    4.3092   54.0970   23.1180 C   0  0  0  0  0  0
    3.8678   53.9618   24.4352 C   0  0  0  0  0  0
    4.7246   54.1778   25.5288 C   0  0  0  0  0  0
    6.0683   54.4983   25.2455 C   0  0  0  0  0  0
    6.4911   54.6697   23.9309 C   0  0  0  0  0  0
    6.9937   54.6649   26.2185 F   0  0  0  0  0  0
    4.2165   54.0607   26.8271 N   0  0  0  0  0  0
    4.9467   54.5109   28.0296 C   0  0  0  0  0  0
    4.0234   54.8364   29.2278 C   0  0  0  0  0  0
    3.0171   53.7202   29.5650 C   0  0  0  0  0  0
    2.3248   53.3354   28.2414 C   0  0  1  0  0  0
    1.7758   54.2150   27.9013 H   0  0  0  0  0  0
    3.3905   52.9051   27.2125 C   0  0  0  0  0  0
    1.1917   52.2856   28.3760 C   0  0  0  0  0  0
    1.0948   51.6993   29.4551 O   0  0  0  0  0  0
    0.3556   52.0057   27.3330 N   0  0  0  0  0  0
    0.3492   52.7500   26.0581 C   0  0  0  0  0  0
    0.3795   51.7509   24.8630 C   0  0  0  0  0  0
   -0.6561   50.5800   24.9321 C   0  0  0  0  0  0
   -0.5677   49.9907   26.3717 C   0  0  0  0  0  0
   -0.7286   51.0144   27.5104 C   0  0  0  0  0  0
   -0.3132   49.5349   23.8258 C   0  0  0  0  0  0
   -0.2967   49.8741   22.6442 O   0  0  0  0  0  0
   -0.0927   48.2605   24.1569 N   0  0  0  0  0  0
   -2.1151   51.0724   24.5676 N   0  3  0  0  0  0
   -2.5252   52.5379   24.8698 C   0  0  0  0  0  0
   -3.8560   52.8464   24.1766 C   0  0  0  0  0  0
   -4.9743   51.8863   24.6028 C   0  0  0  0  0  0
   -4.5555   50.4264   24.3855 C   0  0  0  0  0  0
   -3.2197   50.0988   25.0751 C   0  0  0  0  0  0
    2.5095   55.2987   17.5016 H   0  0  0  0  0  0
    3.7525   56.5241   17.2648 H   0  0  0  0  0  0
    3.4936   55.8224   18.8604 H   0  0  0  0  0  0
    4.2251   53.5631   17.9536 H   0  0  0  0  0  0
    4.5323   54.3023   16.4116 H   0  0  0  0  0  0
    6.6641   54.0848   17.5621 H   0  0  0  0  0  0
    6.2734   55.7710   17.4307 H   0  0  0  0  0  0
    3.6058   53.9658   22.3075 H   0  0  0  0  0  0
    2.8304   53.7168   24.5927 H   0  0  0  0  0  0
    7.5042   54.9821   23.7531 H   0  0  0  0  0  0
    5.7015   53.7722   28.3066 H   0  0  0  0  0  0
    5.4803   55.4298   27.7924 H   0  0  0  0  0  0
    4.6692   55.0194   30.0819 H   0  0  0  0  0  0
    3.5068   55.7796   29.0506 H   0  0  0  0  0  0
    3.5903   52.8878   29.9782 H   0  0  0  0  0  0
    2.3105   54.1242   30.2916 H   0  0  0  0  0  0
    2.9290   52.4547   26.3429 H   0  0  0  0  0  0
    4.0438   52.1539   27.6629 H   0  0  0  0  0  0
   -0.5798   53.2967   26.0644 H   0  0  0  0  0  0
    1.1405   53.4913   25.9649 H   0  0  0  0  0  0
    0.3735   52.2485   23.8917 H   0  0  0  0  0  0
    1.3798   51.3145   24.9124 H   0  0  0  0  0  0
    0.4245   49.5573   26.5152 H   0  0  0  0  0  0
   -1.2209   49.1288   26.4808 H   0  0  0  0  0  0
   -0.6892   50.5070   28.4742 H   0  0  0  0  0  0
   -1.6946   51.5099   27.4561 H   0  0  0  0  0  0
   -0.0350   47.9701   25.1253 H   0  0  0  0  0  0
    0.1128   47.6044   23.4218 H   0  0  0  0  0  0
   -2.5787   52.6842   25.9477 H   0  0  0  0  0  0
   -1.7818   53.1833   24.4026 H   0  0  0  0  0  0
   -4.1506   53.8761   24.3825 H   0  0  0  0  0  0
   -3.6958   52.7851   23.1023 H   0  0  0  0  0  0
   -5.8871   52.1014   24.0435 H   0  0  0  0  0  0
   -5.2181   52.0473   25.6550 H   0  0  0  0  0  0
   -4.4780   50.2166   23.3174 H   0  0  0  0  0  0
   -5.3321   49.7618   24.7665 H   0  0  0  0  0  0
   -2.9211   49.0881   24.7919 H   0  0  0  0  0  0
   -3.2775   50.1752   26.1625 H   0  0  0  0  0  0
   -2.1093   51.0071   23.5569 H   0  0  0  0  0  0
  1  2  1  0  0  0
  1 40  1  0  0  0
  1 41  1  0  0  0
  1 42  1  0  0  0
  2  3  1  0  0  0
  2 43  1  0  0  0
  2 44  1  0  0  0
  3  4  1  0  0  0
  3 45  1  0  0  0
  3 46  1  0  0  0
  4  8  1  0  0  0
  4  5  2  0  0  0
  5  6  1  0  0  0
  6  7  2  0  0  0
  6  9  1  0  0  0
  7  8  1  0  0  0
  9 14  2  0  0  0
  9 10  1  0  0  0
 10 11  2  0  0  0
 10 47  1  0  0  0
 11 12  1  0  0  0
 11 48  1  0  0  0
 12 13  2  0  0  0
 12 16  1  0  0  0
 13 14  1  0  0  0
 13 15  1  0  0  0
 14 49  1  0  0  0
 16 22  1  0  0  0
 16 17  1  0  0  0
 17 18  1  0  0  0
 17 50  1  0  0  0
 17 51  1  0  0  0
 18 19  1  0  0  0
 18 52  1  0  0  0
 18 53  1  0  0  0
 19 20  1  0  0  0
 19 54  1  0  0  0
 19 55  1  0  0  0
 20 21  1  0  0  0
 20 22  1  0  0  0
 20 23  1  0  0  0
 22 56  1  0  0  0
 22 57  1  0  0  0
 23 24  2  0  0  0
 23 25  1  0  0  0
 25 30  1  0  0  0
 25 26  1  0  0  0
 26 27  1  0  0  0
 26 58  1  0  0  0
 26 59  1  0  0  0
 27 28  1  0  0  0
 27 60  1  0  0  0
 27 61  1  0  0  0
 28 29  1  0  0  0
 28 31  1  0  0  0
 28 34  1  0  0  0
 29 30  1  0  0  0
 29 62  1  0  0  0
 29 63  1  0  0  0
 30 64  1  0  0  0
 30 65  1  0  0  0
 31 32  2  0  0  0
 31 33  1  0  0  0
 33 66  1  0  0  0
 33 67  1  0  0  0
 34 39  1  0  0  0
 34 35  1  0  0  0
 34 78  1  0  0  0
 35 36  1  0  0  0
 35 68  1  0  0  0
 35 69  1  0  0  0
 36 37  1  0  0  0
 36 70  1  0  0  0
 36 71  1  0  0  0
 37 38  1  0  0  0
 37 72  1  0  0  0
 37 73  1  0  0  0
 38 39  1  0  0  0
 38 74  1  0  0  0
 38 75  1  0  0  0
 39 76  1  0  0  0
 39 77  1  0  0  0
M  CHG  1  34   1
M  END
> <i_i_glide_confnum>
12

> <i_i_glide_lignum>
904

> <i_i_glide_posenum>
85

> <i_i_glide_rotatable_bonds>
8

> <i_m_Source_File_Index>
1034

> <b_m_subgroup_collapsed>
0

> <r_i_docking_score>
-6.14028

> <r_i_glide_ecoul>
-4.68748

> <r_i_glide_eff_state_penalty>
0

> <r_i_glide_einternal>
9.03791

> <r_i_glide_emodel>
-62.0668

> <r_i_glide_energy>
-46.4188

> <r_i_glide_erotb>
0.443862

> <r_i_glide_esite>
-0.0546642

> <r_i_glide_evdw>
-41.7313

> <r_i_glide_gscore>
-6.14028

> <r_i_glide_hbond>
0

> <r_i_glide_ligand_efficiency>
-0.161586

> <r_i_glide_ligand_efficiency_ln>
-1.32403

> <r_i_glide_ligand_efficiency_sa>
-0.54325

> <r_i_glide_lipo>
-2.70329

> <r_i_glide_metal>
0

> <r_i_glide_rewards>
-1.0365

> <s_i_glide_gridfile>
wee1_glide-grid

> <s_m_Source_File>
wee1_decoys_glide_SP.sdf

> <s_m_Source_Path>
/Users/zhangxujun/Desktop

> <s_m_entry_id>
1309

> <s_m_entry_name>
wee1_decoys_glide_SP.1034

> <s_m_subgroup_title>
wee1_decoys_glide_SP

> <s_m_subgroupid>
wee1_decoys_glide_SP


$$$$
