ZINC36509082_5754
                    3D
 Schrodinger Suite 2024-2.
 85 87  0  0  1  0            999 V2000
    6.8632   55.8117   25.1463 C   0  0  0  0  0  0
    6.0375   55.0087   26.1485 C   0  0  0  0  0  0
    5.4035   53.7718   25.4968 C   0  0  0  0  0  0
    4.1682   54.0689   24.6229 C   0  0  0  0  0  0
    2.8504   54.1545   25.4112 C   0  0  0  0  0  0
    2.4484   52.8113   26.0381 C   0  0  0  0  0  0
    1.0237   52.6504   26.4192 N   0  0  0  0  0  0
    0.1723   51.7119   25.5678 C   0  0  2  0  0  0
    0.2376   50.7681   26.1115 H   0  0  0  0  0  0
    0.7821   51.3844   24.2024 C   0  0  0  0  0  0
    1.1047   50.0413   23.9057 C   0  0  0  0  0  0
    1.7701   49.6969   22.7219 C   0  0  0  0  0  0
    2.0935   50.7182   21.8439 C   0  0  0  0  0  0
    1.7464   52.0131   22.0918 C   0  0  0  0  0  0
    1.0625   52.3823   23.2452 C   0  0  0  0  0  0
    2.2414   52.8000   21.1028 O   0  0  0  0  0  0
    2.7193   51.9221   20.1150 C   0  0  0  0  0  0
    2.7987   50.6452   20.6860 O   0  0  0  0  0  0
   -1.3498   51.9986   25.3937 C   0  0  0  0  0  0
   -1.7776   52.5020   24.3515 O   0  0  0  0  0  0
   -2.1384   51.5318   26.3807 N   0  0  0  0  0  0
   -3.5993   51.3925   26.4490 C   0  0  0  0  0  0
   -4.0330   50.2897   25.4597 C   0  0  0  0  0  0
   -3.8721   50.9093   27.8928 C   0  0  0  0  0  0
   -4.2946   52.7745   26.1745 C   0  0  0  0  0  0
   -5.8503   52.9732   26.0997 C   0  0  0  0  0  0
   -6.0805   54.4965   25.9908 C   0  0  0  0  0  0
   -6.6074   52.4741   27.3499 C   0  0  0  0  0  0
   -6.4640   52.3233   24.8362 C   0  0  0  0  0  0
    0.6597   53.0685   27.6816 C   0  0  0  0  0  0
   -0.4711   52.8898   28.1355 O   0  0  0  0  0  0
    1.6633   53.8305   28.6100 C   0  0  2  0  0  0
    2.5564   54.1889   28.1103 H   0  0  0  0  0  0
    2.1358   52.9688   29.7592 C   0  0  0  0  0  0
    1.2538   52.6626   30.8012 C   0  0  0  0  0  0
    1.7308   52.0400   31.9394 C   0  0  0  0  0  0
    3.0794   51.6967   32.0150 C   0  0  0  0  0  0
    3.9516   51.9769   30.9715 C   0  0  0  0  0  0
    3.4813   52.6107   29.8354 C   0  0  0  0  0  0
    1.0420   54.9346   29.2564 O   0  0  0  0  0  0
    1.1034   56.1495   28.5586 C   0  0  0  0  0  0
    7.5044   56.4968   25.6813 H   0  0  0  0  0  0
    7.5038   55.1733   24.5382 H   0  0  0  0  0  0
    6.2329   56.3920   24.4771 H   0  0  0  0  0  0
    5.2862   55.6657   26.5956 H   0  0  0  0  0  0
    6.6885   54.6853   26.9632 H   0  0  0  0  0  0
    5.1675   53.0393   26.2684 H   0  0  0  0  0  0
    6.1609   53.2969   24.8733 H   0  0  0  0  0  0
    4.0716   53.2973   23.8597 H   0  0  0  0  0  0
    4.3236   54.9906   24.0651 H   0  0  0  0  0  0
    2.0593   54.5059   24.7550 H   0  0  0  0  0  0
    2.9732   54.8973   26.1870 H   0  0  0  0  0  0
    3.1156   52.5492   26.8603 H   0  0  0  0  0  0
    2.7049   52.0967   25.2746 H   0  0  0  0  0  0
    0.8830   49.2590   24.6187 H   0  0  0  0  0  0
    2.0524   48.6755   22.5201 H   0  0  0  0  0  0
    0.7908   53.4111   23.4226 H   0  0  0  0  0  0
    2.0123   51.8988   19.2828 H   0  0  0  0  0  0
    3.6980   52.2395   19.7472 H   0  0  0  0  0  0
   -1.6564   51.1626   27.1894 H   0  0  0  0  0  0
   -5.0449   49.9432   25.6557 H   0  0  0  0  0  0
   -3.9826   50.6338   24.4262 H   0  0  0  0  0  0
   -3.3899   49.4112   25.5412 H   0  0  0  0  0  0
   -4.8916   50.5627   28.0393 H   0  0  0  0  0  0
   -3.2443   50.0573   28.1601 H   0  0  0  0  0  0
   -3.6699   51.6932   28.6254 H   0  0  0  0  0  0
   -3.8850   53.4928   26.8817 H   0  0  0  0  0  0
   -3.9271   53.1464   25.2214 H   0  0  0  0  0  0
   -5.5548   54.8964   25.1238 H   0  0  0  0  0  0
   -7.1373   54.7449   25.8755 H   0  0  0  0  0  0
   -5.7144   55.0260   26.8714 H   0  0  0  0  0  0
   -6.7366   51.3938   27.3438 H   0  0  0  0  0  0
   -6.1003   52.7491   28.2745 H   0  0  0  0  0  0
   -7.6129   52.8942   27.4025 H   0  0  0  0  0  0
   -6.5986   51.2484   24.9362 H   0  0  0  0  0  0
   -7.4532   52.7279   24.6128 H   0  0  0  0  0  0
   -5.8478   52.4947   23.9547 H   0  0  0  0  0  0
    0.2131   52.9512   30.7477 H   0  0  0  0  0  0
    1.0576   51.8175   32.7549 H   0  0  0  0  0  0
    3.4531   51.1758   32.8817 H   0  0  0  0  0  0
    4.9917   51.6963   31.0392 H   0  0  0  0  0  0
    4.1720   52.8565   29.0401 H   0  0  0  0  0  0
    0.7047   56.9279   29.2015 H   0  0  0  0  0  0
    2.1173   56.4270   28.2749 H   0  0  0  0  0  0
    0.4576   56.0861   27.6871 H   0  0  0  0  0  0
  1  2  1  0  0  0
  1 42  1  0  0  0
  1 43  1  0  0  0
  1 44  1  0  0  0
  2  3  1  0  0  0
  2 45  1  0  0  0
  2 46  1  0  0  0
  3  4  1  0  0  0
  3 47  1  0  0  0
  3 48  1  0  0  0
  4  5  1  0  0  0
  4 49  1  0  0  0
  4 50  1  0  0  0
  5  6  1  0  0  0
  5 51  1  0  0  0
  5 52  1  0  0  0
  6  7  1  0  0  0
  6 53  1  0  0  0
  6 54  1  0  0  0
  7  8  1  0  0  0
  7 30  1  0  0  0
  8  9  1  0  0  0
  8 10  1  0  0  0
  8 19  1  0  0  0
 10 15  2  0  0  0
 10 11  1  0  0  0
 11 12  2  0  0  0
 11 55  1  0  0  0
 12 13  1  0  0  0
 12 56  1  0  0  0
 13 18  1  0  0  0
 13 14  2  0  0  0
 14 15  1  0  0  0
 14 16  1  0  0  0
 15 57  1  0  0  0
 16 17  1  0  0  0
 17 18  1  0  0  0
 17 58  1  0  0  0
 17 59  1  0  0  0
 19 20  2  0  0  0
 19 21  1  0  0  0
 21 22  1  0  0  0
 21 60  1  0  0  0
 22 23  1  0  0  0
 22 24  1  0  0  0
 22 25  1  0  0  0
 23 61  1  0  0  0
 23 62  1  0  0  0
 23 63  1  0  0  0
 24 64  1  0  0  0
 24 65  1  0  0  0
 24 66  1  0  0  0
 25 26  1  0  0  0
 25 67  1  0  0  0
 25 68  1  0  0  0
 26 27  1  0  0  0
 26 28  1  0  0  0
 26 29  1  0  0  0
 27 69  1  0  0  0
 27 70  1  0  0  0
 27 71  1  0  0  0
 28 72  1  0  0  0
 28 73  1  0  0  0
 28 74  1  0  0  0
 29 75  1  0  0  0
 29 76  1  0  0  0
 29 77  1  0  0  0
 30 31  2  0  0  0
 30 32  1  0  0  0
 32 33  1  0  0  0
 32 34  1  0  0  0
 32 40  1  0  0  0
 34 39  2  0  0  0
 34 35  1  0  0  0
 35 36  2  0  0  0
 35 78  1  0  0  0
 36 37  1  0  0  0
 36 79  1  0  0  0
 37 38  2  0  0  0
 37 80  1  0  0  0
 38 39  1  0  0  0
 38 81  1  0  0  0
 39 82  1  0  0  0
 40 41  1  0  0  0
 41 83  1  0  0  0
 41 84  1  0  0  0
 41 85  1  0  0  0
M  END
> <i_i_glide_confnum>
428

> <i_i_glide_lignum>
5755

> <i_i_glide_posenum>
258

> <i_i_glide_rotatable_bonds>
16

> <i_m_Source_File_Index>
2345

> <b_m_subgroup_collapsed>
0

> <r_i_docking_score>
-4.64704

> <r_i_glide_ecoul>
-4.95694

> <r_i_glide_eff_state_penalty>
0

> <r_i_glide_einternal>
17.6692

> <r_i_glide_emodel>
-38.6567

> <r_i_glide_energy>
-38.8856

> <r_i_glide_erotb>
0.783228

> <r_i_glide_esite>
-0.0682561

> <r_i_glide_evdw>
-33.9287

> <r_i_glide_gscore>
-4.64704

> <r_i_glide_hbond>
0

> <r_i_glide_ligand_efficiency>
-0.119155

> <r_i_glide_ligand_efficiency_ln>
-0.996458

> <r_i_glide_ligand_efficiency_sa>
-0.40408

> <r_i_glide_lipo>
-2.76617

> <r_i_glide_metal>
0

> <r_i_glide_rewards>
-0.155876

> <s_i_glide_gridfile>
wee1_glide-grid

> <s_m_Source_File>
wee1_decoys_glide_SP.sdf

> <s_m_Source_Path>
/Users/zhangxujun/Desktop

> <s_m_entry_id>
2620

> <s_m_entry_name>
wee1_decoys_glide_SP.2345

> <s_m_subgroup_title>
wee1_decoys_glide_SP

> <s_m_subgroupid>
wee1_decoys_glide_SP


$$$$
