ZINC04709680_2644
                    3D
 Schrodinger Suite 2024-2.
 44 47  0  0  1  0            999 V2000
    3.1416   55.5715   14.3013 C   0  0  0  0  0  0
    3.7041   55.0512   15.4675 C   0  0  0  0  0  0
    3.0615   55.2210   16.7019 C   0  0  0  0  0  0
    1.8439   55.9113   16.7465 C   0  0  0  0  0  0
    1.2826   56.4315   15.5833 C   0  0  0  0  0  0
    1.9300   56.2638   14.3590 C   0  0  0  0  0  0
    0.1028   57.0904   15.6387 F   0  0  0  0  0  0
    3.6423   54.6996   17.8873 N   0  0  0  0  0  0
    3.1058   53.5287   18.4586 C   0  0  0  0  0  0
    3.6970   52.9529   19.5530 C   0  0  0  0  0  0
    4.9039   53.6021   20.2826 C   0  0  1  0  0  0
    5.6919   52.8502   20.2193 H   0  0  0  0  0  0
    5.4085   54.8349   19.5243 C   0  0  0  0  0  0
    4.7731   55.3262   18.4391 C   0  0  0  0  0  0
    5.1907   56.4960   17.8309 N   0  0  0  0  0  0
    6.5486   55.5210   20.0497 C   0  0  0  0  0  0
    7.4553   56.0962   20.4792 N   0  0  0  0  0  0
    4.6751   53.9004   21.7730 C   0  0  0  0  0  0
    3.4830   54.0349   22.4899 C   0  0  0  0  0  0
    3.6388   54.2834   23.8593 C   0  0  0  0  0  0
    4.9715   54.3885   24.2425 C   0  0  0  0  0  0
    6.0135   54.0969   22.8830 S   0  0  0  0  0  0
    5.4859   54.6907   25.5409 N   0  3  0  0  0  0
    6.7017   54.8015   25.6830 O   0  0  0  0  0  0
    4.6713   54.8452   26.4443 O   0  5  0  0  0  0
    3.2349   51.6495   20.0999 C   0  0  0  0  0  0
    3.7942   51.1027   21.0510 O   0  0  0  0  0  0
    2.0009   50.9984   19.4659 C   0  0  0  0  0  0
    1.8878   51.3343   17.9756 C   0  0  0  0  0  0
    1.9138   52.8490   17.7369 C   0  0  0  0  0  0
    3.6428   55.4418   13.3539 H   0  0  0  0  0  0
    4.6444   54.5203   15.4168 H   0  0  0  0  0  0
    1.3260   56.0456   17.6820 H   0  0  0  0  0  0
    1.4918   56.6705   13.4583 H   0  0  0  0  0  0
    5.9982   57.0004   18.1659 H   0  0  0  0  0  0
    4.6136   56.9570   17.1376 H   0  0  0  0  0  0
    2.5110   53.9546   22.0221 H   0  0  0  0  0  0
    2.8074   54.4079   24.5406 H   0  0  0  0  0  0
    1.1363   51.4050   19.9906 H   0  0  0  0  0  0
    2.0187   49.9236   19.6558 H   0  0  0  0  0  0
    0.9745   50.9047   17.5650 H   0  0  0  0  0  0
    2.7053   50.8564   17.4330 H   0  0  0  0  0  0
    0.9700   53.3486   17.9633 H   0  0  0  0  0  0
    2.0423   52.9086   16.6558 H   0  0  0  0  0  0
  1  6  2  0  0  0
  1  2  1  0  0  0
  1 31  1  0  0  0
  2  3  2  0  0  0
  2 32  1  0  0  0
  3  4  1  0  0  0
  3  8  1  0  0  0
  4  5  2  0  0  0
  4 33  1  0  0  0
  5  6  1  0  0  0
  5  7  1  0  0  0
  6 34  1  0  0  0
  8 14  1  0  0  0
  8  9  1  0  0  0
  9 30  1  0  0  0
  9 10  2  0  0  0
 10 11  1  0  0  0
 10 26  1  0  0  0
 11 12  1  0  0  0
 11 13  1  0  0  0
 11 18  1  0  0  0
 13 14  2  0  0  0
 13 16  1  0  0  0
 14 15  1  0  0  0
 15 35  1  0  0  0
 15 36  1  0  0  0
 16 17  3  0  0  0
 18 22  1  0  0  0
 18 19  2  0  0  0
 19 20  1  0  0  0
 19 37  1  0  0  0
 20 21  2  0  0  0
 20 38  1  0  0  0
 21 22  1  0  0  0
 21 23  1  0  0  0
 23 24  2  0  0  0
 23 25  1  0  0  0
 26 27  2  0  0  0
 26 28  1  0  0  0
 28 29  1  0  0  0
 28 39  1  0  0  0
 28 40  1  0  0  0
 29 30  1  0  0  0
 29 41  1  0  0  0
 29 42  1  0  0  0
 30 43  1  0  0  0
 30 44  1  0  0  0
M  CHG  2  23   1  25  -1
M  END
> <i_i_glide_confnum>
5

> <i_i_glide_lignum>
2645

> <i_i_glide_posenum>
158

> <i_i_glide_rotatable_bonds>
4

> <i_m_Source_File_Index>
2581

> <b_m_subgroup_collapsed>
0

> <r_i_docking_score>
-4.85003

> <r_i_glide_ecoul>
-4.83842

> <r_i_glide_eff_state_penalty>
0

> <r_i_glide_einternal>
3.12258

> <r_i_glide_emodel>
-50.5897

> <r_i_glide_energy>
-40.2589

> <r_i_glide_erotb>
0.233903

> <r_i_glide_esite>
-0.0578572

> <r_i_glide_evdw>
-35.4205

> <r_i_glide_gscore>
-4.85003

> <r_i_glide_hbond>
-0.0815712

> <r_i_glide_ligand_efficiency>
-0.167242

> <r_i_glide_ligand_efficiency_ln>
-1.11053

> <r_i_glide_ligand_efficiency_sa>
-0.513822

> <r_i_glide_lipo>
-1.25528

> <r_i_glide_metal>
0

> <r_i_glide_rewards>
-1.19244

> <s_i_glide_gridfile>
wee1_glide-grid

> <s_m_Source_File>
wee1_decoys_glide_SP.sdf

> <s_m_Source_Path>
/Users/zhangxujun/Desktop

> <s_m_entry_id>
2856

> <s_m_entry_name>
wee1_decoys_glide_SP.2581

> <s_m_subgroup_title>
wee1_decoys_glide_SP

> <s_m_subgroupid>
wee1_decoys_glide_SP


$$$$
