ZINC39445833_1237
                    3D
 Schrodinger Suite 2024-2.
 67 71  0  0  1  0            999 V2000
    8.7524   51.6746   16.0145 C   0  0  0  0  0  0
    9.9291   50.9946   16.3203 C   0  0  0  0  0  0
   10.4970   50.1293   15.3886 C   0  0  0  0  0  0
    9.9045   49.9475   14.1421 C   0  0  0  0  0  0
    8.7246   50.6197   13.8382 C   0  0  0  0  0  0
    8.1357   51.4863   14.7723 C   0  0  0  0  0  0
    6.8497   52.1246   14.4328 C   0  0  0  0  0  0
    5.8931   51.5313   13.8440 N   0  0  0  0  0  0
    4.9226   52.3118   13.5965 N   0  0  0  0  0  0
    5.1717   53.4809   13.9992 C   0  0  0  0  0  0
    6.5133   53.5885   14.6663 C   0  0  1  0  0  0
    7.1675   54.2079   14.0496 H   0  0  0  0  0  0
    6.4754   54.1762   16.1025 C   0  0  0  0  0  0
    5.6552   53.3045   17.0781 N   0  3  0  0  0  0
    5.1737   54.0222   18.3563 C   0  0  0  0  0  0
    4.4164   52.9667   19.1636 C   0  0  0  0  0  0
    4.0040   53.4425   20.5627 C   0  0  0  0  0  0
    5.1047   53.9881   21.3789 N   0  0  0  0  0  0
    5.9739   54.9285   20.6376 C   0  0  0  0  0  0
    6.3660   54.4878   19.2078 C   0  0  0  0  0  0
    4.9667   54.0971   22.7635 C   0  0  0  0  0  0
    6.0942   54.2098   23.5867 C   0  0  0  0  0  0
    5.9616   54.3160   24.9699 C   0  0  0  0  0  0
    4.6963   54.3040   25.5736 C   0  0  0  0  0  0
    3.5658   54.1897   24.7502 C   0  0  0  0  0  0
    3.7017   54.0962   23.3700 C   0  0  0  0  0  0
    4.5797   54.4236   27.0813 C   0  0  0  0  0  0
    5.5873   54.4969   27.7866 O   0  0  0  0  0  0
    3.3345   54.4972   27.5898 N   0  0  0  0  0  0
    2.9970   54.7971   28.9814 C   0  0  0  0  0  0
    1.9701   55.9360   29.0772 C   0  0  0  0  0  0
    1.2650   55.7041   30.4104 C   0  0  0  0  0  0
    1.1362   54.1781   30.4842 C   0  0  0  0  0  0
    2.3347   53.6070   29.7037 C   0  0  0  0  0  0
   11.9396   49.2702   15.7864 Cl  0  0  0  0  0  0
    8.3268   52.3052   16.7754 H   0  0  0  0  0  0
   10.4006   51.1302   17.2816 H   0  0  0  0  0  0
   10.3559   49.2853   13.4161 H   0  0  0  0  0  0
    8.2706   50.4532   12.8720 H   0  0  0  0  0  0
    4.4791   54.3069   13.8628 H   0  0  0  0  0  0
    5.9844   55.1525   16.1068 H   0  0  0  0  0  0
    7.4627   54.2993   16.5482 H   0  0  0  0  0  0
    6.2002   52.4985   17.3561 H   0  0  0  0  0  0
    4.4698   54.8289   18.1377 H   0  0  0  0  0  0
    5.0495   52.0968   19.3068 H   0  0  0  0  0  0
    3.5657   52.5795   18.6015 H   0  0  0  0  0  0
    3.5759   52.5851   21.0826 H   0  0  0  0  0  0
    3.2156   54.1833   20.4910 H   0  0  0  0  0  0
    5.5042   55.9122   20.6128 H   0  0  0  0  0  0
    6.9032   55.0649   21.1896 H   0  0  0  0  0  0
    6.9056   55.2844   18.6946 H   0  0  0  0  0  0
    7.1092   53.6962   19.2814 H   0  0  0  0  0  0
    7.0881   54.2007   23.1650 H   0  0  0  0  0  0
    6.8569   54.3950   25.5702 H   0  0  0  0  0  0
    2.5643   54.1767   25.1549 H   0  0  0  0  0  0
    2.8022   54.0261   22.7762 H   0  0  0  0  0  0
    2.5554   54.3066   26.9803 H   0  0  0  0  0  0
    3.8509   55.1139   29.5887 H   0  0  0  0  0  0
    1.2439   55.8685   28.2644 H   0  0  0  0  0  0
    2.4269   56.9203   28.9956 H   0  0  0  0  0  0
    0.3046   56.2114   30.4780 H   0  0  0  0  0  0
    1.8734   56.0971   31.2248 H   0  0  0  0  0  0
    0.2029   53.8661   30.0127 H   0  0  0  0  0  0
    1.1021   53.8155   31.5130 H   0  0  0  0  0  0
    3.0495   53.0956   30.3477 H   0  0  0  0  0  0
    1.9691   52.8612   28.9956 H   0  0  0  0  0  0
    4.8487   52.9086   16.6142 H   0  0  0  0  0  0
  1  6  2  0  0  0
  1  2  1  0  0  0
  1 36  1  0  0  0
  2  3  2  0  0  0
  2 37  1  0  0  0
  3  4  1  0  0  0
  3 35  1  0  0  0
  4  5  2  0  0  0
  4 38  1  0  0  0
  5  6  1  0  0  0
  5 39  1  0  0  0
  6  7  1  0  0  0
  7 11  1  0  0  0
  7  8  2  0  0  0
  8  9  1  0  0  0
  9 10  2  0  0  0
 10 11  1  0  0  0
 10 40  1  0  0  0
 11 12  1  0  0  0
 11 13  1  0  0  0
 13 14  1  0  0  0
 13 41  1  0  0  0
 13 42  1  0  0  0
 14 15  1  0  0  0
 14 43  1  0  0  0
 14 67  1  0  0  0
 15 20  1  0  0  0
 15 16  1  0  0  0
 15 44  1  0  0  0
 16 17  1  0  0  0
 16 45  1  0  0  0
 16 46  1  0  0  0
 17 18  1  0  0  0
 17 47  1  0  0  0
 17 48  1  0  0  0
 18 19  1  0  0  0
 18 21  1  0  0  0
 19 20  1  0  0  0
 19 49  1  0  0  0
 19 50  1  0  0  0
 20 51  1  0  0  0
 20 52  1  0  0  0
 21 26  2  0  0  0
 21 22  1  0  0  0
 22 23  2  0  0  0
 22 53  1  0  0  0
 23 24  1  0  0  0
 23 54  1  0  0  0
 24 25  2  0  0  0
 24 27  1  0  0  0
 25 26  1  0  0  0
 25 55  1  0  0  0
 26 56  1  0  0  0
 27 28  2  0  0  0
 27 29  1  0  0  0
 29 30  1  0  0  0
 29 57  1  0  0  0
 30 34  1  0  0  0
 30 31  1  0  0  0
 30 58  1  0  0  0
 31 32  1  0  0  0
 31 59  1  0  0  0
 31 60  1  0  0  0
 32 33  1  0  0  0
 32 61  1  0  0  0
 32 62  1  0  0  0
 33 34  1  0  0  0
 33 63  1  0  0  0
 33 64  1  0  0  0
 34 65  1  0  0  0
 34 66  1  0  0  0
M  CHG  1  14   1
M  END
> <i_i_glide_confnum>
114

> <i_i_glide_lignum>
1238

> <i_i_glide_posenum>
145

> <i_i_glide_rotatable_bonds>
8

> <i_m_Source_File_Index>
2414

> <b_m_subgroup_collapsed>
0

> <r_i_docking_score>
-5.91003

> <r_i_glide_ecoul>
-2.86417

> <r_i_glide_eff_state_penalty>
0

> <r_i_glide_einternal>
7.38348

> <r_i_glide_emodel>
-60.9619

> <r_i_glide_energy>
-46.1502

> <r_i_glide_erotb>
0.706613

> <r_i_glide_esite>
-0.0802747

> <r_i_glide_evdw>
-43.286

> <r_i_glide_gscore>
-5.91003

> <r_i_glide_hbond>
-0.0160903

> <r_i_glide_ligand_efficiency>
-0.173824

> <r_i_glide_ligand_efficiency_ln>
-1.30569

> <r_i_glide_ligand_efficiency_sa>
-0.563123

> <r_i_glide_lipo>
-3.23605

> <r_i_glide_metal>
0

> <r_i_glide_rewards>
-0.690298

> <s_i_glide_gridfile>
wee1_glide-grid

> <s_m_Source_File>
wee1_decoys_glide_SP.sdf

> <s_m_Source_Path>
/Users/zhangxujun/Desktop

> <s_m_entry_id>
2689

> <s_m_entry_name>
wee1_decoys_glide_SP.2414

> <s_m_subgroup_title>
wee1_decoys_glide_SP

> <s_m_subgroupid>
wee1_decoys_glide_SP


$$$$
