ZINC65061852_761
                    3D
 Schrodinger Suite 2024-2.
 58 61  0  0  1  0            999 V2000
    0.3069   49.8415   26.6924 C   0  0  0  0  0  0
   -0.1624   50.1057   25.2434 C   0  0  1  0  0  0
    0.5274   49.5739   24.5879 H   0  0  0  0  0  0
   -1.6201   49.5672   25.0095 C   0  0  0  0  0  0
   -2.2808   49.9517   23.6585 C   0  0  0  0  0  0
   -1.5156   49.3235   22.4802 C   0  0  0  0  0  0
   -1.3804   47.8465   22.6292 N   0  0  0  0  0  0
   -1.0296   47.2963   23.9748 C   0  0  0  0  0  0
   -1.7462   48.0289   25.1300 C   0  0  0  0  0  0
   -2.0519   46.7793   21.3680 S   0  0  0  0  0  0
   -2.0964   45.3926   21.8547 O   0  0  0  0  0  0
   -3.2349   47.4232   20.7868 O   0  0  0  0  0  0
   -0.7697   46.8500   20.0827 C   0  0  0  0  0  0
    0.1189   47.8972   19.8352 C   0  0  0  0  0  0
    0.9827   47.6377   18.7644 C   0  0  0  0  0  0
    0.7321   46.4092   18.1674 C   0  0  0  0  0  0
   -0.5645   45.5534   18.9409 S   0  0  0  0  0  0
   -0.0307   51.6091   24.9184 C   0  0  0  0  0  0
   -0.6535   52.4438   25.5803 O   0  0  0  0  0  0
    0.7333   51.9491   23.8641 N   0  0  0  0  0  0
    0.7753   53.2972   23.3024 C   0  0  0  0  0  0
    1.6647   54.2911   24.0685 C   0  0  0  0  0  0
    3.1606   54.1236   23.9216 C   0  0  0  0  0  0
    4.1274   54.1206   24.8536 C   0  0  0  0  0  0
    4.0546   54.2096   26.3208 C   0  0  0  0  0  0
    5.1696   54.2485   27.0766 C   0  0  0  0  0  0
    6.4458   54.2001   26.3784 C   0  0  0  0  0  0
    6.5373   54.1327   25.0199 C   0  0  0  0  0  0
    5.3804   54.0970   24.2362 C   0  0  0  0  0  0
    5.2574   54.0511   22.9303 N   0  3  0  0  0  0
    3.8304   54.0334   22.5639 C   0  0  0  0  0  0
    5.0924   54.3850   28.8355 Cl  0  0  0  0  0  0
    1.2136   50.3808   26.9548 H   0  0  0  0  0  0
   -0.4572   50.1279   27.4135 H   0  0  0  0  0  0
    0.5067   48.7834   26.8629 H   0  0  0  0  0  0
   -2.2573   49.9948   25.7845 H   0  0  0  0  0  0
   -3.3217   49.6189   23.6317 H   0  0  0  0  0  0
   -2.3114   51.0323   23.5212 H   0  0  0  0  0  0
   -2.0347   49.5328   21.5461 H   0  0  0  0  0  0
   -0.5194   49.7517   22.3673 H   0  0  0  0  0  0
   -1.2920   46.2389   24.0042 H   0  0  0  0  0  0
    0.0535   47.3305   24.0833 H   0  0  0  0  0  0
   -1.3413   47.6813   26.0805 H   0  0  0  0  0  0
   -2.7971   47.7407   25.1422 H   0  0  0  0  0  0
    0.1562   48.8128   20.4073 H   0  0  0  0  0  0
    1.7542   48.3205   18.4294 H   0  0  0  0  0  0
    1.2421   45.9745   17.3210 H   0  0  0  0  0  0
    1.2424   51.2240   23.3762 H   0  0  0  0  0  0
   -0.2428   53.6860   23.2852 H   0  0  0  0  0  0
    1.0887   53.2296   22.2599 H   0  0  0  0  0  0
    1.3850   54.3151   25.1199 H   0  0  0  0  0  0
    1.4820   55.2937   23.6854 H   0  0  0  0  0  0
    3.1014   54.2426   26.8315 H   0  0  0  0  0  0
    7.3499   54.2075   26.9728 H   0  0  0  0  0  0
    7.5044   54.0943   24.5428 H   0  0  0  0  0  0
    3.6307   54.8867   21.9117 H   0  0  0  0  0  0
    3.6311   53.1013   22.0327 H   0  0  0  0  0  0
    6.0262   54.0305   22.2640 H   0  0  0  0  0  0
  1  2  1  0  0  0
  1 33  1  0  0  0
  1 34  1  0  0  0
  1 35  1  0  0  0
  2  3  1  0  0  0
  2  4  1  0  0  0
  2 18  1  0  0  0
  4  9  1  0  0  0
  4  5  1  0  0  0
  4 36  1  0  0  0
  5  6  1  0  0  0
  5 37  1  0  0  0
  5 38  1  0  0  0
  6  7  1  0  0  0
  6 39  1  0  0  0
  6 40  1  0  0  0
  7  8  1  0  0  0
  7 10  1  0  0  0
  8  9  1  0  0  0
  8 41  1  0  0  0
  8 42  1  0  0  0
  9 43  1  0  0  0
  9 44  1  0  0  0
 10 11  2  0  0  0
 10 12  2  0  0  0
 10 13  1  0  0  0
 13 17  1  0  0  0
 13 14  2  0  0  0
 14 15  1  0  0  0
 14 45  1  0  0  0
 15 16  2  0  0  0
 15 46  1  0  0  0
 16 17  1  0  0  0
 16 47  1  0  0  0
 18 19  2  0  0  0
 18 20  1  0  0  0
 20 21  1  0  0  0
 20 48  1  0  0  0
 21 22  1  0  0  0
 21 49  1  0  0  0
 21 50  1  0  0  0
 22 23  1  0  0  0
 22 51  1  0  0  0
 22 52  1  0  0  0
 23 31  1  0  0  0
 23 24  2  0  0  0
 24 29  1  0  0  0
 24 25  1  0  0  0
 25 26  2  0  0  0
 25 53  1  0  0  0
 26 27  1  0  0  0
 26 32  1  0  0  0
 27 28  2  0  0  0
 27 54  1  0  0  0
 28 29  1  0  0  0
 28 55  1  0  0  0
 29 30  2  0  0  0
 30 31  1  0  0  0
 30 58  1  0  0  0
 31 56  1  0  0  0
 31 57  1  0  0  0
M  CHG  1  30   1
M  END
> <i_i_glide_confnum>
156

> <i_i_glide_lignum>
762

> <i_i_glide_posenum>
352

> <i_i_glide_rotatable_bonds>
8

> <i_m_Source_File_Index>
582

> <b_m_subgroup_collapsed>
0

> <r_i_docking_score>
-3.72444

> <r_i_glide_ecoul>
-1.40481

> <r_i_glide_eff_state_penalty>
0

> <r_i_glide_einternal>
7.69107

> <r_i_glide_emodel>
-45.9059

> <r_i_glide_energy>
-38.5161

> <r_i_glide_erotb>
0.613558

> <r_i_glide_esite>
-0.0422274

> <r_i_glide_evdw>
-37.1113

> <r_i_glide_gscore>
-3.72444

> <r_i_glide_hbond>
0

> <r_i_glide_ligand_efficiency>
-0.120143

> <r_i_glide_ligand_efficiency_ln>
-0.839975

> <r_i_glide_ligand_efficiency_sa>
-0.377415

> <r_i_glide_lipo>
-2.60113

> <r_i_glide_metal>
0

> <r_i_glide_rewards>
0.371646

> <s_i_glide_gridfile>
wee1_glide-grid

> <s_m_Source_File>
wee1_decoys_glide_SP.sdf

> <s_m_Source_Path>
/Users/zhangxujun/Desktop

> <s_m_entry_id>
857

> <s_m_entry_name>
wee1_decoys_glide_SP.582

> <s_m_subgroup_title>
wee1_decoys_glide_SP

> <s_m_subgroupid>
wee1_decoys_glide_SP


$$$$
