ZINC38491256_5606
                    3D
 Schrodinger Suite 2024-2.
 60 63  0  0  1  0            999 V2000
    2.3638   52.8284   29.5827 C   0  0  0  0  0  0
    3.1689   53.2821   28.3779 C   0  0  0  0  0  0
    4.5629   53.2945   28.4280 C   0  0  0  0  0  0
    5.2962   53.6967   27.3166 C   0  0  0  0  0  0
    4.6415   54.0968   26.1418 C   0  0  0  0  0  0
    3.2420   54.0975   26.1061 C   0  0  0  0  0  0
    2.5098   53.6936   27.2196 C   0  0  0  0  0  0
    5.4067   54.5217   25.0202 N   0  0  0  0  0  0
    5.2208   54.3419   23.6491 C   0  0  0  0  0  0
    6.3047   55.0531   23.0618 C   0  0  0  0  0  0
    7.0585   55.5346   24.0328 N   0  0  0  0  0  0
    6.5169   55.2272   25.2501 N   0  0  0  0  0  0
    6.6475   55.2970   21.6642 C   0  0  0  0  0  0
    7.7880   55.6356   21.3330 O   0  0  0  0  0  0
    5.6235   55.1968   20.7930 N   0  0  0  0  0  0
    5.6971   55.3658   19.3978 C   0  0  0  0  0  0
    5.1927   54.3166   18.6200 C   0  0  0  0  0  0
    5.1825   54.3983   17.2279 C   0  0  0  0  0  0
    5.6863   55.5367   16.6057 C   0  0  0  0  0  0
    6.1723   56.5952   17.3693 C   0  0  0  0  0  0
    6.1747   56.5424   18.7762 C   0  0  0  0  0  0
    6.6049   57.6039   19.5594 O   0  0  0  0  0  0
    6.9069   58.8483   18.9290 C   0  0  0  0  0  0
    4.6400   53.2483   16.3974 C   0  0  0  0  0  0
    4.0277   53.5648   23.0904 C   0  0  0  0  0  0
    4.3965   52.4873   21.6816 S   0  0  0  0  0  0
    3.0775   51.3242   21.4881 C   0  0  0  0  0  0
    3.1048   50.5795   20.3546 N   0  0  0  0  0  0
    2.1455   49.6306   20.2215 C   0  0  0  0  0  0
    1.1686   49.4105   21.1975 C   0  0  0  0  0  0
    1.2195   50.2333   22.3273 C   0  0  0  0  0  0
    2.1592   51.2044   22.4825 N   0  0  0  0  0  0
    0.2388   50.0704   23.4708 C   0  0  0  0  0  0
    2.2135   48.8069   18.9520 C   0  0  0  0  0  0
    1.9503   51.8340   29.4069 H   0  0  0  0  0  0
    2.9648   52.8110   30.4936 H   0  0  0  0  0  0
    1.5306   53.5103   29.7578 H   0  0  0  0  0  0
    5.0855   52.9727   29.3142 H   0  0  0  0  0  0
    6.3764   53.6802   27.3767 H   0  0  0  0  0  0
    2.7042   54.4387   25.2339 H   0  0  0  0  0  0
    1.4304   53.7022   27.1797 H   0  0  0  0  0  0
    4.7662   54.7970   21.1431 H   0  0  0  0  0  0
    4.8077   53.4202   19.0855 H   0  0  0  0  0  0
    5.6931   55.6092   15.5274 H   0  0  0  0  0  0
    6.5348   57.4623   16.8387 H   0  0  0  0  0  0
    7.1022   59.6094   19.6818 H   0  0  0  0  0  0
    7.7962   58.7732   18.3008 H   0  0  0  0  0  0
    6.0718   59.2104   18.3275 H   0  0  0  0  0  0
    5.1193   53.2037   15.4195 H   0  0  0  0  0  0
    3.5634   53.3501   16.2597 H   0  0  0  0  0  0
    4.8354   52.2907   16.8802 H   0  0  0  0  0  0
    3.6095   52.8996   23.8397 H   0  0  0  0  0  0
    3.2190   54.2387   22.8042 H   0  0  0  0  0  0
    0.4198   48.6411   21.0869 H   0  0  0  0  0  0
   -0.5492   49.3554   23.2273 H   0  0  0  0  0  0
    0.7565   49.7116   24.3606 H   0  0  0  0  0  0
   -0.2353   51.0228   23.7115 H   0  0  0  0  0  0
    1.3400   48.1659   18.8351 H   0  0  0  0  0  0
    2.2722   49.4596   18.0808 H   0  0  0  0  0  0
    3.1042   48.1784   18.9516 H   0  0  0  0  0  0
  1  2  1  0  0  0
  1 35  1  0  0  0
  1 36  1  0  0  0
  1 37  1  0  0  0
  2  7  2  0  0  0
  2  3  1  0  0  0
  3  4  2  0  0  0
  3 38  1  0  0  0
  4  5  1  0  0  0
  4 39  1  0  0  0
  5  6  2  0  0  0
  5  8  1  0  0  0
  6  7  1  0  0  0
  6 40  1  0  0  0
  7 41  1  0  0  0
  8 12  1  0  0  0
  8  9  1  0  0  0
  9 10  2  0  0  0
  9 25  1  0  0  0
 10 11  1  0  0  0
 10 13  1  0  0  0
 11 12  2  0  0  0
 13 14  2  0  0  0
 13 15  1  0  0  0
 15 16  1  0  0  0
 15 42  1  0  0  0
 16 21  2  0  0  0
 16 17  1  0  0  0
 17 18  2  0  0  0
 17 43  1  0  0  0
 18 19  1  0  0  0
 18 24  1  0  0  0
 19 20  2  0  0  0
 19 44  1  0  0  0
 20 21  1  0  0  0
 20 45  1  0  0  0
 21 22  1  0  0  0
 22 23  1  0  0  0
 23 46  1  0  0  0
 23 47  1  0  0  0
 23 48  1  0  0  0
 24 49  1  0  0  0
 24 50  1  0  0  0
 24 51  1  0  0  0
 25 26  1  0  0  0
 25 52  1  0  0  0
 25 53  1  0  0  0
 26 27  1  0  0  0
 27 32  2  0  0  0
 27 28  1  0  0  0
 28 29  2  0  0  0
 29 30  1  0  0  0
 29 34  1  0  0  0
 30 31  2  0  0  0
 30 54  1  0  0  0
 31 32  1  0  0  0
 31 33  1  0  0  0
 33 55  1  0  0  0
 33 56  1  0  0  0
 33 57  1  0  0  0
 34 58  1  0  0  0
 34 59  1  0  0  0
 34 60  1  0  0  0
M  END
> <i_i_glide_confnum>
95

> <i_i_glide_lignum>
5607

> <i_i_glide_posenum>
299

> <i_i_glide_rotatable_bonds>
8

> <i_m_Source_File_Index>
1910

> <b_m_subgroup_collapsed>
0

> <r_i_docking_score>
-5.7956

> <r_i_glide_ecoul>
-2.47565

> <r_i_glide_eff_state_penalty>
0

> <r_i_glide_einternal>
8.52068

> <r_i_glide_emodel>
-62.3815

> <r_i_glide_energy>
-49.2681

> <r_i_glide_erotb>
0.628935

> <r_i_glide_esite>
0

> <r_i_glide_evdw>
-46.7925

> <r_i_glide_gscore>
-5.7956

> <r_i_glide_hbond>
-0.256456

> <r_i_glide_ligand_efficiency>
-0.170459

> <r_i_glide_ligand_efficiency_ln>
-1.28041

> <r_i_glide_ligand_efficiency_sa>
-0.552221

> <r_i_glide_lipo>
-2.54985

> <r_i_glide_metal>
0

> <r_i_glide_rewards>
-0.907257

> <s_i_glide_gridfile>
wee1_glide-grid

> <s_m_Source_File>
wee1_decoys_glide_SP.sdf

> <s_m_Source_Path>
/Users/zhangxujun/Desktop

> <s_m_entry_id>
2185

> <s_m_entry_name>
wee1_decoys_glide_SP.1910

> <s_m_subgroup_title>
wee1_decoys_glide_SP

> <s_m_subgroupid>
wee1_decoys_glide_SP


$$$$
