ZINC39686701_2161
                    3D
 Schrodinger Suite 2024-2.
 70 73  0  0  1  0            999 V2000
   -1.1596   49.7218   24.5222 C   0  0  0  0  0  0
   -0.2659   50.8645   25.0439 C   0  0  2  0  0  0
    0.4396   50.3721   25.7183 H   0  0  0  0  0  0
   -1.0409   51.9281   25.8725 C   0  0  0  0  0  0
   -0.5441   52.0910   27.3136 C   0  0  0  0  0  0
   -1.2991   51.5458   28.3573 C   0  0  0  0  0  0
   -0.8946   51.6965   29.6825 C   0  0  0  0  0  0
    0.2671   52.3970   29.9806 C   0  0  0  0  0  0
    1.0364   52.9298   28.9501 C   0  0  0  0  0  0
    0.6446   52.7833   27.6060 C   0  0  0  0  0  0
    1.3700   53.2924   26.5451 O   0  0  0  0  0  0
    2.5095   54.0919   26.8177 C   0  0  0  0  0  0
    0.5917   51.4643   24.0142 N   0  0  0  0  0  0
    0.2513   52.0196   22.8290 C   0  0  0  0  0  0
   -0.9047   52.0330   22.4094 O   0  0  0  0  0  0
    1.3450   52.7342   21.9787 C   0  0  1  0  0  0
    0.9376   53.6967   21.6834 H   0  0  0  0  0  0
    2.5590   53.0760   22.8687 C   0  0  0  0  0  0
    3.6524   53.2284   21.9197 N   0  0  0  0  0  0
    3.2967   52.6954   20.6037 C   0  0  0  0  0  0
    1.9340   51.9655   20.7594 C   0  0  0  0  0  0
    2.1036   50.4364   21.0027 C   0  0  0  0  0  0
    2.8885   49.7486   19.8614 C   0  0  0  0  0  0
    2.2577   50.0580   18.4830 N   0  3  0  0  0  0
    1.8423   51.5307   18.2486 C   0  0  0  0  0  0
    1.0616   52.0416   19.4836 C   0  0  0  0  0  0
    4.7428   54.0171   22.0969 C   0  0  0  0  0  0
    5.5035   54.2444   21.1528 O   0  0  0  0  0  0
    5.0662   54.6277   23.4996 C   0  0  2  0  0  0
    4.2277   55.2964   23.6855 H   0  0  0  0  0  0
    6.4260   55.3702   23.4717 C   0  0  0  0  0  0
    6.6345   56.0970   24.8142 C   0  0  0  0  0  0
    6.4114   55.2037   26.0128 C   0  0  0  0  0  0
    5.7607   54.0439   25.9074 C   0  0  0  0  0  0
    5.1516   53.5631   24.6019 C   0  0  0  0  0  0
   -1.7428   49.2967   25.3404 H   0  0  0  0  0  0
   -1.8794   50.0635   23.7784 H   0  0  0  0  0  0
   -0.5632   48.9114   24.1018 H   0  0  0  0  0  0
   -2.1036   51.6795   25.8990 H   0  0  0  0  0  0
   -1.0114   52.9035   25.3855 H   0  0  0  0  0  0
   -2.2003   50.9865   28.1474 H   0  0  0  0  0  0
   -1.4792   51.2579   30.4808 H   0  0  0  0  0  0
    0.5743   52.5074   31.0106 H   0  0  0  0  0  0
    1.9405   53.4513   29.2204 H   0  0  0  0  0  0
    2.8833   54.5006   25.8819 H   0  0  0  0  0  0
    2.2741   54.9324   27.4712 H   0  0  0  0  0  0
    3.3021   53.4965   27.2726 H   0  0  0  0  0  0
    1.5572   51.5370   24.2874 H   0  0  0  0  0  0
    2.3415   53.9572   23.4757 H   0  0  0  0  0  0
    2.8090   52.1931   23.4494 H   0  0  0  0  0  0
    4.0854   52.1666   20.0685 H   0  0  0  0  0  0
    3.1070   53.5788   19.9900 H   0  0  0  0  0  0
    2.6742   50.2779   21.9197 H   0  0  0  0  0  0
    1.1463   49.9403   21.1718 H   0  0  0  0  0  0
    3.9078   50.1067   19.7802 H   0  0  0  0  0  0
    2.9019   48.6621   19.9517 H   0  0  0  0  0  0
    2.9276   49.7829   17.7586 H   0  0  0  0  0  0
    2.7675   52.0789   18.0568 H   0  0  0  0  0  0
    1.2433   51.5339   17.3362 H   0  0  0  0  0  0
    0.1010   51.5402   19.6143 H   0  0  0  0  0  0
    0.8167   53.0857   19.2833 H   0  0  0  0  0  0
    7.2581   54.6709   23.3566 H   0  0  0  0  0  0
    6.4599   56.1291   22.6901 H   0  0  0  0  0  0
    5.9068   56.9016   24.8832 H   0  0  0  0  0  0
    7.6451   56.4960   24.8484 H   0  0  0  0  0  0
    6.7864   55.4946   26.9845 H   0  0  0  0  0  0
    5.6593   53.4290   26.7912 H   0  0  0  0  0  0
    4.2224   53.0350   24.7841 H   0  0  0  0  0  0
    5.8990   52.8967   24.2090 H   0  0  0  0  0  0
    1.4458   49.4703   18.3588 H   0  0  0  0  0  0
  1  2  1  0  0  0
  1 36  1  0  0  0
  1 37  1  0  0  0
  1 38  1  0  0  0
  2  3  1  0  0  0
  2  4  1  0  0  0
  2 13  1  0  0  0
  4  5  1  0  0  0
  4 39  1  0  0  0
  4 40  1  0  0  0
  5 10  2  0  0  0
  5  6  1  0  0  0
  6  7  2  0  0  0
  6 41  1  0  0  0
  7  8  1  0  0  0
  7 42  1  0  0  0
  8  9  2  0  0  0
  8 43  1  0  0  0
  9 10  1  0  0  0
  9 44  1  0  0  0
 10 11  1  0  0  0
 11 12  1  0  0  0
 12 45  1  0  0  0
 12 46  1  0  0  0
 12 47  1  0  0  0
 13 14  1  0  0  0
 13 48  1  0  0  0
 14 15  2  0  0  0
 14 16  1  0  0  0
 16 17  1  0  0  0
 16 21  1  0  0  0
 16 18  1  0  0  0
 18 19  1  0  0  0
 18 49  1  0  0  0
 18 50  1  0  0  0
 19 20  1  0  0  0
 19 27  1  0  0  0
 20 21  1  0  0  0
 20 51  1  0  0  0
 20 52  1  0  0  0
 21 26  1  0  0  0
 21 22  1  0  0  0
 22 23  1  0  0  0
 22 53  1  0  0  0
 22 54  1  0  0  0
 23 24  1  0  0  0
 23 55  1  0  0  0
 23 56  1  0  0  0
 24 25  1  0  0  0
 24 57  1  0  0  0
 24 70  1  0  0  0
 25 26  1  0  0  0
 25 58  1  0  0  0
 25 59  1  0  0  0
 26 60  1  0  0  0
 26 61  1  0  0  0
 27 28  2  0  0  0
 27 29  1  0  0  0
 29 30  1  0  0  0
 29 35  1  0  0  0
 29 31  1  0  0  0
 31 32  1  0  0  0
 31 62  1  0  0  0
 31 63  1  0  0  0
 32 33  1  0  0  0
 32 64  1  0  0  0
 32 65  1  0  0  0
 33 34  2  0  0  0
 33 66  1  0  0  0
 34 35  1  0  0  0
 34 67  1  0  0  0
 35 68  1  0  0  0
 35 69  1  0  0  0
M  CHG  1  24   1
M  END
> <i_i_glide_confnum>
78

> <i_i_glide_lignum>
2162

> <i_i_glide_posenum>
160

> <i_i_glide_rotatable_bonds>
8

> <i_m_Source_File_Index>
3514

> <b_m_subgroup_collapsed>
0

> <r_i_docking_score>
-4.86779

> <r_i_glide_ecoul>
-6.38024

> <r_i_glide_eff_state_penalty>
0

> <r_i_glide_einternal>
8.03616

> <r_i_glide_emodel>
-43.6967

> <r_i_glide_energy>
-35.3932

> <r_i_glide_erotb>
0.720024

> <r_i_glide_esite>
-0.1

> <r_i_glide_evdw>
-29.013

> <r_i_glide_gscore>
-4.86779

> <r_i_glide_hbond>
-0.2

> <r_i_glide_ligand_efficiency>
-0.152118

> <r_i_glide_ligand_efficiency_ln>
-1.09003

> <r_i_glide_ligand_efficiency_sa>
-0.482946

> <r_i_glide_lipo>
-2.004

> <r_i_glide_metal>
0

> <r_i_glide_rewards>
-0.876123

> <s_i_glide_gridfile>
wee1_glide-grid

> <s_m_Source_File>
wee1_decoys_glide_SP.sdf

> <s_m_Source_Path>
/Users/zhangxujun/Desktop

> <s_m_entry_id>
3789

> <s_m_entry_name>
wee1_decoys_glide_SP.3514

> <s_m_subgroup_title>
wee1_decoys_glide_SP

> <s_m_subgroupid>
wee1_decoys_glide_SP


$$$$
