ZINC02347377_3908
                    3D
 Schrodinger Suite 2024-2.
 55 59  0  0  1  0            999 V2000
    2.1649   54.9207   29.2860 C   0  0  0  0  0  0
    3.4297   54.5953   28.5161 C   0  0  0  0  0  0
    4.6316   54.3904   29.1926 C   0  0  0  0  0  0
    5.7863   54.0655   28.4815 C   0  0  0  0  0  0
    5.7489   53.9654   27.0942 C   0  0  0  0  0  0
    4.5641   54.2350   26.3932 C   0  0  0  0  0  0
    3.3965   54.4964   27.1240 C   0  0  0  0  0  0
    4.5431   54.1841   24.9662 N   0  0  0  0  0  0
    5.5308   54.6685   24.0982 C   0  0  0  0  0  0
    5.1877   54.4464   22.7557 C   0  0  0  0  0  0
    3.9072   53.7918   22.8198 C   0  0  0  0  0  0
    3.5092   53.6970   24.1760 C   0  0  0  0  0  0
    2.3396   53.1631   24.5527 N   0  0  0  0  0  0
    1.5137   52.6820   23.5861 C   0  0  0  0  0  0
    0.2698   52.0993   23.9304 C   0  0  0  0  0  0
   -0.5584   51.5962   22.9285 C   0  0  0  0  0  0
   -0.1782   51.6628   21.5896 C   0  0  0  0  0  0
    1.0423   52.2290   21.2220 C   0  0  0  0  0  0
    1.9038   52.7498   22.2161 C   0  0  0  0  0  0
    3.0950   53.3114   21.8695 N   0  0  0  0  0  0
    5.9936   54.8437   21.6138 C   0  0  0  0  0  0
    7.0579   55.4526   21.7394 O   0  0  0  0  0  0
    5.5044   54.4391   20.4277 N   0  0  0  0  0  0
    6.1840   54.5132   19.1294 C   0  0  1  0  0  0
    7.0481   53.8464   19.2043 H   0  0  0  0  0  0
    5.2912   53.9096   18.0314 C   0  0  0  0  0  0
    6.7085   55.9051   18.7548 C   0  0  0  0  0  0
    5.8168   56.9290   18.4150 C   0  0  0  0  0  0
    6.3032   58.1802   18.0464 C   0  0  0  0  0  0
    7.6762   58.4100   18.0179 C   0  0  0  0  0  0
    8.5715   57.3953   18.3553 C   0  0  0  0  0  0
    8.0874   56.1431   18.7229 C   0  0  0  0  0  0
    6.6475   55.2977   24.5939 N   0  0  0  0  0  0
    2.1101   54.3293   30.2032 H   0  0  0  0  0  0
    2.1393   55.9806   29.5535 H   0  0  0  0  0  0
    1.2669   54.6780   28.7059 H   0  0  0  0  0  0
    4.6742   54.4785   30.2683 H   0  0  0  0  0  0
    6.7162   53.8911   29.0056 H   0  0  0  0  0  0
    6.6533   53.6766   26.5780 H   0  0  0  0  0  0
    2.4583   54.6548   26.6190 H   0  0  0  0  0  0
   -0.0224   52.0372   24.9693 H   0  0  0  0  0  0
   -1.4981   51.1397   23.1943 H   0  0  0  0  0  0
   -0.8299   51.2584   20.8282 H   0  0  0  0  0  0
    1.3361   52.2747   20.1827 H   0  0  0  0  0  0
    4.6664   53.8764   20.4473 H   0  0  0  0  0  0
    5.8119   53.8772   17.0735 H   0  0  0  0  0  0
    5.0057   52.8857   18.2733 H   0  0  0  0  0  0
    4.3716   54.4797   17.8925 H   0  0  0  0  0  0
    4.7496   56.7585   18.4382 H   0  0  0  0  0  0
    5.6195   58.9746   17.7802 H   0  0  0  0  0  0
    8.0412   59.3845   17.7279 H   0  0  0  0  0  0
    9.6341   57.5789   18.3338 H   0  0  0  0  0  0
    8.7886   55.3630   18.9877 H   0  0  0  0  0  0
    7.3930   55.5835   23.9668 H   0  0  0  0  0  0
    6.7064   55.5727   25.5617 H   0  0  0  0  0  0
  1  2  1  0  0  0
  1 34  1  0  0  0
  1 35  1  0  0  0
  1 36  1  0  0  0
  2  7  2  0  0  0
  2  3  1  0  0  0
  3  4  2  0  0  0
  3 37  1  0  0  0
  4  5  1  0  0  0
  4 38  1  0  0  0
  5  6  2  0  0  0
  5 39  1  0  0  0
  6  7  1  0  0  0
  6  8  1  0  0  0
  7 40  1  0  0  0
  8 12  1  0  0  0
  8  9  1  0  0  0
  9 10  2  0  0  0
  9 33  1  0  0  0
 10 11  1  0  0  0
 10 21  1  0  0  0
 11 20  2  0  0  0
 11 12  1  0  0  0
 12 13  2  0  0  0
 13 14  1  0  0  0
 14 19  2  0  0  0
 14 15  1  0  0  0
 15 16  2  0  0  0
 15 41  1  0  0  0
 16 17  1  0  0  0
 16 42  1  0  0  0
 17 18  2  0  0  0
 17 43  1  0  0  0
 18 19  1  0  0  0
 18 44  1  0  0  0
 19 20  1  0  0  0
 21 22  2  0  0  0
 21 23  1  0  0  0
 23 24  1  0  0  0
 23 45  1  0  0  0
 24 25  1  0  0  0
 24 26  1  0  0  0
 24 27  1  0  0  0
 26 46  1  0  0  0
 26 47  1  0  0  0
 26 48  1  0  0  0
 27 32  2  0  0  0
 27 28  1  0  0  0
 28 29  2  0  0  0
 28 49  1  0  0  0
 29 30  1  0  0  0
 29 50  1  0  0  0
 30 31  2  0  0  0
 30 51  1  0  0  0
 31 32  1  0  0  0
 31 52  1  0  0  0
 32 53  1  0  0  0
 33 54  1  0  0  0
 33 55  1  0  0  0
M  END
> <i_i_glide_confnum>
20

> <i_i_glide_lignum>
3909

> <i_i_glide_posenum>
172

> <i_i_glide_rotatable_bonds>
5

> <i_m_Source_File_Index>
3950

> <b_m_subgroup_collapsed>
0

> <r_i_docking_score>
-6.51436

> <r_i_glide_ecoul>
-1.70165

> <r_i_glide_eff_state_penalty>
0

> <r_i_glide_einternal>
3.38755

> <r_i_glide_emodel>
-64.6052

> <r_i_glide_energy>
-46.8169

> <r_i_glide_erotb>
0.445847

> <r_i_glide_esite>
0

> <r_i_glide_evdw>
-45.1153

> <r_i_glide_gscore>
-6.51436

> <r_i_glide_hbond>
-0.0663285

> <r_i_glide_ligand_efficiency>
-0.203574

> <r_i_glide_ligand_efficiency_ln>
-1.45874

> <r_i_glide_ligand_efficiency_sa>
-0.646306

> <r_i_glide_lipo>
-2.90782

> <r_i_glide_metal>
0

> <r_i_glide_rewards>
-1.47505

> <s_i_glide_gridfile>
wee1_glide-grid

> <s_m_Source_File>
wee1_decoys_glide_SP.sdf

> <s_m_Source_Path>
/Users/zhangxujun/Desktop

> <s_m_entry_id>
4225

> <s_m_entry_name>
wee1_decoys_glide_SP.3950

> <s_m_subgroup_title>
wee1_decoys_glide_SP

> <s_m_subgroupid>
wee1_decoys_glide_SP


$$$$
