ZINC00584773_3865
                    3D
 Schrodinger Suite 2024-2.
 41 44  0  0  1  0            999 V2000
    3.7834   53.0678   29.6306 C   0  0  0  0  0  0
    2.2161   52.1483   29.5604 S   0  0  0  0  0  0
    1.5920   52.2448   27.9053 C   0  0  0  0  0  0
    0.6904   51.2798   27.4645 C   0  0  0  0  0  0
    0.2328   51.2964   26.1499 C   0  0  0  0  0  0
    0.6433   52.3056   25.2658 C   0  0  0  0  0  0
    1.5091   53.2969   25.7398 C   0  0  0  0  0  0
    1.9944   53.2630   27.0434 C   0  0  0  0  0  0
    0.1055   52.3690   23.8216 C   0  0  1  0  0  0
    0.0682   53.4215   23.5389 H   0  0  0  0  0  0
    1.0047   51.5962   22.8213 C   0  0  0  0  0  0
    2.1998   52.1509   22.2403 C   0  0  0  0  0  0
    2.6578   53.4738   22.4989 C   0  0  0  0  0  0
    3.8425   53.9504   21.9477 C   0  0  0  0  0  0
    4.5964   53.1580   21.0976 C   0  0  0  0  0  0
    4.1693   51.8751   20.7797 C   0  0  0  0  0  0
    2.9751   51.3532   21.3356 C   0  0  0  0  0  0
    2.5309   50.0580   20.9887 C   0  0  0  0  0  0
    1.3553   49.5515   21.5189 C   0  0  0  0  0  0
    0.6073   50.3096   22.4063 C   0  0  0  0  0  0
   -0.5857   49.7500   22.8167 O   0  0  0  0  0  0
   -1.5599   50.5961   23.2243 C   0  0  0  0  0  0
   -1.3329   51.8445   23.6764 C   0  0  0  0  0  0
   -2.4269   52.6660   24.0749 C   0  0  0  0  0  0
   -3.3503   53.2965   24.3668 N   0  0  0  0  0  0
   -2.7616   49.9516   23.1201 N   0  0  0  0  0  0
    4.2823   52.8767   30.5807 H   0  0  0  0  0  0
    3.6093   54.1426   29.5449 H   0  0  0  0  0  0
    4.4485   52.7505   28.8240 H   0  0  0  0  0  0
    0.3495   50.4982   28.1268 H   0  0  0  0  0  0
   -0.4465   50.5195   25.8315 H   0  0  0  0  0  0
    1.8179   54.1171   25.1160 H   0  0  0  0  0  0
    2.6751   54.0321   27.3735 H   0  0  0  0  0  0
    2.0763   54.1474   23.0996 H   0  0  0  0  0  0
    4.1658   54.9569   22.1618 H   0  0  0  0  0  0
    5.5013   53.5494   20.6577 H   0  0  0  0  0  0
    4.7421   51.2808   20.0833 H   0  0  0  0  0  0
    3.1028   49.4664   20.2860 H   0  0  0  0  0  0
    1.0109   48.5723   21.2231 H   0  0  0  0  0  0
   -3.6167   50.4254   23.3772 H   0  0  0  0  0  0
   -2.7876   48.9424   23.0834 H   0  0  0  0  0  0
  1  2  1  0  0  0
  1 27  1  0  0  0
  1 28  1  0  0  0
  1 29  1  0  0  0
  2  3  1  0  0  0
  3  8  2  0  0  0
  3  4  1  0  0  0
  4  5  2  0  0  0
  4 30  1  0  0  0
  5  6  1  0  0  0
  5 31  1  0  0  0
  6  7  2  0  0  0
  6  9  1  0  0  0
  7  8  1  0  0  0
  7 32  1  0  0  0
  8 33  1  0  0  0
  9 10  1  0  0  0
  9 23  1  0  0  0
  9 11  1  0  0  0
 11 20  2  0  0  0
 11 12  1  0  0  0
 12 17  2  0  0  0
 12 13  1  0  0  0
 13 14  2  0  0  0
 13 34  1  0  0  0
 14 15  1  0  0  0
 14 35  1  0  0  0
 15 16  2  0  0  0
 15 36  1  0  0  0
 16 17  1  0  0  0
 16 37  1  0  0  0
 17 18  1  0  0  0
 18 19  2  0  0  0
 18 38  1  0  0  0
 19 20  1  0  0  0
 19 39  1  0  0  0
 20 21  1  0  0  0
 21 22  1  0  0  0
 22 23  2  0  0  0
 22 26  1  0  0  0
 23 24  1  0  0  0
 24 25  3  0  0  0
 26 40  1  0  0  0
 26 41  1  0  0  0
M  END
> <i_i_glide_confnum>
2

> <i_i_glide_lignum>
3866

> <i_i_glide_posenum>
128

> <i_i_glide_rotatable_bonds>
3

> <i_m_Source_File_Index>
211

> <b_m_subgroup_collapsed>
0

> <r_i_docking_score>
-4.58233

> <r_i_glide_ecoul>
-1.56188

> <r_i_glide_eff_state_penalty>
0

> <r_i_glide_einternal>
2.74214

> <r_i_glide_emodel>
-42.7904

> <r_i_glide_energy>
-34.0089

> <r_i_glide_erotb>
0.160052

> <r_i_glide_esite>
-0.000115327

> <r_i_glide_evdw>
-32.447

> <r_i_glide_gscore>
-4.58233

> <r_i_glide_hbond>
0

> <r_i_glide_ligand_efficiency>
-0.183293

> <r_i_glide_ligand_efficiency_ln>
-1.08615

> <r_i_glide_ligand_efficiency_sa>
-0.535952

> <r_i_glide_lipo>
-1.6622

> <r_i_glide_metal>
0

> <r_i_glide_rewards>
-1.22344

> <s_i_glide_gridfile>
wee1_glide-grid

> <s_m_Source_File>
wee1_decoys_glide_SP.sdf

> <s_m_Source_Path>
/Users/zhangxujun/Desktop

> <s_m_entry_id>
486

> <s_m_entry_name>
wee1_decoys_glide_SP.211

> <s_m_subgroup_title>
wee1_decoys_glide_SP

> <s_m_subgroupid>
wee1_decoys_glide_SP


$$$$
