ZINC09781164_1235
                    3D
 Schrodinger Suite 2024-2.
 59 63  0  0  1  0            999 V2000
    8.9543   55.3628   19.2815 C   0  0  0  0  0  0
    8.3824   56.6159   18.6261 C   0  0  0  0  0  0
    9.2855   57.5574   18.1212 C   0  0  0  0  0  0
    8.8297   58.6924   17.4541 C   0  0  0  0  0  0
    7.4632   58.8927   17.2774 C   0  0  0  0  0  0
    6.5475   57.9674   17.7780 C   0  0  0  0  0  0
    6.9945   56.8331   18.4625 C   0  0  0  0  0  0
    6.0261   55.9155   18.9008 N   0  0  0  0  0  0
    5.9039   55.4572   20.1624 C   0  0  0  0  0  0
    6.4484   56.0249   21.1124 O   0  0  0  0  0  0
    5.0869   54.2555   20.3325 C   0  0  0  0  0  0
    5.1121   53.1865   19.4705 C   0  0  0  0  0  0
    4.3039   52.0977   19.7166 N   0  3  0  0  0  0
    3.4298   52.0343   20.7194 C   0  0  0  0  0  0
    2.6900   50.9964   21.0754 N   0  0  0  0  0  0
    2.0220   51.4118   22.0816 C   0  0  0  0  0  0
    2.3481   52.7474   22.4196 N   0  0  0  0  0  0
    3.2881   53.0815   21.5016 N   0  0  0  0  0  0
    4.2222   54.2108   21.6365 C   0  0  1  0  0  0
    3.6009   55.1040   21.6912 H   0  0  0  0  0  0
    4.9872   54.1157   22.9738 C   0  0  0  0  0  0
    4.3796   54.4967   24.1763 C   0  0  0  0  0  0
    5.1322   54.4932   25.3523 C   0  0  0  0  0  0
    6.4692   54.0982   25.3076 C   0  0  0  0  0  0
    7.0023   53.7087   24.0776 C   0  0  0  0  0  0
    6.2791   53.6951   22.9322 N   0  0  0  0  0  0
    0.8196   50.4585   23.0335 S   0  0  0  0  0  0
   -0.0958   51.7440   23.9537 C   0  0  0  0  0  0
    0.4034   51.9105   25.3834 C   0  0  0  0  0  0
   -0.1191   51.1080   26.4012 C   0  0  0  0  0  0
    0.2943   51.2963   27.7165 C   0  0  0  0  0  0
    1.2392   52.2745   28.0148 C   0  0  0  0  0  0
    1.7687   53.0759   27.0063 C   0  0  0  0  0  0
    1.3449   52.8965   25.6917 C   0  0  0  0  0  0
    5.9486   52.9376   18.2137 C   0  0  0  0  0  0
    9.1064   55.5197   20.3498 H   0  0  0  0  0  0
    8.3165   54.4926   19.1392 H   0  0  0  0  0  0
    9.9053   55.0897   18.8317 H   0  0  0  0  0  0
   10.3489   57.4025   18.2395 H   0  0  0  0  0  0
    9.5366   59.4087   17.0618 H   0  0  0  0  0  0
    7.1041   59.7630   16.7491 H   0  0  0  0  0  0
    5.4914   58.1451   17.6312 H   0  0  0  0  0  0
    5.3475   55.6103   18.2209 H   0  0  0  0  0  0
    3.3604   54.8488   24.1911 H   0  0  0  0  0  0
    4.6890   54.8032   26.2870 H   0  0  0  0  0  0
    7.0698   54.0791   26.2053 H   0  0  0  0  0  0
    8.0261   53.3773   23.9905 H   0  0  0  0  0  0
   -0.1071   52.6990   23.4302 H   0  0  0  0  0  0
   -1.1429   51.4397   23.9876 H   0  0  0  0  0  0
   -0.8507   50.3417   26.1844 H   0  0  0  0  0  0
   -0.1205   50.6793   28.5008 H   0  0  0  0  0  0
    1.5596   52.4134   29.0368 H   0  0  0  0  0  0
    2.4977   53.8362   27.2441 H   0  0  0  0  0  0
    1.7407   53.5334   24.9198 H   0  0  0  0  0  0
    6.7038   52.1884   18.4436 H   0  0  0  0  0  0
    5.3406   52.5005   17.4142 H   0  0  0  0  0  0
    6.4687   53.7943   17.7971 H   0  0  0  0  0  0
    4.4458   51.2786   19.1205 H   0  0  0  0  0  0
    1.6625   53.4675   22.5770 H   0  0  0  0  0  0
  1  2  1  0  0  0
  1 36  1  0  0  0
  1 37  1  0  0  0
  1 38  1  0  0  0
  2  7  2  0  0  0
  2  3  1  0  0  0
  3  4  2  0  0  0
  3 39  1  0  0  0
  4  5  1  0  0  0
  4 40  1  0  0  0
  5  6  2  0  0  0
  5 41  1  0  0  0
  6  7  1  0  0  0
  6 42  1  0  0  0
  7  8  1  0  0  0
  8  9  1  0  0  0
  8 43  1  0  0  0
  9 10  2  0  0  0
  9 11  1  0  0  0
 11 19  1  0  0  0
 11 12  2  0  0  0
 12 13  1  0  0  0
 12 35  1  0  0  0
 13 14  2  0  0  0
 13 58  1  0  0  0
 14 18  1  0  0  0
 14 15  1  0  0  0
 15 16  2  0  0  0
 16 17  1  0  0  0
 16 27  1  0  0  0
 17 18  1  0  0  0
 17 59  1  0  0  0
 18 19  1  0  0  0
 19 20  1  0  0  0
 19 21  1  0  0  0
 21 26  2  0  0  0
 21 22  1  0  0  0
 22 23  2  0  0  0
 22 44  1  0  0  0
 23 24  1  0  0  0
 23 45  1  0  0  0
 24 25  2  0  0  0
 24 46  1  0  0  0
 25 26  1  0  0  0
 25 47  1  0  0  0
 27 28  1  0  0  0
 28 29  1  0  0  0
 28 48  1  0  0  0
 28 49  1  0  0  0
 29 34  2  0  0  0
 29 30  1  0  0  0
 30 31  2  0  0  0
 30 50  1  0  0  0
 31 32  1  0  0  0
 31 51  1  0  0  0
 32 33  2  0  0  0
 32 52  1  0  0  0
 33 34  1  0  0  0
 33 53  1  0  0  0
 34 54  1  0  0  0
 35 55  1  0  0  0
 35 56  1  0  0  0
 35 57  1  0  0  0
M  CHG  1  13   1
M  END
> <i_i_glide_confnum>
8

> <i_i_glide_lignum>
1236

> <i_i_glide_posenum>
338

> <i_i_glide_rotatable_bonds>
7

> <i_m_Source_File_Index>
5943

> <b_m_subgroup_collapsed>
0

> <r_i_docking_score>
-5.04575

> <r_i_glide_ecoul>
-6.23848

> <r_i_glide_eff_state_penalty>
0

> <r_i_glide_einternal>
9.84065

> <r_i_glide_emodel>
-57.2227

> <r_i_glide_energy>
-45.4084

> <r_i_glide_erotb>
0.641204

> <r_i_glide_esite>
-0.11199

> <r_i_glide_evdw>
-39.1699

> <r_i_glide_gscore>
-5.04575

> <r_i_glide_hbond>
-0.2

> <r_i_glide_ligand_efficiency>
-0.148404

> <r_i_glide_ligand_efficiency_ln>
-1.11475

> <r_i_glide_ligand_efficiency_sa>
-0.480772

> <r_i_glide_lipo>
-1.93605

> <r_i_glide_metal>
0

> <r_i_glide_rewards>
-0.544646

> <s_i_glide_gridfile>
wee1_glide-grid

> <s_m_Source_File>
wee1_decoys_glide_SP.sdf

> <s_m_Source_Path>
/Users/zhangxujun/Desktop

> <s_m_entry_id>
6218

> <s_m_entry_name>
wee1_decoys_glide_SP.5943

> <s_m_subgroup_title>
wee1_decoys_glide_SP

> <s_m_subgroupid>
wee1_decoys_glide_SP


$$$$
