ZINC59210842_4508
                    3D
 Schrodinger Suite 2024-2.
 64 67  0  0  1  0            999 V2000
    2.8759   55.3325   29.6247 C   0  0  0  0  0  0
    2.0921   54.2277   28.9573 C   0  0  0  0  0  0
    2.4347   53.8023   27.6729 C   0  0  0  0  0  0
    1.7065   52.7871   27.0551 C   0  0  0  0  0  0
    0.6319   52.1931   27.7224 C   0  0  0  0  0  0
    0.2888   52.6147   29.0192 C   0  0  0  0  0  0
    1.0189   53.6377   29.6245 C   0  0  0  0  0  0
   -0.8412   51.9645   29.7970 C   0  0  0  0  0  0
   -0.0797   51.1805   27.0734 N   0  0  0  0  0  0
   -1.2490   51.3796   26.4352 C   0  0  0  0  0  0
   -1.7662   52.4916   26.2958 O   0  0  0  0  0  0
   -1.8382   50.1704   25.8843 C   0  0  0  0  0  0
   -3.1817   49.9389   25.9016 C   0  0  0  0  0  0
   -3.7053   48.8188   25.3355 N   0  0  0  0  0  0
   -2.9932   47.8120   24.7621 C   0  0  0  0  0  0
   -3.7222   46.4935   24.0886 S   0  0  0  0  0  0
   -1.6380   47.9641   24.7746 N   0  0  0  0  0  0
   -0.8972   49.2084   25.0881 C   0  0  1  0  0  0
   -0.0689   48.9098   25.7343 H   0  0  0  0  0  0
   -0.2804   49.8476   23.8457 C   0  0  0  0  0  0
    1.1029   49.8829   23.6833 C   0  0  0  0  0  0
    1.6655   50.5695   22.6108 C   0  0  0  0  0  0
    0.8534   51.2556   21.6923 C   0  0  0  0  0  0
   -0.5420   51.1483   21.7993 C   0  0  0  0  0  0
   -1.0953   50.4514   22.8860 C   0  0  0  0  0  0
   -1.3141   51.7599   20.8262 O   0  0  0  0  0  0
   -2.6674   51.3445   20.6699 C   0  0  0  0  0  0
    1.3514   52.0670   20.6850 O   0  0  0  0  0  0
    2.7609   52.2744   20.5154 C   0  0  0  0  0  0
    3.4481   52.9926   21.6835 C   0  0  0  0  0  0
    4.8439   52.9727   21.7481 C   0  0  0  0  0  0
    5.5050   53.5540   22.8275 C   0  0  0  0  0  0
    4.7694   54.1451   23.8516 C   0  0  0  0  0  0
    3.3776   54.1985   23.7795 C   0  0  0  0  0  0
    2.7201   53.6424   22.6874 C   0  0  0  0  0  0
    5.5893   54.8335   25.2079 Cl  0  0  0  0  0  0
   -4.2505   50.7755   26.6019 C   0  0  0  0  0  0
    3.8096   54.9304   30.0213 H   0  0  0  0  0  0
    2.3032   55.8148   30.4204 H   0  0  0  0  0  0
    3.1050   56.1064   28.8935 H   0  0  0  0  0  0
    3.2647   54.2554   27.1511 H   0  0  0  0  0  0
    1.9739   52.4713   26.0565 H   0  0  0  0  0  0
    0.7601   53.9644   30.6218 H   0  0  0  0  0  0
   -1.7904   52.0970   29.2820 H   0  0  0  0  0  0
   -0.6691   50.8962   29.8551 H   0  0  0  0  0  0
   -0.9028   52.3395   30.8196 H   0  0  0  0  0  0
    0.2408   50.2305   27.1842 H   0  0  0  0  0  0
   -4.6974   48.6405   25.3486 H   0  0  0  0  0  0
   -1.1305   47.1863   24.3819 H   0  0  0  0  0  0
    1.7493   49.3971   24.3997 H   0  0  0  0  0  0
    2.7405   50.5896   22.5315 H   0  0  0  0  0  0
   -2.1632   50.3979   23.0235 H   0  0  0  0  0  0
   -3.1044   51.8552   19.8115 H   0  0  0  0  0  0
   -2.7360   50.2709   20.4829 H   0  0  0  0  0  0
   -3.2702   51.5865   21.5432 H   0  0  0  0  0  0
    3.2467   51.3159   20.3196 H   0  0  0  0  0  0
    2.8960   52.8796   19.6179 H   0  0  0  0  0  0
    5.4175   52.4897   20.9707 H   0  0  0  0  0  0
    6.5836   53.5272   22.8815 H   0  0  0  0  0  0
    2.8098   54.6751   24.5645 H   0  0  0  0  0  0
    1.6417   53.6951   22.6385 H   0  0  0  0  0  0
   -4.8141   51.3549   25.8685 H   0  0  0  0  0  0
   -4.9499   50.1421   27.1505 H   0  0  0  0  0  0
   -3.8344   51.4710   27.3323 H   0  0  0  0  0  0
  1  2  1  0  0  0
  1 38  1  0  0  0
  1 39  1  0  0  0
  1 40  1  0  0  0
  2  7  2  0  0  0
  2  3  1  0  0  0
  3  4  2  0  0  0
  3 41  1  0  0  0
  4  5  1  0  0  0
  4 42  1  0  0  0
  5  6  2  0  0  0
  5  9  1  0  0  0
  6  7  1  0  0  0
  6  8  1  0  0  0
  7 43  1  0  0  0
  8 44  1  0  0  0
  8 45  1  0  0  0
  8 46  1  0  0  0
  9 10  1  0  0  0
  9 47  1  0  0  0
 10 11  2  0  0  0
 10 12  1  0  0  0
 12 18  1  0  0  0
 12 13  2  0  0  0
 13 14  1  0  0  0
 13 37  1  0  0  0
 14 15  1  0  0  0
 14 48  1  0  0  0
 15 16  2  0  0  0
 15 17  1  0  0  0
 17 18  1  0  0  0
 17 49  1  0  0  0
 18 19  1  0  0  0
 18 20  1  0  0  0
 20 25  2  0  0  0
 20 21  1  0  0  0
 21 22  2  0  0  0
 21 50  1  0  0  0
 22 23  1  0  0  0
 22 51  1  0  0  0
 23 24  2  0  0  0
 23 28  1  0  0  0
 24 25  1  0  0  0
 24 26  1  0  0  0
 25 52  1  0  0  0
 26 27  1  0  0  0
 27 53  1  0  0  0
 27 54  1  0  0  0
 27 55  1  0  0  0
 28 29  1  0  0  0
 29 30  1  0  0  0
 29 56  1  0  0  0
 29 57  1  0  0  0
 30 35  2  0  0  0
 30 31  1  0  0  0
 31 32  2  0  0  0
 31 58  1  0  0  0
 32 33  1  0  0  0
 32 59  1  0  0  0
 33 34  2  0  0  0
 33 36  1  0  0  0
 34 35  1  0  0  0
 34 60  1  0  0  0
 35 61  1  0  0  0
 37 62  1  0  0  0
 37 63  1  0  0  0
 37 64  1  0  0  0
M  END
> <i_i_glide_confnum>
193

> <i_i_glide_lignum>
4509

> <i_i_glide_posenum>
101

> <i_i_glide_rotatable_bonds>
8

> <i_m_Source_File_Index>
239

> <b_m_subgroup_collapsed>
0

> <r_i_docking_score>
-4.95915

> <r_i_glide_ecoul>
-2.54723

> <r_i_glide_eff_state_penalty>
0

> <r_i_glide_einternal>
5.37951

> <r_i_glide_emodel>
-64.0713

> <r_i_glide_energy>
-49.1664

> <r_i_glide_erotb>
0.528096

> <r_i_glide_esite>
-0.262254

> <r_i_glide_evdw>
-46.6192

> <r_i_glide_gscore>
-4.95915

> <r_i_glide_hbond>
0

> <r_i_glide_ligand_efficiency>
-0.137754

> <r_i_glide_ligand_efficiency_ln>
-1.08195

> <r_i_glide_ligand_efficiency_sa>
-0.454854

> <r_i_glide_lipo>
-2.51211

> <r_i_glide_metal>
0

> <r_i_glide_rewards>
0.000162614

> <s_i_glide_gridfile>
wee1_glide-grid

> <s_m_Source_File>
wee1_decoys_glide_SP.sdf

> <s_m_Source_Path>
/Users/zhangxujun/Desktop

> <s_m_entry_id>
514

> <s_m_entry_name>
wee1_decoys_glide_SP.239

> <s_m_subgroup_title>
wee1_decoys_glide_SP

> <s_m_subgroupid>
wee1_decoys_glide_SP


$$$$
