ZINC33766598_959
                    3D
 Schrodinger Suite 2024-2.
 52 54  0  0  1  0            999 V2000
    8.6988   58.4975   16.1686 C   0  0  0  0  0  0
    7.3451   59.0156   16.6781 C   0  0  0  0  0  0
    6.4573   57.9282   17.0747 N   0  0  0  0  0  0
    6.4122   57.3874   18.3043 C   0  0  0  0  0  0
    7.1050   57.7898   19.2379 O   0  0  0  0  0  0
    5.4131   56.2335   18.4970 C   0  0  0  0  0  0
    5.9044   54.9854   19.3137 C   0  0  1  0  0  0
    6.8781   54.6537   18.9491 H   0  0  0  0  0  0
    6.0148   55.2228   20.8125 C   0  0  0  0  0  0
    6.6862   56.0972   21.3604 O   0  0  0  0  0  0
    5.2529   54.2602   21.3888 N   0  0  0  0  0  0
    4.6708   53.3510   20.5293 C   0  0  0  0  0  0
    3.8213   51.9439   20.8804 S   0  0  0  0  0  0
    4.9641   53.8791   19.2995 N   0  0  0  0  0  0
    4.6981   53.2603   18.0634 N   0  0  0  0  0  0
    3.6078   53.6380   17.3534 C   0  0  0  0  0  0
    2.8669   54.5692   17.6798 O   0  0  0  0  0  0
    3.3469   52.9059   16.0557 C   0  0  0  0  0  0
    4.3655   52.2160   15.3769 C   0  0  0  0  0  0
    4.1017   51.5774   14.1683 C   0  0  0  0  0  0
    2.8211   51.6288   13.6218 C   0  0  0  0  0  0
    1.8024   52.3138   14.2790 C   0  0  0  0  0  0
    2.0654   52.9490   15.4869 C   0  0  0  0  0  0
    2.4565   50.7533   11.9714 Br  0  0  0  0  0  0
    5.1707   54.1846   22.8141 C   0  0  0  0  0  0
    6.3335   54.0971   23.5931 C   0  0  0  0  0  0
    6.2527   54.0973   24.9815 C   0  0  0  0  0  0
    5.0082   54.1794   25.6228 C   0  0  0  0  0  0
    3.8519   54.2455   24.8464 C   0  0  0  0  0  0
    3.9260   54.2508   23.4556 C   0  0  0  0  0  0
    4.8413   54.2028   26.9964 O   0  0  0  0  0  0
    5.9899   54.1425   27.8388 C   0  0  0  0  0  0
    9.3392   59.3253   15.8623 H   0  0  0  0  0  0
    8.5713   57.8404   15.3069 H   0  0  0  0  0  0
    9.2307   57.9449   16.9460 H   0  0  0  0  0  0
    7.5052   59.6972   17.5134 H   0  0  0  0  0  0
    6.8489   59.6036   15.9046 H   0  0  0  0  0  0
    5.8118   57.5952   16.3727 H   0  0  0  0  0  0
    4.4817   56.6424   18.8821 H   0  0  0  0  0  0
    5.1530   55.8934   17.4955 H   0  0  0  0  0  0
    5.1041   52.3298   17.9989 H   0  0  0  0  0  0
    5.3690   52.1510   15.7796 H   0  0  0  0  0  0
    4.8866   51.0372   13.6582 H   0  0  0  0  0  0
    0.8117   52.3544   13.8484 H   0  0  0  0  0  0
    1.2618   53.4820   15.9816 H   0  0  0  0  0  0
    7.3078   54.0546   23.1263 H   0  0  0  0  0  0
    7.1716   54.0438   25.5442 H   0  0  0  0  0  0
    2.8861   54.3064   25.3291 H   0  0  0  0  0  0
    3.0165   54.3261   22.8755 H   0  0  0  0  0  0
    5.6755   54.1608   28.8803 H   0  0  0  0  0  0
    6.5583   53.2236   27.6833 H   0  0  0  0  0  0
    6.6445   55.0034   27.6797 H   0  0  0  0  0  0
  1  2  1  0  0  0
  1 33  1  0  0  0
  1 34  1  0  0  0
  1 35  1  0  0  0
  2  3  1  0  0  0
  2 36  1  0  0  0
  2 37  1  0  0  0
  3  4  1  0  0  0
  3 38  1  0  0  0
  4  5  2  0  0  0
  4  6  1  0  0  0
  6  7  1  0  0  0
  6 39  1  0  0  0
  6 40  1  0  0  0
  7  8  1  0  0  0
  7 14  1  0  0  0
  7  9  1  0  0  0
  9 10  2  0  0  0
  9 11  1  0  0  0
 11 12  1  0  0  0
 11 25  1  0  0  0
 12 13  2  0  0  0
 12 14  1  0  0  0
 14 15  1  0  0  0
 15 16  1  0  0  0
 15 41  1  0  0  0
 16 17  2  0  0  0
 16 18  1  0  0  0
 18 23  2  0  0  0
 18 19  1  0  0  0
 19 20  2  0  0  0
 19 42  1  0  0  0
 20 21  1  0  0  0
 20 43  1  0  0  0
 21 22  2  0  0  0
 21 24  1  0  0  0
 22 23  1  0  0  0
 22 44  1  0  0  0
 23 45  1  0  0  0
 25 30  2  0  0  0
 25 26  1  0  0  0
 26 27  2  0  0  0
 26 46  1  0  0  0
 27 28  1  0  0  0
 27 47  1  0  0  0
 28 29  2  0  0  0
 28 31  1  0  0  0
 29 30  1  0  0  0
 29 48  1  0  0  0
 30 49  1  0  0  0
 31 32  1  0  0  0
 32 50  1  0  0  0
 32 51  1  0  0  0
 32 52  1  0  0  0
M  END
> <i_i_glide_confnum>
158

> <i_i_glide_lignum>
960

> <i_i_glide_posenum>
351

> <i_i_glide_rotatable_bonds>
9

> <i_m_Source_File_Index>
565

> <b_m_subgroup_collapsed>
0

> <r_i_docking_score>
-5.17719

> <r_i_glide_ecoul>
-5.98574

> <r_i_glide_eff_state_penalty>
0

> <r_i_glide_einternal>
6.92136

> <r_i_glide_emodel>
-57.6637

> <r_i_glide_energy>
-44.2874

> <r_i_glide_erotb>
0.560543

> <r_i_glide_esite>
-0.168154

> <r_i_glide_evdw>
-38.3017

> <r_i_glide_gscore>
-5.17719

> <r_i_glide_hbond>
-0.35662

> <r_i_glide_ligand_efficiency>
-0.167006

> <r_i_glide_ligand_efficiency_ln>
-1.16761

> <r_i_glide_ligand_efficiency_sa>
-0.52463

> <r_i_glide_lipo>
-1.99287

> <r_i_glide_metal>
0

> <r_i_glide_rewards>
-0.407144

> <s_i_glide_gridfile>
wee1_glide-grid

> <s_m_Source_File>
wee1_decoys_glide_SP.sdf

> <s_m_Source_Path>
/Users/zhangxujun/Desktop

> <s_m_entry_id>
840

> <s_m_entry_name>
wee1_decoys_glide_SP.565

> <s_m_subgroup_title>
wee1_decoys_glide_SP

> <s_m_subgroupid>
wee1_decoys_glide_SP


$$$$
