ZINC04127928_2080
                    3D
 Schrodinger Suite 2024-2.
 67 72  0  0  1  0            999 V2000
    1.9048   48.1195   19.1601 C   0  0  0  0  0  0
    1.5529   49.1550   20.2482 C   0  0  2  0  0  0
    1.8584   48.7300   21.2070 H   0  0  0  0  0  0
    0.0335   49.4171   20.3094 C   0  0  0  0  0  0
   -0.3240   50.3456   21.4830 C   0  0  0  0  0  0
    0.4625   51.6738   21.4312 C   0  0  0  0  0  0
    1.9891   51.4785   21.2523 C   0  0  1  0  0  0
    2.2788   50.9665   22.1754 H   0  0  0  0  0  0
    2.3227   50.4964   20.0808 C   0  0  2  0  0  0
    3.3733   50.2255   20.2025 H   0  0  0  0  0  0
    2.1928   51.1672   18.6914 C   0  0  0  0  0  0
    2.7076   52.7547   21.2365 N   0  0  0  0  0  0
    4.0345   52.8786   21.4005 C   0  0  0  0  0  0
    4.7644   51.9256   21.6816 O   0  0  0  0  0  0
    4.6198   54.2911   21.1795 C   0  0  2  0  0  0
    3.8594   55.0024   21.5000 H   0  0  0  0  0  0
    5.0633   54.5109   19.7207 C   0  0  1  0  0  0
    5.5533   53.3081   18.8979 C   0  0  0  0  0  0
    5.6841   53.7467   17.6423 C   0  0  0  0  0  0
    5.3790   55.2272   17.7322 C   0  0  1  0  0  0
    5.0542   55.6913   16.8001 H   0  0  0  0  0  0
    4.3321   55.1891   18.7237 O   0  0  0  0  0  0
    6.4985   56.0117   18.5201 C   0  0  1  0  0  0
    6.3871   57.0815   18.3316 H   0  0  0  0  0  0
    5.9954   55.6793   19.9406 C   0  0  2  0  0  0
    5.5044   56.5976   20.2639 H   0  0  0  0  0  0
    6.7870   55.3084   21.1790 C   0  0  0  0  0  0
    7.9151   55.6959   21.4636 O   0  0  0  0  0  0
    5.9050   54.5526   21.8948 N   0  0  0  0  0  0
    6.2231   54.0796   23.2510 C   0  0  0  0  0  0
    6.7036   55.0457   24.3185 C   0  0  0  0  0  0
    5.3173   54.4576   24.4025 C   0  0  0  0  0  0
    7.9721   55.6221   18.2049 C   0  0  0  0  0  0
    8.3924   54.4972   18.4817 O   0  0  0  0  0  0
    8.7213   56.5986   17.6480 N   0  0  0  0  0  0
   10.0771   56.5886   17.2683 C   0  0  0  0  0  0
   10.9037   55.4513   17.2731 C   0  0  0  0  0  0
   12.2356   55.5579   16.8821 C   0  0  0  0  0  0
   12.7473   56.7901   16.4858 C   0  0  0  0  0  0
   11.9342   57.9203   16.4712 C   0  0  0  0  0  0
   10.6014   57.8190   16.8591 C   0  0  0  0  0  0
   14.4018   56.9181   16.0114 Cl  0  0  0  0  0  0
    1.5272   48.4123   18.1791 H   0  0  0  0  0  0
    2.9853   47.9983   19.0674 H   0  0  0  0  0  0
    1.4838   47.1416   19.3967 H   0  0  0  0  0  0
   -0.4963   48.4699   20.4209 H   0  0  0  0  0  0
   -0.3243   49.8233   19.3613 H   0  0  0  0  0  0
   -0.1102   49.8349   22.4247 H   0  0  0  0  0  0
   -1.3961   50.5468   21.4850 H   0  0  0  0  0  0
    0.2597   52.2471   22.3369 H   0  0  0  0  0  0
    0.0801   52.2643   20.5967 H   0  0  0  0  0  0
    1.1651   51.4517   18.4675 H   0  0  0  0  0  0
    2.8067   52.0656   18.6209 H   0  0  0  0  0  0
    2.5383   50.5052   17.8972 H   0  0  0  0  0  0
    2.2008   53.5487   20.8632 H   0  0  0  0  0  0
    5.7467   52.3158   19.2816 H   0  0  0  0  0  0
    6.0180   53.2159   16.7640 H   0  0  0  0  0  0
    6.6553   53.0775   23.2539 H   0  0  0  0  0  0
    7.4791   54.6975   24.9980 H   0  0  0  0  0  0
    6.8276   56.0967   24.0560 H   0  0  0  0  0  0
    4.4501   55.0845   24.1980 H   0  0  0  0  0  0
    5.1063   53.6972   25.1549 H   0  0  0  0  0  0
    8.2542   57.4803   17.5024 H   0  0  0  0  0  0
   10.5520   54.4797   17.5785 H   0  0  0  0  0  0
   12.8702   54.6845   16.8961 H   0  0  0  0  0  0
   12.3360   58.8721   16.1582 H   0  0  0  0  0  0
    9.9817   58.7038   16.8406 H   0  0  0  0  0  0
  1  2  1  0  0  0
  1 43  1  0  0  0
  1 44  1  0  0  0
  1 45  1  0  0  0
  2  3  1  0  0  0
  2  9  1  0  0  0
  2  4  1  0  0  0
  4  5  1  0  0  0
  4 46  1  0  0  0
  4 47  1  0  0  0
  5  6  1  0  0  0
  5 48  1  0  0  0
  5 49  1  0  0  0
  6  7  1  0  0  0
  6 50  1  0  0  0
  6 51  1  0  0  0
  7  8  1  0  0  0
  7  9  1  0  0  0
  7 12  1  0  0  0
  9 10  1  0  0  0
  9 11  1  0  0  0
 11 52  1  0  0  0
 11 53  1  0  0  0
 11 54  1  0  0  0
 12 13  1  0  0  0
 12 55  1  0  0  0
 13 14  2  0  0  0
 13 15  1  0  0  0
 15 16  1  0  0  0
 15 29  1  0  0  0
 15 17  1  0  0  0
 17 22  1  0  0  0
 17 25  1  0  0  0
 17 18  1  0  0  0
 18 19  2  0  0  0
 18 56  1  0  0  0
 19 20  1  0  0  0
 19 57  1  0  0  0
 20 21  1  0  0  0
 20 22  1  0  0  0
 20 23  1  0  0  0
 23 24  1  0  0  0
 23 25  1  0  0  0
 23 33  1  0  0  0
 25 26  1  0  0  0
 25 27  1  0  0  0
 27 28  2  0  0  0
 27 29  1  0  0  0
 29 30  1  0  0  0
 30 32  1  0  0  0
 30 31  1  0  0  0
 30 58  1  0  0  0
 31 32  1  0  0  0
 31 59  1  0  0  0
 31 60  1  0  0  0
 32 61  1  0  0  0
 32 62  1  0  0  0
 33 34  2  0  0  0
 33 35  1  0  0  0
 35 36  1  0  0  0
 35 63  1  0  0  0
 36 41  2  0  0  0
 36 37  1  0  0  0
 37 38  2  0  0  0
 37 64  1  0  0  0
 38 39  1  0  0  0
 38 65  1  0  0  0
 39 40  2  0  0  0
 39 42  1  0  0  0
 40 41  1  0  0  0
 40 66  1  0  0  0
 41 67  1  0  0  0
M  END
> <i_i_glide_confnum>
64

> <i_i_glide_lignum>
2081

> <i_i_glide_posenum>
77

> <i_i_glide_rotatable_bonds>
7

> <i_m_Source_File_Index>
3210

> <b_m_subgroup_collapsed>
0

> <r_i_docking_score>
-3.96641

> <r_i_glide_ecoul>
-1.87132

> <r_i_glide_eff_state_penalty>
0

> <r_i_glide_einternal>
0.700107

> <r_i_glide_emodel>
-55.172

> <r_i_glide_energy>
-44.1689

> <r_i_glide_erotb>
0.575854

> <r_i_glide_esite>
-0.0109399

> <r_i_glide_evdw>
-42.2976

> <r_i_glide_gscore>
-3.96641

> <r_i_glide_hbond>
-0.32

> <r_i_glide_ligand_efficiency>
-0.113326

> <r_i_glide_ligand_efficiency_ln>
-0.870714

> <r_i_glide_ligand_efficiency_sa>
-0.370697

> <r_i_glide_lipo>
-1.08022

> <r_i_glide_metal>
0

> <r_i_glide_rewards>
-0.735519

> <s_i_glide_gridfile>
wee1_glide-grid

> <s_m_Source_File>
wee1_decoys_glide_SP.sdf

> <s_m_Source_Path>
/Users/zhangxujun/Desktop

> <s_m_entry_id>
3485

> <s_m_entry_name>
wee1_decoys_glide_SP.3210

> <s_m_subgroup_title>
wee1_decoys_glide_SP

> <s_m_subgroupid>
wee1_decoys_glide_SP


$$$$
