ZINC64136861_5321
                    3D
 Schrodinger Suite 2024-2.
 46 47  0  0  1  0            999 V2000
   -2.6676   51.0771   24.9763 C   0  0  0  0  0  0
   -1.3834   50.3503   25.4364 C   0  0  0  0  0  0
   -1.5369   48.8413   25.1587 C   0  0  0  0  0  0
   -0.1653   50.8725   24.6388 C   0  0  0  0  0  0
   -1.1830   50.4967   26.8817 N   0  0  0  0  0  0
   -0.9554   51.6049   27.6016 C   0  0  0  0  0  0
   -0.9158   52.7267   27.1079 O   0  0  0  0  0  0
   -0.7256   51.3847   29.1013 C   0  0  0  0  0  0
   -0.3348   52.8753   30.0817 S   0  0  0  0  0  0
    1.3999   53.0231   29.7243 C   0  0  0  0  0  0
    1.8363   53.8216   28.5070 C   0  0  2  0  0  0
    3.1144   53.1469   27.9680 C   0  0  2  0  0  0
    2.8507   52.1177   27.6996 H   0  0  0  0  0  0
    4.1730   53.0195   29.0983 C   0  0  0  0  0  0
    3.5553   52.3067   30.3385 C   0  0  0  0  0  0
    2.1812   52.3977   30.5107 N   0  0  0  0  0  0
    4.3044   51.6970   31.0904 O   0  0  0  0  0  0
    3.5825   53.6967   26.6200 C   0  0  0  0  0  0
    2.7044   53.6171   25.5335 C   0  0  0  0  0  0
    3.1358   53.9151   24.2442 C   0  0  0  0  0  0
    4.4597   54.3084   24.0281 C   0  0  0  0  0  0
    5.3193   54.4820   25.1203 C   0  0  0  0  0  0
    4.8827   54.1710   26.4090 C   0  0  0  0  0  0
    7.1044   55.1027   24.8817 Br  0  0  0  0  0  0
    4.9113   54.4967   22.7468 O   0  0  0  0  0  0
    1.9062   53.7300   22.7994 Br  0  0  0  0  0  0
    2.0550   55.2093   28.9389 C   0  0  0  0  0  0
    2.2196   56.2997   29.2817 N   0  0  0  0  0  0
   -2.8573   50.9185   23.9142 H   0  0  0  0  0  0
   -2.6023   52.1542   25.1331 H   0  0  0  0  0  0
   -3.5427   50.7216   25.5217 H   0  0  0  0  0  0
   -0.6502   48.2846   25.4690 H   0  0  0  0  0  0
   -2.3834   48.4188   25.7029 H   0  0  0  0  0  0
   -1.6951   48.6386   24.0991 H   0  0  0  0  0  0
    0.7600   50.3968   24.9663 H   0  0  0  0  0  0
   -0.2721   50.6760   23.5714 H   0  0  0  0  0  0
   -0.0394   51.9489   24.7504 H   0  0  0  0  0  0
   -1.2956   49.6211   27.4098 H   0  0  0  0  0  0
   -1.6184   50.9213   29.5246 H   0  0  0  0  0  0
    0.0877   50.6727   29.2156 H   0  0  0  0  0  0
    4.5453   53.9928   29.4192 H   0  0  0  0  0  0
    5.0321   52.4379   28.7602 H   0  0  0  0  0  0
    1.6945   53.2604   25.6751 H   0  0  0  0  0  0
    5.5803   54.2621   27.2283 H   0  0  0  0  0  0
    4.2250   54.3342   22.0943 H   0  0  0  0  0  0
    1.0550   53.8460   27.7556 H   0  0  0  0  0  0
  1  2  1  0  0  0
  1 29  1  0  0  0
  1 30  1  0  0  0
  1 31  1  0  0  0
  2  3  1  0  0  0
  2  4  1  0  0  0
  2  5  1  0  0  0
  3 32  1  0  0  0
  3 33  1  0  0  0
  3 34  1  0  0  0
  4 35  1  0  0  0
  4 36  1  0  0  0
  4 37  1  0  0  0
  5  6  1  0  0  0
  5 38  1  0  0  0
  6  7  2  0  0  0
  6  8  1  0  0  0
  8  9  1  0  0  0
  8 39  1  0  0  0
  8 40  1  0  0  0
  9 10  1  0  0  0
 10 16  2  0  0  0
 10 11  1  0  0  0
 11 12  1  0  0  0
 11 27  1  0  0  0
 11 46  1  0  0  0
 12 13  1  0  0  0
 12 14  1  0  0  0
 12 18  1  0  0  0
 14 15  1  0  0  0
 14 41  1  0  0  0
 14 42  1  0  0  0
 15 16  1  0  0  0
 15 17  2  0  0  0
 18 23  2  0  0  0
 18 19  1  0  0  0
 19 20  2  0  0  0
 19 43  1  0  0  0
 20 21  1  0  0  0
 20 26  1  0  0  0
 21 22  2  0  0  0
 21 25  1  0  0  0
 22 23  1  0  0  0
 22 24  1  0  0  0
 23 44  1  0  0  0
 25 45  1  0  0  0
 27 28  3  0  0  0
M  END
> <i_i_glide_confnum>
31

> <i_i_glide_lignum>
5322

> <i_i_glide_posenum>
97

> <i_i_glide_rotatable_bonds>
8

> <i_m_Source_File_Index>
3290

> <b_m_subgroup_collapsed>
0

> <r_i_docking_score>
-6.61007

> <r_i_glide_ecoul>
-8.38394

> <r_i_glide_eff_state_penalty>
0

> <r_i_glide_einternal>
11.6209

> <r_i_glide_emodel>
-61.5819

> <r_i_glide_energy>
-48.6696

> <r_i_glide_erotb>
0.383704

> <r_i_glide_esite>
-0.162508

> <r_i_glide_evdw>
-40.2857

> <r_i_glide_gscore>
-6.61007

> <r_i_glide_hbond>
-0.438503

> <r_i_glide_ligand_efficiency>
-0.244817

> <r_i_glide_ligand_efficiency_ln>
-1.53871

> <r_i_glide_ligand_efficiency_sa>
-0.734452

> <r_i_glide_lipo>
-2.13716

> <r_i_glide_metal>
0

> <r_i_glide_rewards>
-0.983726

> <s_i_glide_gridfile>
wee1_glide-grid

> <s_m_Source_File>
wee1_decoys_glide_SP.sdf

> <s_m_Source_Path>
/Users/zhangxujun/Desktop

> <s_m_entry_id>
3565

> <s_m_entry_name>
wee1_decoys_glide_SP.3290

> <s_m_subgroup_title>
wee1_decoys_glide_SP

> <s_m_subgroupid>
wee1_decoys_glide_SP


$$$$
