ZINC08918707_1214
                    3D
 Schrodinger Suite 2024-2.
 70 73  0  0  1  0            999 V2000
    0.4157   53.3641   32.2190 C   0  0  0  0  0  0
    1.4746   52.3334   31.8161 C   0  0  0  0  0  0
    1.6631   52.4212   30.4072 O   0  0  0  0  0  0
    2.7642   52.9965   29.8658 C   0  0  0  0  0  0
    3.8280   53.1155   30.4814 O   0  0  0  0  0  0
    2.5421   53.4278   28.5469 N   0  0  0  0  0  0
    1.1884   53.5265   27.9656 C   0  0  0  0  0  0
    1.2134   52.7679   26.6193 C   0  0  0  0  0  0
    2.3511   53.2955   25.7328 C   0  0  0  0  0  0
    3.4454   53.9357   26.3335 C   0  0  0  0  0  0
    4.5968   54.4985   25.1837 S   0  0  0  0  0  0
    3.6104   53.9277   23.8617 C   0  0  0  0  0  0
    2.4609   53.2402   24.3111 C   0  0  0  0  0  0
    1.5197   52.5922   23.3957 C   0  0  0  0  0  0
    1.4695   52.8961   22.1995 O   0  0  0  0  0  0
    0.8039   51.5823   23.9315 N   0  0  0  0  0  0
   -0.0088   50.6964   23.2193 C   0  0  0  0  0  0
   -1.3744   50.7067   23.5241 C   0  0  0  0  0  0
   -2.2494   49.8472   22.8622 C   0  0  0  0  0  0
   -1.7644   48.9608   21.9039 C   0  0  0  0  0  0
   -0.3975   48.9261   21.6113 C   0  0  0  0  0  0
    0.4939   49.7844   22.2675 C   0  0  0  0  0  0
    1.9841   49.6477   21.9759 C   0  0  0  0  0  0
    3.9722   54.0963   22.5235 N   0  0  0  0  0  0
    5.1445   54.4953   21.9812 C   0  0  0  0  0  0
    6.1575   54.7638   22.6243 O   0  0  0  0  0  0
    5.2265   54.6014   20.4445 C   0  0  0  0  0  0
    4.1778   52.3731   19.7234 C   0  0  0  0  0  0
    2.9904   51.7559   18.9662 C   0  0  0  0  0  0
    2.9327   52.2759   17.5190 C   0  0  2  0  0  0
    2.7343   53.8021   17.5723 C   0  0  0  0  0  0
    3.9390   54.4728   18.2573 C   0  0  0  0  0  0
    1.8301   51.5710   16.7119 C   0  0  0  0  0  0
    3.6322   54.1139   27.8342 C   0  0  0  0  0  0
    0.2066   53.2994   33.2884 H   0  0  0  0  0  0
    0.7045   54.3893   31.9890 H   0  0  0  0  0  0
   -0.5110   53.1669   31.6817 H   0  0  0  0  0  0
    1.1232   51.3382   32.0814 H   0  0  0  0  0  0
    2.3963   52.4873   32.3759 H   0  0  0  0  0  0
    0.3936   53.1571   28.6133 H   0  0  0  0  0  0
    0.9699   54.5804   27.7970 H   0  0  0  0  0  0
    0.2416   52.8965   26.1459 H   0  0  0  0  0  0
    1.3195   51.6982   26.8067 H   0  0  0  0  0  0
    0.8552   51.4348   24.9276 H   0  0  0  0  0  0
   -1.7627   51.3866   24.2696 H   0  0  0  0  0  0
   -3.3036   49.8657   23.0996 H   0  0  0  0  0  0
   -2.4411   48.2874   21.3984 H   0  0  0  0  0  0
   -0.0369   48.2158   20.8813 H   0  0  0  0  0  0
    2.2135   48.7590   21.3816 H   0  0  0  0  0  0
    2.3541   50.5240   21.4471 H   0  0  0  0  0  0
    2.5469   49.5614   22.9083 H   0  0  0  0  0  0
    3.2465   53.7928   21.8860 H   0  0  0  0  0  0
    6.1442   54.1576   20.0572 H   0  0  0  0  0  0
    5.2245   55.6569   20.1642 H   0  0  0  0  0  0
    5.1384   52.1030   19.2845 H   0  0  0  0  0  0
    4.1546   52.0501   20.7634 H   0  0  0  0  0  0
    2.0475   51.9302   19.4871 H   0  0  0  0  0  0
    3.1014   50.6697   18.9459 H   0  0  0  0  0  0
    3.8908   52.0645   17.0346 H   0  0  0  0  0  0
    2.6232   54.1956   16.5611 H   0  0  0  0  0  0
    1.7986   54.0551   18.0760 H   0  0  0  0  0  0
    4.8864   54.2801   17.7487 H   0  0  0  0  0  0
    3.7693   55.5481   18.3348 H   0  0  0  0  0  0
    0.8420   51.7217   17.1491 H   0  0  0  0  0  0
    2.0110   50.4966   16.6646 H   0  0  0  0  0  0
    1.7987   51.9331   15.6854 H   0  0  0  0  0  0
    4.6044   53.7337   28.1499 H   0  0  0  0  0  0
    3.6325   55.1684   28.1100 H   0  0  0  0  0  0
    4.0400   53.9213   19.6987 N   0  3  2  0  0  0
    3.1612   54.1797   20.1357 H   0  0  0  0  0  0
  1  2  1  0  0  0
  1 35  1  0  0  0
  1 36  1  0  0  0
  1 37  1  0  0  0
  2  3  1  0  0  0
  2 38  1  0  0  0
  2 39  1  0  0  0
  3  4  1  0  0  0
  4  5  2  0  0  0
  4  6  1  0  0  0
  6 34  1  0  0  0
  6  7  1  0  0  0
  7  8  1  0  0  0
  7 40  1  0  0  0
  7 41  1  0  0  0
  8  9  1  0  0  0
  8 42  1  0  0  0
  8 43  1  0  0  0
  9 13  1  0  0  0
  9 10  2  0  0  0
 10 11  1  0  0  0
 10 34  1  0  0  0
 11 12  1  0  0  0
 12 13  2  0  0  0
 12 24  1  0  0  0
 13 14  1  0  0  0
 14 15  2  0  0  0
 14 16  1  0  0  0
 16 17  1  0  0  0
 16 44  1  0  0  0
 17 22  2  0  0  0
 17 18  1  0  0  0
 18 19  2  0  0  0
 18 45  1  0  0  0
 19 20  1  0  0  0
 19 46  1  0  0  0
 20 21  2  0  0  0
 20 47  1  0  0  0
 21 22  1  0  0  0
 21 48  1  0  0  0
 22 23  1  0  0  0
 23 49  1  0  0  0
 23 50  1  0  0  0
 23 51  1  0  0  0
 24 25  1  0  0  0
 24 52  1  0  0  0
 25 26  2  0  0  0
 25 27  1  0  0  0
 27 53  1  0  0  0
 27 54  1  0  0  0
 27 69  1  0  0  0
 28 29  1  0  0  0
 28 55  1  0  0  0
 28 56  1  0  0  0
 28 69  1  0  0  0
 29 30  1  0  0  0
 29 57  1  0  0  0
 29 58  1  0  0  0
 30 31  1  0  0  0
 30 33  1  0  0  0
 30 59  1  0  0  0
 31 32  1  0  0  0
 31 60  1  0  0  0
 31 61  1  0  0  0
 32 62  1  0  0  0
 32 63  1  0  0  0
 32 69  1  0  0  0
 33 64  1  0  0  0
 33 65  1  0  0  0
 33 66  1  0  0  0
 34 67  1  0  0  0
 34 68  1  0  0  0
 69 70  1  0  0  0
M  CHG  1  69   1
M  END
> <i_i_glide_confnum>
383

> <i_i_glide_lignum>
1215

> <i_i_glide_posenum>
322

> <i_i_glide_rotatable_bonds>
10

> <i_m_Source_File_Index>
4247

> <b_m_subgroup_collapsed>
0

> <r_i_docking_score>
-5.32139

> <r_i_glide_ecoul>
-5.05282

> <r_i_glide_eff_state_penalty>
0

> <r_i_glide_einternal>
11.1576

> <r_i_glide_emodel>
-61.0558

> <r_i_glide_energy>
-49.7862

> <r_i_glide_erotb>
0.735954

> <r_i_glide_esite>
-0.0125434

> <r_i_glide_evdw>
-44.7334

> <r_i_glide_gscore>
-5.32139

> <r_i_glide_hbond>
-0.293536

> <r_i_glide_ligand_efficiency>
-0.15204

> <r_i_glide_ligand_efficiency_ln>
-1.16816

> <r_i_glide_ligand_efficiency_sa>
-0.497332

> <r_i_glide_lipo>
-1.97292

> <r_i_glide_metal>
0

> <r_i_glide_rewards>
-0.783752

> <s_i_glide_gridfile>
wee1_glide-grid

> <s_m_Source_File>
wee1_decoys_glide_SP.sdf

> <s_m_Source_Path>
/Users/zhangxujun/Desktop

> <s_m_entry_id>
4522

> <s_m_entry_name>
wee1_decoys_glide_SP.4247

> <s_m_subgroup_title>
wee1_decoys_glide_SP

> <s_m_subgroupid>
wee1_decoys_glide_SP


$$$$
