ZINC00749033_2368
                    3D
 Schrodinger Suite 2024-2.
 63 66  0  0  1  0            999 V2000
    3.2001   52.5569   17.5190 C   0  0  0  0  0  0
    4.5236   53.2973   17.6856 C   0  0  0  0  0  0
    5.3776   53.4037   16.5822 C   0  0  0  0  0  0
    6.6074   54.0493   16.6959 C   0  0  0  0  0  0
    6.9953   54.5981   17.9155 C   0  0  0  0  0  0
    6.1543   54.4993   19.0221 C   0  0  0  0  0  0
    4.9163   53.8393   18.9243 C   0  0  0  0  0  0
    4.0333   53.7257   20.0180 N   0  0  0  0  0  0
    4.3338   53.7001   21.3304 C   0  0  0  0  0  0
    5.4799   53.6935   21.7851 O   0  0  0  0  0  0
    3.2120   53.6794   22.0826 N   0  0  0  0  0  0
    3.1395   53.7154   23.4877 C   0  0  0  0  0  0
    4.0886   54.3779   24.2695 C   0  0  0  0  0  0
    3.9777   54.3830   25.6493 C   0  0  0  0  0  0
    2.9314   53.7197   26.3023 C   0  0  0  0  0  0
    1.9533   53.0444   25.5242 C   0  0  0  0  0  0
    2.0640   53.0851   24.1182 C   0  0  0  0  0  0
    0.7486   52.3677   26.1543 C   0  0  0  0  0  0
    0.2336   52.8065   27.1827 O   0  0  0  0  0  0
    0.2951   51.2784   25.5063 N   0  0  0  0  0  0
   -0.8150   50.3886   25.8818 C   0  0  1  0  0  0
   -0.4811   49.8216   26.7559 H   0  0  0  0  0  0
   -2.1237   51.1188   26.2641 C   0  0  0  0  0  0
   -1.1146   49.3949   24.7552 C   0  0  0  0  0  0
   -1.3412   48.0493   25.0628 C   0  0  0  0  0  0
   -1.6391   47.1398   24.0528 C   0  0  0  0  0  0
   -1.6962   47.5703   22.7289 C   0  0  0  0  0  0
   -1.4585   48.9043   22.4073 C   0  0  0  0  0  0
   -1.1693   49.8158   23.4188 C   0  0  0  0  0  0
    2.9456   53.7250   27.7063 N   0  0  0  0  0  0
    3.4605   54.8052   28.5403 C   0  0  0  0  0  0
    3.3315   54.4188   30.0040 C   0  0  0  0  0  0
    2.8607   52.9733   29.9821 C   0  0  0  0  0  0
    3.1064   52.5413   28.5430 C   0  0  0  0  0  0
    3.0629   52.1697   16.5076 H   0  0  0  0  0  0
    3.1598   51.7076   18.2035 H   0  0  0  0  0  0
    2.3608   53.2125   17.7535 H   0  0  0  0  0  0
    5.0949   52.9734   15.6326 H   0  0  0  0  0  0
    7.2599   54.1217   15.8379 H   0  0  0  0  0  0
    7.9459   55.1031   18.0030 H   0  0  0  0  0  0
    6.4757   54.9499   19.9484 H   0  0  0  0  0  0
    3.0665   53.5885   19.7644 H   0  0  0  0  0  0
    2.3349   53.5772   21.5946 H   0  0  0  0  0  0
    4.9217   54.8966   23.8211 H   0  0  0  0  0  0
    4.7472   54.8934   26.2053 H   0  0  0  0  0  0
    1.3170   52.6070   23.4996 H   0  0  0  0  0  0
    0.8980   50.9041   24.7905 H   0  0  0  0  0  0
   -2.9212   50.4035   26.4725 H   0  0  0  0  0  0
   -2.0109   51.7204   27.1652 H   0  0  0  0  0  0
   -2.4656   51.7745   25.4627 H   0  0  0  0  0  0
   -1.2934   47.7050   26.0860 H   0  0  0  0  0  0
   -1.8163   46.1047   24.2976 H   0  0  0  0  0  0
   -1.9203   46.8635   21.9441 H   0  0  0  0  0  0
   -1.5039   49.2300   21.3785 H   0  0  0  0  0  0
   -1.0006   50.8514   23.1639 H   0  0  0  0  0  0
    4.4962   55.0380   28.2942 H   0  0  0  0  0  0
    2.9149   55.7172   28.3053 H   0  0  0  0  0  0
    4.3039   54.4963   30.4906 H   0  0  0  0  0  0
    2.5974   55.0668   30.4816 H   0  0  0  0  0  0
    1.7993   52.8868   30.2234 H   0  0  0  0  0  0
    3.4061   52.3480   30.6903 H   0  0  0  0  0  0
    2.4074   51.7658   28.2318 H   0  0  0  0  0  0
    4.0860   52.0967   28.3666 H   0  0  0  0  0  0
  1  2  1  0  0  0
  1 35  1  0  0  0
  1 36  1  0  0  0
  1 37  1  0  0  0
  2  7  2  0  0  0
  2  3  1  0  0  0
  3  4  2  0  0  0
  3 38  1  0  0  0
  4  5  1  0  0  0
  4 39  1  0  0  0
  5  6  2  0  0  0
  5 40  1  0  0  0
  6  7  1  0  0  0
  6 41  1  0  0  0
  7  8  1  0  0  0
  8  9  1  0  0  0
  8 42  1  0  0  0
  9 10  2  0  0  0
  9 11  1  0  0  0
 11 12  1  0  0  0
 11 43  1  0  0  0
 12 17  2  0  0  0
 12 13  1  0  0  0
 13 14  2  0  0  0
 13 44  1  0  0  0
 14 15  1  0  0  0
 14 45  1  0  0  0
 15 16  2  0  0  0
 15 30  1  0  0  0
 16 17  1  0  0  0
 16 18  1  0  0  0
 17 46  1  0  0  0
 18 19  2  0  0  0
 18 20  1  0  0  0
 20 21  1  0  0  0
 20 47  1  0  0  0
 21 22  1  0  0  0
 21 23  1  0  0  0
 21 24  1  0  0  0
 23 48  1  0  0  0
 23 49  1  0  0  0
 23 50  1  0  0  0
 24 29  2  0  0  0
 24 25  1  0  0  0
 25 26  2  0  0  0
 25 51  1  0  0  0
 26 27  1  0  0  0
 26 52  1  0  0  0
 27 28  2  0  0  0
 27 53  1  0  0  0
 28 29  1  0  0  0
 28 54  1  0  0  0
 29 55  1  0  0  0
 30 34  1  0  0  0
 30 31  1  0  0  0
 31 32  1  0  0  0
 31 56  1  0  0  0
 31 57  1  0  0  0
 32 33  1  0  0  0
 32 58  1  0  0  0
 32 59  1  0  0  0
 33 34  1  0  0  0
 33 60  1  0  0  0
 33 61  1  0  0  0
 34 62  1  0  0  0
 34 63  1  0  0  0
M  END
> <i_i_glide_confnum>
269

> <i_i_glide_lignum>
2369

> <i_i_glide_posenum>
251

> <i_i_glide_rotatable_bonds>
9

> <i_m_Source_File_Index>
1922

> <b_m_subgroup_collapsed>
0

> <r_i_docking_score>
-4.42521

> <r_i_glide_ecoul>
-3.95744

> <r_i_glide_eff_state_penalty>
0

> <r_i_glide_einternal>
7.97425

> <r_i_glide_emodel>
-51.0874

> <r_i_glide_energy>
-42.6656

> <r_i_glide_erotb>
0.816299

> <r_i_glide_esite>
-0.0113292

> <r_i_glide_evdw>
-38.7082

> <r_i_glide_gscore>
-4.42521

> <r_i_glide_hbond>
-0.0303366

> <r_i_glide_ligand_efficiency>
-0.134097

> <r_i_glide_ligand_efficiency_ln>
-0.984143

> <r_i_glide_ligand_efficiency_sa>
-0.430121

> <r_i_glide_lipo>
-1.8366

> <r_i_glide_metal>
0

> <r_i_glide_rewards>
-0.834211

> <s_i_glide_gridfile>
wee1_glide-grid

> <s_m_Source_File>
wee1_decoys_glide_SP.sdf

> <s_m_Source_Path>
/Users/zhangxujun/Desktop

> <s_m_entry_id>
2197

> <s_m_entry_name>
wee1_decoys_glide_SP.1922

> <s_m_subgroup_title>
wee1_decoys_glide_SP

> <s_m_subgroupid>
wee1_decoys_glide_SP


$$$$
