ZINC08971869_762
                    3D
 Schrodinger Suite 2024-2.
 67 73  0  0  1  0            999 V2000
   -0.1535   51.4277   27.7082 C   0  0  0  0  0  0
   -0.2755   50.8495   26.3102 C   0  0  0  0  0  0
   -0.8052   51.6134   25.2687 C   0  0  0  0  0  0
   -0.9343   51.0588   23.9959 C   0  0  0  0  0  0
   -0.5054   49.7469   23.7580 C   0  0  0  0  0  0
   -0.0010   48.9790   24.8105 C   0  0  0  0  0  0
    0.1268   49.5357   26.0757 C   0  0  0  0  0  0
   -0.6759   49.1059   22.4259 C   0  0  0  0  0  0
   -1.3001   48.0531   22.2918 O   0  0  0  0  0  0
    0.1687   49.6148   21.2273 C   0  0  2  0  0  0
    0.7724   48.7331   21.0142 H   0  0  0  0  0  0
    1.1548   50.7688   21.5047 C   0  0  1  0  0  0
    0.7166   51.5918   22.0718 H   0  0  0  0  0  0
    2.5482   50.4150   22.0323 C   0  0  0  0  0  0
    3.4339   51.5207   21.4634 C   0  0  0  0  0  0
    2.9329   51.7058   20.0283 C   0  0  0  0  0  0
    0.6045   50.6182   19.0585 C   0  0  2  0  0  0
   -0.5814   49.9601   19.8964 C   0  0  1  0  0  0
   -1.3582   48.8225   19.2503 C   0  0  0  0  0  0
   -0.9789   47.5330   18.8572 C   0  0  0  0  0  0
   -1.9153   46.6791   18.2695 C   0  0  0  0  0  0
   -3.2332   47.1033   18.0825 C   0  0  0  0  0  0
   -3.6230   48.3790   18.4963 C   0  0  0  0  0  0
   -2.6736   49.2156   19.0830 C   0  0  0  0  0  0
   -2.8475   50.4825   19.6014 N   0  0  0  0  0  0
   -1.7254   50.9979   20.1294 C   0  0  0  0  0  0
   -1.6276   52.0965   20.6747 O   0  0  0  0  0  0
    0.3041   51.4627   17.8363 C   0  0  0  0  0  0
   -0.3483   52.6889   17.6815 C   0  0  0  0  0  0
   -0.5164   53.2393   16.4080 C   0  0  0  0  0  0
   -0.0118   52.5678   15.2879 C   0  0  0  0  0  0
    0.6666   51.3521   15.4336 C   0  0  0  0  0  0
    0.8090   50.8212   16.7182 C   0  0  0  0  0  0
    1.5044   49.6922   17.1121 N   0  0  0  0  0  0
    1.5251   49.5202   18.4417 C   0  0  0  0  0  0
    2.1662   48.6645   19.0517 O   0  0  0  0  0  0
    1.2454   50.6582   14.2111 C   0  0  0  0  0  0
   -1.2149   54.5771   16.2464 C   0  0  0  0  0  0
   -0.3884   52.4912   27.7384 H   0  0  0  0  0  0
   -0.8223   50.8982   28.3877 H   0  0  0  0  0  0
    0.8615   51.2956   28.0824 H   0  0  0  0  0  0
   -1.1362   52.6261   25.4456 H   0  0  0  0  0  0
   -1.3749   51.6545   23.2107 H   0  0  0  0  0  0
    0.3018   47.9504   24.6640 H   0  0  0  0  0  0
    0.5107   48.9218   26.8752 H   0  0  0  0  0  0
    2.5742   50.3232   23.1194 H   0  0  0  0  0  0
    2.8745   49.4536   21.6288 H   0  0  0  0  0  0
    3.3196   52.4464   22.0316 H   0  0  0  0  0  0
    4.4912   51.2532   21.4890 H   0  0  0  0  0  0
    3.0702   52.7197   19.6492 H   0  0  0  0  0  0
    3.4223   50.9801   19.3789 H   0  0  0  0  0  0
    0.0303   47.1789   18.9980 H   0  0  0  0  0  0
   -1.6180   45.6888   17.9589 H   0  0  0  0  0  0
   -3.9562   46.4447   17.6239 H   0  0  0  0  0  0
   -4.6478   48.6938   18.3662 H   0  0  0  0  0  0
   -3.7349   50.9581   19.6329 H   0  0  0  0  0  0
   -0.7224   53.2263   18.5371 H   0  0  0  0  0  0
   -0.1300   53.0023   14.3058 H   0  0  0  0  0  0
    2.1694   49.2045   16.5214 H   0  0  0  0  0  0
    1.0323   51.1924   13.2839 H   0  0  0  0  0  0
    2.3282   50.5654   14.3153 H   0  0  0  0  0  0
    0.8403   49.6489   14.1248 H   0  0  0  0  0  0
   -0.9937   55.2320   17.0900 H   0  0  0  0  0  0
   -0.8707   55.0959   15.3508 H   0  0  0  0  0  0
   -2.2942   54.4388   16.1829 H   0  0  0  0  0  0
    1.4070   51.4262   20.1337 N   0  3  1  0  0  0
    0.9525   52.3280   20.1838 H   0  0  0  0  0  0
  1  2  1  0  0  0
  1 39  1  0  0  0
  1 40  1  0  0  0
  1 41  1  0  0  0
  2  7  2  0  0  0
  2  3  1  0  0  0
  3  4  2  0  0  0
  3 42  1  0  0  0
  4  5  1  0  0  0
  4 43  1  0  0  0
  5  6  2  0  0  0
  5  8  1  0  0  0
  6  7  1  0  0  0
  6 44  1  0  0  0
  7 45  1  0  0  0
  8  9  2  0  0  0
  8 10  1  0  0  0
 10 11  1  0  0  0
 10 18  1  0  0  0
 10 12  1  0  0  0
 12 13  1  0  0  0
 12 14  1  0  0  0
 12 66  1  0  0  0
 14 15  1  0  0  0
 14 46  1  0  0  0
 14 47  1  0  0  0
 15 16  1  0  0  0
 15 48  1  0  0  0
 15 49  1  0  0  0
 16 50  1  0  0  0
 16 51  1  0  0  0
 16 66  1  0  0  0
 17 35  1  0  0  0
 17 18  1  0  0  0
 17 28  1  0  0  0
 17 66  1  0  0  0
 18 26  1  0  0  0
 18 19  1  0  0  0
 19 24  2  0  0  0
 19 20  1  0  0  0
 20 21  2  0  0  0
 20 52  1  0  0  0
 21 22  1  0  0  0
 21 53  1  0  0  0
 22 23  2  0  0  0
 22 54  1  0  0  0
 23 24  1  0  0  0
 23 55  1  0  0  0
 24 25  1  0  0  0
 25 26  1  0  0  0
 25 56  1  0  0  0
 26 27  2  0  0  0
 28 33  2  0  0  0
 28 29  1  0  0  0
 29 30  2  0  0  0
 29 57  1  0  0  0
 30 31  1  0  0  0
 30 38  1  0  0  0
 31 32  2  0  0  0
 31 58  1  0  0  0
 32 33  1  0  0  0
 32 37  1  0  0  0
 33 34  1  0  0  0
 34 35  1  0  0  0
 34 59  1  0  0  0
 35 36  2  0  0  0
 37 60  1  0  0  0
 37 61  1  0  0  0
 37 62  1  0  0  0
 38 63  1  0  0  0
 38 64  1  0  0  0
 38 65  1  0  0  0
 66 67  1  0  0  0
M  CHG  1  66   1
M  END
> <i_i_glide_confnum>
15

> <i_i_glide_lignum>
763

> <i_i_glide_posenum>
310

> <i_i_glide_rotatable_bonds>
2

> <i_m_Source_File_Index>
3611

> <b_m_subgroup_collapsed>
0

> <r_i_docking_score>
-2.50519

> <r_i_glide_ecoul>
-4.44735

> <r_i_glide_eff_state_penalty>
0

> <r_i_glide_einternal>
7.128

> <r_i_glide_emodel>
-31.8995

> <r_i_glide_energy>
-30.2894

> <r_i_glide_erotb>
0.167865

> <r_i_glide_esite>
-0.183167

> <r_i_glide_evdw>
-25.8421

> <r_i_glide_gscore>
-2.50519

> <r_i_glide_hbond>
-0.201595

> <r_i_glide_ligand_efficiency>
-0.0677078

> <r_i_glide_ligand_efficiency_ln>
-0.543317

> <r_i_glide_ligand_efficiency_sa>
-0.225618

> <r_i_glide_lipo>
-0.256298

> <r_i_glide_metal>
0

> <r_i_glide_rewards>
-0.0727875

> <s_i_glide_gridfile>
wee1_glide-grid

> <s_m_Source_File>
wee1_decoys_glide_SP.sdf

> <s_m_Source_Path>
/Users/zhangxujun/Desktop

> <s_m_entry_id>
3886

> <s_m_entry_name>
wee1_decoys_glide_SP.3611

> <s_m_subgroup_title>
wee1_decoys_glide_SP

> <s_m_subgroupid>
wee1_decoys_glide_SP


$$$$
