ZINC01040684_1213
                    3D
 Schrodinger Suite 2024-2.
 44 46  0  0  1  0            999 V2000
    0.6963   53.6604   17.6814 C   0  0  0  0  0  0
   -0.5489   54.0275   17.1784 C   0  0  0  0  0  0
   -1.6232   53.1488   17.2842 C   0  0  0  0  0  0
   -1.4553   51.8988   17.8738 C   0  0  0  0  0  0
   -0.2096   51.5314   18.3778 C   0  0  0  0  0  0
    0.8783   52.4155   18.3067 C   0  0  0  0  0  0
    2.1702   52.0504   18.8799 C   0  0  0  0  0  0
    3.7022   50.7526   18.6458 H   0  0  0  0  0  0
    2.7047   52.8967   19.7537 N   0  0  0  0  0  0
    4.2360   52.7246   20.4776 S   0  0  0  0  0  0
    4.5023   51.2960   20.6545 O   0  0  0  0  0  0
    5.1367   53.6077   19.7329 O   0  0  0  0  0  0
    4.0277   53.4026   22.1151 C   0  0  0  0  0  0
    2.8057   53.2965   22.7782 C   0  0  0  0  0  0
    2.6598   53.8071   24.0657 C   0  0  0  0  0  0
    3.7491   54.4110   24.7160 C   0  0  0  0  0  0
    4.9828   54.4967   24.0543 C   0  0  0  0  0  0
    5.1174   53.9946   22.7586 C   0  0  0  0  0  0
    6.3396   55.2704   24.7998 Cl  0  0  0  0  0  0
    3.5911   55.0278   25.9349 O   0  0  0  0  0  0
    3.5363   54.2895   27.0897 C   0  0  0  0  0  0
    4.6415   53.5792   27.5561 C   0  0  0  0  0  0
    4.5652   52.9006   28.7690 C   0  0  0  0  0  0
    3.3817   52.9177   29.5217 C   0  0  0  0  0  0
    2.2798   53.6373   29.0429 C   0  0  0  0  0  0
    2.3648   54.3292   27.8421 C   0  0  0  0  0  0
    3.2881   52.1870   30.8046 N   0  3  0  0  0  0
    4.3043   51.6967   31.2792 O   0  0  0  0  0  0
    2.1921   52.0968   31.3460 O   0  5  0  0  0  0
    1.1047   53.6967   24.8076 Cl  0  0  0  0  0  0
   -3.1742   53.6155   16.6889 Cl  0  0  0  0  0  0
    1.5149   54.3631   17.5970 H   0  0  0  0  0  0
   -0.6786   54.9938   16.7122 H   0  0  0  0  0  0
   -2.2895   51.2161   17.9453 H   0  0  0  0  0  0
   -0.1074   50.5610   18.8452 H   0  0  0  0  0  0
    2.2758   53.8146   19.8935 H   0  0  0  0  0  0
    1.9637   52.8209   22.2959 H   0  0  0  0  0  0
    6.0692   54.0721   22.2512 H   0  0  0  0  0  0
    5.5586   53.5573   26.9870 H   0  0  0  0  0  0
    5.4347   52.3588   29.1103 H   0  0  0  0  0  0
    1.3534   53.6717   29.6000 H   0  0  0  0  0  0
    1.5151   54.8946   27.4913 H   0  0  0  0  0  0
    2.7044   50.9120   18.4817 N   0  3  0  0  0  0
    2.2568   50.3515   17.7745 H   0  0  0  0  0  0
  1  6  2  0  0  0
  1  2  1  0  0  0
  1 32  1  0  0  0
  2  3  2  0  0  0
  2 33  1  0  0  0
  3  4  1  0  0  0
  3 31  1  0  0  0
  4  5  2  0  0  0
  4 34  1  0  0  0
  5  6  1  0  0  0
  5 35  1  0  0  0
  6  7  1  0  0  0
  7  9  1  0  0  0
  7 43  2  0  0  0
  8 43  1  0  0  0
  9 10  1  0  0  0
  9 36  1  0  0  0
 10 11  2  0  0  0
 10 12  2  0  0  0
 10 13  1  0  0  0
 13 18  2  0  0  0
 13 14  1  0  0  0
 14 15  2  0  0  0
 14 37  1  0  0  0
 15 16  1  0  0  0
 15 30  1  0  0  0
 16 17  2  0  0  0
 16 20  1  0  0  0
 17 18  1  0  0  0
 17 19  1  0  0  0
 18 38  1  0  0  0
 20 21  1  0  0  0
 21 26  2  0  0  0
 21 22  1  0  0  0
 22 23  2  0  0  0
 22 39  1  0  0  0
 23 24  1  0  0  0
 23 40  1  0  0  0
 24 25  2  0  0  0
 24 27  1  0  0  0
 25 26  1  0  0  0
 25 41  1  0  0  0
 26 42  1  0  0  0
 27 28  2  0  0  0
 27 29  1  0  0  0
 43 44  1  0  0  0
M  CHG  3  27   1  29  -1  43   1
M  END
> <i_i_glide_confnum>
17

> <i_i_glide_lignum>
1214

> <i_i_glide_posenum>
384

> <i_i_glide_rotatable_bonds>
7

> <i_m_Source_File_Index>
671

> <b_m_subgroup_collapsed>
0

> <r_i_docking_score>
-5.06996

> <r_i_glide_ecoul>
-10.6864

> <r_i_glide_eff_state_penalty>
0

> <r_i_glide_einternal>
7.20708

> <r_i_glide_emodel>
-58.7149

> <r_i_glide_energy>
-50.7288

> <r_i_glide_erotb>
0.405729

> <r_i_glide_esite>
-0.327297

> <r_i_glide_evdw>
-40.0424

> <r_i_glide_gscore>
-5.06996

> <r_i_glide_hbond>
-0.2

> <r_i_glide_ligand_efficiency>
-0.163547

> <r_i_glide_ligand_efficiency_ln>
-1.14343

> <r_i_glide_ligand_efficiency_sa>
-0.513764

> <r_i_glide_lipo>
-2.98458

> <r_i_glide_metal>
0

> <r_i_glide_rewards>
1.64127

> <s_i_glide_gridfile>
wee1_glide-grid

> <s_m_Source_File>
wee1_decoys_glide_SP.sdf

> <s_m_Source_Path>
/Users/zhangxujun/Desktop

> <s_m_entry_id>
946

> <s_m_entry_name>
wee1_decoys_glide_SP.671

> <s_m_subgroup_title>
wee1_decoys_glide_SP

> <s_m_subgroupid>
wee1_decoys_glide_SP


$$$$
