ZINC36597478_3737
                    3D
 Schrodinger Suite 2024-2.
 63 65  0  0  1  0            999 V2000
   -2.0797   51.5068   28.0504 C   0  0  0  0  0  0
   -0.8156   51.8077   27.2766 C   0  0  0  0  0  0
    0.2925   52.6144   27.4839 C   0  0  0  0  0  0
    1.0999   52.4938   26.3466 C   0  0  0  0  0  0
    0.4644   51.6002   25.4934 C   0  0  0  0  0  0
   -0.6909   51.1931   26.0763 O   0  0  0  0  0  0
    0.8001   50.9649   24.1494 C   0  0  0  0  0  0
    0.0737   51.5097   22.9668 N   0  0  0  0  0  0
    0.8346   52.2960   21.9237 C   0  0  1  0  0  0
    0.3049   53.2445   21.8552 H   0  0  0  0  0  0
    2.2370   52.7624   22.3264 C   0  0  0  0  0  0
    2.3545   53.7183   23.3417 C   0  0  0  0  0  0
    3.5969   54.2450   23.6860 C   0  0  0  0  0  0
    4.7466   53.8561   22.9904 C   0  0  0  0  0  0
    4.6383   52.8966   21.9827 C   0  0  0  0  0  0
    3.4043   52.3358   21.6728 C   0  0  0  0  0  0
    6.1141   54.4684   23.3033 C   0  0  0  0  0  0
    6.1163   55.1511   24.4506 F   0  0  0  0  0  0
    7.0498   53.5250   23.3828 F   0  0  0  0  0  0
    6.4489   55.2970   22.3160 F   0  0  0  0  0  0
    0.7386   51.6983   20.4794 C   0  0  0  0  0  0
    0.2961   50.5632   20.3029 O   0  0  0  0  0  0
    1.1612   52.4966   19.4823 N   0  0  0  0  0  0
    1.1900   52.2169   18.0425 C   0  0  0  0  0  0
    1.8034   53.4533   17.3562 C   0  0  0  0  0  0
   -0.2360   52.0012   17.4888 C   0  0  0  0  0  0
    2.0749   50.9914   17.7228 C   0  0  0  0  0  0
   -1.2935   51.4080   22.8317 C   0  0  0  0  0  0
   -1.9337   52.0965   22.0294 O   0  0  0  0  0  0
   -2.0912   50.4570   23.7001 C   0  0  0  0  0  0
   -1.8130   49.0767   23.7314 C   0  0  0  0  0  0
   -2.5244   48.2327   24.5838 C   0  0  0  0  0  0
   -3.5403   48.7382   25.3882 C   0  0  0  0  0  0
   -3.8727   50.0863   25.3157 C   0  0  0  0  0  0
   -3.1640   50.9431   24.4758 C   0  0  0  0  0  0
   -3.5411   52.2627   24.4508 O   0  0  0  0  0  0
   -0.8647   48.5039   22.9230 O   0  0  0  0  0  0
   -1.9647   51.7014   29.1162 H   0  0  0  0  0  0
   -2.9156   52.0970   27.6841 H   0  0  0  0  0  0
   -2.4097   50.4734   27.9519 H   0  0  0  0  0  0
    0.4854   53.2250   28.3525 H   0  0  0  0  0  0
    2.0495   52.9804   26.1779 H   0  0  0  0  0  0
    0.6698   49.8871   24.2048 H   0  0  0  0  0  0
    1.8711   51.0498   23.9865 H   0  0  0  0  0  0
    1.4717   54.0689   23.8568 H   0  0  0  0  0  0
    3.6537   54.9817   24.4734 H   0  0  0  0  0  0
    5.5069   52.5744   21.4301 H   0  0  0  0  0  0
    3.3696   51.5939   20.8874 H   0  0  0  0  0  0
    1.4844   53.4245   19.7347 H   0  0  0  0  0  0
    2.8213   53.6384   17.7020 H   0  0  0  0  0  0
    1.8501   53.3302   16.2732 H   0  0  0  0  0  0
    1.2241   54.3554   17.5578 H   0  0  0  0  0  0
   -0.7083   51.1176   17.9203 H   0  0  0  0  0  0
   -0.8816   52.8537   17.7041 H   0  0  0  0  0  0
   -0.2252   51.8619   16.4073 H   0  0  0  0  0  0
    1.6736   50.0665   18.1389 H   0  0  0  0  0  0
    2.1786   50.8362   16.6475 H   0  0  0  0  0  0
    3.0805   51.1105   18.1256 H   0  0  0  0  0  0
   -2.2927   47.1801   24.6335 H   0  0  0  0  0  0
   -4.0773   48.0842   26.0594 H   0  0  0  0  0  0
   -4.6755   50.4707   25.9260 H   0  0  0  0  0  0
   -3.0466   52.7515   23.7875 H   0  0  0  0  0  0
   -0.8331   47.5504   23.0179 H   0  0  0  0  0  0
  1  2  1  0  0  0
  1 38  1  0  0  0
  1 39  1  0  0  0
  1 40  1  0  0  0
  2  6  1  0  0  0
  2  3  2  0  0  0
  3  4  1  0  0  0
  3 41  1  0  0  0
  4  5  2  0  0  0
  4 42  1  0  0  0
  5  6  1  0  0  0
  5  7  1  0  0  0
  7  8  1  0  0  0
  7 43  1  0  0  0
  7 44  1  0  0  0
  8  9  1  0  0  0
  8 28  1  0  0  0
  9 10  1  0  0  0
  9 11  1  0  0  0
  9 21  1  0  0  0
 11 16  2  0  0  0
 11 12  1  0  0  0
 12 13  2  0  0  0
 12 45  1  0  0  0
 13 14  1  0  0  0
 13 46  1  0  0  0
 14 15  2  0  0  0
 14 17  1  0  0  0
 15 16  1  0  0  0
 15 47  1  0  0  0
 16 48  1  0  0  0
 17 18  1  0  0  0
 17 19  1  0  0  0
 17 20  1  0  0  0
 21 22  2  0  0  0
 21 23  1  0  0  0
 23 24  1  0  0  0
 23 49  1  0  0  0
 24 25  1  0  0  0
 24 26  1  0  0  0
 24 27  1  0  0  0
 25 50  1  0  0  0
 25 51  1  0  0  0
 25 52  1  0  0  0
 26 53  1  0  0  0
 26 54  1  0  0  0
 26 55  1  0  0  0
 27 56  1  0  0  0
 27 57  1  0  0  0
 27 58  1  0  0  0
 28 29  2  0  0  0
 28 30  1  0  0  0
 30 35  2  0  0  0
 30 31  1  0  0  0
 31 32  2  0  0  0
 31 37  1  0  0  0
 32 33  1  0  0  0
 32 59  1  0  0  0
 33 34  2  0  0  0
 33 60  1  0  0  0
 34 35  1  0  0  0
 34 61  1  0  0  0
 35 36  1  0  0  0
 36 62  1  0  0  0
 37 63  1  0  0  0
M  END
> <i_i_glide_confnum>
269

> <i_i_glide_lignum>
3738

> <i_i_glide_posenum>
114

> <i_i_glide_rotatable_bonds>
12

> <i_m_Source_File_Index>
3139

> <b_m_subgroup_collapsed>
0

> <r_i_docking_score>
-4.42064

> <r_i_glide_ecoul>
-4.06666

> <r_i_glide_eff_state_penalty>
0

> <r_i_glide_einternal>
14.6077

> <r_i_glide_emodel>
-41.1189

> <r_i_glide_energy>
-38.4593

> <r_i_glide_erotb>
0.64269

> <r_i_glide_esite>
-0.0439222

> <r_i_glide_evdw>
-34.3927

> <r_i_glide_gscore>
-4.42064

> <r_i_glide_hbond>
-0.32

> <r_i_glide_ligand_efficiency>
-0.122795

> <r_i_glide_ligand_efficiency_ln>
-0.964463

> <r_i_glide_ligand_efficiency_sa>
-0.405462

> <r_i_glide_lipo>
-1.53976

> <r_i_glide_metal>
0

> <r_i_glide_rewards>
-0.830012

> <s_i_glide_gridfile>
wee1_glide-grid

> <s_m_Source_File>
wee1_decoys_glide_SP.sdf

> <s_m_Source_Path>
/Users/zhangxujun/Desktop

> <s_m_entry_id>
3414

> <s_m_entry_name>
wee1_decoys_glide_SP.3139

> <s_m_subgroup_title>
wee1_decoys_glide_SP

> <s_m_subgroupid>
wee1_decoys_glide_SP


$$$$
