ZINC36240498_5162
                    3D
 Schrodinger Suite 2024-2.
 53 57  0  0  1  0            999 V2000
    1.1051   54.7159   29.1593 C   0  0  0  0  0  0
    0.7041   54.8648   30.4817 C   0  0  0  0  0  0
    0.7043   53.7599   31.3257 C   0  0  0  0  0  0
    1.1222   52.5155   30.8783 C   0  0  0  0  0  0
    1.5372   52.3556   29.5608 C   0  0  0  0  0  0
    1.5206   53.4593   28.6991 C   0  0  0  0  0  0
    1.9052   53.3080   27.3476 N   0  0  0  0  0  0
    3.1707   53.8015   27.0295 C   0  0  0  0  0  0
    3.9731   54.2220   27.8731 O   0  0  0  0  0  0
    3.3951   53.7818   25.5854 C   0  0  0  0  0  0
    4.5382   54.1914   24.8749 C   0  0  0  0  0  0
    4.3703   54.0379   23.4870 C   0  0  0  0  0  0
    2.7927   53.4300   23.0779 S   0  0  0  0  0  0
    2.3901   53.3008   24.7535 C   0  0  0  0  0  0
    1.2118   52.7757   25.1737 N   0  0  0  0  0  0
    0.9845   52.7575   26.4446 C   0  0  0  0  0  0
   -0.5808   52.0324   27.0237 S   0  0  0  0  0  0
   -1.3224   51.3191   25.5150 C   0  0  0  0  0  0
   -2.5500   50.4343   25.7816 C   0  0  0  0  0  0
   -2.7858   49.5046   25.0063 O   0  0  0  0  0  0
   -3.3193   50.7604   26.8514 N   0  0  0  0  0  0
   -4.3035   50.0702   27.4729 C   0  0  0  0  0  0
   -4.9506   50.6194   28.3618 O   0  0  0  0  0  0
   -4.4955   48.7794   27.1270 N   0  0  0  0  0  0
   -5.2546   47.7913   27.8856 C   0  0  0  0  0  0
   -4.5496   46.5068   28.2601 C   0  0  0  0  0  0
   -4.8959   47.5117   29.3333 C   0  0  0  0  0  0
    5.4600   54.2681   22.4488 C   0  0  0  0  0  0
    6.6226   55.0545   23.0962 C   0  0  0  0  0  0
    7.0038   54.5018   24.4818 C   0  0  0  0  0  0
    5.8551   54.6552   25.4944 C   0  0  0  0  0  0
    0.3043   53.9529   32.9896 Cl  0  0  0  0  0  0
    1.0990   55.5713   28.4998 H   0  0  0  0  0  0
    0.4027   55.8332   30.8534 H   0  0  0  0  0  0
    1.1335   51.6968   31.5752 H   0  0  0  0  0  0
    1.8543   51.3842   29.2076 H   0  0  0  0  0  0
   -0.5668   50.7237   25.0004 H   0  0  0  0  0  0
   -1.5942   52.1225   24.8300 H   0  0  0  0  0  0
   -3.0810   51.6245   27.3097 H   0  0  0  0  0  0
   -4.1361   48.4887   26.2280 H   0  0  0  0  0  0
   -6.3099   47.7495   27.6122 H   0  0  0  0  0  0
   -3.4986   46.3799   27.9901 H   0  0  0  0  0  0
   -5.1108   45.5784   28.1734 H   0  0  0  0  0  0
   -5.7050   47.2969   30.0317 H   0  0  0  0  0  0
   -4.0953   48.0950   29.7956 H   0  0  0  0  0  0
    5.8296   53.3058   22.0954 H   0  0  0  0  0  0
    5.0766   54.8006   21.5781 H   0  0  0  0  0  0
    7.4925   55.0491   22.4371 H   0  0  0  0  0  0
    6.3233   56.0963   23.2007 H   0  0  0  0  0  0
    7.2826   53.4497   24.3886 H   0  0  0  0  0  0
    7.8798   55.0109   24.8816 H   0  0  0  0  0  0
    5.7623   55.6947   25.8084 H   0  0  0  0  0  0
    6.0938   54.0872   26.3948 H   0  0  0  0  0  0
  1  6  2  0  0  0
  1  2  1  0  0  0
  1 33  1  0  0  0
  2  3  2  0  0  0
  2 34  1  0  0  0
  3  4  1  0  0  0
  3 32  1  0  0  0
  4  5  2  0  0  0
  4 35  1  0  0  0
  5  6  1  0  0  0
  5 36  1  0  0  0
  6  7  1  0  0  0
  7 16  1  0  0  0
  7  8  1  0  0  0
  8  9  2  0  0  0
  8 10  1  0  0  0
 10 14  2  0  0  0
 10 11  1  0  0  0
 11 31  1  0  0  0
 11 12  2  0  0  0
 12 13  1  0  0  0
 12 28  1  0  0  0
 13 14  1  0  0  0
 14 15  1  0  0  0
 15 16  2  0  0  0
 16 17  1  0  0  0
 17 18  1  0  0  0
 18 19  1  0  0  0
 18 37  1  0  0  0
 18 38  1  0  0  0
 19 20  2  0  0  0
 19 21  1  0  0  0
 21 22  1  0  0  0
 21 39  1  0  0  0
 22 23  2  0  0  0
 22 24  1  0  0  0
 24 25  1  0  0  0
 24 40  1  0  0  0
 25 27  1  0  0  0
 25 26  1  0  0  0
 25 41  1  0  0  0
 26 27  1  0  0  0
 26 42  1  0  0  0
 26 43  1  0  0  0
 27 44  1  0  0  0
 27 45  1  0  0  0
 28 29  1  0  0  0
 28 46  1  0  0  0
 28 47  1  0  0  0
 29 30  1  0  0  0
 29 48  1  0  0  0
 29 49  1  0  0  0
 30 31  1  0  0  0
 30 50  1  0  0  0
 30 51  1  0  0  0
 31 52  1  0  0  0
 31 53  1  0  0  0
M  END
> <i_i_glide_confnum>
41

> <i_i_glide_lignum>
5163

> <i_i_glide_posenum>
124

> <i_i_glide_rotatable_bonds>
8

> <i_m_Source_File_Index>
4970

> <b_m_subgroup_collapsed>
0

> <r_i_docking_score>
-4.41882

> <r_i_glide_ecoul>
0.659428

> <r_i_glide_eff_state_penalty>
0

> <r_i_glide_einternal>
7.596

> <r_i_glide_emodel>
-52.4521

> <r_i_glide_energy>
-43.6214

> <r_i_glide_erotb>
0.595416

> <r_i_glide_esite>
-0.221949

> <r_i_glide_evdw>
-44.2808

> <r_i_glide_gscore>
-4.41882

> <r_i_glide_hbond>
0

> <r_i_glide_ligand_efficiency>
-0.138088

> <r_i_glide_ligand_efficiency_ln>
-0.989495

> <r_i_glide_ligand_efficiency_sa>
-0.438403

> <r_i_glide_lipo>
-2.91781

> <r_i_glide_metal>
0

> <r_i_glide_rewards>
0.240642

> <s_i_glide_gridfile>
wee1_glide-grid

> <s_m_Source_File>
wee1_decoys_glide_SP.sdf

> <s_m_Source_Path>
/Users/zhangxujun/Desktop

> <s_m_entry_id>
5245

> <s_m_entry_name>
wee1_decoys_glide_SP.4970

> <s_m_subgroup_title>
wee1_decoys_glide_SP

> <s_m_subgroupid>
wee1_decoys_glide_SP


$$$$
