ZINC04452908_2670
                    3D
 Schrodinger Suite 2024-2.
 55 57  0  0  1  0            999 V2000
    5.4353   54.2058   27.0889 C   0  0  0  0  0  0
    4.0795   53.5621   27.4224 C   0  0  0  0  0  0
    2.9062   53.8265   26.4509 C   0  0  0  0  0  0
    3.1412   53.3620   25.0753 N   0  0  0  0  0  0
    3.7325   54.4207   24.2549 C   0  0  0  0  0  0
    3.9092   54.0577   22.7962 C   0  0  0  0  0  0
    3.2229   53.0641   22.1948 C   0  0  0  0  0  0
    2.2327   52.2199   23.0204 C   0  0  1  0  0  0
    2.7044   51.2535   23.1988 H   0  0  0  0  0  0
    1.9248   52.8710   24.4156 C   0  0  0  0  0  0
    0.9693   51.9836   22.1546 C   0  0  1  0  0  0
    0.5789   52.9864   21.9668 H   0  0  0  0  0  0
    1.2744   51.3796   20.7332 C   0  0  0  0  0  0
    2.5153   52.0200   20.0808 C   0  0  0  0  0  0
    3.3944   52.7838   20.7692 C   0  0  0  0  0  0
    4.5270   53.3362   20.0823 C   0  0  0  0  0  0
    5.4449   53.8078   19.5586 N   0  0  0  0  0  0
    2.7044   51.6910   18.7542 N   0  0  0  0  0  0
    0.0814   51.6067   19.8935 C   0  0  0  0  0  0
   -0.8584   51.7881   19.2415 N   0  0  0  0  0  0
    1.5368   49.9293   20.7671 C   0  0  0  0  0  0
    1.7473   48.7916   20.7863 N   0  0  0  0  0  0
   -0.1481   51.2526   22.9216 C   0  0  0  0  0  0
   -1.3677   51.8920   23.1705 C   0  0  0  0  0  0
   -2.3946   51.2403   23.8699 C   0  0  0  0  0  0
   -2.1968   49.9245   24.2862 C   0  0  0  0  0  0
   -0.9753   49.2677   24.0677 C   0  0  0  0  0  0
    0.0416   49.9527   23.4052 C   0  0  0  0  0  0
   -0.6979   47.9739   24.4640 O   0  0  0  0  0  0
   -1.6899   47.2492   25.1808 C   0  0  0  0  0  0
   -3.6136   51.8108   24.1753 O   0  0  0  0  0  0
   -3.7077   53.2306   24.2410 C   0  0  0  0  0  0
    6.1318   54.0944   27.9215 H   0  0  0  0  0  0
    5.3333   55.2723   26.8850 H   0  0  0  0  0  0
    5.8978   53.7284   26.2253 H   0  0  0  0  0  0
    4.2002   52.4947   27.5770 H   0  0  0  0  0  0
    3.7759   53.9394   28.3985 H   0  0  0  0  0  0
    2.0174   53.3449   26.8627 H   0  0  0  0  0  0
    2.7042   54.8967   26.4594 H   0  0  0  0  0  0
    3.0944   55.2970   24.2651 H   0  0  0  0  0  0
    4.7115   54.7072   24.6312 H   0  0  0  0  0  0
    4.5855   54.6658   22.2145 H   0  0  0  0  0  0
    1.4658   52.1109   25.0488 H   0  0  0  0  0  0
    1.1906   53.6752   24.3360 H   0  0  0  0  0  0
    2.0737   51.0680   18.2698 H   0  0  0  0  0  0
    3.6137   51.8141   18.3220 H   0  0  0  0  0  0
   -1.5137   52.8967   22.8145 H   0  0  0  0  0  0
   -3.0051   49.4342   24.8055 H   0  0  0  0  0  0
    0.9863   49.4472   23.2692 H   0  0  0  0  0  0
   -1.2952   46.2790   25.4825 H   0  0  0  0  0  0
   -1.9951   47.7752   26.0840 H   0  0  0  0  0  0
   -2.5724   47.0686   24.5659 H   0  0  0  0  0  0
   -4.7148   53.5082   24.5547 H   0  0  0  0  0  0
   -3.0120   53.6335   24.9783 H   0  0  0  0  0  0
   -3.5224   53.7105   23.2815 H   0  0  0  0  0  0
  1  2  1  0  0  0
  1 33  1  0  0  0
  1 34  1  0  0  0
  1 35  1  0  0  0
  2  3  1  0  0  0
  2 36  1  0  0  0
  2 37  1  0  0  0
  3  4  1  0  0  0
  3 38  1  0  0  0
  3 39  1  0  0  0
  4 10  1  0  0  0
  4  5  1  0  0  0
  5  6  1  0  0  0
  5 40  1  0  0  0
  5 41  1  0  0  0
  6  7  2  0  0  0
  6 42  1  0  0  0
  7 15  1  0  0  0
  7  8  1  0  0  0
  8  9  1  0  0  0
  8 10  1  0  0  0
  8 11  1  0  0  0
 10 43  1  0  0  0
 10 44  1  0  0  0
 11 12  1  0  0  0
 11 13  1  0  0  0
 11 23  1  0  0  0
 13 14  1  0  0  0
 13 19  1  0  0  0
 13 21  1  0  0  0
 14 15  2  0  0  0
 14 18  1  0  0  0
 15 16  1  0  0  0
 16 17  3  0  0  0
 18 45  1  0  0  0
 18 46  1  0  0  0
 19 20  3  0  0  0
 21 22  3  0  0  0
 23 28  2  0  0  0
 23 24  1  0  0  0
 24 25  2  0  0  0
 24 47  1  0  0  0
 25 26  1  0  0  0
 25 31  1  0  0  0
 26 27  2  0  0  0
 26 48  1  0  0  0
 27 28  1  0  0  0
 27 29  1  0  0  0
 28 49  1  0  0  0
 29 30  1  0  0  0
 30 50  1  0  0  0
 30 51  1  0  0  0
 30 52  1  0  0  0
 31 32  1  0  0  0
 32 53  1  0  0  0
 32 54  1  0  0  0
 32 55  1  0  0  0
M  END
> <i_i_glide_confnum>
2

> <i_i_glide_lignum>
2671

> <i_i_glide_posenum>
327

> <i_i_glide_rotatable_bonds>
8

> <i_m_Source_File_Index>
783

> <b_m_subgroup_collapsed>
0

> <r_i_docking_score>
-4.03499

> <r_i_glide_ecoul>
-1.31409

> <r_i_glide_eff_state_penalty>
0

> <r_i_glide_einternal>
10.7099

> <r_i_glide_emodel>
-36.2256

> <r_i_glide_energy>
-33.1989

> <r_i_glide_erotb>
0.241211

> <r_i_glide_esite>
-0.0957713

> <r_i_glide_evdw>
-31.8848

> <r_i_glide_gscore>
-4.03499

> <r_i_glide_hbond>
-0.032849

> <r_i_glide_ligand_efficiency>
-0.1345

> <r_i_glide_ligand_efficiency_ln>
-0.916793

> <r_i_glide_ligand_efficiency_sa>
-0.417922

> <r_i_glide_lipo>
-1.73569

> <r_i_glide_metal>
0

> <r_i_glide_rewards>
-0.620539

> <s_i_glide_gridfile>
wee1_glide-grid

> <s_m_Source_File>
wee1_decoys_glide_SP.sdf

> <s_m_Source_Path>
/Users/zhangxujun/Desktop

> <s_m_entry_id>
1058

> <s_m_entry_name>
wee1_decoys_glide_SP.783

> <s_m_subgroup_title>
wee1_decoys_glide_SP

> <s_m_subgroupid>
wee1_decoys_glide_SP


$$$$
