ZINC38651211_4343
                    3D
 Schrodinger Suite 2024-2.
 51 54  0  0  1  0            999 V2000
   -1.5041   51.4418   19.1575 C   0  0  0  0  0  0
   -1.8816   50.7534   20.4804 C   0  0  1  0  0  0
   -1.4020   49.7732   20.4908 H   0  0  0  0  0  0
   -1.4053   51.5804   21.6912 C   0  0  0  0  0  0
   -2.0957   52.4839   22.1729 O   0  0  0  0  0  0
   -0.1869   51.1686   22.1325 O   0  0  0  0  0  0
    0.3560   51.7114   23.2761 C   0  0  0  0  0  0
    1.5958   52.3381   23.1982 C   0  0  0  0  0  0
    2.1768   52.8963   24.3353 C   0  0  0  0  0  0
    1.5378   52.8702   25.5886 C   0  0  0  0  0  0
    0.3080   52.1796   25.6476 C   0  0  0  0  0  0
   -0.2751   51.6091   24.5189 C   0  0  0  0  0  0
   -0.3913   52.0012   26.8208 O   0  0  0  0  0  0
    0.2396   52.2405   27.9914 C   0  0  0  0  0  0
    1.4132   52.8937   28.1131 C   0  0  0  0  0  0
    2.1010   53.5216   26.8832 C   0  0  1  0  0  0
    1.7002   54.5293   26.8997 H   0  0  0  0  0  0
    3.6332   53.7575   26.9223 C   0  0  0  0  0  0
    4.4704   53.1003   27.8376 C   0  0  0  0  0  0
    5.8499   53.2967   27.8195 C   0  0  0  0  0  0
    6.4302   54.1259   26.8738 C   0  0  0  0  0  0
    5.6221   54.7810   25.9560 C   0  0  0  0  0  0
    4.2338   54.6425   26.0110 C   0  0  0  0  0  0
    6.3653   55.6967   24.7098 Cl  0  0  0  0  0  0
    1.9292   53.1281   29.4201 C   0  0  0  0  0  0
    2.3587   53.2821   30.4817 N   0  0  0  0  0  0
   -0.5201   51.6970   28.9921 N   0  0  0  0  0  0
   -3.3045   50.5844   20.4718 O   0  0  0  0  0  0
   -3.9198   49.7461   21.3879 C   0  0  0  0  0  0
   -3.2346   48.9477   22.3206 C   0  0  0  0  0  0
   -3.9412   48.1446   23.2119 C   0  0  0  0  0  0
   -5.3319   48.1217   23.1674 C   0  0  0  0  0  0
   -6.0228   48.8996   22.2413 C   0  0  0  0  0  0
   -5.3150   49.7073   21.3538 C   0  0  0  0  0  0
   -6.0173   47.3373   24.0299 F   0  0  0  0  0  0
   -0.4286   51.6141   19.0845 H   0  0  0  0  0  0
   -1.7915   50.8232   18.3066 H   0  0  0  0  0  0
   -2.0050   52.4037   19.0451 H   0  0  0  0  0  0
    2.1105   52.3978   22.2505 H   0  0  0  0  0  0
    3.1386   53.3543   24.1983 H   0  0  0  0  0  0
   -1.2191   51.0925   24.6102 H   0  0  0  0  0  0
    4.0837   52.3769   28.5362 H   0  0  0  0  0  0
    6.4911   52.7481   28.4818 H   0  0  0  0  0  0
    7.5037   54.2214   26.8338 H   0  0  0  0  0  0
    3.6270   55.1847   25.3004 H   0  0  0  0  0  0
   -0.2757   51.8328   29.9624 H   0  0  0  0  0  0
   -1.1405   50.9263   28.7827 H   0  0  0  0  0  0
   -2.1575   48.9407   22.3762 H   0  0  0  0  0  0
   -3.4140   47.5431   23.9383 H   0  0  0  0  0  0
   -7.1015   48.8745   22.2147 H   0  0  0  0  0  0
   -5.8508   50.3137   20.6387 H   0  0  0  0  0  0
  1  2  1  0  0  0
  1 36  1  0  0  0
  1 37  1  0  0  0
  1 38  1  0  0  0
  2  3  1  0  0  0
  2  4  1  0  0  0
  2 28  1  0  0  0
  4  5  2  0  0  0
  4  6  1  0  0  0
  6  7  1  0  0  0
  7 12  2  0  0  0
  7  8  1  0  0  0
  8  9  2  0  0  0
  8 39  1  0  0  0
  9 10  1  0  0  0
  9 40  1  0  0  0
 10 16  1  0  0  0
 10 11  2  0  0  0
 11 12  1  0  0  0
 11 13  1  0  0  0
 12 41  1  0  0  0
 13 14  1  0  0  0
 14 15  2  0  0  0
 14 27  1  0  0  0
 15 16  1  0  0  0
 15 25  1  0  0  0
 16 17  1  0  0  0
 16 18  1  0  0  0
 18 23  2  0  0  0
 18 19  1  0  0  0
 19 20  2  0  0  0
 19 42  1  0  0  0
 20 21  1  0  0  0
 20 43  1  0  0  0
 21 22  2  0  0  0
 21 44  1  0  0  0
 22 23  1  0  0  0
 22 24  1  0  0  0
 23 45  1  0  0  0
 25 26  3  0  0  0
 27 46  1  0  0  0
 27 47  1  0  0  0
 28 29  1  0  0  0
 29 34  2  0  0  0
 29 30  1  0  0  0
 30 31  2  0  0  0
 30 48  1  0  0  0
 31 32  1  0  0  0
 31 49  1  0  0  0
 32 33  2  0  0  0
 32 35  1  0  0  0
 33 34  1  0  0  0
 33 50  1  0  0  0
 34 51  1  0  0  0
M  END
> <i_i_glide_confnum>
125

> <i_i_glide_lignum>
4344

> <i_i_glide_posenum>
389

> <i_i_glide_rotatable_bonds>
7

> <i_m_Source_File_Index>
5211

> <b_m_subgroup_collapsed>
0

> <r_i_docking_score>
-4.8099

> <r_i_glide_ecoul>
-5.22413

> <r_i_glide_eff_state_penalty>
0

> <r_i_glide_einternal>
10.9323

> <r_i_glide_emodel>
-45.1927

> <r_i_glide_energy>
-41.3284

> <r_i_glide_erotb>
0.4665

> <r_i_glide_esite>
-0.0626937

> <r_i_glide_evdw>
-36.1043

> <r_i_glide_gscore>
-4.8099

> <r_i_glide_hbond>
-0.296159

> <r_i_glide_ligand_efficiency>
-0.145755

> <r_i_glide_ligand_efficiency_ln>
-1.0697

> <r_i_glide_ligand_efficiency_sa>
-0.467513

> <r_i_glide_lipo>
-2.93883

> <r_i_glide_metal>
0

> <r_i_glide_rewards>
0.610114

> <s_i_glide_gridfile>
wee1_glide-grid

> <s_m_Source_File>
wee1_decoys_glide_SP.sdf

> <s_m_Source_Path>
/Users/zhangxujun/Desktop

> <s_m_entry_id>
5486

> <s_m_entry_name>
wee1_decoys_glide_SP.5211

> <s_m_subgroup_title>
wee1_decoys_glide_SP

> <s_m_subgroupid>
wee1_decoys_glide_SP


$$$$
