ZINC00649125_4051
                    3D
 Schrodinger Suite 2024-2.
 51 54  0  0  1  0            999 V2000
    4.2238   53.6971   23.3430 C   0  0  0  0  0  0
    5.0765   54.3166   24.4314 C   0  0  0  0  0  0
    4.9165   54.3775   25.8160 C   0  0  0  0  0  0
    6.0407   55.1128   26.2304 C   0  0  0  0  0  0
    6.8367   55.4604   25.2548 N   0  0  0  0  0  0
    6.2497   54.9819   24.1598 N   0  0  0  0  0  0
    6.9016   55.1795   22.8733 C   0  0  0  0  0  0
    3.7686   53.7666   26.6206 C   0  0  0  0  0  0
    4.0120   53.2915   28.0070 N   0  0  0  0  0  0
    5.4073   53.1636   28.4572 C   0  0  0  0  0  0
    3.0305   52.9058   28.8851 C   0  0  0  0  0  0
    3.2725   52.7712   30.0902 O   0  0  0  0  0  0
    1.6914   52.5415   28.4033 C   0  0  0  0  0  0
    0.5656   52.3117   29.2362 C   0  0  0  0  0  0
   -0.4126   51.8042   28.4034 C   0  0  0  0  0  0
    0.1243   51.7778   27.1345 N   0  0  0  0  0  0
    1.3660   52.2795   27.1483 N   0  0  0  0  0  0
   -0.6074   51.4704   25.8859 C   0  0  2  0  0  0
   -0.8715   52.4321   25.4435 H   0  0  0  0  0  0
   -1.9352   50.7608   26.2782 C   0  0  0  0  0  0
   -2.5968   51.4363   27.4991 C   0  0  2  0  0  0
   -2.6963   52.4985   27.2808 H   0  0  0  0  0  0
   -1.6762   51.2968   28.6280 N   0  0  0  0  0  0
   -3.9850   50.9117   27.8191 C   0  0  0  0  0  0
   -4.4206   50.0863   28.8608 C   0  0  0  0  0  0
   -5.7880   49.8049   28.8471 C   0  0  0  0  0  0
   -6.4374   50.4059   27.7853 C   0  0  0  0  0  0
   -5.3431   51.3185   26.8034 S   0  0  0  0  0  0
    0.2107   50.7030   24.8181 C   0  0  0  0  0  0
    1.2248   51.4318   24.3507 F   0  0  0  0  0  0
    0.7041   49.5600   25.2957 F   0  0  0  0  0  0
   -0.5527   50.3905   23.7702 F   0  0  0  0  0  0
    0.3857   52.5583   31.1204 Br  0  0  0  0  0  0
    3.3377   53.2057   23.7439 H   0  0  0  0  0  0
    3.8706   54.4466   22.6336 H   0  0  0  0  0  0
    4.7766   52.9492   22.7736 H   0  0  0  0  0  0
    6.2864   55.3893   27.2434 H   0  0  0  0  0  0
    6.1552   55.2603   22.0837 H   0  0  0  0  0  0
    7.5016   56.0918   22.8848 H   0  0  0  0  0  0
    7.5494   54.3274   22.6725 H   0  0  0  0  0  0
    2.9244   54.4574   26.6311 H   0  0  0  0  0  0
    3.4427   52.8974   26.0531 H   0  0  0  0  0  0
    5.5037   52.4706   29.2907 H   0  0  0  0  0  0
    6.0413   52.7715   27.6617 H   0  0  0  0  0  0
    5.7989   54.1218   28.7945 H   0  0  0  0  0  0
   -2.6132   50.7595   25.4240 H   0  0  0  0  0  0
   -1.7514   49.7021   26.4817 H   0  0  0  0  0  0
   -1.7254   50.3526   29.0015 H   0  0  0  0  0  0
   -3.7514   49.6983   29.6162 H   0  0  0  0  0  0
   -6.2781   49.1846   29.5835 H   0  0  0  0  0  0
   -7.4862   50.3544   27.5334 H   0  0  0  0  0  0
  1  2  1  0  0  0
  1 34  1  0  0  0
  1 35  1  0  0  0
  1 36  1  0  0  0
  2  6  1  0  0  0
  2  3  2  0  0  0
  3  4  1  0  0  0
  3  8  1  0  0  0
  4  5  2  0  0  0
  4 37  1  0  0  0
  5  6  1  0  0  0
  6  7  1  0  0  0
  7 38  1  0  0  0
  7 39  1  0  0  0
  7 40  1  0  0  0
  8  9  1  0  0  0
  8 41  1  0  0  0
  8 42  1  0  0  0
  9 10  1  0  0  0
  9 11  1  0  0  0
 10 43  1  0  0  0
 10 44  1  0  0  0
 10 45  1  0  0  0
 11 12  2  0  0  0
 11 13  1  0  0  0
 13 17  2  0  0  0
 13 14  1  0  0  0
 14 15  2  0  0  0
 14 33  1  0  0  0
 15 23  1  0  0  0
 15 16  1  0  0  0
 16 17  1  0  0  0
 16 18  1  0  0  0
 18 19  1  0  0  0
 18 20  1  0  0  0
 18 29  1  0  0  0
 20 21  1  0  0  0
 20 46  1  0  0  0
 20 47  1  0  0  0
 21 22  1  0  0  0
 21 23  1  0  0  0
 21 24  1  0  0  0
 23 48  1  0  0  0
 24 28  1  0  0  0
 24 25  2  0  0  0
 25 26  1  0  0  0
 25 49  1  0  0  0
 26 27  2  0  0  0
 26 50  1  0  0  0
 27 28  1  0  0  0
 27 51  1  0  0  0
 29 30  1  0  0  0
 29 31  1  0  0  0
 29 32  1  0  0  0
M  END
> <i_i_glide_confnum>
15

> <i_i_glide_lignum>
4052

> <i_i_glide_posenum>
144

> <i_i_glide_rotatable_bonds>
6

> <i_m_Source_File_Index>
4651

> <b_m_subgroup_collapsed>
0

> <r_i_docking_score>
-6.65265

> <r_i_glide_ecoul>
-6.32901

> <r_i_glide_eff_state_penalty>
0

> <r_i_glide_einternal>
13.2954

> <r_i_glide_emodel>
-60.8567

> <r_i_glide_energy>
-50.1252

> <r_i_glide_erotb>
0.383525

> <r_i_glide_esite>
-0.143211

> <r_i_glide_evdw>
-43.7962

> <r_i_glide_gscore>
-6.65265

> <r_i_glide_hbond>
-0.435851

> <r_i_glide_ligand_efficiency>
-0.214602

> <r_i_glide_ligand_efficiency_ln>
-1.50038

> <r_i_glide_ligand_efficiency_sa>
-0.674146

> <r_i_glide_lipo>
-1.77672

> <r_i_glide_metal>
0

> <r_i_glide_rewards>
-1.54124

> <s_i_glide_gridfile>
wee1_glide-grid

> <s_m_Source_File>
wee1_decoys_glide_SP.sdf

> <s_m_Source_Path>
/Users/zhangxujun/Desktop

> <s_m_entry_id>
4926

> <s_m_entry_name>
wee1_decoys_glide_SP.4651

> <s_m_subgroup_title>
wee1_decoys_glide_SP

> <s_m_subgroupid>
wee1_decoys_glide_SP


$$$$
