ZINC45012726_1644
                    3D
 Schrodinger Suite 2024-2.
 32 33  0  0  1  0            999 V2000
    4.0195   52.0608   31.4318 C   0  0  0  0  0  0
    3.0007   52.4957   30.4102 C   0  0  0  0  0  0
    3.1878   52.8025   29.0668 C   0  0  0  0  0  0
    1.9428   53.1653   28.6002 C   0  0  0  0  0  0
    1.0613   53.0651   29.6247 O   0  0  0  0  0  0
    1.7415   52.6271   30.7609 N   0  0  0  0  0  0
    1.3818   53.6257   27.2747 C   0  0  0  0  0  0
    2.2463   53.2941   26.1405 N   0  0  0  0  0  0
    3.1799   54.0967   25.6096 C   0  0  0  0  0  0
    3.5392   55.1504   26.1219 O   0  0  0  0  0  0
    3.6313   53.6129   24.4432 N   0  0  0  0  0  0
    4.6230   54.1204   23.5833 C   0  0  0  0  0  0
    4.2684   54.0415   22.2307 C   0  0  0  0  0  0
    5.1085   54.5373   21.2394 C   0  0  0  0  0  0
    6.3088   55.1419   21.5894 C   0  0  0  0  0  0
    6.6963   55.1951   22.9241 C   0  0  0  0  0  0
    5.8904   54.6627   23.9485 C   0  0  0  0  0  0
    6.4343   54.6918   25.3479 C   0  0  0  0  0  0
    6.2499   53.6967   26.0821 O   0  0  0  0  0  0
    7.1044   55.6959   25.6821 O   0  5  0  0  0  0
    7.1044   55.6753   20.6355 F   0  0  0  0  0  0
    4.3047   52.8882   32.0802 H   0  0  0  0  0  0
    3.6499   51.2658   32.0793 H   0  0  0  0  0  0
    4.9272   51.6972   30.9513 H   0  0  0  0  0  0
    4.1111   52.7841   28.5037 H   0  0  0  0  0  0
    1.1426   54.6899   27.3019 H   0  0  0  0  0  0
    0.4272   53.1256   27.1038 H   0  0  0  0  0  0
    2.1474   52.3623   25.7680 H   0  0  0  0  0  0
    3.1226   52.8306   24.0667 H   0  0  0  0  0  0
    3.3224   53.6137   21.9313 H   0  0  0  0  0  0
    4.8153   54.4829   20.2015 H   0  0  0  0  0  0
    7.6348   55.6732   23.1564 H   0  0  0  0  0  0
  1  2  1  0  0  0
  1 22  1  0  0  0
  1 23  1  0  0  0
  1 24  1  0  0  0
  2  6  2  0  0  0
  2  3  1  0  0  0
  3  4  2  0  0  0
  3 25  1  0  0  0
  4  5  1  0  0  0
  4  7  1  0  0  0
  5  6  1  0  0  0
  7  8  1  0  0  0
  7 26  1  0  0  0
  7 27  1  0  0  0
  8  9  1  0  0  0
  8 28  1  0  0  0
  9 10  2  0  0  0
  9 11  1  0  0  0
 11 12  1  0  0  0
 11 29  1  0  0  0
 12 17  2  0  0  0
 12 13  1  0  0  0
 13 14  2  0  0  0
 13 30  1  0  0  0
 14 15  1  0  0  0
 14 31  1  0  0  0
 15 16  2  0  0  0
 15 21  1  0  0  0
 16 17  1  0  0  0
 16 32  1  0  0  0
 17 18  1  0  0  0
 18 19  2  0  0  0
 18 20  1  0  0  0
M  CHG  1  20  -1
M  END
> <i_i_glide_confnum>
44

> <i_i_glide_lignum>
1645

> <i_i_glide_posenum>
102

> <i_i_glide_rotatable_bonds>
6

> <i_m_Source_File_Index>
4668

> <b_m_subgroup_collapsed>
0

> <r_i_docking_score>
-5.78962

> <r_i_glide_ecoul>
-6.3856

> <r_i_glide_eff_state_penalty>
0

> <r_i_glide_einternal>
6.57307

> <r_i_glide_emodel>
-48.4064

> <r_i_glide_energy>
-34.5527

> <r_i_glide_erotb>
1.06866

> <r_i_glide_esite>
-0.0337006

> <r_i_glide_evdw>
-28.1671

> <r_i_glide_gscore>
-5.78962

> <r_i_glide_hbond>
-0.16

> <r_i_glide_ligand_efficiency>
-0.275696

> <r_i_glide_ligand_efficiency_ln>
-1.43147

> <r_i_glide_ligand_efficiency_sa>
-0.760625

> <r_i_glide_lipo>
-1.89365

> <r_i_glide_metal>
0

> <r_i_glide_rewards>
-2.40473

> <s_i_glide_gridfile>
wee1_glide-grid

> <s_m_Source_File>
wee1_decoys_glide_SP.sdf

> <s_m_Source_Path>
/Users/zhangxujun/Desktop

> <s_m_entry_id>
4943

> <s_m_entry_name>
wee1_decoys_glide_SP.4668

> <s_m_subgroup_title>
wee1_decoys_glide_SP

> <s_m_subgroupid>
wee1_decoys_glide_SP


$$$$
