ZINC00825848_5217
                    3D
 Schrodinger Suite 2024-2.
 54 56  0  0  1  0            999 V2000
    2.8133   52.9685   22.8771 C   0  0  0  0  0  0
    1.9041   52.5408   24.0286 C   0  0  0  0  0  0
    1.0348   51.4895   24.0842 C   0  0  0  0  0  0
    0.1877   51.2027   25.3639 C   0  0  1  0  0  0
    0.4118   50.1824   25.6787 H   0  0  0  0  0  0
    0.5991   52.1393   26.5443 C   0  0  0  0  0  0
    1.5044   53.1350   26.3612 C   0  0  0  0  0  0
    2.1318   53.2985   25.1519 N   0  0  0  0  0  0
    1.9576   54.0941   27.4588 C   0  0  0  0  0  0
    1.7489   53.5080   28.8820 C   0  0  0  0  0  0
    0.3059   52.9547   28.9803 C   0  0  0  0  0  0
   -0.1018   52.0034   27.8462 C   0  0  0  0  0  0
   -1.0911   51.2967   27.9952 O   0  0  0  0  0  0
    2.7674   52.3764   29.1674 C   0  0  0  0  0  0
    1.8373   54.6782   29.8804 C   0  0  0  0  0  0
   -1.3354   51.1962   25.1051 C   0  0  0  0  0  0
   -1.9321   52.4042   24.7199 C   0  0  0  0  0  0
   -3.3076   52.4967   24.5359 C   0  0  0  0  0  0
   -4.1045   51.3672   24.7082 C   0  0  0  0  0  0
   -3.5295   50.1503   25.0789 C   0  0  0  0  0  0
   -2.1457   50.0570   25.2895 C   0  0  0  0  0  0
   -1.6075   48.8531   25.6817 O   0  0  0  0  0  0
   -4.6642   48.6346   25.3091 Br  0  0  0  0  0  0
   -4.0941   54.1699   24.0827 Br  0  0  0  0  0  0
    0.7505   50.6059   22.9231 C   0  0  0  0  0  0
    0.3078   49.4619   23.0532 O   0  0  0  0  0  0
    0.9527   51.1875   21.7135 O   0  0  0  0  0  0
    0.8186   50.4761   20.4863 C   0  0  0  0  0  0
    0.5998   51.5265   19.3874 C   0  0  0  0  0  0
    2.0702   49.6199   20.2157 C   0  0  0  0  0  0
    2.3056   53.7003   22.2479 H   0  0  0  0  0  0
    3.7414   53.4178   23.2334 H   0  0  0  0  0  0
    3.1193   52.1282   22.2538 H   0  0  0  0  0  0
    2.7796   54.0667   25.0647 H   0  0  0  0  0  0
    3.0216   54.3213   27.3658 H   0  0  0  0  0  0
    1.3877   55.0029   27.2916 H   0  0  0  0  0  0
    0.1007   52.4765   29.9389 H   0  0  0  0  0  0
   -0.3866   53.7916   28.8918 H   0  0  0  0  0  0
    2.6112   51.9542   30.1598 H   0  0  0  0  0  0
    2.6984   51.5580   28.4499 H   0  0  0  0  0  0
    3.7915   52.7499   29.1309 H   0  0  0  0  0  0
    1.5400   54.3610   30.8811 H   0  0  0  0  0  0
    2.8507   55.0765   29.9400 H   0  0  0  0  0  0
    1.1785   55.5050   29.6079 H   0  0  0  0  0  0
   -1.3214   53.2861   24.5875 H   0  0  0  0  0  0
   -5.1723   51.4355   24.5626 H   0  0  0  0  0  0
   -1.6555   48.7085   26.6450 H   0  0  0  0  0  0
   -0.0634   49.8326   20.5236 H   0  0  0  0  0  0
    0.4938   51.0581   18.4078 H   0  0  0  0  0  0
   -0.3044   52.1075   19.5752 H   0  0  0  0  0  0
    1.4349   52.2259   19.3308 H   0  0  0  0  0  0
    1.9896   49.0915   19.2649 H   0  0  0  0  0  0
    2.9718   50.2323   20.1740 H   0  0  0  0  0  0
    2.2156   48.8704   20.9948 H   0  0  0  0  0  0
  1  2  1  0  0  0
  1 31  1  0  0  0
  1 32  1  0  0  0
  1 33  1  0  0  0
  2  8  1  0  0  0
  2  3  2  0  0  0
  3  4  1  0  0  0
  3 25  1  0  0  0
  4  5  1  0  0  0
  4  6  1  0  0  0
  4 16  1  0  0  0
  6 12  1  0  0  0
  6  7  2  0  0  0
  7  8  1  0  0  0
  7  9  1  0  0  0
  8 34  1  0  0  0
  9 10  1  0  0  0
  9 35  1  0  0  0
  9 36  1  0  0  0
 10 11  1  0  0  0
 10 14  1  0  0  0
 10 15  1  0  0  0
 11 12  1  0  0  0
 11 37  1  0  0  0
 11 38  1  0  0  0
 12 13  2  0  0  0
 14 39  1  0  0  0
 14 40  1  0  0  0
 14 41  1  0  0  0
 15 42  1  0  0  0
 15 43  1  0  0  0
 15 44  1  0  0  0
 16 21  2  0  0  0
 16 17  1  0  0  0
 17 18  2  0  0  0
 17 45  1  0  0  0
 18 19  1  0  0  0
 18 24  1  0  0  0
 19 20  2  0  0  0
 19 46  1  0  0  0
 20 21  1  0  0  0
 20 23  1  0  0  0
 21 22  1  0  0  0
 22 47  1  0  0  0
 25 26  2  0  0  0
 25 27  1  0  0  0
 27 28  1  0  0  0
 28 29  1  0  0  0
 28 30  1  0  0  0
 28 48  1  0  0  0
 29 49  1  0  0  0
 29 50  1  0  0  0
 29 51  1  0  0  0
 30 52  1  0  0  0
 30 53  1  0  0  0
 30 54  1  0  0  0
M  END
> <i_i_glide_confnum>
3

> <i_i_glide_lignum>
5218

> <i_i_glide_posenum>
129

> <i_i_glide_rotatable_bonds>
5

> <i_m_Source_File_Index>
5755

> <b_m_subgroup_collapsed>
0

> <r_i_docking_score>
-3.83234

> <r_i_glide_ecoul>
-3.03689

> <r_i_glide_eff_state_penalty>
0

> <r_i_glide_einternal>
5.73241

> <r_i_glide_emodel>
-46.006

> <r_i_glide_energy>
-39.5959

> <r_i_glide_erotb>
0.222247

> <r_i_glide_esite>
-0.00930773

> <r_i_glide_evdw>
-36.559

> <r_i_glide_gscore>
-3.83234

> <r_i_glide_hbond>
0

> <r_i_glide_ligand_efficiency>
-0.13215

> <r_i_glide_ligand_efficiency_ln>
-0.87751

> <r_i_glide_ligand_efficiency_sa>
-0.406006

> <r_i_glide_lipo>
-1.68577

> <r_i_glide_metal>
0

> <r_i_glide_rewards>
-0.0760297

> <s_i_glide_gridfile>
wee1_glide-grid

> <s_m_Source_File>
wee1_decoys_glide_SP.sdf

> <s_m_Source_Path>
/Users/zhangxujun/Desktop

> <s_m_entry_id>
6030

> <s_m_entry_name>
wee1_decoys_glide_SP.5755

> <s_m_subgroup_title>
wee1_decoys_glide_SP

> <s_m_subgroupid>
wee1_decoys_glide_SP


$$$$
