ZINC38685688_848
                    3D
 Schrodinger Suite 2024-2.
 58 61  0  0  1  0            999 V2000
    5.8760   58.5046   14.6481 C   0  0  0  0  0  0
    6.3795   59.2408   15.8991 C   0  0  0  0  0  0
    7.2505   58.4178   16.6811 O   0  0  0  0  0  0
    6.7443   57.3886   17.4526 C   0  0  0  0  0  0
    7.6813   56.5339   18.0322 C   0  0  0  0  0  0
    7.2722   55.4593   18.8152 C   0  0  0  0  0  0
    5.9125   55.2382   19.0584 C   0  0  0  0  0  0
    4.9704   56.0974   18.4817 C   0  0  0  0  0  0
    5.3800   57.1643   17.6868 C   0  0  0  0  0  0
    5.4782   54.0182   19.8898 C   0  0  1  0  0  0
    6.2414   53.2699   19.6745 H   0  0  0  0  0  0
    5.5044   54.2231   21.4218 C   0  0  0  0  0  0
    6.5442   54.8978   22.0815 C   0  0  0  0  0  0
    6.6115   54.9562   23.4744 C   0  0  0  0  0  0
    5.6144   54.3823   24.2625 C   0  0  0  0  0  0
    4.5459   53.7435   23.6171 C   0  0  0  0  0  0
    4.5051   53.6485   22.2276 C   0  0  0  0  0  0
    3.4587   52.9137   21.7097 O   0  0  0  0  0  0
    3.3354   52.7966   20.3670 C   0  0  0  0  0  0
    4.1848   53.3156   19.4587 C   0  0  0  0  0  0
    3.9059   53.1623   18.0646 C   0  0  0  0  0  0
    3.6402   53.0886   16.9413 N   0  0  0  0  0  0
    2.1879   52.0968   20.1120 N   0  0  0  0  0  0
    5.7748   54.4118   25.6393 O   0  0  0  0  0  0
    4.7280   54.6080   26.4914 C   0  0  0  0  0  0
    3.5744   54.8957   26.1673 O   0  0  0  0  0  0
    5.1441   54.4770   27.9712 C   0  0  0  0  0  0
    4.0758   54.7534   28.8958 O   0  0  0  0  0  0
    2.9871   53.9044   28.9900 C   0  0  0  0  0  0
    1.8323   54.4165   29.5826 C   0  0  0  0  0  0
    0.6754   53.6426   29.6629 C   0  0  0  0  0  0
    0.6742   52.3405   29.1578 C   0  0  0  0  0  0
    1.8331   51.8112   28.5940 C   0  0  0  0  0  0
    2.9870   52.5848   28.5198 C   0  0  0  0  0  0
   -0.5960   51.5056   29.1833 C   0  0  0  0  0  0
    5.2492   59.1601   14.0448 H   0  0  0  0  0  0
    5.2823   57.6269   14.9015 H   0  0  0  0  0  0
    6.7109   58.1746   14.0290 H   0  0  0  0  0  0
    6.9503   60.1154   15.5902 H   0  0  0  0  0  0
    5.5462   59.6288   16.4828 H   0  0  0  0  0  0
    8.7359   56.6967   17.8597 H   0  0  0  0  0  0
    8.0177   54.7966   19.2320 H   0  0  0  0  0  0
    3.9143   55.9343   18.6412 H   0  0  0  0  0  0
    4.6234   57.8064   17.2622 H   0  0  0  0  0  0
    7.3486   55.3430   21.5170 H   0  0  0  0  0  0
    7.4547   55.4431   23.9416 H   0  0  0  0  0  0
    3.7607   53.2776   24.1937 H   0  0  0  0  0  0
    1.9715   51.7998   19.1730 H   0  0  0  0  0  0
    1.4597   52.0453   20.8063 H   0  0  0  0  0  0
    5.5717   53.4933   28.1626 H   0  0  0  0  0  0
    5.9293   55.2037   28.1657 H   0  0  0  0  0  0
    1.8259   55.4317   29.9525 H   0  0  0  0  0  0
   -0.2193   54.0587   30.1010 H   0  0  0  0  0  0
    1.8393   50.8045   28.2010 H   0  0  0  0  0  0
    3.8686   52.1521   28.0751 H   0  0  0  0  0  0
   -1.4928   52.1188   29.1370 H   0  0  0  0  0  0
   -0.6387   50.8462   28.3163 H   0  0  0  0  0  0
   -0.6545   50.8972   30.0821 H   0  0  0  0  0  0
  1  2  1  0  0  0
  1 36  1  0  0  0
  1 37  1  0  0  0
  1 38  1  0  0  0
  2  3  1  0  0  0
  2 39  1  0  0  0
  2 40  1  0  0  0
  3  4  1  0  0  0
  4  9  2  0  0  0
  4  5  1  0  0  0
  5  6  2  0  0  0
  5 41  1  0  0  0
  6  7  1  0  0  0
  6 42  1  0  0  0
  7  8  2  0  0  0
  7 10  1  0  0  0
  8  9  1  0  0  0
  8 43  1  0  0  0
  9 44  1  0  0  0
 10 11  1  0  0  0
 10 20  1  0  0  0
 10 12  1  0  0  0
 12 17  2  0  0  0
 12 13  1  0  0  0
 13 14  2  0  0  0
 13 45  1  0  0  0
 14 15  1  0  0  0
 14 46  1  0  0  0
 15 16  2  0  0  0
 15 24  1  0  0  0
 16 17  1  0  0  0
 16 47  1  0  0  0
 17 18  1  0  0  0
 18 19  1  0  0  0
 19 20  2  0  0  0
 19 23  1  0  0  0
 20 21  1  0  0  0
 21 22  3  0  0  0
 23 48  1  0  0  0
 23 49  1  0  0  0
 24 25  1  0  0  0
 25 26  2  0  0  0
 25 27  1  0  0  0
 27 28  1  0  0  0
 27 50  1  0  0  0
 27 51  1  0  0  0
 28 29  1  0  0  0
 29 34  2  0  0  0
 29 30  1  0  0  0
 30 31  2  0  0  0
 30 52  1  0  0  0
 31 32  1  0  0  0
 31 53  1  0  0  0
 32 33  2  0  0  0
 32 35  1  0  0  0
 33 34  1  0  0  0
 33 54  1  0  0  0
 34 55  1  0  0  0
 35 56  1  0  0  0
 35 57  1  0  0  0
 35 58  1  0  0  0
M  END
> <i_i_glide_confnum>
80

> <i_i_glide_lignum>
849

> <i_i_glide_posenum>
269

> <i_i_glide_rotatable_bonds>
9

> <i_m_Source_File_Index>
5550

> <b_m_subgroup_collapsed>
0

> <r_i_docking_score>
-5.29575

> <r_i_glide_ecoul>
-2.38874

> <r_i_glide_eff_state_penalty>
0

> <r_i_glide_einternal>
13.7649

> <r_i_glide_emodel>
-52.6314

> <r_i_glide_energy>
-45.4792

> <r_i_glide_erotb>
0.675112

> <r_i_glide_esite>
-0.0794386

> <r_i_glide_evdw>
-43.0905

> <r_i_glide_gscore>
-5.29575

> <r_i_glide_hbond>
0

> <r_i_glide_ligand_efficiency>
-0.155757

> <r_i_glide_ligand_efficiency_ln>
-1.16998

> <r_i_glide_ligand_efficiency_sa>
-0.504593

> <r_i_glide_lipo>
-3.08622

> <r_i_glide_metal>
0

> <r_i_glide_rewards>
-0.292366

> <s_i_glide_gridfile>
wee1_glide-grid

> <s_m_Source_File>
wee1_decoys_glide_SP.sdf

> <s_m_Source_Path>
/Users/zhangxujun/Desktop

> <s_m_entry_id>
5825

> <s_m_entry_name>
wee1_decoys_glide_SP.5550

> <s_m_subgroup_title>
wee1_decoys_glide_SP

> <s_m_subgroupid>
wee1_decoys_glide_SP


$$$$
