ZINC39533903_5106
                    3D
 Schrodinger Suite 2024-2.
 59 62  0  0  1  0            999 V2000
    0.5575   53.6481   30.2629 C   0  0  0  0  0  0
    1.2361   54.7771   29.8142 C   0  0  0  0  0  0
    1.7864   54.7895   28.5349 C   0  0  0  0  0  0
    1.6604   53.6771   27.6882 C   0  0  0  0  0  0
    0.9704   52.5510   28.1600 C   0  0  0  0  0  0
    0.4216   52.5336   29.4405 C   0  0  0  0  0  0
    2.2388   53.6961   26.3089 C   0  0  0  0  0  0
    3.4480   54.3471   26.0414 C   0  0  0  0  0  0
    3.9760   54.3682   24.7528 C   0  0  0  0  0  0
    3.3454   53.6967   23.6915 C   0  0  0  0  0  0
    2.1080   53.0959   23.9582 C   0  0  0  0  0  0
    1.5718   53.0816   25.2430 C   0  0  0  0  0  0
    4.0065   53.6680   22.2810 C   0  0  1  0  0  0
    3.9621   54.7138   21.9703 H   0  0  0  0  0  0
    5.5044   53.2147   22.3160 C   0  0  0  0  0  0
    6.4653   54.1529   22.8817 N   0  0  0  0  0  0
    6.6744   55.6407   21.9038 Cl  0  0  0  0  0  0
    3.2501   52.9020   21.2422 N   0  0  0  0  0  0
    3.6558   53.2970   19.8800 C   0  0  0  0  0  0
    2.7048   52.7215   18.8110 C   0  0  0  0  0  0
    2.7187   51.1855   18.8828 N   0  3  0  0  0  0
    2.4102   50.6891   20.3124 C   0  0  1  0  0  0
    2.5804   49.6122   20.2972 H   0  0  0  0  0  0
    3.2626   51.4310   21.3842 C   0  0  0  0  0  0
    0.5165   50.8188   20.5406 S   0  0  0  0  0  0
    0.1611   51.9620   21.3901 O   0  0  0  0  0  0
   -0.1185   50.6490   19.2274 O   0  0  0  0  0  0
    0.2929   49.3979   21.3908 O   0  0  0  0  0  0
   -0.1790   49.4460   22.6759 C   0  0  0  0  0  0
    0.7097   49.3559   23.7445 C   0  0  0  0  0  0
    0.2312   49.3032   25.0505 C   0  0  0  0  0  0
   -1.1413   49.3587   25.2814 C   0  0  0  0  0  0
   -2.0350   49.4714   24.2176 C   0  0  0  0  0  0
   -1.5528   49.5096   22.9107 C   0  0  0  0  0  0
    0.1284   53.6314   31.2554 H   0  0  0  0  0  0
    1.3316   55.6419   30.4551 H   0  0  0  0  0  0
    2.2965   55.6796   28.1999 H   0  0  0  0  0  0
    0.8615   51.6726   27.5394 H   0  0  0  0  0  0
   -0.1067   51.6600   29.7941 H   0  0  0  0  0  0
    3.9885   54.8476   26.8328 H   0  0  0  0  0  0
    4.8859   54.9232   24.6116 H   0  0  0  0  0  0
    1.5501   52.6143   23.1768 H   0  0  0  0  0  0
    0.6209   52.5917   25.3995 H   0  0  0  0  0  0
    5.5853   52.2921   22.8817 H   0  0  0  0  0  0
    5.9044   52.9919   21.3282 H   0  0  0  0  0  0
    6.1942   54.4804   23.7966 H   0  0  0  0  0  0
    3.6589   54.3846   19.7868 H   0  0  0  0  0  0
    4.6641   52.9314   19.6743 H   0  0  0  0  0  0
    1.6731   53.0477   18.9573 H   0  0  0  0  0  0
    3.0197   52.9764   17.7990 H   0  0  0  0  0  0
    2.0685   50.7919   18.2153 H   0  0  0  0  0  0
    4.2904   51.0784   21.2680 H   0  0  0  0  0  0
    2.9288   51.1226   22.3744 H   0  0  0  0  0  0
    1.7729   49.2967   23.5623 H   0  0  0  0  0  0
    0.9149   49.1946   25.8796 H   0  0  0  0  0  0
   -1.5120   49.2993   26.2962 H   0  0  0  0  0  0
   -3.0968   49.5100   24.4072 H   0  0  0  0  0  0
   -2.2396   49.5729   22.0801 H   0  0  0  0  0  0
    3.6458   50.8628   18.5900 H   0  0  0  0  0  0
  1  6  2  0  0  0
  1  2  1  0  0  0
  1 35  1  0  0  0
  2  3  2  0  0  0
  2 36  1  0  0  0
  3  4  1  0  0  0
  3 37  1  0  0  0
  4  5  2  0  0  0
  4  7  1  0  0  0
  5  6  1  0  0  0
  5 38  1  0  0  0
  6 39  1  0  0  0
  7 12  2  0  0  0
  7  8  1  0  0  0
  8  9  2  0  0  0
  8 40  1  0  0  0
  9 10  1  0  0  0
  9 41  1  0  0  0
 10 11  2  0  0  0
 10 13  1  0  0  0
 11 12  1  0  0  0
 11 42  1  0  0  0
 12 43  1  0  0  0
 13 14  1  0  0  0
 13 15  1  0  0  0
 13 18  1  0  0  0
 15 16  1  0  0  0
 15 44  1  0  0  0
 15 45  1  0  0  0
 16 17  1  0  0  0
 16 46  1  0  0  0
 18 24  1  0  0  0
 18 19  1  0  0  0
 19 20  1  0  0  0
 19 47  1  0  0  0
 19 48  1  0  0  0
 20 21  1  0  0  0
 20 49  1  0  0  0
 20 50  1  0  0  0
 21 22  1  0  0  0
 21 51  1  0  0  0
 21 59  1  0  0  0
 22 23  1  0  0  0
 22 24  1  0  0  0
 22 25  1  0  0  0
 24 52  1  0  0  0
 24 53  1  0  0  0
 25 26  2  0  0  0
 25 27  2  0  0  0
 25 28  1  0  0  0
 28 29  1  0  0  0
 29 34  2  0  0  0
 29 30  1  0  0  0
 30 31  2  0  0  0
 30 54  1  0  0  0
 31 32  1  0  0  0
 31 55  1  0  0  0
 32 33  2  0  0  0
 32 56  1  0  0  0
 33 34  1  0  0  0
 33 57  1  0  0  0
 34 58  1  0  0  0
M  CHG  1  21   1
M  END
> <i_i_glide_confnum>
194

> <i_i_glide_lignum>
5107

> <i_i_glide_posenum>
32

> <i_i_glide_rotatable_bonds>
8

> <i_m_Source_File_Index>
3367

> <b_m_subgroup_collapsed>
0

> <r_i_docking_score>
-5.84838

> <r_i_glide_ecoul>
-6.05757

> <r_i_glide_eff_state_penalty>
0

> <r_i_glide_einternal>
14.117

> <r_i_glide_emodel>
-60.888

> <r_i_glide_energy>
-47.3966

> <r_i_glide_erotb>
0.632754

> <r_i_glide_esite>
-0.100223

> <r_i_glide_evdw>
-41.3391

> <r_i_glide_gscore>
-5.84838

> <r_i_glide_hbond>
-0.2

> <r_i_glide_ligand_efficiency>
-0.182762

> <r_i_glide_ligand_efficiency_ln>
-1.30961

> <r_i_glide_ligand_efficiency_sa>
-0.580233

> <r_i_glide_lipo>
-3.02128

> <r_i_glide_metal>
0

> <r_i_glide_rewards>
-0.184035

> <s_i_glide_gridfile>
wee1_glide-grid

> <s_m_Source_File>
wee1_decoys_glide_SP.sdf

> <s_m_Source_Path>
/Users/zhangxujun/Desktop

> <s_m_entry_id>
3642

> <s_m_entry_name>
wee1_decoys_glide_SP.3367

> <s_m_subgroup_title>
wee1_decoys_glide_SP

> <s_m_subgroupid>
wee1_decoys_glide_SP


$$$$
