ZINC21050687_5335
                    3D
 Schrodinger Suite 2024-2.
 50 52  0  0  1  0            999 V2000
    4.3642   54.0534   29.0164 C   0  0  0  0  0  0
    4.7754   54.1782   27.5586 C   0  0  0  0  0  0
    6.0996   54.4960   27.2493 C   0  0  0  0  0  0
    6.4920   54.6507   25.9217 C   0  0  0  0  0  0
    5.5819   54.4880   24.8788 C   0  0  0  0  0  0
    4.2501   54.1659   25.1905 C   0  0  0  0  0  0
    3.8501   54.0084   26.5193 C   0  0  0  0  0  0
    1.8537   53.4948   26.8934 I   0  0  0  0  0  0
    6.0868   54.6904   23.5780 N   0  0  0  0  0  0
    5.5046   54.4312   22.3851 C   0  0  0  0  0  0
    4.4307   53.8433   22.2561 O   0  0  0  0  0  0
    6.2360   54.9363   21.1576 C   0  0  0  0  0  0
    7.5958   55.2967   21.1857 C   0  0  0  0  0  0
    8.2587   55.6967   20.0275 C   0  0  0  0  0  0
    7.5672   55.7764   18.8242 C   0  0  0  0  0  0
    6.2079   55.4630   18.7812 C   0  0  0  0  0  0
    5.5513   55.0341   19.9368 C   0  0  0  0  0  0
    5.2849   55.7173   17.2746 S   0  0  0  0  0  0
    6.2244   55.6183   16.1511 O   0  0  0  0  0  0
    4.0802   54.8815   17.3338 O   0  0  0  0  0  0
    4.7872   57.4102   17.4002 N   0  0  0  0  0  0
    3.4268   57.8215   17.0096 C   0  0  0  0  0  0
    3.4098   58.2702   15.5377 C   0  0  0  0  0  0
    4.5473   59.2967   15.2812 N   0  3  0  0  0  0
    5.9464   58.9329   15.8434 C   0  0  0  0  0  0
    5.8044   58.4733   17.3038 C   0  0  0  0  0  0
    4.6288   59.6891   13.7934 C   0  0  0  0  0  0
    5.1052   54.4970   29.6814 H   0  0  0  0  0  0
    4.2176   53.0065   29.2837 H   0  0  0  0  0  0
    3.4298   54.5853   29.1960 H   0  0  0  0  0  0
    6.8261   54.6316   28.0385 H   0  0  0  0  0  0
    7.5135   54.8962   25.7013 H   0  0  0  0  0  0
    3.5022   54.0402   24.4241 H   0  0  0  0  0  0
    7.0017   55.1096   23.5446 H   0  0  0  0  0  0
    8.1869   55.2305   22.0818 H   0  0  0  0  0  0
    9.3101   55.9443   20.0630 H   0  0  0  0  0  0
    8.0856   56.1001   17.9326 H   0  0  0  0  0  0
    4.4980   54.7879   19.8821 H   0  0  0  0  0  0
    2.7501   56.9850   17.1879 H   0  0  0  0  0  0
    3.1040   58.6291   17.6705 H   0  0  0  0  0  0
    2.4796   58.7985   15.3217 H   0  0  0  0  0  0
    3.5341   57.4356   14.8450 H   0  0  0  0  0  0
    6.5294   59.8559   15.8007 H   0  0  0  0  0  0
    6.3969   58.1751   15.1994 H   0  0  0  0  0  0
    5.5053   59.2967   17.9505 H   0  0  0  0  0  0
    6.7442   58.1011   17.7061 H   0  0  0  0  0  0
    4.9268   58.8069   13.2237 H   0  0  0  0  0  0
    3.6421   60.0465   13.4955 H   0  0  0  0  0  0
    5.3648   60.4908   13.7094 H   0  0  0  0  0  0
    4.3043   60.1458   15.8142 H   0  0  0  0  0  0
  1  2  1  0  0  0
  1 28  1  0  0  0
  1 29  1  0  0  0
  1 30  1  0  0  0
  2  7  2  0  0  0
  2  3  1  0  0  0
  3  4  2  0  0  0
  3 31  1  0  0  0
  4  5  1  0  0  0
  4 32  1  0  0  0
  5  6  2  0  0  0
  5  9  1  0  0  0
  6  7  1  0  0  0
  6 33  1  0  0  0
  7  8  1  0  0  0
  9 10  1  0  0  0
  9 34  1  0  0  0
 10 11  2  0  0  0
 10 12  1  0  0  0
 12 17  2  0  0  0
 12 13  1  0  0  0
 13 14  2  0  0  0
 13 35  1  0  0  0
 14 15  1  0  0  0
 14 36  1  0  0  0
 15 16  2  0  0  0
 15 37  1  0  0  0
 16 17  1  0  0  0
 16 18  1  0  0  0
 17 38  1  0  0  0
 18 19  2  0  0  0
 18 20  2  0  0  0
 18 21  1  0  0  0
 21 26  1  0  0  0
 21 22  1  0  0  0
 22 23  1  0  0  0
 22 39  1  0  0  0
 22 40  1  0  0  0
 23 24  1  0  0  0
 23 41  1  0  0  0
 23 42  1  0  0  0
 24 25  1  0  0  0
 24 27  1  0  0  0
 24 50  1  0  0  0
 25 26  1  0  0  0
 25 43  1  0  0  0
 25 44  1  0  0  0
 26 45  1  0  0  0
 26 46  1  0  0  0
 27 47  1  0  0  0
 27 48  1  0  0  0
 27 49  1  0  0  0
M  CHG  1  24   1
M  END
> <i_i_glide_confnum>
33

> <i_i_glide_lignum>
5336

> <i_i_glide_posenum>
292

> <i_i_glide_rotatable_bonds>
5

> <i_m_Source_File_Index>
5161

> <b_m_subgroup_collapsed>
0

> <r_i_docking_score>
-5.04952

> <r_i_glide_ecoul>
-4.49284

> <r_i_glide_eff_state_penalty>
0

> <r_i_glide_einternal>
4.92707

> <r_i_glide_emodel>
-50.6441

> <r_i_glide_energy>
-40.2415

> <r_i_glide_erotb>
0.407773

> <r_i_glide_esite>
-0.103652

> <r_i_glide_evdw>
-35.7487

> <r_i_glide_gscore>
-5.04952

> <r_i_glide_hbond>
-0.2

> <r_i_glide_ligand_efficiency>
-0.187019

> <r_i_glide_ligand_efficiency_ln>
-1.17544

> <r_i_glide_ligand_efficiency_sa>
-0.561058

> <r_i_glide_lipo>
-2.79993

> <r_i_glide_metal>
0

> <r_i_glide_rewards>
0.107653

> <s_i_glide_gridfile>
wee1_glide-grid

> <s_m_Source_File>
wee1_decoys_glide_SP.sdf

> <s_m_Source_Path>
/Users/zhangxujun/Desktop

> <s_m_entry_id>
5436

> <s_m_entry_name>
wee1_decoys_glide_SP.5161

> <s_m_subgroup_title>
wee1_decoys_glide_SP

> <s_m_subgroupid>
wee1_decoys_glide_SP


$$$$
