ZINC36290584_6145
                    3D
 Schrodinger Suite 2024-2.
 36 39  0  0  1  0            999 V2000
    4.8468   52.9453   20.0638 C   0  0  0  0  0  0
    4.4649   52.9091   21.5528 C   0  0  2  0  0  0
    4.7659   51.9321   21.9376 H   0  0  0  0  0  0
    2.9413   53.1040   21.6818 C   0  0  0  0  0  0
    2.4038   52.9041   23.1111 C   0  0  0  0  0  0
    3.3546   53.5973   24.0777 C   0  0  0  0  0  0
    4.6106   54.0956   23.7523 C   0  0  0  0  0  0
    5.4141   54.8170   25.1481 S   0  0  0  0  0  0
    4.0519   54.3618   26.1619 C   0  0  0  0  0  0
    3.0886   53.6996   25.4324 N   0  0  0  0  0  0
    2.1183   53.3395   26.3560 C   0  0  0  0  0  0
    2.5434   53.9217   27.5497 C   0  0  0  0  0  0
    3.7286   54.4968   27.4269 N   0  0  0  0  0  0
    1.7963   53.9813   28.8331 C   0  0  0  0  0  0
    1.2059   52.8384   29.3884 C   0  0  0  0  0  0
    0.4742   52.9720   30.5699 C   0  0  0  0  0  0
    0.3034   54.1652   31.1947 N   0  0  0  0  0  0
    0.8636   55.2666   30.6363 C   0  0  0  0  0  0
    1.6244   55.2151   29.4710 C   0  0  0  0  0  0
    1.0002   52.6130   26.0399 N   0  0  0  0  0  0
    5.2099   54.0191   22.3497 C   0  0  0  0  0  0
    5.9045   52.7689   19.9084 H   0  0  0  0  0  0
    4.3211   52.1694   19.5042 H   0  0  0  0  0  0
    4.6007   53.9038   19.6058 H   0  0  0  0  0  0
    2.7034   54.0964   21.3111 H   0  0  0  0  0  0
    2.4159   52.4231   21.0105 H   0  0  0  0  0  0
    1.3942   53.3106   23.1842 H   0  0  0  0  0  0
    2.3337   51.8383   23.3392 H   0  0  0  0  0  0
    1.3115   51.8732   28.9132 H   0  0  0  0  0  0
    0.0015   52.1180   31.0375 H   0  0  0  0  0  0
    0.7115   56.2049   31.1544 H   0  0  0  0  0  0
    2.0535   56.1184   29.0573 H   0  0  0  0  0  0
    0.8455   52.2338   25.1173 H   0  0  0  0  0  0
    0.3052   52.3821   26.7356 H   0  0  0  0  0  0
    6.2774   53.8092   22.4037 H   0  0  0  0  0  0
    5.0982   54.9820   21.8523 H   0  0  0  0  0  0
  1  2  1  0  0  0
  1 22  1  0  0  0
  1 23  1  0  0  0
  1 24  1  0  0  0
  2  3  1  0  0  0
  2 21  1  0  0  0
  2  4  1  0  0  0
  4  5  1  0  0  0
  4 25  1  0  0  0
  4 26  1  0  0  0
  5  6  1  0  0  0
  5 27  1  0  0  0
  5 28  1  0  0  0
  6 10  1  0  0  0
  6  7  2  0  0  0
  7  8  1  0  0  0
  7 21  1  0  0  0
  8  9  1  0  0  0
  9 13  2  0  0  0
  9 10  1  0  0  0
 10 11  1  0  0  0
 11 12  2  0  0  0
 11 20  1  0  0  0
 12 13  1  0  0  0
 12 14  1  0  0  0
 14 19  2  0  0  0
 14 15  1  0  0  0
 15 16  2  0  0  0
 15 29  1  0  0  0
 16 17  1  0  0  0
 16 30  1  0  0  0
 17 18  2  0  0  0
 18 19  1  0  0  0
 18 31  1  0  0  0
 19 32  1  0  0  0
 20 33  1  0  0  0
 20 34  1  0  0  0
 21 35  1  0  0  0
 21 36  1  0  0  0
M  END
> <i_i_glide_confnum>
1

> <i_i_glide_lignum>
6146

> <i_i_glide_posenum>
319

> <i_i_glide_rotatable_bonds>
1

> <i_m_Source_File_Index>
1768

> <b_m_subgroup_collapsed>
0

> <r_i_docking_score>
-6.35157

> <r_i_glide_ecoul>
-1.74075

> <r_i_glide_eff_state_penalty>
0

> <r_i_glide_einternal>
0.347489

> <r_i_glide_emodel>
-51.4605

> <r_i_glide_energy>
-36.4236

> <r_i_glide_erotb>
0.224133

> <r_i_glide_esite>
0

> <r_i_glide_evdw>
-34.6828

> <r_i_glide_gscore>
-6.35157

> <r_i_glide_hbond>
0

> <r_i_glide_ligand_efficiency>
-0.317578

> <r_i_glide_ligand_efficiency_ln>
-1.58959

> <r_i_glide_ligand_efficiency_sa>
-0.86204

> <r_i_glide_lipo>
-2.51286

> <r_i_glide_metal>
0

> <r_i_glide_rewards>
-2.06758

> <s_i_glide_gridfile>
wee1_glide-grid

> <s_m_Source_File>
wee1_decoys_glide_SP.sdf

> <s_m_Source_Path>
/Users/zhangxujun/Desktop

> <s_m_entry_id>
2043

> <s_m_entry_name>
wee1_decoys_glide_SP.1768

> <s_m_subgroup_title>
wee1_decoys_glide_SP

> <s_m_subgroupid>
wee1_decoys_glide_SP


$$$$
