ZINC14543946_5205
                    3D
 Schrodinger Suite 2024-2.
 61 66  0  0  1  0            999 V2000
    1.2989   52.0669   20.7627 C   0  0  0  0  0  0
    0.8737   52.5088   22.0488 O   0  0  0  0  0  0
    1.8016   53.0310   22.9316 C   0  0  0  0  0  0
    2.9988   53.5939   22.4809 C   0  0  0  0  0  0
    3.9401   54.0960   23.3628 C   0  0  0  0  0  0
    3.7133   54.0569   24.7524 C   0  0  0  0  0  0
    4.6918   54.5487   25.6515 C   0  0  0  0  0  0
    4.4841   54.4920   27.0235 C   0  0  0  0  0  0
    3.3156   53.9422   27.5305 C   0  0  0  0  0  0
    2.3363   53.4469   26.6754 C   0  0  0  0  0  0
    2.4953   53.4950   25.2534 C   0  0  0  0  0  0
    1.5177   53.0003   24.3127 C   0  0  0  0  0  0
    0.1960   52.3992   24.8449 C   0  0  2  0  0  0
   -0.0074   52.8960   25.7902 H   0  0  0  0  0  0
    0.2872   50.8717   25.1138 C   0  0  2  0  0  0
    1.1041   50.7315   25.8223 H   0  0  0  0  0  0
    0.5904   49.9666   23.9095 C   0  0  0  0  0  0
   -0.1157   48.6782   24.2597 C   0  0  0  0  0  0
   -0.9636   48.8508   25.2847 C   0  0  0  0  0  0
   -0.9676   50.2859   25.7789 C   0  0  2  0  0  0
   -0.8623   50.3197   26.8659 H   0  0  0  0  0  0
   -2.2482   51.0477   25.4248 C   0  0  0  0  0  0
   -3.4821   50.6336   25.9395 C   0  0  0  0  0  0
   -4.6562   51.3425   25.6751 C   0  0  0  0  0  0
   -4.6090   52.4827   24.8740 C   0  0  0  0  0  0
   -3.3962   52.9018   24.3346 C   0  0  0  0  0  0
   -2.2265   52.1838   24.5865 C   0  0  0  0  0  0
   -1.0201   52.7092   24.0923 N   0  0  0  0  0  0
   -6.2196   50.7987   26.3531 S   0  0  0  0  0  0
   -7.2646   51.2392   25.4233 O   0  0  0  0  0  0
   -6.0937   49.3886   26.7367 O   0  0  0  0  0  0
   -6.4616   51.7504   27.8293 N   0  0  0  0  0  0
   -6.0823   51.3192   29.1079 C   0  0  0  0  0  0
   -6.8985   51.6687   30.1858 C   0  0  0  0  0  0
   -6.5683   51.2574   31.4752 C   0  0  0  0  0  0
   -5.4169   50.5022   31.6819 C   0  0  0  0  0  0
   -4.5896   50.1598   30.6168 C   0  0  0  0  0  0
   -4.9208   50.5723   29.3293 C   0  0  0  0  0  0
    0.4868   51.5127   20.2935 H   0  0  0  0  0  0
    1.5483   52.8970   20.1040 H   0  0  0  0  0  0
    2.1567   51.3963   20.8290 H   0  0  0  0  0  0
    3.2166   53.6526   21.4255 H   0  0  0  0  0  0
    4.8608   54.5163   22.9837 H   0  0  0  0  0  0
    5.6089   54.9691   25.2637 H   0  0  0  0  0  0
    5.2387   54.8683   27.6995 H   0  0  0  0  0  0
    3.1712   53.8930   28.5997 H   0  0  0  0  0  0
    1.4635   53.0076   27.1292 H   0  0  0  0  0  0
    0.1929   50.3625   22.9763 H   0  0  0  0  0  0
    1.6640   49.8212   23.7838 H   0  0  0  0  0  0
    0.0649   47.7571   23.7275 H   0  0  0  0  0  0
   -1.5890   48.0934   25.7356 H   0  0  0  0  0  0
   -3.5134   49.7452   26.5552 H   0  0  0  0  0  0
   -5.5097   53.0417   24.6627 H   0  0  0  0  0  0
   -3.3691   53.7926   23.7235 H   0  0  0  0  0  0
   -0.9977   53.6026   23.6249 H   0  0  0  0  0  0
   -7.1921   52.4409   27.7679 H   0  0  0  0  0  0
   -7.7989   52.2440   30.0277 H   0  0  0  0  0  0
   -7.2035   51.5152   32.3109 H   0  0  0  0  0  0
   -5.1527   50.1897   32.6826 H   0  0  0  0  0  0
   -3.6955   49.5771   30.7862 H   0  0  0  0  0  0
   -4.2677   50.2982   28.5189 H   0  0  0  0  0  0
  1  2  1  0  0  0
  1 39  1  0  0  0
  1 40  1  0  0  0
  1 41  1  0  0  0
  2  3  1  0  0  0
  3 12  2  0  0  0
  3  4  1  0  0  0
  4  5  2  0  0  0
  4 42  1  0  0  0
  5  6  1  0  0  0
  5 43  1  0  0  0
  6 11  2  0  0  0
  6  7  1  0  0  0
  7  8  2  0  0  0
  7 44  1  0  0  0
  8  9  1  0  0  0
  8 45  1  0  0  0
  9 10  2  0  0  0
  9 46  1  0  0  0
 10 11  1  0  0  0
 10 47  1  0  0  0
 11 12  1  0  0  0
 12 13  1  0  0  0
 13 14  1  0  0  0
 13 28  1  0  0  0
 13 15  1  0  0  0
 15 16  1  0  0  0
 15 20  1  0  0  0
 15 17  1  0  0  0
 17 18  1  0  0  0
 17 48  1  0  0  0
 17 49  1  0  0  0
 18 19  2  0  0  0
 18 50  1  0  0  0
 19 20  1  0  0  0
 19 51  1  0  0  0
 20 21  1  0  0  0
 20 22  1  0  0  0
 22 27  2  0  0  0
 22 23  1  0  0  0
 23 24  2  0  0  0
 23 52  1  0  0  0
 24 25  1  0  0  0
 24 29  1  0  0  0
 25 26  2  0  0  0
 25 53  1  0  0  0
 26 27  1  0  0  0
 26 54  1  0  0  0
 27 28  1  0  0  0
 28 55  1  0  0  0
 29 30  2  0  0  0
 29 31  2  0  0  0
 29 32  1  0  0  0
 32 33  1  0  0  0
 32 56  1  0  0  0
 33 38  2  0  0  0
 33 34  1  0  0  0
 34 35  2  0  0  0
 34 57  1  0  0  0
 35 36  1  0  0  0
 35 58  1  0  0  0
 36 37  2  0  0  0
 36 59  1  0  0  0
 37 38  1  0  0  0
 37 60  1  0  0  0
 38 61  1  0  0  0
M  END
> <i_i_glide_confnum>
12

> <i_i_glide_lignum>
5206

> <i_i_glide_posenum>
116

> <i_i_glide_rotatable_bonds>
5

> <i_m_Source_File_Index>
2338

> <b_m_subgroup_collapsed>
0

> <r_i_docking_score>
-4.28191

> <r_i_glide_ecoul>
-1.11338

> <r_i_glide_eff_state_penalty>
0

> <r_i_glide_einternal>
1.44766

> <r_i_glide_emodel>
-50.1669

> <r_i_glide_energy>
-40.3439

> <r_i_glide_erotb>
0.34856

> <r_i_glide_esite>
-0.00287923

> <r_i_glide_evdw>
-39.2305

> <r_i_glide_gscore>
-4.28191

> <r_i_glide_hbond>
0

> <r_i_glide_ligand_efficiency>
-0.12234

> <r_i_glide_ligand_efficiency_ln>
-0.939975

> <r_i_glide_ligand_efficiency_sa>
-0.400184

> <r_i_glide_lipo>
-2.33647

> <r_i_glide_metal>
0

> <r_i_glide_rewards>
-0.162596

> <s_i_glide_gridfile>
wee1_glide-grid

> <s_m_Source_File>
wee1_decoys_glide_SP.sdf

> <s_m_Source_Path>
/Users/zhangxujun/Desktop

> <s_m_entry_id>
2613

> <s_m_entry_name>
wee1_decoys_glide_SP.2338

> <s_m_subgroup_title>
wee1_decoys_glide_SP

> <s_m_subgroupid>
wee1_decoys_glide_SP


$$$$
