ZINC44838634_5663
                    3D
 Schrodinger Suite 2024-2.
 49 51  0  0  1  0            999 V2000
    1.8563   59.1859   15.5777 C   0  0  0  0  0  0
    2.5894   57.9819   16.1413 C   0  0  0  0  0  0
    1.9144   56.7726   16.3313 C   0  0  0  0  0  0
    2.5959   55.6721   16.8504 C   0  0  0  0  0  0
    3.9474   55.7836   17.1946 C   0  0  0  0  0  0
    4.6152   57.0022   17.0187 C   0  0  0  0  0  0
    3.9339   58.1000   16.4986 C   0  0  0  0  0  0
    4.8632   54.3204   17.7145 S   0  0  0  0  0  0
    5.6354   53.9741   16.5163 O   0  0  0  0  0  0
    3.8391   53.3607   18.1386 O   0  0  0  0  0  0
    5.7661   54.9239   18.8513 N   0  5  0  0  0  0
    5.6322   54.7679   20.2135 C   0  0  0  0  0  0
    4.4993   54.2499   20.8642 C   0  0  0  0  0  0
    4.4488   54.0966   22.2483 C   0  0  0  0  0  0
    5.5280   54.4965   23.0550 C   0  0  0  0  0  0
    6.6567   55.0171   22.4217 C   0  0  0  0  0  0
    6.7165   55.1437   21.0347 C   0  0  0  0  0  0
    8.2264   55.6975   20.3775 Cl  0  0  0  0  0  0
    5.5000   54.4015   24.5659 C   0  0  0  0  0  0
    6.5342   54.5366   25.2232 O   0  0  0  0  0  0
    4.2739   54.1994   25.0964 N   0  0  0  0  0  0
    3.8979   53.8908   26.4106 C   0  0  0  0  0  0
    2.5273   53.7114   26.6087 C   0  0  0  0  0  0
    2.0415   53.3434   27.8560 C   0  0  0  0  0  0
    2.9278   53.1253   28.9208 C   0  0  0  0  0  0
    4.3030   53.3016   28.7190 C   0  0  0  0  0  0
    4.7886   53.6979   27.4775 C   0  0  0  0  0  0
    2.4296   52.6714   30.2517 C   0  0  0  0  0  0
    3.1397   52.0995   31.0856 O   0  0  0  0  0  0
    1.1484   53.0405   30.4750 O   0  0  0  0  0  0
    0.5157   52.7668   31.7132 C   0  0  0  0  0  0
    0.7856   59.1372   15.7862 H   0  0  0  0  0  0
    2.2246   60.1064   16.0376 H   0  0  0  0  0  0
    2.0082   59.2561   14.5001 H   0  0  0  0  0  0
    0.8697   56.6805   16.0660 H   0  0  0  0  0  0
    2.0773   54.7304   16.9697 H   0  0  0  0  0  0
    5.6655   57.0923   17.2612 H   0  0  0  0  0  0
    4.4533   59.0404   16.3663 H   0  0  0  0  0  0
    3.6152   53.9609   20.3170 H   0  0  0  0  0  0
    3.5439   53.6833   22.6701 H   0  0  0  0  0  0
    7.5049   55.3311   23.0111 H   0  0  0  0  0  0
    3.5133   54.2044   24.4374 H   0  0  0  0  0  0
    1.8294   53.8483   25.7952 H   0  0  0  0  0  0
    0.9733   53.2067   27.9729 H   0  0  0  0  0  0
    5.0069   53.1344   29.5227 H   0  0  0  0  0  0
    5.8563   53.8148   27.3684 H   0  0  0  0  0  0
   -0.4989   53.1599   31.6915 H   0  0  0  0  0  0
    1.0400   53.2408   32.5427 H   0  0  0  0  0  0
    0.4623   51.6968   31.9054 H   0  0  0  0  0  0
  1  2  1  0  0  0
  1 32  1  0  0  0
  1 33  1  0  0  0
  1 34  1  0  0  0
  2  7  2  0  0  0
  2  3  1  0  0  0
  3  4  2  0  0  0
  3 35  1  0  0  0
  4  5  1  0  0  0
  4 36  1  0  0  0
  5  6  2  0  0  0
  5  8  1  0  0  0
  6  7  1  0  0  0
  6 37  1  0  0  0
  7 38  1  0  0  0
  8  9  2  0  0  0
  8 10  2  0  0  0
  8 11  1  0  0  0
 11 12  1  0  0  0
 12 17  2  0  0  0
 12 13  1  0  0  0
 13 14  2  0  0  0
 13 39  1  0  0  0
 14 15  1  0  0  0
 14 40  1  0  0  0
 15 16  2  0  0  0
 15 19  1  0  0  0
 16 17  1  0  0  0
 16 41  1  0  0  0
 17 18  1  0  0  0
 19 20  2  0  0  0
 19 21  1  0  0  0
 21 22  1  0  0  0
 21 42  1  0  0  0
 22 27  2  0  0  0
 22 23  1  0  0  0
 23 24  2  0  0  0
 23 43  1  0  0  0
 24 25  1  0  0  0
 24 44  1  0  0  0
 25 26  2  0  0  0
 25 28  1  0  0  0
 26 27  1  0  0  0
 26 45  1  0  0  0
 27 46  1  0  0  0
 28 29  2  0  0  0
 28 30  1  0  0  0
 30 31  1  0  0  0
 31 47  1  0  0  0
 31 48  1  0  0  0
 31 49  1  0  0  0
M  CHG  1  11  -1
M  END
> <i_i_glide_confnum>
12

> <i_i_glide_lignum>
5664

> <i_i_glide_posenum>
349

> <i_i_glide_rotatable_bonds>
8

> <i_m_Source_File_Index>
4948

> <b_m_subgroup_collapsed>
0

> <r_i_docking_score>
-4.95906

> <r_i_glide_ecoul>
-1.78452

> <r_i_glide_eff_state_penalty>
0

> <r_i_glide_einternal>
4.19667

> <r_i_glide_emodel>
-57.2466

> <r_i_glide_energy>
-47.3393

> <r_i_glide_erotb>
0.671312

> <r_i_glide_esite>
-0.0639645

> <r_i_glide_evdw>
-45.5548

> <r_i_glide_gscore>
-4.95906

> <r_i_glide_hbond>
-0.32

> <r_i_glide_ligand_efficiency>
-0.15997

> <r_i_glide_ligand_efficiency_ln>
-1.11842

> <r_i_glide_ligand_efficiency_sa>
-0.502526

> <r_i_glide_lipo>
-2.55197

> <r_i_glide_metal>
0

> <r_i_glide_rewards>
-0.149019

> <s_i_glide_gridfile>
wee1_glide-grid

> <s_m_Source_File>
wee1_decoys_glide_SP.sdf

> <s_m_Source_Path>
/Users/zhangxujun/Desktop

> <s_m_entry_id>
5223

> <s_m_entry_name>
wee1_decoys_glide_SP.4948

> <s_m_subgroup_title>
wee1_decoys_glide_SP

> <s_m_subgroupid>
wee1_decoys_glide_SP


$$$$
