ZINC38507141_6191
                    3D
 Schrodinger Suite 2024-2.
 49 51  0  0  1  0            999 V2000
   -6.6247   49.8761   26.0391 C   0  0  0  0  0  0
   -5.3505   50.5764   26.5284 C   0  0  0  0  0  0
   -4.2262   49.5747   26.8632 C   0  0  0  0  0  0
   -2.8955   50.2503   27.2815 N   0  3  2  0  0  0
   -3.0447   51.2326   28.4604 C   0  0  0  0  0  0
   -1.6394   51.5554   29.0260 C   0  0  0  0  0  0
   -0.5985   51.8450   27.9481 C   0  0  0  0  0  0
   -0.8852   51.5417   26.6113 C   0  0  0  0  0  0
    0.3745   52.0493   25.5534 S   0  0  0  0  0  0
    1.3095   52.7022   26.8819 C   0  0  0  0  0  0
    0.6738   52.4842   28.1282 C   0  0  0  0  0  0
    1.2475   52.9433   29.4042 C   0  0  0  0  0  0
    2.2141   53.6987   29.4598 O   0  0  0  0  0  0
    0.7028   52.4967   30.5362 N   0  0  0  0  0  0
    2.5625   53.2977   26.6764 N   0  0  0  0  0  0
    3.0978   53.7388   25.5147 C   0  0  0  0  0  0
    2.4827   53.7947   24.4506 O   0  0  0  0  0  0
    4.4921   54.1625   25.5593 C   0  0  0  0  0  0
    5.3394   54.3958   24.4642 C   0  0  0  0  0  0
    6.5408   54.8162   25.0376 C   0  0  0  0  0  0
    6.5042   54.8803   26.3411 N   0  0  0  0  0  0
    5.2641   54.4968   26.6649 N   0  0  0  0  0  0
    4.9314   54.4941   28.0860 C   0  0  0  0  0  0
    5.0790   54.1729   22.9891 C   0  0  0  0  0  0
   -2.1743   50.9198   26.0825 C   0  0  0  0  0  0
   -7.4132   50.6014   25.8340 H   0  0  0  0  0  0
   -7.0067   49.1758   26.7857 H   0  0  0  0  0  0
   -6.4427   49.3186   25.1181 H   0  0  0  0  0  0
   -5.0283   51.2841   25.7639 H   0  0  0  0  0  0
   -5.6049   51.1659   27.4096 H   0  0  0  0  0  0
   -4.4837   48.9297   27.7076 H   0  0  0  0  0  0
   -3.9719   48.9265   26.0205 H   0  0  0  0  0  0
   -3.5794   52.0966   28.0775 H   0  0  0  0  0  0
   -3.6413   50.7237   29.2217 H   0  0  0  0  0  0
   -1.6955   52.4124   29.6817 H   0  0  0  0  0  0
   -1.3041   50.7292   29.6465 H   0  0  0  0  0  0
   -0.0822   51.8644   30.5329 H   0  0  0  0  0  0
    1.0718   52.8049   31.4236 H   0  0  0  0  0  0
    3.0758   53.4859   27.5230 H   0  0  0  0  0  0
    7.4323   55.0679   24.4840 H   0  0  0  0  0  0
    4.0509   55.1153   28.2507 H   0  0  0  0  0  0
    4.7466   53.4713   28.4169 H   0  0  0  0  0  0
    5.7499   54.9001   28.6855 H   0  0  0  0  0  0
    5.9905   54.1986   22.3882 H   0  0  0  0  0  0
    4.6216   53.1970   22.8174 H   0  0  0  0  0  0
    4.3743   54.8958   22.5825 H   0  0  0  0  0  0
   -1.9892   50.1146   25.3676 H   0  0  0  0  0  0
   -2.8413   51.6685   25.6529 H   0  0  0  0  0  0
   -2.3042   49.4814   27.6366 H   0  0  0  0  0  0
  1  2  1  0  0  0
  1 26  1  0  0  0
  1 27  1  0  0  0
  1 28  1  0  0  0
  2  3  1  0  0  0
  2 29  1  0  0  0
  2 30  1  0  0  0
  3  4  1  0  0  0
  3 31  1  0  0  0
  3 32  1  0  0  0
  4 25  1  0  0  0
  4  5  1  0  0  0
  4 49  1  0  0  0
  5  6  1  0  0  0
  5 33  1  0  0  0
  5 34  1  0  0  0
  6  7  1  0  0  0
  6 35  1  0  0  0
  6 36  1  0  0  0
  7 11  1  0  0  0
  7  8  2  0  0  0
  8  9  1  0  0  0
  8 25  1  0  0  0
  9 10  1  0  0  0
 10 11  2  0  0  0
 10 15  1  0  0  0
 11 12  1  0  0  0
 12 13  2  0  0  0
 12 14  1  0  0  0
 14 37  1  0  0  0
 14 38  1  0  0  0
 15 16  1  0  0  0
 15 39  1  0  0  0
 16 17  2  0  0  0
 16 18  1  0  0  0
 18 22  1  0  0  0
 18 19  2  0  0  0
 19 20  1  0  0  0
 19 24  1  0  0  0
 20 21  2  0  0  0
 20 40  1  0  0  0
 21 22  1  0  0  0
 22 23  1  0  0  0
 23 41  1  0  0  0
 23 42  1  0  0  0
 23 43  1  0  0  0
 24 44  1  0  0  0
 24 45  1  0  0  0
 24 46  1  0  0  0
 25 47  1  0  0  0
 25 48  1  0  0  0
M  CHG  1   4   1
M  END
> <i_i_glide_confnum>
3

> <i_i_glide_lignum>
6192

> <i_i_glide_posenum>
333

> <i_i_glide_rotatable_bonds>
6

> <i_m_Source_File_Index>
3911

> <b_m_subgroup_collapsed>
0

> <r_i_docking_score>
-5.73543

> <r_i_glide_ecoul>
-4.10453

> <r_i_glide_eff_state_penalty>
0

> <r_i_glide_einternal>
3.77553

> <r_i_glide_emodel>
-53.1891

> <r_i_glide_energy>
-38.8238

> <r_i_glide_erotb>
0.584613

> <r_i_glide_esite>
-0.127176

> <r_i_glide_evdw>
-34.7192

> <r_i_glide_gscore>
-5.73543

> <r_i_glide_hbond>
-0.298438

> <r_i_glide_ligand_efficiency>
-0.229417

> <r_i_glide_ligand_efficiency_ln>
-1.35947

> <r_i_glide_ligand_efficiency_sa>
-0.67082

> <r_i_glide_lipo>
-1.65774

> <r_i_glide_metal>
0

> <r_i_glide_rewards>
-1.88504

> <s_i_glide_gridfile>
wee1_glide-grid

> <s_m_Source_File>
wee1_decoys_glide_SP.sdf

> <s_m_Source_Path>
/Users/zhangxujun/Desktop

> <s_m_entry_id>
4186

> <s_m_entry_name>
wee1_decoys_glide_SP.3911

> <s_m_subgroup_title>
wee1_decoys_glide_SP

> <s_m_subgroupid>
wee1_decoys_glide_SP


$$$$
