ZINC17094003_2606
                    3D
 Schrodinger Suite 2024-2.
 53 56  0  0  1  0            999 V2000
    2.7046   51.9204   18.6899 C   0  0  0  0  0  0
    1.2725   51.7950   19.1776 C   0  0  0  0  0  0
    0.2346   51.6072   18.2626 C   0  0  0  0  0  0
   -1.0772   51.4611   18.7109 C   0  0  0  0  0  0
   -1.3563   51.4996   20.0767 C   0  0  0  0  0  0
   -0.3296   51.6960   21.0056 C   0  0  0  0  0  0
    0.9910   51.8375   20.5463 C   0  0  0  0  0  0
   -0.7121   51.7062   22.3581 N   0  0  0  0  0  0
   -0.0174   52.0799   23.4541 C   0  0  0  0  0  0
    1.1325   52.5235   23.4370 O   0  0  0  0  0  0
   -0.7419   51.9155   24.7108 C   0  0  0  0  0  0
   -2.1254   51.6244   24.8404 C   0  0  0  0  0  0
   -2.5540   51.5165   26.1445 C   0  0  0  0  0  0
   -1.2954   51.7494   27.2927 S   0  0  0  0  0  0
   -0.1716   52.0971   25.9925 C   0  0  0  0  0  0
    1.1521   52.4164   26.2660 N   0  0  0  0  0  0
    1.6153   53.1625   27.2913 C   0  0  0  0  0  0
    0.8872   53.7409   28.0985 O   0  0  0  0  0  0
    3.1633   53.2627   27.4003 C   0  0  1  0  0  0
    3.5038   52.2371   27.2817 H   0  0  0  0  0  0
    3.6974   53.9972   26.1294 C   0  0  0  0  0  0
    5.1010   54.5491   26.3121 C   0  0  0  0  0  0
    5.8008   54.4966   27.4570 C   0  0  0  0  0  0
    5.2789   53.9111   28.7563 C   0  0  0  0  0  0
    3.7237   53.7774   28.7677 C   0  0  2  0  0  0
    3.3151   54.7644   28.9951 H   0  0  0  0  0  0
    3.3331   52.8082   29.9168 C   0  0  0  0  0  0
    3.9046   51.6968   30.0007 O   0  0  0  0  0  0
   -4.0218   51.2175   26.2670 C   0  0  0  0  0  0
   -4.5033   51.5130   24.8391 C   0  0  0  0  0  0
   -3.2892   51.3480   23.9112 C   0  0  0  0  0  0
    2.8534   51.3847   17.7509 H   0  0  0  0  0  0
    3.4010   51.4790   19.4042 H   0  0  0  0  0  0
    2.9713   52.9677   18.5472 H   0  0  0  0  0  0
    0.4461   51.5662   17.2036 H   0  0  0  0  0  0
   -1.8743   51.3077   17.9986 H   0  0  0  0  0  0
   -2.3775   51.3708   20.4048 H   0  0  0  0  0  0
    1.8150   51.9674   21.2300 H   0  0  0  0  0  0
   -1.6491   51.3810   22.5367 H   0  0  0  0  0  0
    1.7887   52.2655   25.4961 H   0  0  0  0  0  0
    3.5967   53.3931   25.2259 H   0  0  0  0  0  0
    3.1044   54.8960   25.9531 H   0  0  0  0  0  0
    5.5833   55.0009   25.4573 H   0  0  0  0  0  0
    6.8013   54.9043   27.4523 H   0  0  0  0  0  0
    5.5923   54.5428   29.5882 H   0  0  0  0  0  0
    5.7843   52.9520   28.8815 H   0  0  0  0  0  0
   -4.2021   50.1804   26.5538 H   0  0  0  0  0  0
   -4.5323   51.8564   26.9884 H   0  0  0  0  0  0
   -5.3407   50.8787   24.5452 H   0  0  0  0  0  0
   -4.8579   52.5445   24.7849 H   0  0  0  0  0  0
   -3.3522   52.0294   23.0626 H   0  0  0  0  0  0
   -3.2539   50.3287   23.5233 H   0  0  0  0  0  0
    2.3905   53.1636   30.6517 O   0  5  0  0  0  0
  1  2  1  0  0  0
  1 32  1  0  0  0
  1 33  1  0  0  0
  1 34  1  0  0  0
  2  7  2  0  0  0
  2  3  1  0  0  0
  3  4  2  0  0  0
  3 35  1  0  0  0
  4  5  1  0  0  0
  4 36  1  0  0  0
  5  6  2  0  0  0
  5 37  1  0  0  0
  6  7  1  0  0  0
  6  8  1  0  0  0
  7 38  1  0  0  0
  8  9  1  0  0  0
  8 39  1  0  0  0
  9 10  2  0  0  0
  9 11  1  0  0  0
 11 15  2  0  0  0
 11 12  1  0  0  0
 12 31  1  0  0  0
 12 13  2  0  0  0
 13 14  1  0  0  0
 13 29  1  0  0  0
 14 15  1  0  0  0
 15 16  1  0  0  0
 16 17  1  0  0  0
 16 40  1  0  0  0
 17 18  2  0  0  0
 17 19  1  0  0  0
 19 20  1  0  0  0
 19 25  1  0  0  0
 19 21  1  0  0  0
 21 22  1  0  0  0
 21 41  1  0  0  0
 21 42  1  0  0  0
 22 23  2  0  0  0
 22 43  1  0  0  0
 23 24  1  0  0  0
 23 44  1  0  0  0
 24 25  1  0  0  0
 24 45  1  0  0  0
 24 46  1  0  0  0
 25 26  1  0  0  0
 25 27  1  0  0  0
 27 28  2  0  0  0
 27 53  1  0  0  0
 29 30  1  0  0  0
 29 47  1  0  0  0
 29 48  1  0  0  0
 30 31  1  0  0  0
 30 49  1  0  0  0
 30 50  1  0  0  0
 31 51  1  0  0  0
 31 52  1  0  0  0
M  CHG  1  53  -1
M  END
> <i_i_glide_confnum>
91

> <i_i_glide_lignum>
2607

> <i_i_glide_posenum>
52

> <i_i_glide_rotatable_bonds>
7

> <i_m_Source_File_Index>
5096

> <b_m_subgroup_collapsed>
0

> <r_i_docking_score>
-4.75241

> <r_i_glide_ecoul>
-5.2882

> <r_i_glide_eff_state_penalty>
0

> <r_i_glide_einternal>
8.87956

> <r_i_glide_emodel>
-50.7451

> <r_i_glide_energy>
-39.6933

> <r_i_glide_erotb>
0.663035

> <r_i_glide_esite>
0

> <r_i_glide_evdw>
-34.4051

> <r_i_glide_gscore>
-4.75241

> <r_i_glide_hbond>
-0.289561

> <r_i_glide_ligand_efficiency>
-0.158414

> <r_i_glide_ligand_efficiency_ln>
-1.0798

> <r_i_glide_ligand_efficiency_sa>
-0.492229

> <r_i_glide_lipo>
-1.42827

> <r_i_glide_metal>
0

> <r_i_glide_rewards>
-1.18413

> <s_i_glide_gridfile>
wee1_glide-grid

> <s_m_Source_File>
wee1_decoys_glide_SP.sdf

> <s_m_Source_Path>
/Users/zhangxujun/Desktop

> <s_m_entry_id>
5371

> <s_m_entry_name>
wee1_decoys_glide_SP.5096

> <s_m_subgroup_title>
wee1_decoys_glide_SP

> <s_m_subgroupid>
wee1_decoys_glide_SP


$$$$
