ZINC32832437_1436
                    3D
 Schrodinger Suite 2024-2.
 50 53  0  0  1  0            999 V2000
   10.1405   55.0895   16.8770 C   0  0  0  0  0  0
    8.7564   55.2901   17.4429 C   0  0  0  0  0  0
    7.5934   55.7331   16.8071 C   0  0  0  0  0  0
    6.5963   55.7439   17.7762 C   0  0  0  0  0  0
    7.2234   55.3005   18.9227 N   0  0  0  0  0  0
    8.5256   55.0354   18.7090 N   0  0  0  0  0  0
    6.6874   55.0870   20.2123 C   0  0  0  0  0  0
    5.5044   54.3573   20.3793 C   0  0  0  0  0  0
    5.0500   54.0606   21.6635 C   0  0  0  0  0  0
    5.7612   54.4967   22.7854 C   0  0  0  0  0  0
    6.9255   55.2569   22.6065 C   0  0  0  0  0  0
    7.3888   55.5467   21.3298 C   0  0  0  0  0  0
    5.2102   54.1797   24.0416 N   0  0  0  0  0  0
    5.6323   54.4982   25.2885 C   0  0  0  0  0  0
    6.7047   55.0480   25.5537 O   0  0  0  0  0  0
    4.6816   54.1252   26.4067 C   0  0  0  0  0  0
    5.1659   54.0001   27.7155 C   0  0  0  0  0  0
    4.3070   53.6652   28.7577 C   0  0  0  0  0  0
    2.9449   53.4558   28.5133 C   0  0  0  0  0  0
    2.4523   53.5902   27.2120 C   0  0  0  0  0  0
    3.3116   53.9238   26.1699 C   0  0  0  0  0  0
    2.0643   53.1243   29.5727 N   0  0  0  0  0  0
    0.7127   53.3769   29.6572 C   0  0  0  0  0  0
    0.3044   52.8872   30.8812 C   0  0  0  0  0  0
    1.4618   52.3715   31.4605 C   0  0  0  0  0  0
    2.5108   52.4967   30.6806 N   0  0  0  0  0  0
    5.2571   56.1049   17.7471 N   0  0  0  0  0  0
    4.5657   56.4561   16.6465 C   0  0  0  0  0  0
    5.0188   56.4990   15.5031 O   0  0  0  0  0  0
    3.1051   56.8110   16.8812 C   0  0  0  0  0  0
   10.1936   55.3629   15.8233 H   0  0  0  0  0  0
   10.8809   55.6929   17.4036 H   0  0  0  0  0  0
   10.4585   54.0494   16.9561 H   0  0  0  0  0  0
    7.4957   56.0167   15.7696 H   0  0  0  0  0  0
    4.9618   53.9758   19.5249 H   0  0  0  0  0  0
    4.1429   53.4838   21.7741 H   0  0  0  0  0  0
    7.5043   55.6308   23.4344 H   0  0  0  0  0  0
    8.3132   56.0971   21.2183 H   0  0  0  0  0  0
    4.3439   53.6685   23.9976 H   0  0  0  0  0  0
    6.2124   54.1601   27.9373 H   0  0  0  0  0  0
    4.7043   53.5780   29.7563 H   0  0  0  0  0  0
    1.4075   53.4288   26.9909 H   0  0  0  0  0  0
    2.8861   54.0282   25.1824 H   0  0  0  0  0  0
    0.1784   53.8761   28.8632 H   0  0  0  0  0  0
   -0.6888   52.8920   31.3085 H   0  0  0  0  0  0
    1.5247   51.9094   32.4370 H   0  0  0  0  0  0
    4.7640   56.0839   18.6262 H   0  0  0  0  0  0
    2.6441   56.1165   17.5854 H   0  0  0  0  0  0
    2.5465   56.7670   15.9463 H   0  0  0  0  0  0
    3.0274   57.8235   17.2799 H   0  0  0  0  0  0
  1  2  1  0  0  0
  1 31  1  0  0  0
  1 32  1  0  0  0
  1 33  1  0  0  0
  2  6  2  0  0  0
  2  3  1  0  0  0
  3  4  2  0  0  0
  3 34  1  0  0  0
  4  5  1  0  0  0
  4 27  1  0  0  0
  5  6  1  0  0  0
  5  7  1  0  0  0
  7 12  2  0  0  0
  7  8  1  0  0  0
  8  9  2  0  0  0
  8 35  1  0  0  0
  9 10  1  0  0  0
  9 36  1  0  0  0
 10 11  2  0  0  0
 10 13  1  0  0  0
 11 12  1  0  0  0
 11 37  1  0  0  0
 12 38  1  0  0  0
 13 14  1  0  0  0
 13 39  1  0  0  0
 14 15  2  0  0  0
 14 16  1  0  0  0
 16 21  2  0  0  0
 16 17  1  0  0  0
 17 18  2  0  0  0
 17 40  1  0  0  0
 18 19  1  0  0  0
 18 41  1  0  0  0
 19 20  2  0  0  0
 19 22  1  0  0  0
 20 21  1  0  0  0
 20 42  1  0  0  0
 21 43  1  0  0  0
 22 26  1  0  0  0
 22 23  1  0  0  0
 23 24  2  0  0  0
 23 44  1  0  0  0
 24 25  1  0  0  0
 24 45  1  0  0  0
 25 26  2  0  0  0
 25 46  1  0  0  0
 27 28  1  0  0  0
 27 47  1  0  0  0
 28 29  2  0  0  0
 28 30  1  0  0  0
 30 48  1  0  0  0
 30 49  1  0  0  0
 30 50  1  0  0  0
M  END
> <i_i_glide_confnum>
71

> <i_i_glide_lignum>
1437

> <i_i_glide_posenum>
133

> <i_i_glide_rotatable_bonds>
7

> <i_m_Source_File_Index>
5706

> <b_m_subgroup_collapsed>
0

> <r_i_docking_score>
-6.50946

> <r_i_glide_ecoul>
-4.4334

> <r_i_glide_eff_state_penalty>
0

> <r_i_glide_einternal>
4.92838

> <r_i_glide_emodel>
-67.9886

> <r_i_glide_energy>
-49.9974

> <r_i_glide_erotb>
0.733569

> <r_i_glide_esite>
0

> <r_i_glide_evdw>
-45.564

> <r_i_glide_gscore>
-6.50946

> <r_i_glide_hbond>
-0.358334

> <r_i_glide_ligand_efficiency>
-0.216982

> <r_i_glide_ligand_efficiency_ln>
-1.47902

> <r_i_glide_ligand_efficiency_sa>
-0.674214

> <r_i_glide_lipo>
-2.52886

> <r_i_glide_metal>
0

> <r_i_glide_rewards>
-1.41263

> <s_i_glide_gridfile>
wee1_glide-grid

> <s_m_Source_File>
wee1_decoys_glide_SP.sdf

> <s_m_Source_Path>
/Users/zhangxujun/Desktop

> <s_m_entry_id>
5981

> <s_m_entry_name>
wee1_decoys_glide_SP.5706

> <s_m_subgroup_title>
wee1_decoys_glide_SP

> <s_m_subgroupid>
wee1_decoys_glide_SP


$$$$
