ZINC59434842_3191
                    3D
 Schrodinger Suite 2024-2.
 63 66  0  0  1  0            999 V2000
    4.1270   54.2334   29.6231 C   0  0  0  0  0  0
    2.8910   53.6970   30.0819 O   0  0  0  0  0  0
    2.0284   53.1386   29.1601 C   0  0  0  0  0  0
    0.8607   52.5677   29.6572 C   0  0  0  0  0  0
   -0.0514   51.9581   28.8001 C   0  0  0  0  0  0
    0.1826   51.9116   27.4160 C   0  0  0  0  0  0
    1.3553   52.4973   26.9211 C   0  0  0  0  0  0
    2.2680   53.1026   27.7792 C   0  0  0  0  0  0
   -0.8019   51.1943   26.4623 C   0  0  2  0  0  0
   -0.3569   50.2046   26.3309 H   0  0  0  0  0  0
   -0.8947   51.8299   25.0373 C   0  0  0  0  0  0
   -1.6920   51.0314   23.9989 C   0  0  0  0  0  0
   -1.8266   49.8111   24.0828 O   0  0  0  0  0  0
   -2.3490   51.8311   22.8722 C   0  0  0  0  0  0
   -2.0931   51.2946   21.4591 C   0  0  0  0  0  0
   -2.7908   50.4153   20.9603 O   0  0  0  0  0  0
   -1.1099   51.9556   20.7564 N   0  0  0  0  0  0
    0.0859   51.4995   20.7637 C   0  0  0  0  0  0
    1.1484   52.0967   20.1189 N   0  0  0  0  0  0
    2.4958   51.7016   20.4892 C   0  0  2  0  0  0
    3.1351   51.7891   19.6065 H   0  0  0  0  0  0
    2.4032   50.2266   20.8660 C   0  0  0  0  0  0
    0.7503   49.9941   21.5552 S   0  0  0  0  0  0
    3.1507   52.5542   21.5866 C   0  0  0  0  0  0
    4.5340   52.7619   21.5337 C   0  0  0  0  0  0
    5.1645   53.5369   22.5052 C   0  0  0  0  0  0
    4.4143   54.0969   23.5368 C   0  0  0  0  0  0
    3.0384   53.9008   23.5995 C   0  0  0  0  0  0
    2.4073   53.1298   22.6269 C   0  0  0  0  0  0
   -2.1093   50.8961   27.0783 N   0  0  0  0  0  0
   -3.2005   51.6851   27.1395 C   0  0  0  0  0  0
   -3.3274   52.7196   26.4805 O   0  0  0  0  0  0
   -4.2896   51.2516   28.0942 C   0  0  0  0  0  0
   -5.6139   51.6669   27.8773 C   0  0  0  0  0  0
   -6.6154   51.3311   28.7844 C   0  0  0  0  0  0
   -6.3008   50.5775   29.9152 C   0  0  0  0  0  0
   -4.9944   50.1529   30.1414 C   0  0  0  0  0  0
   -3.9931   50.4878   29.2343 C   0  0  0  0  0  0
    4.7063   54.5593   30.4809 H   0  0  0  0  0  0
    4.7236   53.4877   29.0938 H   0  0  0  0  0  0
    3.9703   55.1007   28.9800 H   0  0  0  0  0  0
    0.6635   52.5848   30.7185 H   0  0  0  0  0  0
   -0.9265   51.5001   29.2363 H   0  0  0  0  0  0
    1.6011   52.4667   25.8705 H   0  0  0  0  0  0
    3.1635   53.5240   27.3486 H   0  0  0  0  0  0
   -1.3199   52.8287   25.1125 H   0  0  0  0  0  0
    0.0944   51.9539   24.6074 H   0  0  0  0  0  0
   -3.4194   51.8060   23.0712 H   0  0  0  0  0  0
   -2.0733   52.8831   22.9307 H   0  0  0  0  0  0
    1.0966   53.0861   19.8982 H   0  0  0  0  0  0
    3.1504   49.9240   21.5966 H   0  0  0  0  0  0
    2.5001   49.5792   19.9907 H   0  0  0  0  0  0
    5.1206   52.3273   20.7370 H   0  0  0  0  0  0
    6.2316   53.6994   22.4684 H   0  0  0  0  0  0
    4.9041   54.6927   24.2926 H   0  0  0  0  0  0
    2.4610   54.3454   24.3980 H   0  0  0  0  0  0
    1.3381   52.9885   22.6935 H   0  0  0  0  0  0
   -2.1297   50.0208   27.6012 H   0  0  0  0  0  0
   -5.8685   52.2572   27.0082 H   0  0  0  0  0  0
   -7.6312   51.6540   28.6118 H   0  0  0  0  0  0
   -7.0779   50.3158   30.6173 H   0  0  0  0  0  0
   -4.7491   49.5652   31.0162 H   0  0  0  0  0  0
   -2.9878   50.1463   29.4418 H   0  0  0  0  0  0
  1  2  1  0  0  0
  1 39  1  0  0  0
  1 40  1  0  0  0
  1 41  1  0  0  0
  2  3  1  0  0  0
  3  8  2  0  0  0
  3  4  1  0  0  0
  4  5  2  0  0  0
  4 42  1  0  0  0
  5  6  1  0  0  0
  5 43  1  0  0  0
  6  7  2  0  0  0
  6  9  1  0  0  0
  7  8  1  0  0  0
  7 44  1  0  0  0
  8 45  1  0  0  0
  9 10  1  0  0  0
  9 11  1  0  0  0
  9 30  1  0  0  0
 11 12  1  0  0  0
 11 46  1  0  0  0
 11 47  1  0  0  0
 12 13  2  0  0  0
 12 14  1  0  0  0
 14 15  1  0  0  0
 14 48  1  0  0  0
 14 49  1  0  0  0
 15 17  1  0  0  0
 15 16  2  0  0  0
 17 18  2  0  0  0
 18 19  1  0  0  0
 18 23  1  0  0  0
 19 20  1  0  0  0
 19 50  1  0  0  0
 20 21  1  0  0  0
 20 22  1  0  0  0
 20 24  1  0  0  0
 22 23  1  0  0  0
 22 51  1  0  0  0
 22 52  1  0  0  0
 24 29  2  0  0  0
 24 25  1  0  0  0
 25 26  2  0  0  0
 25 53  1  0  0  0
 26 27  1  0  0  0
 26 54  1  0  0  0
 27 28  2  0  0  0
 27 55  1  0  0  0
 28 29  1  0  0  0
 28 56  1  0  0  0
 29 57  1  0  0  0
 30 31  1  0  0  0
 30 58  1  0  0  0
 31 32  2  0  0  0
 31 33  1  0  0  0
 33 38  2  0  0  0
 33 34  1  0  0  0
 34 35  2  0  0  0
 34 59  1  0  0  0
 35 36  1  0  0  0
 35 60  1  0  0  0
 36 37  2  0  0  0
 36 61  1  0  0  0
 37 38  1  0  0  0
 37 62  1  0  0  0
 38 63  1  0  0  0
M  END
> <i_i_glide_confnum>
290

> <i_i_glide_lignum>
3192

> <i_i_glide_posenum>
218

> <i_i_glide_rotatable_bonds>
11

> <i_m_Source_File_Index>
2440

> <b_m_subgroup_collapsed>
0

> <r_i_docking_score>
-5.23028

> <r_i_glide_ecoul>
-8.95001

> <r_i_glide_eff_state_penalty>
0

> <r_i_glide_einternal>
5.7615

> <r_i_glide_emodel>
-66.5901

> <r_i_glide_energy>
-51.5507

> <r_i_glide_erotb>
0.730713

> <r_i_glide_esite>
-0.171848

> <r_i_glide_evdw>
-42.6007

> <r_i_glide_gscore>
-5.23028

> <r_i_glide_hbond>
-0.636452

> <r_i_glide_ligand_efficiency>
-0.145286

> <r_i_glide_ligand_efficiency_ln>
-1.14111

> <r_i_glide_ligand_efficiency_sa>
-0.479723

> <r_i_glide_lipo>
-1.6906

> <r_i_glide_metal>
0

> <r_i_glide_rewards>
0.0104344

> <s_i_glide_gridfile>
wee1_glide-grid

> <s_m_Source_File>
wee1_decoys_glide_SP.sdf

> <s_m_Source_Path>
/Users/zhangxujun/Desktop

> <s_m_entry_id>
2715

> <s_m_entry_name>
wee1_decoys_glide_SP.2440

> <s_m_subgroup_title>
wee1_decoys_glide_SP

> <s_m_subgroupid>
wee1_decoys_glide_SP


$$$$
