ZINC48836200_1696
                    3D
 Schrodinger Suite 2024-2.
 39 40  0  0  1  0            999 V2000
    1.8598   56.1842   29.8616 C   0  0  0  0  0  0
    1.7742   54.8021   29.3581 N   0  0  0  0  0  0
    2.9410   54.2724   28.7630 C   0  0  0  0  0  0
    3.3185   54.8967   27.5740 C   0  0  0  0  0  0
    4.4524   54.5191   26.8671 C   0  0  0  0  0  0
    5.2526   53.5088   27.3690 C   0  0  0  0  0  0
    4.8895   52.8752   28.5512 C   0  0  0  0  0  0
    3.7367   53.2145   29.2802 C   0  0  0  0  0  0
    3.4465   52.4387   30.5436 C   0  0  0  0  0  0
    4.3362   51.6967   30.9956 O   0  0  0  0  0  0
    2.3345   52.4967   31.0966 O   0  5  0  0  0  0
    0.6230   54.0967   29.5582 C   0  0  0  0  0  0
   -0.0956   54.4004   30.5082 O   0  0  0  0  0  0
    0.3383   53.0064   28.7808 N   0  0  0  0  0  0
   -0.2917   51.8258   29.4125 C   0  0  0  0  0  0
   -1.5430   51.4090   28.6078 C   0  0  0  0  0  0
   -1.3114   51.2699   27.0916 C   0  0  0  0  0  0
   -0.5822   52.4963   26.5467 C   0  0  0  0  0  0
    0.6880   52.8998   27.3461 C   0  0  0  0  0  0
   -0.3567   50.0967   26.8817 N   0  3  0  0  0  0
    1.6752   56.2205   30.9363 H   0  0  0  0  0  0
    2.8401   56.6262   29.6817 H   0  0  0  0  0  0
    1.1171   56.8149   29.3715 H   0  0  0  0  0  0
    2.7044   55.6967   27.2142 H   0  0  0  0  0  0
    4.7156   55.0195   25.9468 H   0  0  0  0  0  0
    6.1394   53.1974   26.8365 H   0  0  0  0  0  0
    5.5044   52.0570   28.8817 H   0  0  0  0  0  0
    0.4442   51.0228   29.3812 H   0  0  0  0  0  0
   -0.5559   51.9924   30.4603 H   0  0  0  0  0  0
   -1.9156   50.4967   29.0462 H   0  0  0  0  0  0
   -2.3523   52.0967   28.7932 H   0  0  0  0  0  0
   -2.2322   51.0401   26.5508 H   0  0  0  0  0  0
   -1.3105   53.2967   26.5734 H   0  0  0  0  0  0
   -0.2903   52.3484   25.5055 H   0  0  0  0  0  0
    1.0650   53.8393   26.9440 H   0  0  0  0  0  0
    1.4639   52.1406   27.2422 H   0  0  0  0  0  0
    0.5468   50.2934   27.2818 H   0  0  0  0  0  0
   -0.7501   49.2838   27.3815 H   0  0  0  0  0  0
   -0.2537   49.8611   25.9064 H   0  0  0  0  0  0
  1  2  1  0  0  0
  1 21  1  0  0  0
  1 22  1  0  0  0
  1 23  1  0  0  0
  2  3  1  0  0  0
  2 12  1  0  0  0
  3  8  2  0  0  0
  3  4  1  0  0  0
  4  5  2  0  0  0
  4 24  1  0  0  0
  5  6  1  0  0  0
  5 25  1  0  0  0
  6  7  2  0  0  0
  6 26  1  0  0  0
  7  8  1  0  0  0
  7 27  1  0  0  0
  8  9  1  0  0  0
  9 10  2  0  0  0
  9 11  1  0  0  0
 12 13  2  0  0  0
 12 14  1  0  0  0
 14 19  1  0  0  0
 14 15  1  0  0  0
 15 16  1  0  0  0
 15 28  1  0  0  0
 15 29  1  0  0  0
 16 17  1  0  0  0
 16 30  1  0  0  0
 16 31  1  0  0  0
 17 18  1  0  0  0
 17 20  1  0  0  0
 17 32  1  0  0  0
 18 19  1  0  0  0
 18 33  1  0  0  0
 18 34  1  0  0  0
 19 35  1  0  0  0
 19 36  1  0  0  0
 20 37  1  0  0  0
 20 38  1  0  0  0
 20 39  1  0  0  0
M  CHG  2  11  -1  20   1
M  END
> <i_i_glide_confnum>
37

> <i_i_glide_lignum>
1697

> <i_i_glide_posenum>
125

> <i_i_glide_rotatable_bonds>
4

> <i_m_Source_File_Index>
1508

> <b_m_subgroup_collapsed>
0

> <r_i_docking_score>
-6.23564

> <r_i_glide_ecoul>
-6.36801

> <r_i_glide_eff_state_penalty>
0

> <r_i_glide_einternal>
6.95285

> <r_i_glide_emodel>
-47.3993

> <r_i_glide_energy>
-30.6488

> <r_i_glide_erotb>
0.702424

> <r_i_glide_esite>
-0.1

> <r_i_glide_evdw>
-24.2808

> <r_i_glide_gscore>
-6.23564

> <r_i_glide_hbond>
-0.369366

> <r_i_glide_ligand_efficiency>
-0.311782

> <r_i_glide_ligand_efficiency_ln>
-1.56057

> <r_i_glide_ligand_efficiency_sa>
-0.846306

> <r_i_glide_lipo>
-1.75263

> <r_i_glide_metal>
0

> <r_i_glide_rewards>
-2.54682

> <s_i_glide_gridfile>
wee1_glide-grid

> <s_m_Source_File>
wee1_decoys_glide_SP.sdf

> <s_m_Source_Path>
/Users/zhangxujun/Desktop

> <s_m_entry_id>
1783

> <s_m_entry_name>
wee1_decoys_glide_SP.1508

> <s_m_subgroup_title>
wee1_decoys_glide_SP

> <s_m_subgroupid>
wee1_decoys_glide_SP


$$$$
