ZINC30956125_3171
                    3D
 Schrodinger Suite 2024-2.
 58 59  0  0  1  0            999 V2000
    5.3594   53.8212   20.6759 C   0  0  0  0  0  0
    4.1435   53.2459   21.3757 C   0  0  0  0  0  0
    3.2991   54.0984   22.0817 C   0  0  0  0  0  0
    2.1395   53.6044   22.6673 C   0  0  0  0  0  0
    1.8405   52.2412   22.6049 C   0  0  0  0  0  0
    2.7023   51.3823   21.9016 C   0  0  0  0  0  0
    3.8445   51.8866   21.2818 C   0  0  0  0  0  0
    0.5694   51.7365   23.2408 C   0  0  0  0  0  0
   -0.4362   52.4477   23.2874 O   0  0  0  0  0  0
    0.6167   50.4807   23.7233 N   0  0  0  0  0  0
   -0.5199   49.6784   24.2115 C   0  0  2  0  0  0
   -0.0540   48.7881   24.6375 H   0  0  0  0  0  0
   -1.4706   49.1822   23.0522 C   0  0  0  0  0  0
   -0.7888   49.0394   21.6711 C   0  0  0  0  0  0
   -2.1664   47.8481   23.4000 C   0  0  0  0  0  0
   -1.3310   50.2950   25.3979 C   0  0  0  0  0  0
   -2.5660   50.2333   25.3977 O   0  0  0  0  0  0
   -0.6103   50.8719   26.3826 N   0  0  0  0  0  0
   -1.1844   51.2975   27.5314 N   0  0  0  0  0  0
   -0.4256   51.7980   28.4281 C   0  0  0  0  0  0
    0.9482   52.3250   28.3274 C   0  0  0  0  0  0
    1.7845   52.2848   29.4504 C   0  0  0  0  0  0
    3.0488   52.9007   29.4429 C   0  0  0  0  0  0
    3.4764   53.5703   28.2906 C   0  0  0  0  0  0
    2.6597   53.5871   27.1572 C   0  0  0  0  0  0
    1.4150   52.9675   27.1764 C   0  0  0  0  0  0
    3.1875   54.4967   25.5781 Br  0  0  0  0  0  0
    4.6592   54.2773   28.3112 O   0  0  0  0  0  0
    5.8300   53.5766   27.8988 C   0  0  0  0  0  0
    6.3530   54.0969   26.6240 C   0  0  0  0  0  0
    6.7044   54.5179   25.5331 C   0  0  0  0  0  0
    3.9043   52.9258   30.5237 O   0  0  0  0  0  0
    3.5757   52.2240   31.7116 C   0  0  0  0  0  0
    5.8122   53.1051   19.9871 H   0  0  0  0  0  0
    5.0708   54.6964   20.0918 H   0  0  0  0  0  0
    6.0957   54.1471   21.4095 H   0  0  0  0  0  0
    3.5121   55.1553   22.1420 H   0  0  0  0  0  0
    1.4794   54.2933   23.1762 H   0  0  0  0  0  0
    2.4865   50.3281   21.8026 H   0  0  0  0  0  0
    4.4834   51.2240   20.7153 H   0  0  0  0  0  0
    1.4993   49.9929   23.6849 H   0  0  0  0  0  0
   -2.2553   49.9262   22.8990 H   0  0  0  0  0  0
    0.1521   48.4942   21.7412 H   0  0  0  0  0  0
   -1.4283   48.5198   20.9568 H   0  0  0  0  0  0
   -0.5656   50.0142   21.2377 H   0  0  0  0  0  0
   -1.4355   47.0513   23.5365 H   0  0  0  0  0  0
   -2.7517   47.9153   24.3168 H   0  0  0  0  0  0
   -2.8493   47.5419   22.6083 H   0  0  0  0  0  0
    0.3961   50.9229   26.3452 H   0  0  0  0  0  0
   -0.8337   51.8873   29.4317 H   0  0  0  0  0  0
    1.4234   51.7944   30.3417 H   0  0  0  0  0  0
    0.7909   53.0547   26.2976 H   0  0  0  0  0  0
    5.6750   52.5009   27.7914 H   0  0  0  0  0  0
    6.6023   53.7167   28.6541 H   0  0  0  0  0  0
    7.0040   54.8733   24.5715 H   0  0  0  0  0  0
    4.2975   52.4956   32.4811 H   0  0  0  0  0  0
    2.5872   52.4932   32.0859 H   0  0  0  0  0  0
    3.6404   51.1503   31.5751 H   0  0  0  0  0  0
  1  2  1  0  0  0
  1 34  1  0  0  0
  1 35  1  0  0  0
  1 36  1  0  0  0
  2  7  2  0  0  0
  2  3  1  0  0  0
  3  4  2  0  0  0
  3 37  1  0  0  0
  4  5  1  0  0  0
  4 38  1  0  0  0
  5  6  2  0  0  0
  5  8  1  0  0  0
  6  7  1  0  0  0
  6 39  1  0  0  0
  7 40  1  0  0  0
  8  9  2  0  0  0
  8 10  1  0  0  0
 10 11  1  0  0  0
 10 41  1  0  0  0
 11 12  1  0  0  0
 11 13  1  0  0  0
 11 16  1  0  0  0
 13 14  1  0  0  0
 13 15  1  0  0  0
 13 42  1  0  0  0
 14 43  1  0  0  0
 14 44  1  0  0  0
 14 45  1  0  0  0
 15 46  1  0  0  0
 15 47  1  0  0  0
 15 48  1  0  0  0
 16 17  2  0  0  0
 16 18  1  0  0  0
 18 19  1  0  0  0
 18 49  1  0  0  0
 19 20  2  0  0  0
 20 21  1  0  0  0
 20 50  1  0  0  0
 21 26  2  0  0  0
 21 22  1  0  0  0
 22 23  2  0  0  0
 22 51  1  0  0  0
 23 24  1  0  0  0
 23 32  1  0  0  0
 24 25  2  0  0  0
 24 28  1  0  0  0
 25 26  1  0  0  0
 25 27  1  0  0  0
 26 52  1  0  0  0
 28 29  1  0  0  0
 29 30  1  0  0  0
 29 53  1  0  0  0
 29 54  1  0  0  0
 30 31  3  0  0  0
 31 55  1  0  0  0
 32 33  1  0  0  0
 33 56  1  0  0  0
 33 57  1  0  0  0
 33 58  1  0  0  0
M  END
> <i_i_glide_confnum>
265

> <i_i_glide_lignum>
3172

> <i_i_glide_posenum>
66

> <i_i_glide_rotatable_bonds>
12

> <i_m_Source_File_Index>
520

> <b_m_subgroup_collapsed>
0

> <r_i_docking_score>
-4.81798

> <r_i_glide_ecoul>
-1.14121

> <r_i_glide_eff_state_penalty>
0

> <r_i_glide_einternal>
16.6858

> <r_i_glide_emodel>
-52.8853

> <r_i_glide_energy>
-47.6425

> <r_i_glide_erotb>
0.815515

> <r_i_glide_esite>
-0.142655

> <r_i_glide_evdw>
-46.5012

> <r_i_glide_gscore>
-4.81798

> <r_i_glide_hbond>
-0.178412

> <r_i_glide_ligand_efficiency>
-0.150562

> <r_i_glide_ligand_efficiency_ln>
-1.07888

> <r_i_glide_ligand_efficiency_sa>
-0.478005

> <r_i_glide_lipo>
-2.72387

> <r_i_glide_metal>
0

> <r_i_glide_rewards>
-0.0923244

> <s_i_glide_gridfile>
wee1_glide-grid

> <s_m_Source_File>
wee1_decoys_glide_SP.sdf

> <s_m_Source_Path>
/Users/zhangxujun/Desktop

> <s_m_entry_id>
795

> <s_m_entry_name>
wee1_decoys_glide_SP.520

> <s_m_subgroup_title>
wee1_decoys_glide_SP

> <s_m_subgroupid>
wee1_decoys_glide_SP


$$$$
