ZINC30757066_5995
                    3D
 Schrodinger Suite 2024-2.
 57 59  0  0  1  0            999 V2000
    4.0889   51.7008   31.6634 C   0  0  0  0  0  0
    3.3861   52.2422   30.4439 C   0  0  0  0  0  0
    2.0158   52.4883   30.4661 C   0  0  0  0  0  0
    1.3751   52.9806   29.3289 C   0  0  0  0  0  0
    2.1421   53.3231   28.1981 C   0  0  0  0  0  0
    3.5300   53.1353   28.1883 C   0  0  0  0  0  0
    4.1168   52.5022   29.2873 C   0  0  0  0  0  0
    4.2391   53.5765   27.0787 O   0  0  0  0  0  0
    5.6680   53.7174   27.0875 C   0  0  2  0  0  0
    6.1004   52.7188   27.1145 H   0  0  0  0  0  0
    6.2194   54.5327   28.2892 C   0  0  0  0  0  0
    6.1172   54.3745   25.7502 C   0  0  0  0  0  0
    7.1043   55.1121   25.7669 O   0  0  0  0  0  0
    5.4142   54.0964   24.6246 N   0  0  0  0  0  0
    5.6735   54.4963   23.2885 C   0  0  0  0  0  0
    6.7709   55.2818   22.9065 C   0  0  0  0  0  0
    6.9612   55.6635   21.5893 C   0  0  0  0  0  0
    6.0363   55.2921   20.6223 C   0  0  0  0  0  0
    4.9430   54.4929   20.9691 C   0  0  0  0  0  0
    4.7682   54.0933   22.2998 C   0  0  0  0  0  0
    6.2434   55.9607   18.9760 S   0  0  0  0  0  0
    5.2482   55.3559   18.0845 O   0  0  0  0  0  0
    6.3046   57.4132   19.1575 O   0  0  0  0  0  0
    7.8769   55.5053   18.4373 N   0  0  0  0  0  0
    8.2728   54.3085   17.8220 C   0  0  0  0  0  0
    9.6289   54.1893   17.5063 C   0  0  0  0  0  0
   10.1118   53.0418   16.8817 C   0  0  0  0  0  0
    9.2385   52.0027   16.5775 C   0  0  0  0  0  0
    7.8864   52.1115   16.8815 C   0  0  0  0  0  0
    7.3995   53.2597   17.5059 C   0  0  0  0  0  0
    9.9042   50.4144   15.7655 Br  0  0  0  0  0  0
    1.4782   53.9231   26.9797 C   0  0  0  0  0  0
   -0.1390   53.1409   29.3644 C   0  0  0  0  0  0
    5.0479   51.2959   31.3561 H   0  0  0  0  0  0
    4.2574   52.4983   32.3865 H   0  0  0  0  0  0
    3.5143   50.9168   32.1546 H   0  0  0  0  0  0
    1.4452   52.2611   31.3557 H   0  0  0  0  0  0
    5.1620   52.2483   29.2708 H   0  0  0  0  0  0
    7.3107   54.4978   28.2907 H   0  0  0  0  0  0
    5.9051   55.5749   28.2170 H   0  0  0  0  0  0
    5.9223   54.2114   29.2782 H   0  0  0  0  0  0
    4.5995   53.5196   24.7600 H   0  0  0  0  0  0
    7.5044   55.6364   23.6042 H   0  0  0  0  0  0
    7.8126   56.2721   21.3329 H   0  0  0  0  0  0
    4.2135   54.2085   20.2229 H   0  0  0  0  0  0
    3.9071   53.4931   22.5544 H   0  0  0  0  0  0
    8.5995   56.1863   18.6139 H   0  0  0  0  0  0
   10.3211   54.9821   17.7511 H   0  0  0  0  0  0
   11.1633   52.9524   16.6527 H   0  0  0  0  0  0
    7.2135   51.2974   16.6516 H   0  0  0  0  0  0
    6.3510   53.2912   17.7485 H   0  0  0  0  0  0
    2.1291   54.0472   26.1150 H   0  0  0  0  0  0
    1.1048   54.8967   27.2817 H   0  0  0  0  0  0
    0.6426   53.2961   26.6705 H   0  0  0  0  0  0
   -0.5286   53.0876   30.3822 H   0  0  0  0  0  0
   -0.4655   54.0971   28.9572 H   0  0  0  0  0  0
   -0.6113   52.3561   28.7723 H   0  0  0  0  0  0
  1  2  1  0  0  0
  1 34  1  0  0  0
  1 35  1  0  0  0
  1 36  1  0  0  0
  2  7  2  0  0  0
  2  3  1  0  0  0
  3  4  2  0  0  0
  3 37  1  0  0  0
  4  5  1  0  0  0
  4 33  1  0  0  0
  5  6  2  0  0  0
  5 32  1  0  0  0
  6  7  1  0  0  0
  6  8  1  0  0  0
  7 38  1  0  0  0
  8  9  1  0  0  0
  9 10  1  0  0  0
  9 11  1  0  0  0
  9 12  1  0  0  0
 11 39  1  0  0  0
 11 40  1  0  0  0
 11 41  1  0  0  0
 12 13  2  0  0  0
 12 14  1  0  0  0
 14 15  1  0  0  0
 14 42  1  0  0  0
 15 20  2  0  0  0
 15 16  1  0  0  0
 16 17  2  0  0  0
 16 43  1  0  0  0
 17 18  1  0  0  0
 17 44  1  0  0  0
 18 19  2  0  0  0
 18 21  1  0  0  0
 19 20  1  0  0  0
 19 45  1  0  0  0
 20 46  1  0  0  0
 21 22  2  0  0  0
 21 23  2  0  0  0
 21 24  1  0  0  0
 24 25  1  0  0  0
 24 47  1  0  0  0
 25 30  2  0  0  0
 25 26  1  0  0  0
 26 27  2  0  0  0
 26 48  1  0  0  0
 27 28  1  0  0  0
 27 49  1  0  0  0
 28 29  2  0  0  0
 28 31  1  0  0  0
 29 30  1  0  0  0
 29 50  1  0  0  0
 30 51  1  0  0  0
 32 52  1  0  0  0
 32 53  1  0  0  0
 32 54  1  0  0  0
 33 55  1  0  0  0
 33 56  1  0  0  0
 33 57  1  0  0  0
M  END
> <i_i_glide_confnum>
270

> <i_i_glide_lignum>
5996

> <i_i_glide_posenum>
164

> <i_i_glide_rotatable_bonds>
8

> <i_m_Source_File_Index>
1667

> <b_m_subgroup_collapsed>
0

> <r_i_docking_score>
-5.65433

> <r_i_glide_ecoul>
-5.78894

> <r_i_glide_eff_state_penalty>
0

> <r_i_glide_einternal>
5.71956

> <r_i_glide_emodel>
-67.3728

> <r_i_glide_energy>
-54.3746

> <r_i_glide_erotb>
0.613489

> <r_i_glide_esite>
-0.012942

> <r_i_glide_evdw>
-48.5857

> <r_i_glide_gscore>
-5.65433

> <r_i_glide_hbond>
-0.32

> <r_i_glide_ligand_efficiency>
-0.176698

> <r_i_glide_ligand_efficiency_ln>
-1.26616

> <r_i_glide_ligand_efficiency_sa>
-0.56098

> <r_i_glide_lipo>
-2.85537

> <r_i_glide_metal>
0

> <r_i_glide_rewards>
0.218117

> <s_i_glide_gridfile>
wee1_glide-grid

> <s_m_Source_File>
wee1_decoys_glide_SP.sdf

> <s_m_Source_Path>
/Users/zhangxujun/Desktop

> <s_m_entry_id>
1942

> <s_m_entry_name>
wee1_decoys_glide_SP.1667

> <s_m_subgroup_title>
wee1_decoys_glide_SP

> <s_m_subgroupid>
wee1_decoys_glide_SP


$$$$
