ZINC58900026_1868
                    3D
 Schrodinger Suite 2024-2.
 38 40  0  0  1  0            999 V2000
    0.5939   52.3439   30.3716 C   0  0  0  0  0  0
    1.0136   53.7558   29.9779 C   0  0  0  0  0  0
    0.7044   54.7791   30.8816 C   0  0  0  0  0  0
    1.1044   56.0935   30.6388 C   0  0  0  0  0  0
    1.7480   56.4109   29.4589 C   0  0  0  0  0  0
    2.0380   55.4108   28.5465 C   0  0  0  0  0  0
    1.7008   54.0706   28.7826 C   0  0  0  0  0  0
    2.1000   53.0211   27.7270 C   0  0  2  0  0  0
    2.4152   52.1365   28.2787 H   0  0  0  0  0  0
    3.2941   53.4520   26.8585 C   0  0  0  0  0  0
    4.6232   53.8416   27.1106 C   0  0  0  0  0  0
    5.2556   54.1739   25.9993 N   0  0  0  0  0  0
    4.3763   54.0236   24.9817 N   0  0  0  0  0  0
    3.1661   53.6101   25.4930 C   0  0  0  0  0  0
    2.0648   53.3312   24.7215 O   0  0  0  0  0  0
    1.0182   52.8175   25.4199 C   0  0  0  0  0  0
    0.9506   52.6340   26.7649 C   0  0  0  0  0  0
   -0.2535   52.0968   27.3119 C   0  0  0  0  0  0
   -1.2641   51.6968   27.7051 N   0  0  0  0  0  0
    0.0471   52.5012   24.5087 N   0  0  0  0  0  0
    4.7590   54.2063   23.6347 C   0  0  0  0  0  0
    6.3045   54.4967   23.0884 S   0  0  0  0  0  0
    3.7343   54.0978   22.7553 N   0  0  0  0  0  0
    5.3560   53.9141   28.4306 C   0  0  0  0  0  0
   -0.4943   52.2802   30.4283 H   0  0  0  0  0  0
    0.9408   51.5620   29.7003 H   0  0  0  0  0  0
    0.9696   52.1073   31.3685 H   0  0  0  0  0  0
    0.1850   54.5470   31.8008 H   0  0  0  0  0  0
    0.8926   56.8806   31.3444 H   0  0  0  0  0  0
    2.0134   57.4319   29.2493 H   0  0  0  0  0  0
    2.5519   55.6966   27.6465 H   0  0  0  0  0  0
   -0.8330   52.1200   24.8259 H   0  0  0  0  0  0
    0.3002   52.3303   23.5471 H   0  0  0  0  0  0
    2.8043   53.8931   23.1004 H   0  0  0  0  0  0
    3.9058   54.2032   21.7652 H   0  0  0  0  0  0
    4.6960   53.7158   29.2755 H   0  0  0  0  0  0
    6.1662   53.1868   28.4799 H   0  0  0  0  0  0
    5.7981   54.8968   28.5974 H   0  0  0  0  0  0
  1  2  1  0  0  0
  1 25  1  0  0  0
  1 26  1  0  0  0
  1 27  1  0  0  0
  2  7  2  0  0  0
  2  3  1  0  0  0
  3  4  2  0  0  0
  3 28  1  0  0  0
  4  5  1  0  0  0
  4 29  1  0  0  0
  5  6  2  0  0  0
  5 30  1  0  0  0
  6  7  1  0  0  0
  6 31  1  0  0  0
  7  8  1  0  0  0
  8  9  1  0  0  0
  8 17  1  0  0  0
  8 10  1  0  0  0
 10 14  2  0  0  0
 10 11  1  0  0  0
 11 12  2  0  0  0
 11 24  1  0  0  0
 12 13  1  0  0  0
 13 14  1  0  0  0
 13 21  1  0  0  0
 14 15  1  0  0  0
 15 16  1  0  0  0
 16 17  2  0  0  0
 16 20  1  0  0  0
 17 18  1  0  0  0
 18 19  3  0  0  0
 20 32  1  0  0  0
 20 33  1  0  0  0
 21 22  2  0  0  0
 21 23  1  0  0  0
 23 34  1  0  0  0
 23 35  1  0  0  0
 24 36  1  0  0  0
 24 37  1  0  0  0
 24 38  1  0  0  0
M  END
> <i_i_glide_confnum>
1

> <i_i_glide_lignum>
1869

> <i_i_glide_posenum>
254

> <i_i_glide_rotatable_bonds>
3

> <i_m_Source_File_Index>
5326

> <b_m_subgroup_collapsed>
0

> <r_i_docking_score>
-6.92875

> <r_i_glide_ecoul>
-1.06448

> <r_i_glide_eff_state_penalty>
0

> <r_i_glide_einternal>
2.74921

> <r_i_glide_emodel>
-55.2282

> <r_i_glide_energy>
-40.1005

> <r_i_glide_erotb>
0.177001

> <r_i_glide_esite>
-0.013733

> <r_i_glide_evdw>
-39.036

> <r_i_glide_gscore>
-6.92875

> <r_i_glide_hbond>
0

> <r_i_glide_ligand_efficiency>
-0.30125

> <r_i_glide_ligand_efficiency_ln>
-1.67543

> <r_i_glide_ligand_efficiency_sa>
-0.856715

> <r_i_glide_lipo>
-2.77212

> <r_i_glide_metal>
0

> <r_i_glide_rewards>
-2.20842

> <s_i_glide_gridfile>
wee1_glide-grid

> <s_m_Source_File>
wee1_decoys_glide_SP.sdf

> <s_m_Source_Path>
/Users/zhangxujun/Desktop

> <s_m_entry_id>
5601

> <s_m_entry_name>
wee1_decoys_glide_SP.5326

> <s_m_subgroup_title>
wee1_decoys_glide_SP

> <s_m_subgroupid>
wee1_decoys_glide_SP


$$$$
