ZINC08739042_5277
                    3D
 Schrodinger Suite 2024-2.
 44 47  0  0  1  0            999 V2000
    7.1042   55.4326   24.3848 C   0  0  0  0  0  0
    6.0815   54.9273   25.3836 C   0  0  0  0  0  0
    6.4264   54.8965   26.7363 C   0  0  0  0  0  0
    5.5183   54.4453   27.6815 C   0  0  0  0  0  0
    4.2435   54.0356   27.2857 C   0  0  0  0  0  0
    3.8907   54.0840   25.9341 C   0  0  0  0  0  0
    4.8109   54.4968   24.9638 C   0  0  0  0  0  0
    4.5798   54.4882   23.5697 N   0  0  0  0  0  0
    3.6209   54.0029   22.7166 C   0  0  0  0  0  0
    2.1647   53.2995   23.1138 S   0  0  0  0  0  0
    3.9032   54.0484   21.3770 N   0  0  0  0  0  0
    4.9932   54.4963   20.7022 C   0  0  0  0  0  0
    5.9054   55.1596   21.2088 O   0  0  0  0  0  0
    5.0693   54.0982   19.2435 C   0  0  0  0  0  0
    3.9301   53.7086   18.5127 C   0  0  0  0  0  0
    4.0436   53.3118   17.1789 C   0  0  0  0  0  0
    5.2888   53.2987   16.5540 C   0  0  0  0  0  0
    6.4235   53.6890   17.2615 C   0  0  0  0  0  0
    6.3120   54.0952   18.5904 C   0  0  0  0  0  0
    8.3005   53.6460   16.3426 I   0  0  0  0  0  0
    3.2723   53.5294   28.2868 C   0  0  0  0  0  0
    3.5085   53.2979   29.5628 N   0  0  0  0  0  0
    2.3071   52.8574   30.0286 C   0  0  0  0  0  0
    1.3714   52.8401   28.9815 C   0  0  0  0  0  0
    1.9977   53.2640   27.8587 O   0  0  0  0  0  0
    0.0465   52.4449   29.1709 C   0  0  0  0  0  0
   -0.2792   52.0971   30.4817 C   0  0  0  0  0  0
    0.7045   52.1548   31.4835 C   0  0  0  0  0  0
    2.0018   52.4966   31.2739 N   0  0  0  0  0  0
    7.9043   55.9952   24.8618 H   0  0  0  0  0  0
    7.5042   54.5905   23.8221 H   0  0  0  0  0  0
    6.6478   56.1070   23.6650 H   0  0  0  0  0  0
    7.4002   55.2120   27.0751 H   0  0  0  0  0  0
    5.8154   54.4224   28.7197 H   0  0  0  0  0  0
    2.9001   53.7641   25.6688 H   0  0  0  0  0  0
    5.3694   54.8824   23.0761 H   0  0  0  0  0  0
    3.2139   53.5907   20.7995 H   0  0  0  0  0  0
    2.9461   53.6999   18.9593 H   0  0  0  0  0  0
    3.1658   52.9983   16.6330 H   0  0  0  0  0  0
    5.3782   52.9722   15.5281 H   0  0  0  0  0  0
    7.2112   54.3887   19.1140 H   0  0  0  0  0  0
   -0.6717   52.4133   28.3652 H   0  0  0  0  0  0
   -1.2797   51.7672   30.7338 H   0  0  0  0  0  0
    0.4469   51.8892   32.4973 H   0  0  0  0  0  0
  1  2  1  0  0  0
  1 30  1  0  0  0
  1 31  1  0  0  0
  1 32  1  0  0  0
  2  7  2  0  0  0
  2  3  1  0  0  0
  3  4  2  0  0  0
  3 33  1  0  0  0
  4  5  1  0  0  0
  4 34  1  0  0  0
  5  6  2  0  0  0
  5 21  1  0  0  0
  6  7  1  0  0  0
  6 35  1  0  0  0
  7  8  1  0  0  0
  8  9  1  0  0  0
  8 36  1  0  0  0
  9 10  2  0  0  0
  9 11  1  0  0  0
 11 12  1  0  0  0
 11 37  1  0  0  0
 12 13  2  0  0  0
 12 14  1  0  0  0
 14 19  2  0  0  0
 14 15  1  0  0  0
 15 16  2  0  0  0
 15 38  1  0  0  0
 16 17  1  0  0  0
 16 39  1  0  0  0
 17 18  2  0  0  0
 17 40  1  0  0  0
 18 19  1  0  0  0
 18 20  1  0  0  0
 19 41  1  0  0  0
 21 25  1  0  0  0
 21 22  2  0  0  0
 22 23  1  0  0  0
 23 29  2  0  0  0
 23 24  1  0  0  0
 24 25  1  0  0  0
 24 26  2  0  0  0
 26 27  1  0  0  0
 26 42  1  0  0  0
 27 28  2  0  0  0
 27 43  1  0  0  0
 28 29  1  0  0  0
 28 44  1  0  0  0
M  END
> <i_i_glide_confnum>
3

> <i_i_glide_lignum>
5278

> <i_i_glide_posenum>
94

> <i_i_glide_rotatable_bonds>
6

> <i_m_Source_File_Index>
4306

> <b_m_subgroup_collapsed>
0

> <r_i_docking_score>
-5.47498

> <r_i_glide_ecoul>
-3.67911

> <r_i_glide_eff_state_penalty>
0

> <r_i_glide_einternal>
8.22093

> <r_i_glide_emodel>
-58.803

> <r_i_glide_energy>
-48.2907

> <r_i_glide_erotb>
0.387683

> <r_i_glide_esite>
0

> <r_i_glide_evdw>
-44.6116

> <r_i_glide_gscore>
-5.47498

> <r_i_glide_hbond>
-0.0488461

> <r_i_glide_ligand_efficiency>
-0.188793

> <r_i_glide_ligand_efficiency_ln>
-1.25363

> <r_i_glide_ligand_efficiency_sa>
-0.580031

> <r_i_glide_lipo>
-2.12089

> <r_i_glide_metal>
0

> <r_i_glide_rewards>
-0.910481

> <s_i_glide_gridfile>
wee1_glide-grid

> <s_m_Source_File>
wee1_decoys_glide_SP.sdf

> <s_m_Source_Path>
/Users/zhangxujun/Desktop

> <s_m_entry_id>
4581

> <s_m_entry_name>
wee1_decoys_glide_SP.4306

> <s_m_subgroup_title>
wee1_decoys_glide_SP

> <s_m_subgroupid>
wee1_decoys_glide_SP


$$$$
