ZINC11719922_3046
                    3D
 Schrodinger Suite 2024-2.
 53 55  0  0  1  0            999 V2000
    0.6146   51.9469   21.1481 C   0  0  0  0  0  0
    1.8488   52.0321   20.2378 C   0  0  1  0  0  0
    1.7491   52.8936   19.5722 H   0  0  0  0  0  0
    3.1270   52.3062   21.0769 C   0  0  0  0  0  0
    4.0649   51.5047   21.1089 O   0  0  0  0  0  0
    3.1102   53.4561   21.7837 N   0  0  0  0  0  0
    4.0469   53.8023   22.7601 C   0  0  0  0  0  0
    5.3627   54.0968   22.3837 C   0  0  0  0  0  0
    6.3062   54.4426   23.3482 C   0  0  0  0  0  0
    5.9348   54.5074   24.6907 C   0  0  0  0  0  0
    4.6180   54.2438   25.0682 C   0  0  0  0  0  0
    3.6553   53.8896   24.1134 C   0  0  0  0  0  0
    2.2207   53.5687   24.5538 C   0  0  0  0  0  0
    1.9045   52.3162   24.2199 F   0  0  0  0  0  0
    2.0476   53.6965   25.8714 F   0  0  0  0  0  0
    1.3748   54.3935   23.9387 F   0  0  0  0  0  0
    7.1036   54.8990   25.8982 Cl  0  0  0  0  0  0
    1.9912   49.4564   19.9377 C   0  0  0  0  0  0
    2.2861   48.3769   18.8872 C   0  0  0  0  0  0
    1.2574   48.4602   17.7561 C   0  0  1  0  0  0
    1.3257   49.8296   17.0604 C   0  0  0  0  0  0
    1.0573   50.9556   18.0711 C   0  0  0  0  0  0
    1.6410   47.4445   16.7653 N   0  0  0  0  0  0
    0.9818   45.8219   16.8551 S   0  0  0  0  0  0
    1.7877   44.9508   15.9932 O   0  0  0  0  0  0
    0.7017   45.4924   18.2588 O   0  0  0  0  0  0
   -0.6022   46.0659   16.0355 C   0  0  0  0  0  0
   -1.8491   45.8008   16.5882 C   0  0  0  0  0  0
   -2.8964   46.0910   15.7072 C   0  0  0  0  0  0
   -2.4465   46.5771   14.4846 C   0  0  0  0  0  0
   -0.7169   46.6803   14.4169 S   0  0  0  0  0  0
    0.4523   52.8875   21.6752 H   0  0  0  0  0  0
   -0.2805   51.7465   20.5639 H   0  0  0  0  0  0
    0.7309   51.1572   21.8903 H   0  0  0  0  0  0
    2.3280   54.0852   21.6590 H   0  0  0  0  0  0
    5.6541   54.0499   21.3446 H   0  0  0  0  0  0
    7.3224   54.6564   23.0515 H   0  0  0  0  0  0
    4.3567   54.3058   26.1161 H   0  0  0  0  0  0
    2.7442   49.4193   20.7235 H   0  0  0  0  0  0
    0.9988   49.3450   20.3759 H   0  0  0  0  0  0
    3.2902   48.4979   18.4826 H   0  0  0  0  0  0
    2.2720   47.3925   19.3515 H   0  0  0  0  0  0
    0.2480   48.2814   18.1329 H   0  0  0  0  0  0
    0.6066   49.8757   16.2438 H   0  0  0  0  0  0
    2.3019   50.0061   16.6051 H   0  0  0  0  0  0
    0.0491   50.9079   18.4851 H   0  0  0  0  0  0
    1.2195   51.9248   17.5937 H   0  0  0  0  0  0
    2.5570   47.5654   16.3193 H   0  0  0  0  0  0
   -1.9911   45.4116   17.5845 H   0  0  0  0  0  0
   -3.9389   45.9522   15.9509 H   0  0  0  0  0  0
   -3.0405   46.8747   13.6328 H   0  0  0  0  0  0
    2.0733   50.8478   19.2463 N   0  3  1  0  0  0
    3.0098   50.9347   18.8619 H   0  0  0  0  0  0
  1  2  1  0  0  0
  1 32  1  0  0  0
  1 33  1  0  0  0
  1 34  1  0  0  0
  2  3  1  0  0  0
  2  4  1  0  0  0
  2 52  1  0  0  0
  4  5  2  0  0  0
  4  6  1  0  0  0
  6  7  1  0  0  0
  6 35  1  0  0  0
  7 12  2  0  0  0
  7  8  1  0  0  0
  8  9  2  0  0  0
  8 36  1  0  0  0
  9 10  1  0  0  0
  9 37  1  0  0  0
 10 11  2  0  0  0
 10 17  1  0  0  0
 11 12  1  0  0  0
 11 38  1  0  0  0
 12 13  1  0  0  0
 13 14  1  0  0  0
 13 15  1  0  0  0
 13 16  1  0  0  0
 18 19  1  0  0  0
 18 39  1  0  0  0
 18 40  1  0  0  0
 18 52  1  0  0  0
 19 20  1  0  0  0
 19 41  1  0  0  0
 19 42  1  0  0  0
 20 21  1  0  0  0
 20 23  1  0  0  0
 20 43  1  0  0  0
 21 22  1  0  0  0
 21 44  1  0  0  0
 21 45  1  0  0  0
 22 46  1  0  0  0
 22 47  1  0  0  0
 22 52  1  0  0  0
 23 24  1  0  0  0
 23 48  1  0  0  0
 24 25  2  0  0  0
 24 26  2  0  0  0
 24 27  1  0  0  0
 27 31  1  0  0  0
 27 28  2  0  0  0
 28 29  1  0  0  0
 28 49  1  0  0  0
 29 30  2  0  0  0
 29 50  1  0  0  0
 30 31  1  0  0  0
 30 51  1  0  0  0
 52 53  1  0  0  0
M  CHG  1  52   1
M  END
> <i_i_glide_confnum>
60

> <i_i_glide_lignum>
3047

> <i_i_glide_posenum>
228

> <i_i_glide_rotatable_bonds>
8

> <i_m_Source_File_Index>
1876

> <b_m_subgroup_collapsed>
0

> <r_i_docking_score>
-4.05355

> <r_i_glide_ecoul>
-6.87999

> <r_i_glide_eff_state_penalty>
0

> <r_i_glide_einternal>
5.52007

> <r_i_glide_emodel>
-45.343

> <r_i_glide_energy>
-37.7977

> <r_i_glide_erotb>
0.578058

> <r_i_glide_esite>
-0.151558

> <r_i_glide_evdw>
-30.9177

> <r_i_glide_gscore>
-4.05355

> <r_i_glide_hbond>
-0.229284

> <r_i_glide_ligand_efficiency>
-0.13076

> <r_i_glide_ligand_efficiency_ln>
-0.914199

> <r_i_glide_ligand_efficiency_sa>
-0.410766

> <r_i_glide_lipo>
-1.83663

> <r_i_glide_metal>
0

> <r_i_glide_rewards>
0.163755

> <s_i_glide_gridfile>
wee1_glide-grid

> <s_m_Source_File>
wee1_decoys_glide_SP.sdf

> <s_m_Source_Path>
/Users/zhangxujun/Desktop

> <s_m_entry_id>
2151

> <s_m_entry_name>
wee1_decoys_glide_SP.1876

> <s_m_subgroup_title>
wee1_decoys_glide_SP

> <s_m_subgroupid>
wee1_decoys_glide_SP


$$$$
