ZINC46815487_2424
                    3D
 Schrodinger Suite 2024-2.
 56 59  0  0  1  0            999 V2000
    6.8615   55.2823   22.4586 C   0  0  0  0  0  0
    7.1193   55.4763   21.1052 C   0  0  0  0  0  0
    6.3037   54.8968   20.1220 C   0  0  0  0  0  0
    5.2230   54.1080   20.5440 C   0  0  0  0  0  0
    4.9660   53.9065   21.8994 C   0  0  0  0  0  0
    5.7768   54.4972   22.8691 C   0  0  0  0  0  0
    5.3651   54.3575   24.2103 N   0  0  0  0  0  0
    5.9673   54.7565   25.3581 C   0  0  0  0  0  0
    7.1042   55.2285   25.4218 O   0  0  0  0  0  0
    5.1171   54.6462   26.6473 C   0  0  2  0  0  0
    4.3622   55.4173   26.5007 H   0  0  0  0  0  0
    5.9031   54.8968   27.9496 C   0  0  0  0  0  0
    4.9483   54.7782   29.1623 C   0  0  0  0  0  0
    4.1963   53.4347   29.2071 C   0  0  0  0  0  0
    3.4995   53.3045   27.9139 N   0  0  0  0  0  0
    4.4081   53.2967   26.7507 C   0  0  0  0  0  0
    2.1542   53.0773   27.8735 C   0  0  0  0  0  0
    1.4744   52.9844   28.8988 O   0  0  0  0  0  0
    1.4610   52.8691   26.5422 C   0  0  0  0  0  0
    0.4950   51.8597   26.4182 C   0  0  0  0  0  0
   -0.1429   51.6301   25.1987 C   0  0  0  0  0  0
    0.1611   52.4157   24.0859 C   0  0  0  0  0  0
    1.0987   53.4484   24.2065 C   0  0  0  0  0  0
    1.7283   53.6765   25.4273 C   0  0  0  0  0  0
    1.5044   54.4750   22.8818 Cl  0  0  0  0  0  0
   -0.6452   52.0977   22.5902 Cl  0  0  0  0  0  0
    6.5342   55.1178   18.7604 N   0  0  0  0  0  0
    7.4446   56.1560   18.2595 C   0  0  0  0  0  0
    8.8679   55.6115   17.9931 C   0  0  0  0  0  0
    8.8516   54.2635   17.4077 N   0  0  0  0  0  0
    7.7747   53.4640   17.2831 C   0  0  0  0  0  0
    7.9042   52.3393   16.8088 O   0  0  0  0  0  0
    6.4081   54.0502   17.7381 C   0  0  0  0  0  0
    7.5053   55.7764   23.1666 H   0  0  0  0  0  0
    7.9718   56.0807   20.8372 H   0  0  0  0  0  0
    4.5538   53.6582   19.8252 H   0  0  0  0  0  0
    4.1101   53.3108   22.1819 H   0  0  0  0  0  0
    4.4654   53.9144   24.3124 H   0  0  0  0  0  0
    6.6949   54.1568   28.0930 H   0  0  0  0  0  0
    6.3049   55.9077   27.9727 H   0  0  0  0  0  0
    5.5152   54.9084   30.0816 H   0  0  0  0  0  0
    4.2111   55.5823   29.1664 H   0  0  0  0  0  0
    4.9064   52.6109   29.2921 H   0  0  0  0  0  0
    3.5334   53.3854   30.0715 H   0  0  0  0  0  0
    3.9609   52.9080   25.8396 H   0  0  0  0  0  0
    5.1605   52.5335   26.9579 H   0  0  0  0  0  0
    0.2447   51.2283   27.2618 H   0  0  0  0  0  0
   -0.8712   50.8360   25.1199 H   0  0  0  0  0  0
    2.4239   54.4965   25.4976 H   0  0  0  0  0  0
    7.4659   57.0243   18.9168 H   0  0  0  0  0  0
    7.0116   56.4971   17.3178 H   0  0  0  0  0  0
    9.3910   55.5264   18.9473 H   0  0  0  0  0  0
    9.4267   56.3060   17.3650 H   0  0  0  0  0  0
    9.7280   53.8576   17.1152 H   0  0  0  0  0  0
    5.9180   54.4479   16.8479 H   0  0  0  0  0  0
    5.7932   53.2147   18.0710 H   0  0  0  0  0  0
  1  6  2  0  0  0
  1  2  1  0  0  0
  1 34  1  0  0  0
  2  3  2  0  0  0
  2 35  1  0  0  0
  3  4  1  0  0  0
  3 27  1  0  0  0
  4  5  2  0  0  0
  4 36  1  0  0  0
  5  6  1  0  0  0
  5 37  1  0  0  0
  6  7  1  0  0  0
  7  8  1  0  0  0
  7 38  1  0  0  0
  8  9  2  0  0  0
  8 10  1  0  0  0
 10 11  1  0  0  0
 10 16  1  0  0  0
 10 12  1  0  0  0
 12 13  1  0  0  0
 12 39  1  0  0  0
 12 40  1  0  0  0
 13 14  1  0  0  0
 13 41  1  0  0  0
 13 42  1  0  0  0
 14 15  1  0  0  0
 14 43  1  0  0  0
 14 44  1  0  0  0
 15 16  1  0  0  0
 15 17  1  0  0  0
 16 45  1  0  0  0
 16 46  1  0  0  0
 17 18  2  0  0  0
 17 19  1  0  0  0
 19 24  2  0  0  0
 19 20  1  0  0  0
 20 21  2  0  0  0
 20 47  1  0  0  0
 21 22  1  0  0  0
 21 48  1  0  0  0
 22 23  2  0  0  0
 22 26  1  0  0  0
 23 24  1  0  0  0
 23 25  1  0  0  0
 24 49  1  0  0  0
 27 33  1  0  0  0
 27 28  1  0  0  0
 28 29  1  0  0  0
 28 50  1  0  0  0
 28 51  1  0  0  0
 29 30  1  0  0  0
 29 52  1  0  0  0
 29 53  1  0  0  0
 30 31  1  0  0  0
 30 54  1  0  0  0
 31 32  2  0  0  0
 31 33  1  0  0  0
 33 55  1  0  0  0
 33 56  1  0  0  0
M  END
> <i_i_glide_confnum>
263

> <i_i_glide_lignum>
2425

> <i_i_glide_posenum>
262

> <i_i_glide_rotatable_bonds>
6

> <i_m_Source_File_Index>
4880

> <b_m_subgroup_collapsed>
0

> <r_i_docking_score>
-6.47403

> <r_i_glide_ecoul>
-4.7813

> <r_i_glide_eff_state_penalty>
0

> <r_i_glide_einternal>
3.48332

> <r_i_glide_emodel>
-68.0312

> <r_i_glide_energy>
-48.5048

> <r_i_glide_erotb>
0.537456

> <r_i_glide_esite>
0

> <r_i_glide_evdw>
-43.7235

> <r_i_glide_gscore>
-6.47403

> <r_i_glide_hbond>
-0.32

> <r_i_glide_ligand_efficiency>
-0.202313

> <r_i_glide_ligand_efficiency_ln>
-1.44971

> <r_i_glide_ligand_efficiency_sa>
-0.642305

> <r_i_glide_lipo>
-2.56773

> <r_i_glide_metal>
0

> <r_i_glide_rewards>
-1.22038

> <s_i_glide_gridfile>
wee1_glide-grid

> <s_m_Source_File>
wee1_decoys_glide_SP.sdf

> <s_m_Source_Path>
/Users/zhangxujun/Desktop

> <s_m_entry_id>
5155

> <s_m_entry_name>
wee1_decoys_glide_SP.4880

> <s_m_subgroup_title>
wee1_decoys_glide_SP

> <s_m_subgroupid>
wee1_decoys_glide_SP


$$$$
