ZINC09236947_4118
                    3D
 Schrodinger Suite 2024-2.
 49 53  0  0  1  0            999 V2000
    5.8594   54.4941   26.9731 C   0  0  0  0  0  0
    4.7845   54.6017   26.0983 C   0  0  0  0  0  0
    3.5443   54.0884   26.4646 C   0  0  0  0  0  0
    3.3713   53.4474   27.7019 C   0  0  0  0  0  0
    4.4616   53.3661   28.5784 C   0  0  0  0  0  0
    5.7018   53.8836   28.2138 C   0  0  0  0  0  0
    2.0570   52.8441   28.1197 C   0  0  0  0  0  0
    1.6434   52.7864   29.3649 N   0  0  0  0  0  0
    0.3580   52.2522   29.3669 N   0  0  0  0  0  0
    0.0253   52.0171   28.1240 C   0  0  0  0  0  0
    1.0595   52.3735   27.2858 N   0  0  0  0  0  0
    1.1018   52.2656   25.9036 N   0  0  0  0  0  0
    0.3256   51.1454   25.3718 C   0  0  1  0  0  0
    0.6795   50.2305   25.8538 H   0  0  0  0  0  0
   -1.1789   51.3287   25.7493 C   0  0  2  0  0  0
   -1.5482   52.2813   25.3638 H   0  0  0  0  0  0
   -1.5088   51.3389   27.5589 S   0  0  0  0  0  0
   -2.0880   50.2496   25.1048 C   0  0  0  0  0  0
   -2.7112   50.5775   24.0943 O   0  0  0  0  0  0
   -2.1716   49.0216   25.6814 N   0  0  0  0  0  0
   -2.9748   47.9166   25.3198 C   0  0  0  0  0  0
   -3.7056   47.8184   24.1230 C   0  0  0  0  0  0
   -4.5164   46.7110   23.8863 C   0  0  0  0  0  0
   -4.5981   45.6961   24.8351 C   0  0  0  0  0  0
   -3.8642   45.7718   26.0143 C   0  0  0  0  0  0
   -3.0474   46.8704   26.2465 C   0  0  0  0  0  0
   -5.6964   44.1795   24.5037 Br  0  0  0  0  0  0
    0.6068   50.9940   23.8711 C   0  0  0  0  0  0
    0.4848   52.0916   23.0108 C   0  0  0  0  0  0
    0.8158   51.9671   21.6648 C   0  0  0  0  0  0
    1.2589   50.7420   21.1760 C   0  0  0  0  0  0
    1.3648   49.6378   22.0186 C   0  0  0  0  0  0
    1.0300   49.7599   23.3656 C   0  0  0  0  0  0
    6.8206   54.8986   26.6966 H   0  0  0  0  0  0
    4.9081   55.0904   25.1419 H   0  0  0  0  0  0
    2.7235   54.2086   25.7762 H   0  0  0  0  0  0
    4.3555   52.8802   29.5371 H   0  0  0  0  0  0
    6.5455   53.8079   28.8826 H   0  0  0  0  0  0
    2.0680   52.1017   25.6574 H   0  0  0  0  0  0
   -1.6963   48.9033   26.5762 H   0  0  0  0  0  0
   -3.6715   48.5806   23.3650 H   0  0  0  0  0  0
   -5.0830   46.6466   22.9699 H   0  0  0  0  0  0
   -3.9253   44.9878   26.7565 H   0  0  0  0  0  0
   -2.4955   46.8965   27.1741 H   0  0  0  0  0  0
    0.1566   53.0499   23.3906 H   0  0  0  0  0  0
    0.7447   52.8215   21.0062 H   0  0  0  0  0  0
    1.5294   50.6478   20.1340 H   0  0  0  0  0  0
    1.7153   48.6945   21.6274 H   0  0  0  0  0  0
    1.1226   48.8986   24.0126 H   0  0  0  0  0  0
  1  6  2  0  0  0
  1  2  1  0  0  0
  1 34  1  0  0  0
  2  3  2  0  0  0
  2 35  1  0  0  0
  3  4  1  0  0  0
  3 36  1  0  0  0
  4  5  2  0  0  0
  4  7  1  0  0  0
  5  6  1  0  0  0
  5 37  1  0  0  0
  6 38  1  0  0  0
  7 11  1  0  0  0
  7  8  2  0  0  0
  8  9  1  0  0  0
  9 10  2  0  0  0
 10 17  1  0  0  0
 10 11  1  0  0  0
 11 12  1  0  0  0
 12 13  1  0  0  0
 12 39  1  0  0  0
 13 14  1  0  0  0
 13 15  1  0  0  0
 13 28  1  0  0  0
 15 16  1  0  0  0
 15 17  1  0  0  0
 15 18  1  0  0  0
 18 19  2  0  0  0
 18 20  1  0  0  0
 20 21  1  0  0  0
 20 40  1  0  0  0
 21 26  2  0  0  0
 21 22  1  0  0  0
 22 23  2  0  0  0
 22 41  1  0  0  0
 23 24  1  0  0  0
 23 42  1  0  0  0
 24 25  2  0  0  0
 24 27  1  0  0  0
 25 26  1  0  0  0
 25 43  1  0  0  0
 26 44  1  0  0  0
 28 33  2  0  0  0
 28 29  1  0  0  0
 29 30  2  0  0  0
 29 45  1  0  0  0
 30 31  1  0  0  0
 30 46  1  0  0  0
 31 32  2  0  0  0
 31 47  1  0  0  0
 32 33  1  0  0  0
 32 48  1  0  0  0
 33 49  1  0  0  0
M  END
> <i_i_glide_confnum>
87

> <i_i_glide_lignum>
4119

> <i_i_glide_posenum>
115

> <i_i_glide_rotatable_bonds>
5

> <i_m_Source_File_Index>
837

> <b_m_subgroup_collapsed>
0

> <r_i_docking_score>
-5.0641

> <r_i_glide_ecoul>
-5.04602

> <r_i_glide_eff_state_penalty>
0

> <r_i_glide_einternal>
2.30803

> <r_i_glide_emodel>
-58.611

> <r_i_glide_energy>
-45.3864

> <r_i_glide_erotb>
0.419968

> <r_i_glide_esite>
-0.128275

> <r_i_glide_evdw>
-40.3404

> <r_i_glide_gscore>
-5.0641

> <r_i_glide_hbond>
-0.16

> <r_i_glide_ligand_efficiency>
-0.163358

> <r_i_glide_ligand_efficiency_ln>
-1.14211

> <r_i_glide_ligand_efficiency_sa>
-0.51317

> <r_i_glide_lipo>
-1.90432

> <r_i_glide_metal>
0

> <r_i_glide_rewards>
-0.517547

> <s_i_glide_gridfile>
wee1_glide-grid

> <s_m_Source_File>
wee1_decoys_glide_SP.sdf

> <s_m_Source_Path>
/Users/zhangxujun/Desktop

> <s_m_entry_id>
1112

> <s_m_entry_name>
wee1_decoys_glide_SP.837

> <s_m_subgroup_title>
wee1_decoys_glide_SP

> <s_m_subgroupid>
wee1_decoys_glide_SP


$$$$
