ZINC44731543_1597
                    3D
 Schrodinger Suite 2024-2.
 40 41  0  0  1  0            999 V2000
    4.1776   52.5583   20.2831 C   0  0  0  0  0  0
    4.2209   53.1871   21.6539 C   0  0  0  0  0  0
    5.2258   53.6973   22.4521 C   0  0  0  0  0  0
    4.6615   54.1529   23.6540 C   0  0  0  0  0  0
    3.2983   53.8881   23.5101 C   0  0  0  0  0  0
    3.0429   53.3104   22.3077 O   0  0  0  0  0  0
    2.0947   54.0987   24.3925 C   0  0  0  0  0  0
    5.3746   54.7880   24.8405 C   0  0  2  0  0  0
    4.7294   55.5202   25.3274 H   0  0  0  0  0  0
    6.7044   55.4608   24.4502 C   0  0  0  0  0  0
    5.6382   53.6967   25.7872 N   0  0  0  0  0  0
    5.9469   53.9378   27.4888 S   0  0  0  0  0  0
    6.8777   52.8967   27.9217 O   0  0  0  0  0  0
    6.3043   55.3377   27.6560 O   0  0  0  0  0  0
    4.3897   53.6768   28.3336 C   0  0  0  0  0  0
    3.3054   54.5094   28.0650 C   0  0  0  0  0  0
    2.1090   54.3414   28.7590 C   0  0  0  0  0  0
    1.9885   53.3402   29.7250 C   0  0  0  0  0  0
    3.0769   52.4966   29.9753 C   0  0  0  0  0  0
    4.2720   52.6611   29.2817 C   0  0  0  0  0  0
    0.7773   53.2216   30.4234 N   0  0  0  0  0  0
    0.7044   52.4967   31.6853 N   0  0  0  0  0  0
    5.1646   52.5088   19.8220 H   0  0  0  0  0  0
    3.5356   53.1220   19.6058 H   0  0  0  0  0  0
    3.7922   51.5390   20.3177 H   0  0  0  0  0  0
    6.2725   53.7382   22.1932 H   0  0  0  0  0  0
    2.3754   54.4942   25.3656 H   0  0  0  0  0  0
    1.3965   54.8055   23.9458 H   0  0  0  0  0  0
    1.5540   53.1682   24.5651 H   0  0  0  0  0  0
    6.5777   56.1377   23.6082 H   0  0  0  0  0  0
    7.1056   56.0456   25.2767 H   0  0  0  0  0  0
    7.4622   54.7295   24.1640 H   0  0  0  0  0  0
    6.0785   52.8607   25.3928 H   0  0  0  0  0  0
    3.3962   55.2967   27.3334 H   0  0  0  0  0  0
    1.2793   54.9999   28.5477 H   0  0  0  0  0  0
    3.0007   51.7174   30.7173 H   0  0  0  0  0  0
    5.1043   52.0070   29.4944 H   0  0  0  0  0  0
    0.1616   54.0238   30.4330 H   0  0  0  0  0  0
    0.8835   53.1289   32.4531 H   0  0  0  0  0  0
   -0.2269   52.0943   31.8085 H   0  0  0  0  0  0
  1  2  1  0  0  0
  1 23  1  0  0  0
  1 24  1  0  0  0
  1 25  1  0  0  0
  2  6  1  0  0  0
  2  3  2  0  0  0
  3  4  1  0  0  0
  3 26  1  0  0  0
  4  5  2  0  0  0
  4  8  1  0  0  0
  5  6  1  0  0  0
  5  7  1  0  0  0
  7 27  1  0  0  0
  7 28  1  0  0  0
  7 29  1  0  0  0
  8  9  1  0  0  0
  8 10  1  0  0  0
  8 11  1  0  0  0
 10 30  1  0  0  0
 10 31  1  0  0  0
 10 32  1  0  0  0
 11 12  1  0  0  0
 11 33  1  0  0  0
 12 13  2  0  0  0
 12 14  2  0  0  0
 12 15  1  0  0  0
 15 20  2  0  0  0
 15 16  1  0  0  0
 16 17  2  0  0  0
 16 34  1  0  0  0
 17 18  1  0  0  0
 17 35  1  0  0  0
 18 19  2  0  0  0
 18 21  1  0  0  0
 19 20  1  0  0  0
 19 36  1  0  0  0
 20 37  1  0  0  0
 21 22  1  0  0  0
 21 38  1  0  0  0
 22 39  1  0  0  0
 22 40  1  0  0  0
M  END
> <i_i_glide_confnum>
55

> <i_i_glide_lignum>
1598

> <i_i_glide_posenum>
311

> <i_i_glide_rotatable_bonds>
5

> <i_m_Source_File_Index>
2261

> <b_m_subgroup_collapsed>
0

> <r_i_docking_score>
-5.11683

> <r_i_glide_ecoul>
-0.870401

> <r_i_glide_eff_state_penalty>
0

> <r_i_glide_einternal>
3.96497

> <r_i_glide_emodel>
-43.9727

> <r_i_glide_energy>
-36.8072

> <r_i_glide_erotb>
0.77374

> <r_i_glide_esite>
0

> <r_i_glide_evdw>
-35.9368

> <r_i_glide_gscore>
-5.11683

> <r_i_glide_hbond>
-0.142372

> <r_i_glide_ligand_efficiency>
-0.243659

> <r_i_glide_ligand_efficiency_ln>
-1.26513

> <r_i_glide_ligand_efficiency_sa>
-0.672235

> <r_i_glide_lipo>
-2.78301

> <r_i_glide_metal>
0

> <r_i_glide_rewards>
-1.03778

> <s_i_glide_gridfile>
wee1_glide-grid

> <s_m_Source_File>
wee1_decoys_glide_SP.sdf

> <s_m_Source_Path>
/Users/zhangxujun/Desktop

> <s_m_entry_id>
2536

> <s_m_entry_name>
wee1_decoys_glide_SP.2261

> <s_m_subgroup_title>
wee1_decoys_glide_SP

> <s_m_subgroupid>
wee1_decoys_glide_SP


$$$$
