ZINC58848166_6022
                    3D
 Schrodinger Suite 2024-2.
 60 64  0  0  1  0            999 V2000
    1.3020   53.6498   24.2432 C   0  0  0  0  0  0
    2.7682   53.7298   23.8722 C   0  0  0  0  0  0
    3.6561   54.1842   24.8520 C   0  0  0  0  0  0
    4.9999   54.3783   24.5507 C   0  0  0  0  0  0
    5.4619   54.1172   23.2645 C   0  0  0  0  0  0
    4.5923   53.6399   22.2859 C   0  0  0  0  0  0
    3.2443   53.4297   22.5807 C   0  0  0  0  0  0
    2.4170   52.9774   21.5452 N   0  0  0  0  0  0
    1.9482   51.2858   21.3567 S   0  0  0  0  0  0
    2.9333   50.4758   22.0766 O   0  0  0  0  0  0
    1.6872   51.0893   19.9278 O   0  0  0  0  0  0
    0.3766   51.1550   22.1909 C   0  0  0  0  0  0
   -0.7530   51.6963   21.5829 C   0  0  0  0  0  0
   -1.9562   51.7400   22.2777 C   0  0  0  0  0  0
   -2.0280   51.2752   23.5908 C   0  0  0  0  0  0
   -0.9141   50.6567   24.1974 C   0  0  0  0  0  0
    0.2809   50.5930   23.4655 C   0  0  0  0  0  0
   -0.9874   50.1111   25.6257 C   0  0  1  0  0  0
   -0.8993   49.0240   25.5783 H   0  0  0  0  0  0
    0.0631   50.7126   26.5426 C   0  0  0  0  0  0
   -0.4624   51.6293   27.3736 C   0  0  0  0  0  0
   -1.9581   51.7393   27.1864 C   0  0  0  0  0  0
   -2.2851   50.4995   26.3448 C   0  0  1  0  0  0
   -2.4975   49.6968   27.0525 H   0  0  0  0  0  0
   -3.5382   50.5850   25.4362 C   0  0  2  0  0  0
   -3.7560   49.5816   25.0648 H   0  0  0  0  0  0
   -3.2645   51.3946   24.2468 N   0  0  0  0  0  0
   -4.7807   50.9942   26.2385 C   0  0  0  0  0  0
   -5.3426   50.0781   27.1298 C   0  0  0  0  0  0
   -6.4470   50.4311   27.8990 C   0  0  0  0  0  0
   -7.0161   51.7067   27.7851 C   0  0  0  0  0  0
   -6.4477   52.6268   26.8912 C   0  0  0  0  0  0
   -5.3378   52.2741   26.1293 C   0  0  0  0  0  0
   -8.2152   52.0478   28.6183 C   0  0  0  0  0  0
   -8.6667   51.3029   29.4917 O   0  0  0  0  0  0
   -8.7753   53.2399   28.2902 O   0  0  0  0  0  0
   -9.9778   53.6656   28.9133 C   0  0  0  0  0  0
    7.1078   54.4117   22.8798 Cl  0  0  0  0  0  0
    1.0442   54.4961   24.8744 H   0  0  0  0  0  0
    0.6594   53.7052   23.3678 H   0  0  0  0  0  0
    1.0965   52.7473   24.8132 H   0  0  0  0  0  0
    3.3009   54.4101   25.8468 H   0  0  0  0  0  0
    5.6759   54.7438   25.3091 H   0  0  0  0  0  0
    4.9659   53.4362   21.2925 H   0  0  0  0  0  0
    2.2802   53.5782   20.7429 H   0  0  0  0  0  0
   -0.6889   52.1113   20.5870 H   0  0  0  0  0  0
   -2.8237   52.1738   21.8056 H   0  0  0  0  0  0
    1.1594   50.1591   23.9229 H   0  0  0  0  0  0
    1.1021   50.4324   26.4809 H   0  0  0  0  0  0
    0.0743   52.2154   28.1047 H   0  0  0  0  0  0
   -2.2356   52.6682   26.6870 H   0  0  0  0  0  0
   -2.4858   51.6979   28.1403 H   0  0  0  0  0  0
   -4.0890   51.6448   23.7220 H   0  0  0  0  0  0
   -4.9146   49.0915   27.2382 H   0  0  0  0  0  0
   -6.8549   49.6978   28.5815 H   0  0  0  0  0  0
   -6.8514   53.6228   26.7755 H   0  0  0  0  0  0
   -4.9103   53.0062   25.4608 H   0  0  0  0  0  0
  -10.2696   54.6451   28.5349 H   0  0  0  0  0  0
   -9.8622   53.7300   29.9960 H   0  0  0  0  0  0
  -10.7825   52.9635   28.6995 H   0  0  0  0  0  0
  1  2  1  0  0  0
  1 39  1  0  0  0
  1 40  1  0  0  0
  1 41  1  0  0  0
  2  7  2  0  0  0
  2  3  1  0  0  0
  3  4  2  0  0  0
  3 42  1  0  0  0
  4  5  1  0  0  0
  4 43  1  0  0  0
  5  6  2  0  0  0
  5 38  1  0  0  0
  6  7  1  0  0  0
  6 44  1  0  0  0
  7  8  1  0  0  0
  8  9  1  0  0  0
  8 45  1  0  0  0
  9 10  2  0  0  0
  9 11  2  0  0  0
  9 12  1  0  0  0
 12 17  2  0  0  0
 12 13  1  0  0  0
 13 14  2  0  0  0
 13 46  1  0  0  0
 14 15  1  0  0  0
 14 47  1  0  0  0
 15 27  1  0  0  0
 15 16  2  0  0  0
 16 17  1  0  0  0
 16 18  1  0  0  0
 17 48  1  0  0  0
 18 19  1  0  0  0
 18 23  1  0  0  0
 18 20  1  0  0  0
 20 21  2  0  0  0
 20 49  1  0  0  0
 21 22  1  0  0  0
 21 50  1  0  0  0
 22 23  1  0  0  0
 22 51  1  0  0  0
 22 52  1  0  0  0
 23 24  1  0  0  0
 23 25  1  0  0  0
 25 26  1  0  0  0
 25 27  1  0  0  0
 25 28  1  0  0  0
 27 53  1  0  0  0
 28 33  2  0  0  0
 28 29  1  0  0  0
 29 30  2  0  0  0
 29 54  1  0  0  0
 30 31  1  0  0  0
 30 55  1  0  0  0
 31 32  2  0  0  0
 31 34  1  0  0  0
 32 33  1  0  0  0
 32 56  1  0  0  0
 33 57  1  0  0  0
 34 35  2  0  0  0
 34 36  1  0  0  0
 36 37  1  0  0  0
 37 58  1  0  0  0
 37 59  1  0  0  0
 37 60  1  0  0  0
M  END
> <i_i_glide_confnum>
14

> <i_i_glide_lignum>
6023

> <i_i_glide_posenum>
391

> <i_i_glide_rotatable_bonds>
6

> <i_m_Source_File_Index>
2179

> <b_m_subgroup_collapsed>
0

> <r_i_docking_score>
-3.24872

> <r_i_glide_ecoul>
-0.00100289

> <r_i_glide_eff_state_penalty>
0

> <r_i_glide_einternal>
5.04707

> <r_i_glide_emodel>
-39.3894

> <r_i_glide_energy>
-34.6111

> <r_i_glide_erotb>
0.395161

> <r_i_glide_esite>
-0.0274713

> <r_i_glide_evdw>
-34.6101

> <r_i_glide_gscore>
-3.24872

> <r_i_glide_hbond>
-0.279905

> <r_i_glide_ligand_efficiency>
-0.0928205

> <r_i_glide_ligand_efficiency_ln>
-0.713165

> <r_i_glide_ligand_efficiency_sa>
-0.303622

> <r_i_glide_lipo>
-1.63489

> <r_i_glide_metal>
0

> <r_i_glide_rewards>
0.0290402

> <s_i_glide_gridfile>
wee1_glide-grid

> <s_m_Source_File>
wee1_decoys_glide_SP.sdf

> <s_m_Source_Path>
/Users/zhangxujun/Desktop

> <s_m_entry_id>
2454

> <s_m_entry_name>
wee1_decoys_glide_SP.2179

> <s_m_subgroup_title>
wee1_decoys_glide_SP

> <s_m_subgroupid>
wee1_decoys_glide_SP


$$$$
