ZINC16608357_3003
                    3D
 Schrodinger Suite 2024-2.
 61 64  0  0  1  0            999 V2000
    3.5563   50.4651   13.6526 C   0  0  0  0  0  0
    2.4308   51.3169   13.8267 O   0  0  0  0  0  0
    2.4000   52.1837   14.9021 C   0  0  0  0  0  0
    3.4181   52.3030   15.8612 C   0  0  0  0  0  0
    3.3138   53.2264   16.9041 C   0  0  0  0  0  0
    2.1562   54.0122   17.0063 C   0  0  0  0  0  0
    1.1286   53.9105   16.0576 C   0  0  0  0  0  0
    1.2695   52.9948   15.0145 C   0  0  0  0  0  0
   -0.0305   54.6606   16.0741 O   0  0  0  0  0  0
   -0.2059   55.6398   17.0946 C   0  0  0  0  0  0
    4.3867   53.2970   17.8148 N   0  0  0  0  0  0
    4.7849   54.3837   18.5178 C   0  0  0  0  0  0
    4.2376   55.4843   18.4813 O   0  0  0  0  0  0
    5.8741   54.1277   19.2628 N   0  0  0  0  0  0
    6.3656   54.8645   20.4486 C   0  0  1  0  0  0
    7.3795   54.5022   20.5884 H   0  0  0  0  0  0
    6.4899   56.4052   20.2368 C   0  0  0  0  0  0
    7.3522   56.8851   19.0780 C   0  0  0  0  0  0
    6.8933   57.9396   18.2563 C   0  0  0  0  0  0
    7.7124   58.4543   17.2622 C   0  0  0  0  0  0
    8.9930   57.9490   17.0794 C   0  0  0  0  0  0
    9.4706   56.9299   17.8965 C   0  0  0  0  0  0
    8.6677   56.4005   18.8978 C   0  0  0  0  0  0
    5.5820   54.5329   21.7454 C   0  0  0  0  0  0
    4.3905   54.2295   21.6855 O   0  0  0  0  0  0
    6.3054   54.6573   22.8822 N   0  0  0  0  0  0
    5.8751   54.4987   24.1927 C   0  0  0  0  0  0
    6.7045   54.6644   25.1904 N   0  0  0  0  0  0
    6.1220   54.4263   26.4259 N   0  0  0  0  0  0
    4.8512   54.0986   26.3427 C   0  0  0  0  0  0
    4.2470   54.0977   24.7004 S   0  0  0  0  0  0
    4.0013   53.7028   27.5145 C   0  0  0  0  0  0
    4.6099   53.3105   28.7148 C   0  0  0  0  0  0
    3.8356   52.9029   29.7971 C   0  0  0  0  0  0
    2.4481   52.8950   29.6890 C   0  0  0  0  0  0
    1.8284   53.2939   28.5076 C   0  0  0  0  0  0
    2.6030   53.6958   27.4229 C   0  0  0  0  0  0
    1.7007   52.4980   30.7423 F   0  0  0  0  0  0
    3.4187   49.8741   12.7461 H   0  0  0  0  0  0
    4.4811   51.0311   13.5354 H   0  0  0  0  0  0
    3.6650   49.7668   14.4813 H   0  0  0  0  0  0
    4.3017   51.6871   15.8046 H   0  0  0  0  0  0
    2.0542   54.6983   17.8303 H   0  0  0  0  0  0
    0.4841   52.9054   14.2792 H   0  0  0  0  0  0
   -1.1526   56.1591   16.9436 H   0  0  0  0  0  0
   -0.2366   55.1776   18.0817 H   0  0  0  0  0  0
    0.5863   56.3907   17.0747 H   0  0  0  0  0  0
    4.9273   52.4441   17.8938 H   0  0  0  0  0  0
    6.3732   53.2754   19.0601 H   0  0  0  0  0  0
    5.5041   56.8413   20.1083 H   0  0  0  0  0  0
    6.8813   56.8877   21.1342 H   0  0  0  0  0  0
    5.9070   58.3578   18.3947 H   0  0  0  0  0  0
    7.3505   59.2593   16.6367 H   0  0  0  0  0  0
    9.6270   58.3560   16.3055 H   0  0  0  0  0  0
   10.4739   56.5509   17.7633 H   0  0  0  0  0  0
    9.0684   55.6312   19.5412 H   0  0  0  0  0  0
    7.2808   54.9096   22.7887 H   0  0  0  0  0  0
    5.6868   53.3054   28.8093 H   0  0  0  0  0  0
    4.3016   52.5871   30.7176 H   0  0  0  0  0  0
    0.7511   53.2816   28.4334 H   0  0  0  0  0  0
    2.1074   53.9964   26.5110 H   0  0  0  0  0  0
  1  2  1  0  0  0
  1 39  1  0  0  0
  1 40  1  0  0  0
  1 41  1  0  0  0
  2  3  1  0  0  0
  3  8  2  0  0  0
  3  4  1  0  0  0
  4  5  2  0  0  0
  4 42  1  0  0  0
  5  6  1  0  0  0
  5 11  1  0  0  0
  6  7  2  0  0  0
  6 43  1  0  0  0
  7  8  1  0  0  0
  7  9  1  0  0  0
  8 44  1  0  0  0
  9 10  1  0  0  0
 10 45  1  0  0  0
 10 46  1  0  0  0
 10 47  1  0  0  0
 11 12  1  0  0  0
 11 48  1  0  0  0
 12 13  2  0  0  0
 12 14  1  0  0  0
 14 15  1  0  0  0
 14 49  1  0  0  0
 15 16  1  0  0  0
 15 17  1  0  0  0
 15 24  1  0  0  0
 17 18  1  0  0  0
 17 50  1  0  0  0
 17 51  1  0  0  0
 18 23  2  0  0  0
 18 19  1  0  0  0
 19 20  2  0  0  0
 19 52  1  0  0  0
 20 21  1  0  0  0
 20 53  1  0  0  0
 21 22  2  0  0  0
 21 54  1  0  0  0
 22 23  1  0  0  0
 22 55  1  0  0  0
 23 56  1  0  0  0
 24 25  2  0  0  0
 24 26  1  0  0  0
 26 27  1  0  0  0
 26 57  1  0  0  0
 27 31  1  0  0  0
 27 28  2  0  0  0
 28 29  1  0  0  0
 29 30  2  0  0  0
 30 31  1  0  0  0
 30 32  1  0  0  0
 32 37  2  0  0  0
 32 33  1  0  0  0
 33 34  2  0  0  0
 33 58  1  0  0  0
 34 35  1  0  0  0
 34 59  1  0  0  0
 35 36  2  0  0  0
 35 38  1  0  0  0
 36 37  1  0  0  0
 36 60  1  0  0  0
 37 61  1  0  0  0
M  END
> <i_i_glide_confnum>
102

> <i_i_glide_lignum>
3004

> <i_i_glide_posenum>
244

> <i_i_glide_rotatable_bonds>
12

> <i_m_Source_File_Index>
3999

> <b_m_subgroup_collapsed>
0

> <r_i_docking_score>
-4.72545

> <r_i_glide_ecoul>
-2.23091

> <r_i_glide_eff_state_penalty>
0

> <r_i_glide_einternal>
11.4131

> <r_i_glide_emodel>
-59.8556

> <r_i_glide_energy>
-50.35

> <r_i_glide_erotb>
0.680166

> <r_i_glide_esite>
-0.117595

> <r_i_glide_evdw>
-48.1191

> <r_i_glide_gscore>
-4.72545

> <r_i_glide_hbond>
-0.118506

> <r_i_glide_ligand_efficiency>
-0.127715

> <r_i_glide_ligand_efficiency_ln>
-1.02484

> <r_i_glide_ligand_efficiency_sa>
-0.425574

> <r_i_glide_lipo>
-2.21441

> <r_i_glide_metal>
0

> <r_i_glide_rewards>
-0.214513

> <s_i_glide_gridfile>
wee1_glide-grid

> <s_m_Source_File>
wee1_decoys_glide_SP.sdf

> <s_m_Source_Path>
/Users/zhangxujun/Desktop

> <s_m_entry_id>
4274

> <s_m_entry_name>
wee1_decoys_glide_SP.3999

> <s_m_subgroup_title>
wee1_decoys_glide_SP

> <s_m_subgroupid>
wee1_decoys_glide_SP


$$$$
