ZINC09159190_1166
                    3D
 Schrodinger Suite 2024-2.
 59 64  0  0  1  0            999 V2000
    7.0896   54.2895   23.8481 C   0  0  0  0  0  0
    6.0591   54.4243   22.8749 O   0  0  0  0  0  0
    6.3648   54.9016   21.6122 C   0  0  0  0  0  0
    7.5637   55.5696   21.3167 C   0  0  0  0  0  0
    7.8337   56.0367   20.0315 C   0  0  0  0  0  0
    6.8836   55.8893   19.0258 C   0  0  0  0  0  0
    5.6736   55.2573   19.3001 C   0  0  0  0  0  0
    5.4215   54.7465   20.5771 C   0  0  0  0  0  0
    4.1976   54.0971   20.7678 N   0  0  0  0  0  0
    4.0470   52.8447   21.2384 C   0  0  0  0  0  0
    4.9810   52.0975   21.5487 O   0  0  0  0  0  0
    2.5805   52.3703   21.3615 C   0  0  2  0  0  0
    2.0824   52.5611   20.4074 H   0  0  0  0  0  0
    1.7289   52.9362   22.5377 C   0  0  1  0  0  0
    1.1064   53.7407   22.1533 H   0  0  0  0  0  0
    0.9068   51.8144   23.0758 C   0  0  1  0  0  0
   -0.1398   51.9685   22.8061 H   0  0  0  0  0  0
    1.4520   50.4630   22.5325 C   0  0  1  0  0  0
    2.0068   49.8892   23.2821 H   0  0  0  0  0  0
    2.6725   50.1001   20.2589 C   0  0  0  0  0  0
    1.7401   49.2145   19.8933 C   0  0  0  0  0  0
    0.5602   48.9029   20.6974 C   0  0  0  0  0  0
    0.3949   49.4985   21.9595 C   0  0  0  0  0  0
   -0.7470   49.1588   22.7016 C   0  0  0  0  0  0
   -1.7111   48.2867   22.1961 C   0  0  0  0  0  0
   -1.5444   47.7288   20.9310 C   0  0  0  0  0  0
   -0.4102   48.0371   20.1818 C   0  0  0  0  0  0
    1.0468   51.9208   24.5876 C   0  0  0  0  0  0
    0.4272   51.1959   25.3642 O   0  0  0  0  0  0
    1.9266   52.9225   24.8938 N   0  0  0  0  0  0
    2.4030   53.5379   23.7714 C   0  0  0  0  0  0
    3.1694   54.4966   23.7163 O   0  0  0  0  0  0
    2.3040   53.2944   26.2287 C   0  0  0  0  0  0
    3.6205   53.6991   26.5203 C   0  0  0  0  0  0
    3.9812   54.0948   27.8067 C   0  0  0  0  0  0
    3.0331   54.0851   28.8233 C   0  0  0  0  0  0
    1.7302   53.6711   28.5664 C   0  0  0  0  0  0
    1.3690   53.2801   27.2800 C   0  0  0  0  0  0
    3.3804   54.4775   30.0691 F   0  0  0  0  0  0
    7.2057   56.4901   17.4402 Cl  0  0  0  0  0  0
    6.6804   53.8078   24.7363 H   0  0  0  0  0  0
    7.9011   53.6587   23.4810 H   0  0  0  0  0  0
    7.4908   55.2557   24.1561 H   0  0  0  0  0  0
    8.3055   55.7261   22.0807 H   0  0  0  0  0  0
    8.7783   56.5166   19.8179 H   0  0  0  0  0  0
    4.9457   55.1414   18.5087 H   0  0  0  0  0  0
    3.3729   54.5699   20.4183 H   0  0  0  0  0  0
    3.5343   50.3203   19.6337 H   0  0  0  0  0  0
    1.8769   48.7162   18.9427 H   0  0  0  0  0  0
   -0.8941   49.5780   23.6865 H   0  0  0  0  0  0
   -2.5864   48.0490   22.7874 H   0  0  0  0  0  0
   -2.2929   47.0596   20.5319 H   0  0  0  0  0  0
   -0.2888   47.5990   19.2012 H   0  0  0  0  0  0
    4.3843   53.7047   25.7564 H   0  0  0  0  0  0
    4.9913   54.4098   28.0175 H   0  0  0  0  0  0
    1.0003   53.6579   29.3622 H   0  0  0  0  0  0
    0.3458   52.9778   27.1133 H   0  0  0  0  0  0
    2.5926   50.8374   21.5338 N   0  3  1  0  0  0
    3.4527   50.6434   22.0300 H   0  0  0  0  0  0
  1  2  1  0  0  0
  1 41  1  0  0  0
  1 42  1  0  0  0
  1 43  1  0  0  0
  2  3  1  0  0  0
  3  8  2  0  0  0
  3  4  1  0  0  0
  4  5  2  0  0  0
  4 44  1  0  0  0
  5  6  1  0  0  0
  5 45  1  0  0  0
  6  7  2  0  0  0
  6 40  1  0  0  0
  7  8  1  0  0  0
  7 46  1  0  0  0
  8  9  1  0  0  0
  9 10  1  0  0  0
  9 47  1  0  0  0
 10 11  2  0  0  0
 10 12  1  0  0  0
 12 13  1  0  0  0
 12 14  1  0  0  0
 12 58  1  0  0  0
 14 15  1  0  0  0
 14 31  1  0  0  0
 14 16  1  0  0  0
 16 17  1  0  0  0
 16 18  1  0  0  0
 16 28  1  0  0  0
 18 19  1  0  0  0
 18 23  1  0  0  0
 18 58  1  0  0  0
 20 21  2  0  0  0
 20 48  1  0  0  0
 20 58  1  0  0  0
 21 22  1  0  0  0
 21 49  1  0  0  0
 22 27  2  0  0  0
 22 23  1  0  0  0
 23 24  2  0  0  0
 24 25  1  0  0  0
 24 50  1  0  0  0
 25 26  2  0  0  0
 25 51  1  0  0  0
 26 27  1  0  0  0
 26 52  1  0  0  0
 27 53  1  0  0  0
 28 29  2  0  0  0
 28 30  1  0  0  0
 30 31  1  0  0  0
 30 33  1  0  0  0
 31 32  2  0  0  0
 33 38  2  0  0  0
 33 34  1  0  0  0
 34 35  2  0  0  0
 34 54  1  0  0  0
 35 36  1  0  0  0
 35 55  1  0  0  0
 36 37  2  0  0  0
 36 39  1  0  0  0
 37 38  1  0  0  0
 37 56  1  0  0  0
 38 57  1  0  0  0
 58 59  1  0  0  0
M  CHG  1  58   1
M  END
> <i_i_glide_confnum>
11

> <i_i_glide_lignum>
1167

> <i_i_glide_posenum>
380

> <i_i_glide_rotatable_bonds>
5

> <i_m_Source_File_Index>
5952

> <b_m_subgroup_collapsed>
0

> <r_i_docking_score>
-6.50482

> <r_i_glide_ecoul>
-7.27404

> <r_i_glide_eff_state_penalty>
0

> <r_i_glide_einternal>
2.48039

> <r_i_glide_emodel>
-70.9682

> <r_i_glide_energy>
-52.458

> <r_i_glide_erotb>
0.305109

> <r_i_glide_esite>
-0.0604201

> <r_i_glide_evdw>
-45.184

> <r_i_glide_gscore>
-6.50482

> <r_i_glide_hbond>
-0.265856

> <r_i_glide_ligand_efficiency>
-0.175806

> <r_i_glide_ligand_efficiency_ln>
-1.41074

> <r_i_glide_ligand_efficiency_sa>
-0.585824

> <r_i_glide_lipo>
-2.30653

> <r_i_glide_metal>
0

> <r_i_glide_rewards>
-0.826821

> <s_i_glide_gridfile>
wee1_glide-grid

> <s_m_Source_File>
wee1_decoys_glide_SP.sdf

> <s_m_Source_Path>
/Users/zhangxujun/Desktop

> <s_m_entry_id>
6227

> <s_m_entry_name>
wee1_decoys_glide_SP.5952

> <s_m_subgroup_title>
wee1_decoys_glide_SP

> <s_m_subgroupid>
wee1_decoys_glide_SP


$$$$
