ZINC18058732_3625
                    3D
 Schrodinger Suite 2024-2.
 65 69  0  0  1  0            999 V2000
    7.0704   55.2414   22.9424 C   0  0  0  0  0  0
    7.1037   55.3459   24.3681 O   0  0  0  0  0  0
    6.0166   54.9060   25.0962 C   0  0  0  0  0  0
    4.8047   54.4962   24.5277 C   0  0  0  0  0  0
    3.7441   54.1000   25.3322 C   0  0  0  0  0  0
    3.8675   54.0869   26.7275 C   0  0  0  0  0  0
    5.0855   54.4963   27.2896 C   0  0  0  0  0  0
    6.1473   54.8957   26.4832 C   0  0  0  0  0  0
    2.7160   53.6013   27.6441 C   0  0  1  0  0  0
    3.2630   52.5290   28.6383 C   0  0  0  0  0  0
    2.1647   52.0168   29.5874 C   0  0  1  0  0  0
    2.6012   51.2975   30.2709 H   0  0  0  0  0  0
    1.6399   53.2142   30.3980 C   0  0  0  0  0  0
    1.0230   54.2663   29.4562 C   0  0  1  0  0  0
    0.6415   55.1021   30.0459 H   0  0  0  0  0  0
    2.1176   54.7789   28.4759 C   0  0  0  0  0  0
   -0.1351   53.6021   28.6777 C   0  0  0  0  0  0
    0.4085   52.4222   27.8107 C   0  0  2  0  0  0
    1.0379   51.3600   28.7596 C   0  0  0  0  0  0
    1.5264   52.9460   26.8557 C   0  0  0  0  0  0
   -0.7318   51.8232   26.9322 C   0  0  0  0  0  0
   -1.4858   52.5583   26.2989 O   0  0  0  0  0  0
   -0.8637   50.4962   26.8245 N   0  0  0  0  0  0
   -0.2229   49.7210   25.7635 C   0  0  0  0  0  0
   -0.6290   50.0881   24.3153 C   0  0  0  0  0  0
    0.4950   50.7092   23.4939 C   0  0  0  0  0  0
    0.6138   52.0971   23.3753 C   0  0  0  0  0  0
    1.6405   52.6472   22.6053 C   0  0  0  0  0  0
    2.5506   51.8055   21.9575 C   0  0  0  0  0  0
    2.4221   50.4206   22.0670 C   0  0  0  0  0  0
    1.4040   49.8752   22.8415 C   0  0  0  0  0  0
    3.9084   52.4747   20.9935 S   0  0  0  0  0  0
    3.8944   53.9337   21.1330 O   0  0  0  0  0  0
    5.1017   51.6978   21.3433 O   0  0  0  0  0  0
    3.5047   52.0938   19.3416 N   0  0  0  0  0  0
    7.9041   55.7737   22.4960 H   0  0  0  0  0  0
    7.1226   54.1987   22.6284 H   0  0  0  0  0  0
    6.1856   55.6943   22.5031 H   0  0  0  0  0  0
    4.6589   54.4822   23.4612 H   0  0  0  0  0  0
    2.8369   53.7938   24.8393 H   0  0  0  0  0  0
    5.2244   54.5221   28.3598 H   0  0  0  0  0  0
    7.0716   55.2085   26.9450 H   0  0  0  0  0  0
    3.6673   51.6979   28.0835 H   0  0  0  0  0  0
    4.0887   52.9120   29.2385 H   0  0  0  0  0  0
    0.9314   52.8970   31.1657 H   0  0  0  0  0  0
    2.4942   53.6567   30.8865 H   0  0  0  0  0  0
    2.9033   55.2865   29.0364 H   0  0  0  0  0  0
    1.6943   55.5337   27.8139 H   0  0  0  0  0  0
   -0.6266   54.3646   28.0810 H   0  0  0  0  0  0
   -0.8961   53.2402   29.3750 H   0  0  0  0  0  0
    0.2770   50.9316   29.4145 H   0  0  0  0  0  0
    1.4606   50.5319   28.1866 H   0  0  0  0  0  0
    1.8917   52.1200   26.2403 H   0  0  0  0  0  0
    1.1073   53.6791   26.1654 H   0  0  0  0  0  0
   -1.0203   49.9440   27.6682 H   0  0  0  0  0  0
   -0.5932   48.7099   25.9463 H   0  0  0  0  0  0
    0.8549   49.5993   25.8913 H   0  0  0  0  0  0
   -1.5196   50.7189   24.2955 H   0  0  0  0  0  0
   -0.9663   49.1870   23.8002 H   0  0  0  0  0  0
   -0.0872   52.7472   23.8792 H   0  0  0  0  0  0
    1.7279   53.7217   22.5149 H   0  0  0  0  0  0
    3.1119   49.7631   21.5570 H   0  0  0  0  0  0
    1.3244   48.8030   22.9350 H   0  0  0  0  0  0
    3.2362   52.9063   18.7844 H   0  0  0  0  0  0
    4.1649   51.4490   18.8731 H   0  0  0  0  0  0
  1  2  1  0  0  0
  1 36  1  0  0  0
  1 37  1  0  0  0
  1 38  1  0  0  0
  2  3  1  0  0  0
  3  8  2  0  0  0
  3  4  1  0  0  0
  4  5  2  0  0  0
  4 39  1  0  0  0
  5  6  1  0  0  0
  5 40  1  0  0  0
  6  7  2  0  0  0
  6  9  1  0  0  0
  7  8  1  0  0  0
  7 41  1  0  0  0
  8 42  1  0  0  0
  9 16  1  0  0  0
  9 20  1  0  0  0
  9 10  1  0  0  0
 10 11  1  0  0  0
 10 43  1  0  0  0
 10 44  1  0  0  0
 11 12  1  0  0  0
 11 19  1  0  0  0
 11 13  1  0  0  0
 13 14  1  0  0  0
 13 45  1  0  0  0
 13 46  1  0  0  0
 14 15  1  0  0  0
 14 16  1  0  0  0
 14 17  1  0  0  0
 16 47  1  0  0  0
 16 48  1  0  0  0
 17 18  1  0  0  0
 17 49  1  0  0  0
 17 50  1  0  0  0
 18 19  1  0  0  0
 18 20  1  0  0  0
 18 21  1  0  0  0
 19 51  1  0  0  0
 19 52  1  0  0  0
 20 53  1  0  0  0
 20 54  1  0  0  0
 21 22  2  0  0  0
 21 23  1  0  0  0
 23 24  1  0  0  0
 23 55  1  0  0  0
 24 25  1  0  0  0
 24 56  1  0  0  0
 24 57  1  0  0  0
 25 26  1  0  0  0
 25 58  1  0  0  0
 25 59  1  0  0  0
 26 31  2  0  0  0
 26 27  1  0  0  0
 27 28  2  0  0  0
 27 60  1  0  0  0
 28 29  1  0  0  0
 28 61  1  0  0  0
 29 30  2  0  0  0
 29 32  1  0  0  0
 30 31  1  0  0  0
 30 62  1  0  0  0
 31 63  1  0  0  0
 32 33  2  0  0  0
 32 34  2  0  0  0
 32 35  1  0  0  0
 35 64  1  0  0  0
 35 65  1  0  0  0
M  END
> <i_i_glide_confnum>
108

> <i_i_glide_lignum>
3626

> <i_i_glide_posenum>
290

> <i_i_glide_rotatable_bonds>
8

> <i_m_Source_File_Index>
2362

> <b_m_subgroup_collapsed>
0

> <r_i_docking_score>
-0.693829

> <r_i_glide_ecoul>
-6.30395

> <r_i_glide_eff_state_penalty>
0

> <r_i_glide_einternal>
25.2021

> <r_i_glide_emodel>
-19.2209

> <r_i_glide_energy>
-48.1263

> <r_i_glide_erotb>
0.551687

> <r_i_glide_esite>
-0.223938

> <r_i_glide_evdw>
-41.8223

> <r_i_glide_gscore>
-0.693829

> <r_i_glide_hbond>
-0.33366

> <r_i_glide_ligand_efficiency>
-0.0210251

> <r_i_glide_ligand_efficiency_ln>
-0.154304

> <r_i_glide_ligand_efficiency_sa>
-0.0674388

> <r_i_glide_lipo>
-3.64534

> <r_i_glide_metal>
0

> <r_i_glide_rewards>
5.99413

> <s_i_glide_gridfile>
wee1_glide-grid

> <s_m_Source_File>
wee1_decoys_glide_SP.sdf

> <s_m_Source_Path>
/Users/zhangxujun/Desktop

> <s_m_entry_id>
2637

> <s_m_entry_name>
wee1_decoys_glide_SP.2362

> <s_m_subgroup_title>
wee1_decoys_glide_SP

> <s_m_subgroupid>
wee1_decoys_glide_SP


$$$$
