ZINC36311222_734
                    3D
 Schrodinger Suite 2024-2.
 71 74  0  0  1  0            999 V2000
    4.3687   54.3140   29.0827 C   0  0  0  0  0  0
    3.0155   53.9920   28.3929 C   0  0  0  0  0  0
    2.5335   52.6347   28.9723 C   0  0  0  0  0  0
    2.0024   55.0959   28.7810 C   0  0  0  0  0  0
    3.1235   53.9092   26.8464 C   0  0  0  0  0  0
    2.0257   53.4569   26.0984 C   0  0  0  0  0  0
    2.0918   53.3604   24.7112 C   0  0  0  0  0  0
    3.2684   53.6970   24.0320 C   0  0  0  0  0  0
    4.3571   54.1835   24.7688 C   0  0  0  0  0  0
    4.2847   54.2845   26.1541 C   0  0  0  0  0  0
    3.3756   53.6020   22.5208 C   0  0  0  0  0  0
    3.9749   54.4961   21.9212 O   0  0  0  0  0  0
    2.8010   52.5486   21.8700 N   0  0  0  0  0  0
    2.6145   51.2130   22.4740 C   0  0  0  0  0  0
    1.2051   50.6982   22.1469 C   0  0  0  0  0  0
    0.8954   50.7785   20.6260 N   0  3  0  0  0  0
    1.2026   52.1907   20.0683 C   0  0  0  0  0  0
    2.6596   52.5741   20.3981 C   0  0  0  0  0  0
   -0.5302   50.2247   20.2813 C   0  0  2  0  0  0
   -0.4758   49.2072   20.6753 H   0  0  0  0  0  0
   -0.7421   50.1353   18.7429 C   0  0  0  0  0  0
    0.3737   49.3859   17.9915 C   0  0  0  0  0  0
   -0.2399   49.0082   16.6451 C   0  0  0  0  0  0
   -1.7234   48.7523   16.9352 C   0  0  0  0  0  0
   -2.0125   49.3721   18.3140 C   0  0  0  0  0  0
   -1.6256   51.0185   21.0424 C   0  0  0  0  0  0
   -2.0366   52.0961   20.6017 O   0  0  0  0  0  0
   -2.0103   50.4668   22.2128 N   0  0  0  0  0  0
   -2.7347   51.0397   23.2717 C   0  0  0  0  0  0
   -3.2507   50.1508   24.2201 C   0  0  0  0  0  0
   -3.9642   50.6301   25.3134 C   0  0  0  0  0  0
   -4.1589   52.0017   25.4651 C   0  0  0  0  0  0
   -3.6212   52.8988   24.5424 C   0  0  0  0  0  0
   -2.8966   52.4224   23.4529 C   0  0  0  0  0  0
   -5.0684   52.5907   26.8081 Cl  0  0  0  0  0  0
    4.2770   54.3244   30.1677 H   0  0  0  0  0  0
    4.7530   55.2932   28.7990 H   0  0  0  0  0  0
    5.1318   53.5755   28.8381 H   0  0  0  0  0  0
    1.5309   52.3698   28.6349 H   0  0  0  0  0  0
    3.1980   51.8205   28.6847 H   0  0  0  0  0  0
    2.4941   52.6538   30.0624 H   0  0  0  0  0  0
    1.0053   54.8906   28.3895 H   0  0  0  0  0  0
    1.9046   55.1875   29.8641 H   0  0  0  0  0  0
    2.3043   56.0723   28.4022 H   0  0  0  0  0  0
    1.1042   53.1850   26.5893 H   0  0  0  0  0  0
    1.2164   53.0261   24.1708 H   0  0  0  0  0  0
    5.2707   54.4741   24.2700 H   0  0  0  0  0  0
    5.1551   54.6565   26.6729 H   0  0  0  0  0  0
    3.3583   50.5199   22.0825 H   0  0  0  0  0  0
    2.7039   51.2194   23.5586 H   0  0  0  0  0  0
    0.4566   51.2447   22.7196 H   0  0  0  0  0  0
    1.1501   49.6394   22.4068 H   0  0  0  0  0  0
    0.4766   52.8989   20.4599 H   0  0  0  0  0  0
    1.1011   52.1394   18.9858 H   0  0  0  0  0  0
    2.9013   53.5485   19.9689 H   0  0  0  0  0  0
    3.3587   51.8682   19.9408 H   0  0  0  0  0  0
   -0.8098   51.1258   18.2908 H   0  0  0  0  0  0
    1.3041   49.9493   17.9099 H   0  0  0  0  0  0
    0.6233   48.4674   18.5238 H   0  0  0  0  0  0
   -0.1357   49.8426   15.9507 H   0  0  0  0  0  0
    0.2562   48.1513   16.1912 H   0  0  0  0  0  0
   -2.3524   49.1909   16.1598 H   0  0  0  0  0  0
   -1.9353   47.6814   16.9425 H   0  0  0  0  0  0
   -2.1971   48.5418   19.0004 H   0  0  0  0  0  0
   -2.9046   50.0015   18.3253 H   0  0  0  0  0  0
   -1.7181   49.5170   22.3855 H   0  0  0  0  0  0
   -3.1040   49.0844   24.1200 H   0  0  0  0  0  0
   -4.3639   49.9390   26.0442 H   0  0  0  0  0  0
   -3.7646   53.9622   24.6725 H   0  0  0  0  0  0
   -2.4766   53.1378   22.7622 H   0  0  0  0  0  0
    1.5619   50.1642   20.1737 H   0  0  0  0  0  0
  1  2  1  0  0  0
  1 36  1  0  0  0
  1 37  1  0  0  0
  1 38  1  0  0  0
  2  3  1  0  0  0
  2  4  1  0  0  0
  2  5  1  0  0  0
  3 39  1  0  0  0
  3 40  1  0  0  0
  3 41  1  0  0  0
  4 42  1  0  0  0
  4 43  1  0  0  0
  4 44  1  0  0  0
  5 10  2  0  0  0
  5  6  1  0  0  0
  6  7  2  0  0  0
  6 45  1  0  0  0
  7  8  1  0  0  0
  7 46  1  0  0  0
  8  9  2  0  0  0
  8 11  1  0  0  0
  9 10  1  0  0  0
  9 47  1  0  0  0
 10 48  1  0  0  0
 11 12  2  0  0  0
 11 13  1  0  0  0
 13 18  1  0  0  0
 13 14  1  0  0  0
 14 15  1  0  0  0
 14 49  1  0  0  0
 14 50  1  0  0  0
 15 16  1  0  0  0
 15 51  1  0  0  0
 15 52  1  0  0  0
 16 17  1  0  0  0
 16 19  1  0  0  0
 16 71  1  0  0  0
 17 18  1  0  0  0
 17 53  1  0  0  0
 17 54  1  0  0  0
 18 55  1  0  0  0
 18 56  1  0  0  0
 19 20  1  0  0  0
 19 21  1  0  0  0
 19 26  1  0  0  0
 21 25  1  0  0  0
 21 22  1  0  0  0
 21 57  1  0  0  0
 22 23  1  0  0  0
 22 58  1  0  0  0
 22 59  1  0  0  0
 23 24  1  0  0  0
 23 60  1  0  0  0
 23 61  1  0  0  0
 24 25  1  0  0  0
 24 62  1  0  0  0
 24 63  1  0  0  0
 25 64  1  0  0  0
 25 65  1  0  0  0
 26 27  2  0  0  0
 26 28  1  0  0  0
 28 29  1  0  0  0
 28 66  1  0  0  0
 29 34  2  0  0  0
 29 30  1  0  0  0
 30 31  2  0  0  0
 30 67  1  0  0  0
 31 32  1  0  0  0
 31 68  1  0  0  0
 32 33  2  0  0  0
 32 35  1  0  0  0
 33 34  1  0  0  0
 33 69  1  0  0  0
 34 70  1  0  0  0
M  CHG  1  16   1
M  END
> <i_i_glide_confnum>
323

> <i_i_glide_lignum>
735

> <i_i_glide_posenum>
73

> <i_i_glide_rotatable_bonds>
8

> <i_m_Source_File_Index>
4319

> <b_m_subgroup_collapsed>
0

> <r_i_docking_score>
-4.94264

> <r_i_glide_ecoul>
-4.17158

> <r_i_glide_eff_state_penalty>
0

> <r_i_glide_einternal>
8.03325

> <r_i_glide_emodel>
-47.1417

> <r_i_glide_energy>
-37.588

> <r_i_glide_erotb>
0.521909

> <r_i_glide_esite>
-0.00686752

> <r_i_glide_evdw>
-33.4164

> <r_i_glide_gscore>
-4.94264

> <r_i_glide_hbond>
-0.274462

> <r_i_glide_ligand_efficiency>
-0.145372

> <r_i_glide_ligand_efficiency_ln>
-1.09197

> <r_i_glide_ligand_efficiency_sa>
-0.470948

> <r_i_glide_lipo>
-2.61877

> <r_i_glide_metal>
0

> <r_i_glide_rewards>
-0.267898

> <s_i_glide_gridfile>
wee1_glide-grid

> <s_m_Source_File>
wee1_decoys_glide_SP.sdf

> <s_m_Source_Path>
/Users/zhangxujun/Desktop

> <s_m_entry_id>
4594

> <s_m_entry_name>
wee1_decoys_glide_SP.4319

> <s_m_subgroup_title>
wee1_decoys_glide_SP

> <s_m_subgroupid>
wee1_decoys_glide_SP


$$$$
