ZINC22916689_5240
                    3D
 Schrodinger Suite 2024-2.
 61 64  0  0  1  0            999 V2000
   -0.6165   49.7188   22.9511 C   0  0  0  0  0  0
   -1.1244   50.5888   21.9895 C   0  0  0  0  0  0
   -0.2974   51.0509   20.9684 C   0  0  0  0  0  0
    1.0430   50.6457   20.9069 C   0  0  0  0  0  0
    1.5336   49.7521   21.8690 C   0  0  0  0  0  0
    0.7092   49.2977   22.8944 C   0  0  0  0  0  0
    1.9937   51.1511   19.8043 C   0  0  0  0  0  0
    1.3524   51.3295   18.4253 C   0  0  0  0  0  0
    0.6694   52.5084   18.0996 C   0  0  0  0  0  0
    0.1218   52.6729   16.8303 C   0  0  0  0  0  0
    0.2657   51.6629   15.8817 C   0  0  0  0  0  0
    0.9560   50.4932   16.1908 C   0  0  0  0  0  0
    1.5034   50.3294   17.4600 C   0  0  0  0  0  0
    2.8440   52.4052   20.1764 N   0  3  0  0  0  0
    4.3057   52.2651   19.6814 C   0  0  0  0  0  0
    5.1531   53.4957   20.0790 C   0  0  0  0  0  0
    5.0857   53.7478   21.5297 N   0  0  0  0  0  0
    3.6876   54.0519   21.8845 C   0  0  0  0  0  0
    2.7981   52.8195   21.6627 C   0  0  0  0  0  0
    6.0335   54.8002   21.9447 C   0  0  0  0  0  0
    6.5417   54.7303   23.4294 C   0  0  1  0  0  0
    7.0502   55.6686   23.6570 H   0  0  0  0  0  0
    5.4423   54.5242   24.4886 C   0  0  0  0  0  0
    5.8581   54.6313   25.8499 O   0  0  0  0  0  0
    4.8968   54.4019   26.8247 C   0  0  0  0  0  0
    5.3029   54.4969   28.1567 C   0  0  0  0  0  0
    4.3893   54.3025   29.1917 C   0  0  0  0  0  0
    3.0659   53.9861   28.8997 C   0  0  0  0  0  0
    2.6437   53.8802   27.5805 C   0  0  0  0  0  0
    3.5507   54.0933   26.5484 C   0  0  0  0  0  0
    1.8196   53.6899   30.3060 Br  0  0  0  0  0  0
    7.5043   53.6967   23.5674 O   0  0  0  0  0  0
   -1.2551   49.3658   23.7484 H   0  0  0  0  0  0
   -2.1562   50.9046   22.0387 H   0  0  0  0  0  0
   -0.7069   51.7294   20.2371 H   0  0  0  0  0  0
    2.5615   49.4182   21.8371 H   0  0  0  0  0  0
    1.0987   48.6242   23.6454 H   0  0  0  0  0  0
    2.7460   50.3661   19.6906 H   0  0  0  0  0  0
    0.5607   53.2976   18.8291 H   0  0  0  0  0  0
   -0.4059   53.5816   16.5795 H   0  0  0  0  0  0
   -0.1530   51.7908   14.8942 H   0  0  0  0  0  0
    1.0806   49.7188   15.4480 H   0  0  0  0  0  0
    2.0571   49.4271   17.6814 H   0  0  0  0  0  0
    4.7113   51.3418   20.0976 H   0  0  0  0  0  0
    4.2410   52.1866   18.5942 H   0  0  0  0  0  0
    4.7702   54.3841   19.5716 H   0  0  0  0  0  0
    6.1756   53.3414   19.7310 H   0  0  0  0  0  0
    3.5466   54.3520   22.9140 H   0  0  0  0  0  0
    3.3485   54.8941   21.2806 H   0  0  0  0  0  0
    3.1098   51.9666   22.2669 H   0  0  0  0  0  0
    1.7582   53.0781   21.8689 H   0  0  0  0  0  0
    5.6405   55.7816   21.6818 H   0  0  0  0  0  0
    6.9291   54.7276   21.3258 H   0  0  0  0  0  0
    4.9946   53.5413   24.3298 H   0  0  0  0  0  0
    4.6830   55.2909   24.3406 H   0  0  0  0  0  0
    6.3285   54.7418   28.3899 H   0  0  0  0  0  0
    4.7045   54.3986   30.2181 H   0  0  0  0  0  0
    1.6155   53.6347   27.3578 H   0  0  0  0  0  0
    3.1804   54.0067   25.5396 H   0  0  0  0  0  0
    8.3713   54.1195   23.6813 H   0  0  0  0  0  0
    2.4539   53.1904   19.6716 H   0  0  0  0  0  0
  1  6  2  0  0  0
  1  2  1  0  0  0
  1 33  1  0  0  0
  2  3  2  0  0  0
  2 34  1  0  0  0
  3  4  1  0  0  0
  3 35  1  0  0  0
  4  5  2  0  0  0
  4  7  1  0  0  0
  5  6  1  0  0  0
  5 36  1  0  0  0
  6 37  1  0  0  0
  7  8  1  0  0  0
  7 14  1  0  0  0
  7 38  1  0  0  0
  8 13  2  0  0  0
  8  9  1  0  0  0
  9 10  2  0  0  0
  9 39  1  0  0  0
 10 11  1  0  0  0
 10 40  1  0  0  0
 11 12  2  0  0  0
 11 41  1  0  0  0
 12 13  1  0  0  0
 12 42  1  0  0  0
 13 43  1  0  0  0
 14 19  1  0  0  0
 14 15  1  0  0  0
 14 61  1  0  0  0
 15 16  1  0  0  0
 15 44  1  0  0  0
 15 45  1  0  0  0
 16 17  1  0  0  0
 16 46  1  0  0  0
 16 47  1  0  0  0
 17 18  1  0  0  0
 17 20  1  0  0  0
 18 19  1  0  0  0
 18 48  1  0  0  0
 18 49  1  0  0  0
 19 50  1  0  0  0
 19 51  1  0  0  0
 20 21  1  0  0  0
 20 52  1  0  0  0
 20 53  1  0  0  0
 21 22  1  0  0  0
 21 23  1  0  0  0
 21 32  1  0  0  0
 23 24  1  0  0  0
 23 54  1  0  0  0
 23 55  1  0  0  0
 24 25  1  0  0  0
 25 30  2  0  0  0
 25 26  1  0  0  0
 26 27  2  0  0  0
 26 56  1  0  0  0
 27 28  1  0  0  0
 27 57  1  0  0  0
 28 29  2  0  0  0
 28 31  1  0  0  0
 29 30  1  0  0  0
 29 58  1  0  0  0
 30 59  1  0  0  0
 32 60  1  0  0  0
M  CHG  1  14   1
M  END
> <i_i_glide_confnum>
113

> <i_i_glide_lignum>
5241

> <i_i_glide_posenum>
223

> <i_i_glide_rotatable_bonds>
9

> <i_m_Source_File_Index>
4160

> <b_m_subgroup_collapsed>
0

> <r_i_docking_score>
-5.14994

> <r_i_glide_ecoul>
-8.7969

> <r_i_glide_eff_state_penalty>
0

> <r_i_glide_einternal>
10.2096

> <r_i_glide_emodel>
-54.6015

> <r_i_glide_energy>
-43.8002

> <r_i_glide_erotb>
0.610354

> <r_i_glide_esite>
-0.020785

> <r_i_glide_evdw>
-35.0033

> <r_i_glide_gscore>
-5.14994

> <r_i_glide_hbond>
0

> <r_i_glide_ligand_efficiency>
-0.166127

> <r_i_glide_ligand_efficiency_ln>
-1.16147

> <r_i_glide_ligand_efficiency_sa>
-0.521869

> <r_i_glide_lipo>
-2.55003

> <r_i_glide_metal>
0

> <r_i_glide_rewards>
-0.119778

> <s_i_glide_gridfile>
wee1_glide-grid

> <s_m_Source_File>
wee1_decoys_glide_SP.sdf

> <s_m_Source_Path>
/Users/zhangxujun/Desktop

> <s_m_entry_id>
4435

> <s_m_entry_name>
wee1_decoys_glide_SP.4160

> <s_m_subgroup_title>
wee1_decoys_glide_SP

> <s_m_subgroupid>
wee1_decoys_glide_SP


$$$$
