ZINC15945761_4512
                    3D
 Schrodinger Suite 2024-2.
 56 59  0  0  1  0            999 V2000
    4.1153   54.5519   28.4922 C   0  0  0  0  0  0
    2.9391   54.5918   29.4874 C   0  0  0  0  0  0
    1.9401   53.3858   29.5131 C   0  0  0  0  0  0
    2.6976   52.0950   29.8992 C   0  0  0  0  0  0
    0.9646   53.6602   30.6944 C   0  0  0  0  0  0
    1.1398   53.2216   28.1518 C   0  0  1  0  0  0
    0.9393   54.2371   27.8038 H   0  0  0  0  0  0
    1.9372   52.5050   27.0259 C   0  0  0  0  0  0
    1.2924   52.6860   25.6362 C   0  0  0  0  0  0
   -0.1785   52.2867   25.7202 C   0  0  0  0  0  0
   -0.8422   52.1782   26.9544 C   0  0  0  0  0  0
   -2.4872   51.6507   26.7843 S   0  0  0  0  0  0
   -2.2945   51.5608   25.0709 C   0  0  0  0  0  0
   -1.0179   51.9341   24.6413 C   0  0  0  0  0  0
   -0.8030   51.9038   23.1965 C   0  0  0  0  0  0
   -1.5876   51.3768   22.3469 N   0  0  0  0  0  0
   -2.8120   50.7432   22.8668 C   0  0  2  0  0  0
   -3.6207   51.0256   22.1927 H   0  0  0  0  0  0
   -3.2977   51.1470   24.2106 N   0  0  0  0  0  0
   -2.6545   49.2244   22.6774 C   0  0  0  0  0  0
   -2.4663   48.3633   23.7677 C   0  0  0  0  0  0
   -2.2935   46.9805   23.5886 C   0  0  0  0  0  0
   -2.3159   46.4605   22.2857 C   0  0  0  0  0  0
   -2.5085   47.3101   21.1902 C   0  0  0  0  0  0
   -2.6791   48.6800   21.3894 C   0  0  0  0  0  0
   -2.5203   46.5678   19.2302 I   0  0  0  0  0  0
   -2.0930   45.1189   22.0820 O   0  0  0  0  0  0
   -2.0948   46.0969   24.6358 O   0  0  0  0  0  0
   -2.0626   46.5900   25.9728 C   0  0  0  0  0  0
    0.3017   52.4826   22.6356 O   0  0  0  0  0  0
   -0.2007   52.4345   28.3137 C   0  0  0  0  0  0
    4.8648   55.2966   28.7567 H   0  0  0  0  0  0
    3.7920   54.7783   27.4779 H   0  0  0  0  0  0
    4.6315   53.5912   28.4915 H   0  0  0  0  0  0
    3.3796   54.7005   30.4790 H   0  0  0  0  0  0
    2.3899   55.5205   29.3225 H   0  0  0  0  0  0
    1.9777   51.2966   30.0389 H   0  0  0  0  0  0
    3.4111   51.7705   29.1446 H   0  0  0  0  0  0
    3.2507   52.2073   30.8328 H   0  0  0  0  0  0
    0.2313   52.8662   30.8354 H   0  0  0  0  0  0
    1.4969   53.6972   31.6408 H   0  0  0  0  0  0
    0.4200   54.5973   30.5715 H   0  0  0  0  0  0
    2.9467   52.8862   26.9477 H   0  0  0  0  0  0
    2.0683   51.4538   27.2837 H   0  0  0  0  0  0
    1.3822   53.7230   25.3104 H   0  0  0  0  0  0
    1.8356   52.0840   24.9085 H   0  0  0  0  0  0
   -4.0326   50.5371   24.5396 H   0  0  0  0  0  0
   -2.4325   48.7816   24.7600 H   0  0  0  0  0  0
   -2.8082   49.3296   20.5375 H   0  0  0  0  0  0
   -1.1787   44.9005   22.3117 H   0  0  0  0  0  0
   -1.8210   45.7775   26.6601 H   0  0  0  0  0  0
   -1.2942   47.3562   26.0883 H   0  0  0  0  0  0
   -3.0246   47.0072   26.2747 H   0  0  0  0  0  0
    1.0645   52.3078   23.1855 H   0  0  0  0  0  0
   -0.0187   51.4742   28.7989 H   0  0  0  0  0  0
   -0.8945   52.9824   28.9438 H   0  0  0  0  0  0
  1  2  1  0  0  0
  1 32  1  0  0  0
  1 33  1  0  0  0
  1 34  1  0  0  0
  2  3  1  0  0  0
  2 35  1  0  0  0
  2 36  1  0  0  0
  3  4  1  0  0  0
  3  5  1  0  0  0
  3  6  1  0  0  0
  4 37  1  0  0  0
  4 38  1  0  0  0
  4 39  1  0  0  0
  5 40  1  0  0  0
  5 41  1  0  0  0
  5 42  1  0  0  0
  6  7  1  0  0  0
  6 31  1  0  0  0
  6  8  1  0  0  0
  8  9  1  0  0  0
  8 43  1  0  0  0
  8 44  1  0  0  0
  9 10  1  0  0  0
  9 45  1  0  0  0
  9 46  1  0  0  0
 10 14  1  0  0  0
 10 11  2  0  0  0
 11 12  1  0  0  0
 11 31  1  0  0  0
 12 13  1  0  0  0
 13 19  1  0  0  0
 13 14  2  0  0  0
 14 15  1  0  0  0
 15 16  2  0  0  0
 15 30  1  0  0  0
 16 17  1  0  0  0
 17 18  1  0  0  0
 17 19  1  0  0  0
 17 20  1  0  0  0
 19 47  1  0  0  0
 20 25  2  0  0  0
 20 21  1  0  0  0
 21 22  2  0  0  0
 21 48  1  0  0  0
 22 23  1  0  0  0
 22 28  1  0  0  0
 23 24  2  0  0  0
 23 27  1  0  0  0
 24 25  1  0  0  0
 24 26  1  0  0  0
 25 49  1  0  0  0
 27 50  1  0  0  0
 28 29  1  0  0  0
 29 51  1  0  0  0
 29 52  1  0  0  0
 29 53  1  0  0  0
 30 54  1  0  0  0
 31 55  1  0  0  0
 31 56  1  0  0  0
M  END
> <i_i_glide_confnum>
1

> <i_i_glide_lignum>
4513

> <i_i_glide_posenum>
326

> <i_i_glide_rotatable_bonds>
6

> <i_m_Source_File_Index>
1814

> <b_m_subgroup_collapsed>
0

> <r_i_docking_score>
-3.22628

> <r_i_glide_ecoul>
-6.0214

> <r_i_glide_eff_state_penalty>
0

> <r_i_glide_einternal>
2.16593

> <r_i_glide_emodel>
-41.1272

> <r_i_glide_energy>
-34.3936

> <r_i_glide_erotb>
0.148587

> <r_i_glide_esite>
-0.000148398

> <r_i_glide_evdw>
-28.3722

> <r_i_glide_gscore>
-3.22628

> <r_i_glide_hbond>
-0.0103794

> <r_i_glide_ligand_efficiency>
-0.111251

> <r_i_glide_ligand_efficiency_ln>
-0.738736

> <r_i_glide_ligand_efficiency_sa>
-0.341798

> <r_i_glide_lipo>
-1.00363

> <r_i_glide_metal>
0

> <r_i_glide_rewards>
-0.0388874

> <s_i_glide_gridfile>
wee1_glide-grid

> <s_m_Source_File>
wee1_decoys_glide_SP.sdf

> <s_m_Source_Path>
/Users/zhangxujun/Desktop

> <s_m_entry_id>
2089

> <s_m_entry_name>
wee1_decoys_glide_SP.1814

> <s_m_subgroup_title>
wee1_decoys_glide_SP

> <s_m_subgroupid>
wee1_decoys_glide_SP


$$$$
