ZINC22936584_4856
                    3D
 Schrodinger Suite 2024-2.
 69 72  0  0  1  0            999 V2000
    2.9213   46.2292   15.3941 C   0  0  0  0  0  0
    2.5781   46.4942   16.8671 C   0  0  0  0  0  0
    1.9044   47.8698   17.0630 N   0  3  0  0  0  0
    0.6188   48.0486   16.2259 C   0  0  0  0  0  0
    0.0041   49.4327   16.5111 C   0  0  0  0  0  0
   -0.2761   49.6090   17.9420 N   0  0  0  0  0  0
    0.9541   49.4971   18.7475 C   0  0  0  0  0  0
    1.6246   48.1188   18.5629 C   0  0  0  0  0  0
   -0.9875   50.8788   18.1492 C   0  0  0  0  0  0
   -1.6002   51.0376   19.5549 C   0  0  0  0  0  0
   -0.6606   51.6091   20.5139 N   0  0  0  0  0  0
   -0.8675   51.7003   21.8387 C   0  0  0  0  0  0
   -1.9232   51.3521   22.3663 O   0  0  0  0  0  0
    0.2721   52.2721   22.6584 C   0  0  0  0  0  0
    0.2278   52.2030   24.0568 C   0  0  0  0  0  0
    1.2656   52.7252   24.8233 C   0  0  0  0  0  0
    2.3619   53.3348   24.2056 C   0  0  0  0  0  0
    2.4054   53.4282   22.8163 C   0  0  0  0  0  0
    1.3746   52.8968   22.0519 C   0  0  0  0  0  0
    3.4995   53.8523   25.0195 C   0  0  0  0  0  0
    3.6712   53.6967   26.3060 N   0  0  0  0  0  0
    4.8489   54.2250   26.5819 C   0  0  0  0  0  0
    5.3795   54.7821   25.4258 C   0  0  0  0  0  0
    4.5229   54.5016   24.4118 O   0  0  0  0  0  0
    6.6204   55.5641   25.0860 C   0  0  0  0  0  0
    5.4157   54.1599   27.9899 C   0  0  0  0  0  0
    4.2787   54.7603   29.2816 S   0  0  0  0  0  0
    2.8109   53.7793   29.3062 C   0  0  0  0  0  0
    1.6089   54.3769   29.6822 C   0  0  0  0  0  0
    0.4336   53.6279   29.6716 C   0  0  0  0  0  0
    0.4662   52.2895   29.2750 C   0  0  0  0  0  0
    1.6734   51.6969   28.8999 C   0  0  0  0  0  0
    2.8500   52.4353   28.9430 C   0  0  0  0  0  0
   -0.8115   51.4741   29.2338 C   0  0  0  0  0  0
    3.5042   45.3132   15.3113 H   0  0  0  0  0  0
    3.5070   47.0478   14.9704 H   0  0  0  0  0  0
    2.0307   46.0905   14.7768 H   0  0  0  0  0  0
    1.9001   45.7462   17.2786 H   0  0  0  0  0  0
    3.4906   46.5544   17.4604 H   0  0  0  0  0  0
    0.9174   48.0073   15.1784 H   0  0  0  0  0  0
   -0.0565   47.2249   16.4676 H   0  0  0  0  0  0
    0.7121   50.2077   16.2062 H   0  0  0  0  0  0
   -0.9063   49.5384   15.9175 H   0  0  0  0  0  0
    0.7530   49.6266   19.8109 H   0  0  0  0  0  0
    1.6454   50.2784   18.4183 H   0  0  0  0  0  0
    1.0023   47.2999   18.9302 H   0  0  0  0  0  0
    2.6012   48.1085   19.0533 H   0  0  0  0  0  0
   -0.4198   51.7575   17.8350 H   0  0  0  0  0  0
   -1.8480   50.8077   17.4813 H   0  0  0  0  0  0
   -2.4791   51.6791   19.4940 H   0  0  0  0  0  0
   -1.9684   50.0738   19.9111 H   0  0  0  0  0  0
    0.2273   51.9165   20.1496 H   0  0  0  0  0  0
   -0.6068   51.7339   24.5619 H   0  0  0  0  0  0
    1.2144   52.6449   25.8997 H   0  0  0  0  0  0
    3.2415   53.8972   22.3179 H   0  0  0  0  0  0
    1.4542   52.9924   20.9782 H   0  0  0  0  0  0
    7.1040   55.9359   25.9867 H   0  0  0  0  0  0
    7.3438   54.9611   24.5357 H   0  0  0  0  0  0
    6.3796   56.4326   24.4740 H   0  0  0  0  0  0
    5.7396   53.1496   28.2370 H   0  0  0  0  0  0
    6.3077   54.7807   28.0676 H   0  0  0  0  0  0
    1.5826   55.4187   29.9712 H   0  0  0  0  0  0
   -0.4954   54.0898   29.9646 H   0  0  0  0  0  0
    1.7073   50.6672   28.5811 H   0  0  0  0  0  0
    3.7803   51.9725   28.6573 H   0  0  0  0  0  0
   -1.6931   52.0964   29.0941 H   0  0  0  0  0  0
   -0.7928   50.7832   28.3908 H   0  0  0  0  0  0
   -0.9350   50.9007   30.1538 H   0  0  0  0  0  0
    2.5888   48.5797   16.7823 H   0  0  0  0  0  0
  1  2  1  0  0  0
  1 35  1  0  0  0
  1 36  1  0  0  0
  1 37  1  0  0  0
  2  3  1  0  0  0
  2 38  1  0  0  0
  2 39  1  0  0  0
  3  8  1  0  0  0
  3  4  1  0  0  0
  3 69  1  0  0  0
  4  5  1  0  0  0
  4 40  1  0  0  0
  4 41  1  0  0  0
  5  6  1  0  0  0
  5 42  1  0  0  0
  5 43  1  0  0  0
  6  7  1  0  0  0
  6  9  1  0  0  0
  7  8  1  0  0  0
  7 44  1  0  0  0
  7 45  1  0  0  0
  8 46  1  0  0  0
  8 47  1  0  0  0
  9 10  1  0  0  0
  9 48  1  0  0  0
  9 49  1  0  0  0
 10 11  1  0  0  0
 10 50  1  0  0  0
 10 51  1  0  0  0
 11 12  1  0  0  0
 11 52  1  0  0  0
 12 13  2  0  0  0
 12 14  1  0  0  0
 14 19  2  0  0  0
 14 15  1  0  0  0
 15 16  2  0  0  0
 15 53  1  0  0  0
 16 17  1  0  0  0
 16 54  1  0  0  0
 17 18  2  0  0  0
 17 20  1  0  0  0
 18 19  1  0  0  0
 18 55  1  0  0  0
 19 56  1  0  0  0
 20 24  1  0  0  0
 20 21  2  0  0  0
 21 22  1  0  0  0
 22 23  2  0  0  0
 22 26  1  0  0  0
 23 24  1  0  0  0
 23 25  1  0  0  0
 25 57  1  0  0  0
 25 58  1  0  0  0
 25 59  1  0  0  0
 26 27  1  0  0  0
 26 60  1  0  0  0
 26 61  1  0  0  0
 27 28  1  0  0  0
 28 33  2  0  0  0
 28 29  1  0  0  0
 29 30  2  0  0  0
 29 62  1  0  0  0
 30 31  1  0  0  0
 30 63  1  0  0  0
 31 32  2  0  0  0
 31 34  1  0  0  0
 32 33  1  0  0  0
 32 64  1  0  0  0
 33 65  1  0  0  0
 34 66  1  0  0  0
 34 67  1  0  0  0
 34 68  1  0  0  0
M  CHG  1   3   1
M  END
> <i_i_glide_confnum>
18

> <i_i_glide_lignum>
4857

> <i_i_glide_posenum>
196

> <i_i_glide_rotatable_bonds>
10

> <i_m_Source_File_Index>
5184

> <b_m_subgroup_collapsed>
0

> <r_i_docking_score>
-5.96468

> <r_i_glide_ecoul>
-3.98114

> <r_i_glide_eff_state_penalty>
0

> <r_i_glide_einternal>
3.17539

> <r_i_glide_emodel>
-68.4284

> <r_i_glide_energy>
-48.828

> <r_i_glide_erotb>
0.793057

> <r_i_glide_esite>
-0.115601

> <r_i_glide_evdw>
-44.8469

> <r_i_glide_gscore>
-5.96468

> <r_i_glide_hbond>
-0.2

> <r_i_glide_ligand_efficiency>
-0.175432

> <r_i_glide_ligand_efficiency_ln>
-1.31777

> <r_i_glide_ligand_efficiency_sa>
-0.568331

> <r_i_glide_lipo>
-3.39598

> <r_i_glide_metal>
0

> <r_i_glide_rewards>
-0.206644

> <s_i_glide_gridfile>
wee1_glide-grid

> <s_m_Source_File>
wee1_decoys_glide_SP.sdf

> <s_m_Source_Path>
/Users/zhangxujun/Desktop

> <s_m_entry_id>
5459

> <s_m_entry_name>
wee1_decoys_glide_SP.5184

> <s_m_subgroup_title>
wee1_decoys_glide_SP

> <s_m_subgroupid>
wee1_decoys_glide_SP


$$$$
