ZINC38966347_809
                    3D
 Schrodinger Suite 2024-2.
 57 60  0  0  1  0            999 V2000
    4.1230   54.5518   25.5151 C   0  0  0  0  0  0
    2.9035   53.6969   25.8090 C   0  0  0  0  0  0
    2.6195   53.3200   27.1197 C   0  0  0  0  0  0
    1.5035   52.5349   27.3920 C   0  0  0  0  0  0
    0.6652   52.0976   26.3612 C   0  0  0  0  0  0
    0.9588   52.4491   25.0228 C   0  0  0  0  0  0
    2.0695   53.2735   24.7731 C   0  0  0  0  0  0
   -0.0946   51.9084   23.6378 S   0  0  0  0  0  0
   -1.1779   52.8965   23.6817 O   0  0  0  0  0  0
   -0.4764   50.5367   23.9936 O   0  0  0  0  0  0
    1.0553   52.0810   22.2980 N   0  0  0  0  0  0
    1.1215   51.1917   21.3821 C   0  0  0  0  0  0
    2.1785   51.4100   20.2415 C   0  0  2  0  0  0
    1.7421   52.1968   19.6220 H   0  0  0  0  0  0
    2.3042   50.2503   19.2866 N   0  3  0  0  0  0
    1.4684   49.2194   19.2842 C   0  0  0  0  0  0
    1.5631   48.2172   18.3180 C   0  0  0  0  0  0
    0.6911   47.1759   18.3443 C   0  0  0  0  0  0
   -0.3603   47.0664   19.3568 C   0  0  0  0  0  0
   -0.4891   48.0266   20.3033 C   0  0  0  0  0  0
    0.3906   49.1755   20.3736 C   0  0  0  0  0  0
    0.2772   50.0794   21.2799 N   0  0  0  0  0  0
    3.4717   51.8978   20.7358 N   0  0  0  0  0  0
    4.1092   52.9880   20.1185 C   0  0  0  0  0  0
    4.9519   53.7811   20.8963 C   0  0  0  0  0  0
    5.5764   54.8962   20.3422 C   0  0  0  0  0  0
    5.3580   55.2293   18.9953 C   0  0  0  0  0  0
    4.5464   54.4106   18.2098 C   0  0  0  0  0  0
    3.9269   53.2964   18.7656 C   0  0  0  0  0  0
    5.9090   56.3511   18.3465 N   0  0  0  0  0  0
    6.5163   57.4281   18.8808 C   0  0  0  0  0  0
    6.7044   57.6125   20.0818 O   0  0  0  0  0  0
    6.9616   58.4961   17.8899 C   0  0  0  0  0  0
   -0.5628   51.2871   26.7581 C   0  0  0  0  0  0
    4.9940   54.1522   26.0364 H   0  0  0  0  0  0
    4.3648   54.5717   24.4514 H   0  0  0  0  0  0
    3.9674   55.5726   25.8646 H   0  0  0  0  0  0
    3.2575   53.6395   27.9308 H   0  0  0  0  0  0
    1.2896   52.2655   28.4164 H   0  0  0  0  0  0
    2.3047   53.6025   23.7725 H   0  0  0  0  0  0
    2.3050   48.2900   17.5364 H   0  0  0  0  0  0
    0.7654   46.4151   17.5794 H   0  0  0  0  0  0
   -1.0382   46.2249   19.3409 H   0  0  0  0  0  0
   -1.2786   47.9194   21.0345 H   0  0  0  0  0  0
    3.6488   51.7716   21.7217 H   0  0  0  0  0  0
    5.1162   53.5477   21.9380 H   0  0  0  0  0  0
    6.2183   55.4826   20.9794 H   0  0  0  0  0  0
    4.3804   54.6335   17.1655 H   0  0  0  0  0  0
    3.3130   52.6778   18.1299 H   0  0  0  0  0  0
    5.7811   56.3692   17.3464 H   0  0  0  0  0  0
    6.1581   58.7489   17.1971 H   0  0  0  0  0  0
    7.8245   58.1550   17.3188 H   0  0  0  0  0  0
    7.2387   59.4103   18.4149 H   0  0  0  0  0  0
   -0.8184   51.4194   27.8104 H   0  0  0  0  0  0
   -1.4390   51.6057   26.1937 H   0  0  0  0  0  0
   -0.4039   50.2229   26.5774 H   0  0  0  0  0  0
    3.0451   50.2832   18.5849 H   0  0  0  0  0  0
  1  2  1  0  0  0
  1 35  1  0  0  0
  1 36  1  0  0  0
  1 37  1  0  0  0
  2  7  2  0  0  0
  2  3  1  0  0  0
  3  4  2  0  0  0
  3 38  1  0  0  0
  4  5  1  0  0  0
  4 39  1  0  0  0
  5  6  2  0  0  0
  5 34  1  0  0  0
  6  7  1  0  0  0
  6  8  1  0  0  0
  7 40  1  0  0  0
  8  9  2  0  0  0
  8 10  2  0  0  0
  8 11  1  0  0  0
 11 12  2  0  0  0
 12 22  1  0  0  0
 12 13  1  0  0  0
 13 14  1  0  0  0
 13 15  1  0  0  0
 13 23  1  0  0  0
 15 16  2  0  0  0
 15 57  1  0  0  0
 16 21  1  0  0  0
 16 17  1  0  0  0
 17 18  2  0  0  0
 17 41  1  0  0  0
 18 19  1  0  0  0
 18 42  1  0  0  0
 19 20  2  0  0  0
 19 43  1  0  0  0
 20 21  1  0  0  0
 20 44  1  0  0  0
 21 22  2  0  0  0
 23 24  1  0  0  0
 23 45  1  0  0  0
 24 29  2  0  0  0
 24 25  1  0  0  0
 25 26  2  0  0  0
 25 46  1  0  0  0
 26 27  1  0  0  0
 26 47  1  0  0  0
 27 28  2  0  0  0
 27 30  1  0  0  0
 28 29  1  0  0  0
 28 48  1  0  0  0
 29 49  1  0  0  0
 30 31  1  0  0  0
 30 50  1  0  0  0
 31 32  2  0  0  0
 31 33  1  0  0  0
 33 51  1  0  0  0
 33 52  1  0  0  0
 33 53  1  0  0  0
 34 54  1  0  0  0
 34 55  1  0  0  0
 34 56  1  0  0  0
M  CHG  1  15   1
M  END
> <i_i_glide_confnum>
477

> <i_i_glide_lignum>
810

> <i_i_glide_posenum>
308

> <i_i_glide_rotatable_bonds>
6

> <i_m_Source_File_Index>
856

> <b_m_subgroup_collapsed>
0

> <r_i_docking_score>
-4.08748

> <r_i_glide_ecoul>
-8.10445

> <r_i_glide_eff_state_penalty>
0

> <r_i_glide_einternal>
12.4703

> <r_i_glide_emodel>
-49.6471

> <r_i_glide_energy>
-45.2305

> <r_i_glide_erotb>
0.470787

> <r_i_glide_esite>
-0.136975

> <r_i_glide_evdw>
-37.1261

> <r_i_glide_gscore>
-4.08748

> <r_i_glide_hbond>
-0.354937

> <r_i_glide_ligand_efficiency>
-0.123863

> <r_i_glide_ligand_efficiency_ln>
-0.909034

> <r_i_glide_ligand_efficiency_sa>
-0.397295

> <r_i_glide_lipo>
-1.44423

> <r_i_glide_metal>
0

> <r_i_glide_rewards>
0.449851

> <s_i_glide_gridfile>
wee1_glide-grid

> <s_m_Source_File>
wee1_decoys_glide_SP.sdf

> <s_m_Source_Path>
/Users/zhangxujun/Desktop

> <s_m_entry_id>
1131

> <s_m_entry_name>
wee1_decoys_glide_SP.856

> <s_m_subgroup_title>
wee1_decoys_glide_SP

> <s_m_subgroupid>
wee1_decoys_glide_SP


$$$$
