ZINC34997623_4845
                    3D
 Schrodinger Suite 2024-2.
 72 76  0  0  1  0            999 V2000
   -2.2513   47.9664   25.6391 C   0  0  0  0  0  0
   -1.8038   49.1466   24.7309 C   0  0  0  0  0  0
   -0.7651   48.7551   23.6251 C   0  0  1  0  0  0
   -0.8480   47.7578   23.1878 H   0  0  0  0  0  0
   -0.5906   49.8481   22.5071 C   0  0  0  0  0  0
   -0.4117   51.2188   23.1718 C   0  0  0  0  0  0
   -0.4368   51.3214   24.5209 C   0  0  0  0  0  0
   -0.6451   50.0180   25.3280 C   0  0  2  0  0  0
   -0.6186   50.1602   26.4114 H   0  0  0  0  0  0
    0.3181   48.9634   24.7180 C   0  0  0  0  0  0
   -0.2391   52.6328   25.2594 C   0  0  0  0  0  0
    1.0645   52.7333   25.9573 N   0  0  0  0  0  0
    2.2266   52.6661   25.0477 C   0  0  0  0  0  0
    2.3098   53.8178   24.0330 C   0  0  0  0  0  0
    3.5220   53.5768   23.1009 N   0  3  0  0  0  0
    3.2602   54.1708   21.7067 C   0  0  0  0  0  0
    4.4471   53.8323   20.7936 C   0  0  0  0  0  0
    5.6323   54.4954   21.3778 N   0  0  0  0  0  0
    6.0178   53.9921   22.7181 C   0  0  0  0  0  0
    4.8311   54.1456   23.7041 C   0  0  0  0  0  0
    6.3245   55.5117   20.7870 C   0  0  0  0  0  0
    7.2500   56.0956   21.3555 O   0  0  0  0  0  0
    5.9246   55.8330   19.5337 N   0  0  0  0  0  0
    6.4762   56.7812   18.6526 C   0  0  0  0  0  0
    7.8323   57.1456   18.6631 C   0  0  0  0  0  0
    8.3037   58.1180   17.7812 C   0  0  0  0  0  0
    7.4309   58.7305   16.8853 C   0  0  0  0  0  0
    6.0874   58.3583   16.8536 C   0  0  0  0  0  0
    5.6117   57.3792   17.7263 C   0  0  0  0  0  0
    4.3040   57.0275   17.6802 F   0  0  0  0  0  0
    1.1129   52.8452   27.3189 C   0  0  0  0  0  0
    0.1004   52.7761   28.0204 O   0  0  0  0  0  0
    2.3881   53.0584   27.9741 C   0  0  0  0  0  0
    3.4930   53.8635   27.6785 C   0  0  0  0  0  0
    4.3860   53.7453   28.7431 C   0  0  0  0  0  0
    3.7647   52.9405   29.6796 C   0  0  0  0  0  0
    2.5399   52.5598   29.2305 O   0  0  0  0  0  0
   -3.0945   49.8766   24.2635 C   0  0  0  0  0  0
   -1.4187   47.4152   26.0790 H   0  0  0  0  0  0
   -2.8439   47.2418   25.0785 H   0  0  0  0  0  0
   -2.8594   48.3197   26.4765 H   0  0  0  0  0  0
    0.2792   49.6183   21.8884 H   0  0  0  0  0  0
   -1.4540   49.8582   21.8391 H   0  0  0  0  0  0
   -0.2631   52.1009   22.5638 H   0  0  0  0  0  0
    1.2953   49.2979   24.3669 H   0  0  0  0  0  0
    0.5263   48.0907   25.3369 H   0  0  0  0  0  0
   -0.3360   53.4610   24.5540 H   0  0  0  0  0  0
   -1.0803   52.7446   25.9454 H   0  0  0  0  0  0
    3.1643   52.5699   25.5845 H   0  0  0  0  0  0
    2.1511   51.7309   24.4894 H   0  0  0  0  0  0
    1.4319   53.8275   23.3885 H   0  0  0  0  0  0
    2.4142   54.8076   24.4820 H   0  0  0  0  0  0
    2.3588   53.6913   21.3211 H   0  0  0  0  0  0
    3.0977   55.2419   21.8224 H   0  0  0  0  0  0
    4.6164   52.7545   20.7564 H   0  0  0  0  0  0
    4.2317   54.1140   19.7607 H   0  0  0  0  0  0
    6.8874   54.5208   23.1156 H   0  0  0  0  0  0
    6.3029   52.9411   22.6492 H   0  0  0  0  0  0
    4.6693   55.1792   24.0158 H   0  0  0  0  0  0
    5.0315   53.5523   24.5998 H   0  0  0  0  0  0
    5.0940   55.3803   19.1856 H   0  0  0  0  0  0
    8.5333   56.6800   19.3391 H   0  0  0  0  0  0
    9.3483   58.3954   17.7982 H   0  0  0  0  0  0
    7.7864   59.5001   16.2167 H   0  0  0  0  0  0
    5.4099   58.8426   16.1669 H   0  0  0  0  0  0
    3.6372   54.4643   26.7915 H   0  0  0  0  0  0
    5.3604   54.2111   28.8295 H   0  0  0  0  0  0
    4.0498   52.5798   30.6567 H   0  0  0  0  0  0
   -2.9243   50.7454   23.6339 H   0  0  0  0  0  0
   -3.7324   49.2007   23.6922 H   0  0  0  0  0  0
   -3.6706   50.2278   25.1203 H   0  0  0  0  0  0
    3.6324   52.5807   22.9545 H   0  0  0  0  0  0
  1  2  1  0  0  0
  1 39  1  0  0  0
  1 40  1  0  0  0
  1 41  1  0  0  0
  2  8  1  0  0  0
  2  3  1  0  0  0
  2 38  1  0  0  0
  3  4  1  0  0  0
  3 10  1  0  0  0
  3  5  1  0  0  0
  5  6  1  0  0  0
  5 42  1  0  0  0
  5 43  1  0  0  0
  6  7  2  0  0  0
  6 44  1  0  0  0
  7  8  1  0  0  0
  7 11  1  0  0  0
  8  9  1  0  0  0
  8 10  1  0  0  0
 10 45  1  0  0  0
 10 46  1  0  0  0
 11 12  1  0  0  0
 11 47  1  0  0  0
 11 48  1  0  0  0
 12 13  1  0  0  0
 12 31  1  0  0  0
 13 14  1  0  0  0
 13 49  1  0  0  0
 13 50  1  0  0  0
 14 15  1  0  0  0
 14 51  1  0  0  0
 14 52  1  0  0  0
 15 20  1  0  0  0
 15 16  1  0  0  0
 15 72  1  0  0  0
 16 17  1  0  0  0
 16 53  1  0  0  0
 16 54  1  0  0  0
 17 18  1  0  0  0
 17 55  1  0  0  0
 17 56  1  0  0  0
 18 19  1  0  0  0
 18 21  1  0  0  0
 19 20  1  0  0  0
 19 57  1  0  0  0
 19 58  1  0  0  0
 20 59  1  0  0  0
 20 60  1  0  0  0
 21 22  2  0  0  0
 21 23  1  0  0  0
 23 24  1  0  0  0
 23 61  1  0  0  0
 24 29  2  0  0  0
 24 25  1  0  0  0
 25 26  2  0  0  0
 25 62  1  0  0  0
 26 27  1  0  0  0
 26 63  1  0  0  0
 27 28  2  0  0  0
 27 64  1  0  0  0
 28 29  1  0  0  0
 28 65  1  0  0  0
 29 30  1  0  0  0
 31 32  2  0  0  0
 31 33  1  0  0  0
 33 37  1  0  0  0
 33 34  2  0  0  0
 34 35  1  0  0  0
 34 66  1  0  0  0
 35 36  2  0  0  0
 35 67  1  0  0  0
 36 37  1  0  0  0
 36 68  1  0  0  0
 38 69  1  0  0  0
 38 70  1  0  0  0
 38 71  1  0  0  0
M  CHG  1  15   1
M  END
> <i_i_glide_confnum>
37

> <i_i_glide_lignum>
4846

> <i_i_glide_posenum>
379

> <i_i_glide_rotatable_bonds>
10

> <i_m_Source_File_Index>
135

> <b_m_subgroup_collapsed>
0

> <r_i_docking_score>
-4.65343

> <r_i_glide_ecoul>
-3.75306

> <r_i_glide_eff_state_penalty>
0

> <r_i_glide_einternal>
6.48497

> <r_i_glide_emodel>
-56.3339

> <r_i_glide_energy>
-44.3554

> <r_i_glide_erotb>
0.746979

> <r_i_glide_esite>
0

> <r_i_glide_evdw>
-40.6023

> <r_i_glide_gscore>
-4.65343

> <r_i_glide_hbond>
-0.0815465

> <r_i_glide_ligand_efficiency>
-0.129262

> <r_i_glide_ligand_efficiency_ln>
-1.01525

> <r_i_glide_ligand_efficiency_sa>
-0.426813

> <r_i_glide_lipo>
-1.94222

> <r_i_glide_metal>
0

> <r_i_glide_rewards>
-0.783568

> <s_i_glide_gridfile>
wee1_glide-grid

> <s_m_Source_File>
wee1_decoys_glide_SP.sdf

> <s_m_Source_Path>
/Users/zhangxujun/Desktop

> <s_m_entry_id>
410

> <s_m_entry_name>
wee1_decoys_glide_SP.135

> <s_m_subgroup_title>
wee1_decoys_glide_SP

> <s_m_subgroupid>
wee1_decoys_glide_SP


$$$$
