ZINC03364813_3353
                    3D
 Schrodinger Suite 2024-2.
 60 63  0  0  1  0            999 V2000
    1.3847   54.0003   29.5039 C   0  0  0  0  0  0
    2.6430   54.3660   28.6935 C   0  0  1  0  0  0
    2.7218   55.4555   28.7213 H   0  0  0  0  0  0
    3.9112   53.7215   29.2997 C   0  0  0  0  0  0
    5.1949   54.2790   28.6514 C   0  0  0  0  0  0
    5.0173   54.2715   27.1434 C   0  0  0  0  0  0
    3.7996   54.1074   26.4708 C   0  0  0  0  0  0
    3.9614   54.1819   25.0768 C   0  0  0  0  0  0
    5.2902   54.3581   24.6782 C   0  0  0  0  0  0
    6.3410   54.4943   26.0576 S   0  0  0  0  0  0
    5.8780   54.3091   23.3629 C   0  0  0  0  0  0
    7.0796   54.0810   23.2263 O   0  0  0  0  0  0
    5.0191   54.4953   22.3301 N   0  0  0  0  0  0
    5.4854   54.5433   20.9972 N   0  0  0  0  0  0
    6.3105   55.5341   20.5688 C   0  0  0  0  0  0
    6.6827   56.4918   21.2555 O   0  0  0  0  0  0
    6.8148   55.3869   19.1570 C   0  0  0  0  0  0
    8.1316   55.7484   18.8504 C   0  0  0  0  0  0
    8.6133   55.6230   17.5523 C   0  0  0  0  0  0
    7.7883   55.1481   16.5196 C   0  0  0  0  0  0
    6.4649   54.7919   16.8225 C   0  0  0  0  0  0
    5.9883   54.9078   18.1321 C   0  0  0  0  0  0
    5.3304   54.2218   15.5430 S   0  0  0  0  0  0
    3.9824   54.2842   16.1202 O   0  0  0  0  0  0
    5.6066   54.9790   14.3160 O   0  0  0  0  0  0
    5.7141   52.4981   15.2860 N   0  0  0  0  0  0
    4.6115   51.7038   14.6973 C   0  0  0  0  0  0
    4.4869   51.9933   13.1844 C   0  0  0  0  0  0
    5.7426   51.7278   12.5404 O   0  0  0  0  0  0
    6.8899   52.4071   13.0743 C   0  0  0  0  0  0
    6.9874   52.1722   14.6006 C   0  0  0  0  0  0
    8.2192   55.0104   15.2156 O   0  0  0  0  0  0
    9.5473   55.3763   14.8634 C   0  0  0  0  0  0
    2.4775   53.9176   27.2153 C   0  0  0  0  0  0
    1.2241   52.9215   29.5372 H   0  0  0  0  0  0
    0.4918   54.4543   29.0735 H   0  0  0  0  0  0
    1.4608   54.3535   30.5325 H   0  0  0  0  0  0
    3.9539   53.9232   30.3709 H   0  0  0  0  0  0
    3.8556   52.6334   29.2333 H   0  0  0  0  0  0
    5.3780   55.2915   29.0102 H   0  0  0  0  0  0
    6.0605   53.6750   28.9188 H   0  0  0  0  0  0
    3.1370   54.0614   24.3896 H   0  0  0  0  0  0
    4.1016   54.9028   22.4389 H   0  0  0  0  0  0
    5.5166   53.6208   20.5874 H   0  0  0  0  0  0
    8.8006   56.1133   19.6191 H   0  0  0  0  0  0
    9.6373   55.9084   17.3658 H   0  0  0  0  0  0
    4.9608   54.6361   18.3486 H   0  0  0  0  0  0
    4.8989   50.6560   14.7818 H   0  0  0  0  0  0
    3.7053   51.8050   15.2964 H   0  0  0  0  0  0
    4.2002   53.0346   13.0255 H   0  0  0  0  0  0
    3.7140   51.3673   12.7394 H   0  0  0  0  0  0
    6.8115   53.4689   12.8471 H   0  0  0  0  0  0
    7.7873   52.0327   12.5828 H   0  0  0  0  0  0
    7.8346   52.6084   15.1268 H   0  0  0  0  0  0
    7.1269   51.0978   14.7065 H   0  0  0  0  0  0
    9.6898   55.1997   13.7974 H   0  0  0  0  0  0
    9.7402   56.4330   15.0436 H   0  0  0  0  0  0
   10.2917   54.7819   15.3966 H   0  0  0  0  0  0
    2.1928   52.8650   27.1688 H   0  0  0  0  0  0
    1.6719   54.4762   26.7413 H   0  0  0  0  0  0
  1  2  1  0  0  0
  1 35  1  0  0  0
  1 36  1  0  0  0
  1 37  1  0  0  0
  2  3  1  0  0  0
  2 34  1  0  0  0
  2  4  1  0  0  0
  4  5  1  0  0  0
  4 38  1  0  0  0
  4 39  1  0  0  0
  5  6  1  0  0  0
  5 40  1  0  0  0
  5 41  1  0  0  0
  6 10  1  0  0  0
  6  7  2  0  0  0
  7  8  1  0  0  0
  7 34  1  0  0  0
  8  9  2  0  0  0
  8 42  1  0  0  0
  9 10  1  0  0  0
  9 11  1  0  0  0
 11 12  2  0  0  0
 11 13  1  0  0  0
 13 14  1  0  0  0
 13 43  1  0  0  0
 14 15  1  0  0  0
 14 44  1  0  0  0
 15 16  2  0  0  0
 15 17  1  0  0  0
 17 22  2  0  0  0
 17 18  1  0  0  0
 18 19  2  0  0  0
 18 45  1  0  0  0
 19 20  1  0  0  0
 19 46  1  0  0  0
 20 21  2  0  0  0
 20 32  1  0  0  0
 21 22  1  0  0  0
 21 23  1  0  0  0
 22 47  1  0  0  0
 23 24  2  0  0  0
 23 25  2  0  0  0
 23 26  1  0  0  0
 26 31  1  0  0  0
 26 27  1  0  0  0
 27 28  1  0  0  0
 27 48  1  0  0  0
 27 49  1  0  0  0
 28 29  1  0  0  0
 28 50  1  0  0  0
 28 51  1  0  0  0
 29 30  1  0  0  0
 30 31  1  0  0  0
 30 52  1  0  0  0
 30 53  1  0  0  0
 31 54  1  0  0  0
 31 55  1  0  0  0
 32 33  1  0  0  0
 33 56  1  0  0  0
 33 57  1  0  0  0
 33 58  1  0  0  0
 34 59  1  0  0  0
 34 60  1  0  0  0
M  END
> <i_i_glide_confnum>
268

> <i_i_glide_lignum>
3354

> <i_i_glide_posenum>
248

> <i_i_glide_rotatable_bonds>
8

> <i_m_Source_File_Index>
3857

> <b_m_subgroup_collapsed>
0

> <r_i_docking_score>
-4.12579

> <r_i_glide_ecoul>
-1.92543

> <r_i_glide_eff_state_penalty>
0

> <r_i_glide_einternal>
4.46414

> <r_i_glide_emodel>
-51.6168

> <r_i_glide_energy>
-41.9891

> <r_i_glide_erotb>
0.585326

> <r_i_glide_esite>
-0.0318854

> <r_i_glide_evdw>
-40.0636

> <r_i_glide_gscore>
-4.12579

> <r_i_glide_hbond>
-0.198263

> <r_i_glide_ligand_efficiency>
-0.125024

> <r_i_glide_ligand_efficiency_ln>
-0.917555

> <r_i_glide_ligand_efficiency_sa>
-0.401019

> <r_i_glide_lipo>
-2.52354

> <r_i_glide_metal>
0

> <r_i_glide_rewards>
0.334561

> <s_i_glide_gridfile>
wee1_glide-grid

> <s_m_Source_File>
wee1_decoys_glide_SP.sdf

> <s_m_Source_Path>
/Users/zhangxujun/Desktop

> <s_m_entry_id>
4132

> <s_m_entry_name>
wee1_decoys_glide_SP.3857

> <s_m_subgroup_title>
wee1_decoys_glide_SP

> <s_m_subgroupid>
wee1_decoys_glide_SP


$$$$
