ZINC25059818_533
                    3D
 Schrodinger Suite 2024-2.
 56 59  0  0  1  0            999 V2000
    6.6268   54.8990   22.9268 C   0  0  0  0  0  0
    5.8979   54.5145   24.1999 C   0  0  0  0  0  0
    6.5671   54.5836   25.4181 C   0  0  0  0  0  0
    5.9170   54.2234   26.5944 C   0  0  0  0  0  0
    4.5869   53.7794   26.5691 C   0  0  0  0  0  0
    3.9268   53.7190   25.3338 C   0  0  0  0  0  0
    4.5722   54.0967   24.1585 C   0  0  0  0  0  0
    3.9546   53.3406   27.8699 C   0  0  0  0  0  0
    4.6745   52.9013   28.8809 N   0  0  0  0  0  0
    3.8199   52.6486   29.9471 N   0  0  0  0  0  0
    2.6088   52.9599   29.5611 C   0  0  0  0  0  0
    1.2163   52.8958   30.6550 S   0  5  0  0  0  0
    2.6106   53.3678   28.2321 N   0  0  0  0  0  0
    1.4541   53.8206   27.4525 C   0  0  0  0  0  0
    0.4899   52.7076   27.0086 C   0  0  0  0  0  0
   -0.5750   52.5843   27.6159 O   0  0  0  0  0  0
    0.8267   51.9669   25.9302 N   0  0  0  0  0  0
   -0.0016   51.0221   25.3366 C   0  0  0  0  0  0
   -1.3138   51.0254   25.3507 N   0  0  0  0  0  0
   -1.8382   49.9583   24.7707 C   0  0  0  0  0  0
   -0.9028   49.0947   24.2026 C   0  0  0  0  0  0
    0.7040   49.6971   24.4818 S   0  0  0  0  0  0
   -3.3615   49.8135   24.7665 C   0  0  0  0  0  0
   -4.0664   50.5265   25.8450 N   0  0  0  0  0  0
   -3.7916   49.9500   27.1771 C   0  0  0  0  0  0
   -4.5284   50.7482   28.2800 C   0  0  1  0  0  0
   -4.1348   51.7654   28.3151 H   0  0  0  0  0  0
   -5.9236   50.8196   27.9792 O   0  0  0  0  0  0
   -6.1818   51.4338   26.7195 C   0  0  1  0  0  0
   -5.7748   52.4485   26.7291 H   0  0  0  0  0  0
   -5.5150   50.5893   25.6072 C   0  0  0  0  0  0
   -7.7006   51.5280   26.5278 C   0  0  0  0  0  0
   -4.3452   50.1254   29.6682 C   0  0  0  0  0  0
    7.2073   55.8103   23.0800 H   0  0  0  0  0  0
    5.9367   55.0937   22.1030 H   0  0  0  0  0  0
    7.3207   54.1094   22.6375 H   0  0  0  0  0  0
    7.5947   54.9014   25.4460 H   0  0  0  0  0  0
    6.4565   54.2750   27.5290 H   0  0  0  0  0  0
    2.9265   53.3391   25.2428 H   0  0  0  0  0  0
    4.0492   54.0351   23.2152 H   0  0  0  0  0  0
    0.9034   54.5252   28.0748 H   0  0  0  0  0  0
    1.7714   54.4334   26.6160 H   0  0  0  0  0  0
    1.7857   51.9876   25.6225 H   0  0  0  0  0  0
   -1.0689   48.1725   23.6716 H   0  0  0  0  0  0
   -3.7320   50.1880   23.8108 H   0  0  0  0  0  0
   -3.6389   48.7565   24.7920 H   0  0  0  0  0  0
   -4.0680   48.8936   27.1858 H   0  0  0  0  0  0
   -2.7159   50.0396   27.3359 H   0  0  0  0  0  0
   -5.6456   51.0853   24.6438 H   0  0  0  0  0  0
   -5.9129   49.5721   25.5592 H   0  0  0  0  0  0
   -7.9534   52.0025   25.5796 H   0  0  0  0  0  0
   -8.1631   50.5390   26.5441 H   0  0  0  0  0  0
   -8.1563   52.1174   27.3245 H   0  0  0  0  0  0
   -3.2926   50.0972   29.9518 H   0  0  0  0  0  0
   -4.8758   50.6975   30.4314 H   0  0  0  0  0  0
   -4.7204   49.1020   29.6962 H   0  0  0  0  0  0
  1  2  1  0  0  0
  1 34  1  0  0  0
  1 35  1  0  0  0
  1 36  1  0  0  0
  2  7  2  0  0  0
  2  3  1  0  0  0
  3  4  2  0  0  0
  3 37  1  0  0  0
  4  5  1  0  0  0
  4 38  1  0  0  0
  5  6  2  0  0  0
  5  8  1  0  0  0
  6  7  1  0  0  0
  6 39  1  0  0  0
  7 40  1  0  0  0
  8 13  1  0  0  0
  8  9  2  0  0  0
  9 10  1  0  0  0
 10 11  2  0  0  0
 11 12  1  0  0  0
 11 13  1  0  0  0
 13 14  1  0  0  0
 14 15  1  0  0  0
 14 41  1  0  0  0
 14 42  1  0  0  0
 15 16  2  0  0  0
 15 17  1  0  0  0
 17 18  1  0  0  0
 17 43  1  0  0  0
 18 22  1  0  0  0
 18 19  2  0  0  0
 19 20  1  0  0  0
 20 21  2  0  0  0
 20 23  1  0  0  0
 21 22  1  0  0  0
 21 44  1  0  0  0
 23 24  1  0  0  0
 23 45  1  0  0  0
 23 46  1  0  0  0
 24 31  1  0  0  0
 24 25  1  0  0  0
 25 26  1  0  0  0
 25 47  1  0  0  0
 25 48  1  0  0  0
 26 27  1  0  0  0
 26 28  1  0  0  0
 26 33  1  0  0  0
 28 29  1  0  0  0
 29 30  1  0  0  0
 29 31  1  0  0  0
 29 32  1  0  0  0
 31 49  1  0  0  0
 31 50  1  0  0  0
 32 51  1  0  0  0
 32 52  1  0  0  0
 32 53  1  0  0  0
 33 54  1  0  0  0
 33 55  1  0  0  0
 33 56  1  0  0  0
M  CHG  1  12  -1
M  END
> <i_i_glide_confnum>
116

> <i_i_glide_lignum>
534

> <i_i_glide_posenum>
96

> <i_i_glide_rotatable_bonds>
7

> <i_m_Source_File_Index>
33

> <b_m_subgroup_collapsed>
0

> <r_i_docking_score>
-4.4763

> <r_i_glide_ecoul>
-0.729977

> <r_i_glide_eff_state_penalty>
0

> <r_i_glide_einternal>
12.5469

> <r_i_glide_emodel>
-44.5437

> <r_i_glide_energy>
-36.627

> <r_i_glide_erotb>
0.672149

> <r_i_glide_esite>
0

> <r_i_glide_evdw>
-35.897

> <r_i_glide_gscore>
-4.4763

> <r_i_glide_hbond>
0

> <r_i_glide_ligand_efficiency>
-0.144397

> <r_i_glide_ligand_efficiency_ln>
-1.00954

> <r_i_glide_ligand_efficiency_sa>
-0.453605

> <r_i_glide_lipo>
-2.03504

> <r_i_glide_metal>
0

> <r_i_glide_rewards>
-1.20906

> <s_i_glide_gridfile>
wee1_glide-grid

> <s_m_Source_File>
wee1_decoys_glide_SP.sdf

> <s_m_Source_Path>
/Users/zhangxujun/Desktop

> <s_m_entry_id>
308

> <s_m_entry_name>
wee1_decoys_glide_SP.33

> <s_m_subgroup_title>
wee1_decoys_glide_SP

> <s_m_subgroupid>
wee1_decoys_glide_SP


$$$$
