ZINC35674641_841
                    3D
 Schrodinger Suite 2024-2.
 65 67  0  0  1  0            999 V2000
    1.0767   48.9942   25.5517 C   0  0  0  0  0  0
    0.3824   49.9198   26.5447 C   0  0  0  0  0  0
   -0.6782   50.8831   25.9618 C   0  0  2  0  0  0
   -1.0940   50.3817   25.0888 H   0  0  0  0  0  0
   -0.0951   52.2999   25.5489 C   0  0  1  0  0  0
   -0.9329   52.9929   25.5222 H   0  0  0  0  0  0
    0.9080   52.8521   26.6134 C   0  0  0  0  0  0
    0.5729   52.9054   27.9753 C   0  0  0  0  0  0
    1.4710   53.3579   28.9572 C   0  0  0  0  0  0
    2.7345   53.8174   28.5665 C   0  0  0  0  0  0
    3.0551   53.8250   27.2040 C   0  0  0  0  0  0
    2.1653   53.3609   26.2344 C   0  0  0  0  0  0
    2.5494   53.4005   24.7691 C   0  0  0  0  0  0
    1.3001   53.5820   23.9066 C   0  0  0  0  0  0
    0.4683   52.3867   24.1601 N   0  0  0  0  0  0
   -0.2112   51.9201   23.0769 C   0  0  0  0  0  0
   -1.4284   51.7336   23.0590 O   0  0  0  0  0  0
    0.5823   51.5989   22.0334 N   0  0  0  0  0  0
    0.1470   51.0214   20.7622 C   0  0  0  0  0  0
   -0.5088   52.0722   19.8476 C   0  0  0  0  0  0
    1.3241   50.3197   20.0654 C   0  0  0  0  0  0
    3.6062   54.2425   29.5565 O   0  0  0  0  0  0
    4.9598   54.5319   29.2115 C   0  0  0  0  0  0
    1.1883   53.3660   30.3137 O   0  0  0  0  0  0
   -0.0304   52.7961   30.7783 C   0  0  0  0  0  0
   -1.8206   50.9132   26.8855 N   0  0  0  0  0  0
   -2.9999   51.5397   26.7453 C   0  0  0  0  0  0
   -3.2589   52.2762   25.7936 O   0  0  0  0  0  0
   -4.0213   51.2916   27.8395 C   0  0  0  0  0  0
   -3.6671   50.6785   29.0549 C   0  0  0  0  0  0
   -4.6094   50.4939   30.0596 C   0  0  0  0  0  0
   -5.9194   50.9227   29.8659 C   0  0  0  0  0  0
   -6.2960   51.5197   28.6634 C   0  0  0  0  0  0
   -5.3513   51.7014   27.6553 C   0  0  0  0  0  0
   -7.0797   50.7239   31.1276 Cl  0  0  0  0  0  0
    1.8927   48.4953   26.0816 H   0  0  0  0  0  0
    0.3991   48.2292   25.1706 H   0  0  0  0  0  0
    1.4861   49.5385   24.7022 H   0  0  0  0  0  0
    1.1414   50.4306   27.1304 H   0  0  0  0  0  0
   -0.0948   49.2895   27.2814 H   0  0  0  0  0  0
   -0.4028   52.5564   28.2686 H   0  0  0  0  0  0
    4.0121   54.1888   26.8644 H   0  0  0  0  0  0
    3.2366   54.2266   24.5852 H   0  0  0  0  0  0
    3.0855   52.4971   24.4860 H   0  0  0  0  0  0
    0.7795   54.5075   24.1464 H   0  0  0  0  0  0
    1.6353   53.6586   22.8702 H   0  0  0  0  0  0
    1.5795   51.6956   22.1531 H   0  0  0  0  0  0
   -0.5964   50.2479   20.9778 H   0  0  0  0  0  0
   -0.8058   51.6261   18.8966 H   0  0  0  0  0  0
   -1.4045   52.4974   20.2979 H   0  0  0  0  0  0
    0.1868   52.8783   19.6111 H   0  0  0  0  0  0
    1.0131   49.8875   19.1139 H   0  0  0  0  0  0
    2.1350   51.0144   19.8367 H   0  0  0  0  0  0
    1.7205   49.5009   20.6702 H   0  0  0  0  0  0
    5.4944   54.9066   30.0812 H   0  0  0  0  0  0
    5.4771   53.6362   28.8650 H   0  0  0  0  0  0
    5.0355   55.2963   28.4412 H   0  0  0  0  0  0
   -0.0862   52.8995   31.8623 H   0  0  0  0  0  0
   -0.0923   51.7332   30.5423 H   0  0  0  0  0  0
   -0.8937   53.3035   30.3508 H   0  0  0  0  0  0
   -1.7703   50.2077   27.6122 H   0  0  0  0  0  0
   -2.6577   50.3472   29.2535 H   0  0  0  0  0  0
   -4.3118   50.0313   30.9919 H   0  0  0  0  0  0
   -7.3164   51.8415   28.5124 H   0  0  0  0  0  0
   -5.6607   52.1710   26.7309 H   0  0  0  0  0  0
  1  2  1  0  0  0
  1 36  1  0  0  0
  1 37  1  0  0  0
  1 38  1  0  0  0
  2  3  1  0  0  0
  2 39  1  0  0  0
  2 40  1  0  0  0
  3  4  1  0  0  0
  3  5  1  0  0  0
  3 26  1  0  0  0
  5  6  1  0  0  0
  5 15  1  0  0  0
  5  7  1  0  0  0
  7 12  2  0  0  0
  7  8  1  0  0  0
  8  9  2  0  0  0
  8 41  1  0  0  0
  9 10  1  0  0  0
  9 24  1  0  0  0
 10 11  2  0  0  0
 10 22  1  0  0  0
 11 12  1  0  0  0
 11 42  1  0  0  0
 12 13  1  0  0  0
 13 14  1  0  0  0
 13 43  1  0  0  0
 13 44  1  0  0  0
 14 15  1  0  0  0
 14 45  1  0  0  0
 14 46  1  0  0  0
 15 16  1  0  0  0
 16 17  2  0  0  0
 16 18  1  0  0  0
 18 19  1  0  0  0
 18 47  1  0  0  0
 19 20  1  0  0  0
 19 21  1  0  0  0
 19 48  1  0  0  0
 20 49  1  0  0  0
 20 50  1  0  0  0
 20 51  1  0  0  0
 21 52  1  0  0  0
 21 53  1  0  0  0
 21 54  1  0  0  0
 22 23  1  0  0  0
 23 55  1  0  0  0
 23 56  1  0  0  0
 23 57  1  0  0  0
 24 25  1  0  0  0
 25 58  1  0  0  0
 25 59  1  0  0  0
 25 60  1  0  0  0
 26 27  1  0  0  0
 26 61  1  0  0  0
 27 28  2  0  0  0
 27 29  1  0  0  0
 29 34  2  0  0  0
 29 30  1  0  0  0
 30 31  2  0  0  0
 30 62  1  0  0  0
 31 32  1  0  0  0
 31 63  1  0  0  0
 32 33  2  0  0  0
 32 35  1  0  0  0
 33 34  1  0  0  0
 33 64  1  0  0  0
 34 65  1  0  0  0
M  END
> <i_i_glide_confnum>
158

> <i_i_glide_lignum>
842

> <i_i_glide_posenum>
228

> <i_i_glide_rotatable_bonds>
10

> <i_m_Source_File_Index>
4109

> <b_m_subgroup_collapsed>
0

> <r_i_docking_score>
-4.69978

> <r_i_glide_ecoul>
-7.27762

> <r_i_glide_eff_state_penalty>
0

> <r_i_glide_einternal>
5.39899

> <r_i_glide_emodel>
-53.2636

> <r_i_glide_energy>
-42.7327

> <r_i_glide_erotb>
0.450256

> <r_i_glide_esite>
-0.12336

> <r_i_glide_evdw>
-35.4551

> <r_i_glide_gscore>
-4.69978

> <r_i_glide_hbond>
-0.242137

> <r_i_glide_ligand_efficiency>
-0.142417

> <r_i_glide_ligand_efficiency_ln>
-1.04521

> <r_i_glide_ligand_efficiency_sa>
-0.456809

> <r_i_glide_lipo>
-1.52179

> <r_i_glide_metal>
0

> <r_i_glide_rewards>
-0.398348

> <s_i_glide_gridfile>
wee1_glide-grid

> <s_m_Source_File>
wee1_decoys_glide_SP.sdf

> <s_m_Source_Path>
/Users/zhangxujun/Desktop

> <s_m_entry_id>
4384

> <s_m_entry_name>
wee1_decoys_glide_SP.4109

> <s_m_subgroup_title>
wee1_decoys_glide_SP

> <s_m_subgroupid>
wee1_decoys_glide_SP


$$$$
