ZINC29635521_485
                    3D
 Schrodinger Suite 2024-2.
 53 56  0  0  1  0            999 V2000
    5.8945   53.2772   16.7747 C   0  0  0  0  0  0
    7.4032   53.3994   16.9301 C   0  0  0  0  0  0
    8.1827   52.2729   16.6566 C   0  0  0  0  0  0
    9.5712   52.3350   16.7225 C   0  0  0  0  0  0
   10.2172   53.5282   17.0703 C   0  0  0  0  0  0
    9.4325   54.6470   17.3835 C   0  0  0  0  0  0
    8.0359   54.5981   17.3108 C   0  0  0  0  0  0
    7.1245   56.1114   17.6566 S   0  0  0  0  0  0
    6.5047   56.5167   16.3916 O   0  0  0  0  0  0
    8.0042   57.0373   18.3791 O   0  0  0  0  0  0
    5.7871   55.6751   18.7380 N   0  0  0  0  0  0
    5.9102   55.2529   20.0690 C   0  0  0  0  0  0
    4.9090   54.4157   20.5620 C   0  0  0  0  0  0
    4.9062   54.0323   21.8991 C   0  0  0  0  0  0
    5.8981   54.4964   22.7639 C   0  0  0  0  0  0
    6.9324   55.2970   22.2594 C   0  0  0  0  0  0
    6.9392   55.6703   20.9186 C   0  0  0  0  0  0
    5.7378   54.1580   24.1181 N   0  0  0  0  0  0
    6.2253   54.7710   25.2171 C   0  0  0  0  0  0
    7.1026   55.6319   25.2426 O   0  0  0  0  0  0
    5.5479   54.3825   26.4245 C   0  0  0  0  0  0
    4.3142   53.7508   26.6073 C   0  0  0  0  0  0
    4.0028   53.6899   27.9744 C   0  0  0  0  0  0
    5.0732   54.2971   28.6205 C   0  0  0  0  0  0
    5.9817   54.7155   27.6835 N   0  0  0  0  0  0
    6.8319   55.2232   27.8932 H   0  0  0  0  0  0
    2.7892   53.1300   28.5633 C   0  0  0  0  0  0
    1.7163   52.6121   27.8369 C   0  0  0  0  0  0
    0.4622   52.0995   28.9176 S   0  0  0  0  0  0
    1.4668   52.5950   30.2406 C   0  0  0  0  0  0
    2.6214   53.0986   29.8747 N   0  0  0  0  0  0
    1.0391   52.4965   31.6822 C   0  0  0  0  0  0
   11.6974   53.6068   17.0972 N   0  3  0  0  0  0
   12.3441   52.5787   16.9180 O   0  0  0  0  0  0
   12.2230   54.7002   17.2817 O   0  5  0  0  0  0
    5.6296   52.4464   16.1192 H   0  0  0  0  0  0
    5.4246   53.1037   17.7425 H   0  0  0  0  0  0
    5.4620   54.1664   16.3192 H   0  0  0  0  0  0
    7.7130   51.3395   16.3809 H   0  0  0  0  0  0
   10.1423   51.4466   16.4923 H   0  0  0  0  0  0
    9.9141   55.5733   17.6649 H   0  0  0  0  0  0
    4.9291   55.4379   18.2649 H   0  0  0  0  0  0
    4.1053   54.0830   19.9201 H   0  0  0  0  0  0
    4.0981   53.4136   22.2612 H   0  0  0  0  0  0
    7.7231   55.6711   22.8876 H   0  0  0  0  0  0
    7.7383   56.3065   20.5798 H   0  0  0  0  0  0
    5.0379   53.4573   24.2995 H   0  0  0  0  0  0
    3.6734   53.3816   25.8202 H   0  0  0  0  0  0
    5.2532   54.4940   29.6670 H   0  0  0  0  0  0
    1.5972   52.5206   26.7682 H   0  0  0  0  0  0
    1.8742   52.2882   32.3515 H   0  0  0  0  0  0
    0.3058   51.7028   31.8333 H   0  0  0  0  0  0
    0.5692   53.4183   32.0270 H   0  0  0  0  0  0
  1  2  1  0  0  0
  1 36  1  0  0  0
  1 37  1  0  0  0
  1 38  1  0  0  0
  2  7  2  0  0  0
  2  3  1  0  0  0
  3  4  2  0  0  0
  3 39  1  0  0  0
  4  5  1  0  0  0
  4 40  1  0  0  0
  5  6  2  0  0  0
  5 33  1  0  0  0
  6  7  1  0  0  0
  6 41  1  0  0  0
  7  8  1  0  0  0
  8  9  2  0  0  0
  8 10  2  0  0  0
  8 11  1  0  0  0
 11 12  1  0  0  0
 11 42  1  0  0  0
 12 17  2  0  0  0
 12 13  1  0  0  0
 13 14  2  0  0  0
 13 43  1  0  0  0
 14 15  1  0  0  0
 14 44  1  0  0  0
 15 16  2  0  0  0
 15 18  1  0  0  0
 16 17  1  0  0  0
 16 45  1  0  0  0
 17 46  1  0  0  0
 18 19  1  0  0  0
 18 47  1  0  0  0
 19 20  2  0  0  0
 19 21  1  0  0  0
 21 25  1  0  0  0
 21 22  2  0  0  0
 22 23  1  0  0  0
 22 48  1  0  0  0
 23 24  2  0  0  0
 23 27  1  0  0  0
 24 25  1  0  0  0
 24 49  1  0  0  0
 25 26  1  0  0  0
 27 31  1  0  0  0
 27 28  2  0  0  0
 28 29  1  0  0  0
 28 50  1  0  0  0
 29 30  1  0  0  0
 30 31  2  0  0  0
 30 32  1  0  0  0
 32 51  1  0  0  0
 32 52  1  0  0  0
 32 53  1  0  0  0
 33 34  2  0  0  0
 33 35  1  0  0  0
M  CHG  2  33   1  35  -1
M  END
> <i_i_glide_confnum>
49

> <i_i_glide_lignum>
486

> <i_i_glide_posenum>
141

> <i_i_glide_rotatable_bonds>
8

> <i_m_Source_File_Index>
3385

> <b_m_subgroup_collapsed>
0

> <r_i_docking_score>
-6.56459

> <r_i_glide_ecoul>
-5.95485

> <r_i_glide_eff_state_penalty>
0

> <r_i_glide_einternal>
6.33868

> <r_i_glide_emodel>
-76.2478

> <r_i_glide_energy>
-58.5616

> <r_i_glide_erotb>
0.57684

> <r_i_glide_esite>
-0.0116429

> <r_i_glide_evdw>
-52.6068

> <r_i_glide_gscore>
-6.56459

> <r_i_glide_hbond>
-0.494483

> <r_i_glide_ligand_efficiency>
-0.193076

> <r_i_glide_ligand_efficiency_ln>
-1.4503

> <r_i_glide_ligand_efficiency_sa>
-0.625492

> <r_i_glide_lipo>
-2.49892

> <r_i_glide_metal>
0

> <r_i_glide_rewards>
-0.612815

> <s_i_glide_gridfile>
wee1_glide-grid

> <s_m_Source_File>
wee1_decoys_glide_SP.sdf

> <s_m_Source_Path>
/Users/zhangxujun/Desktop

> <s_m_entry_id>
3660

> <s_m_entry_name>
wee1_decoys_glide_SP.3385

> <s_m_subgroup_title>
wee1_decoys_glide_SP

> <s_m_subgroupid>
wee1_decoys_glide_SP


$$$$
