ZINC65074622_5020
                    3D
 Schrodinger Suite 2024-2.
 64 67  0  0  1  0            999 V2000
    1.9187   54.4864   27.6699 C   0  0  0  0  0  0
    1.6358   53.4175   28.7318 C   0  0  0  0  0  0
    0.1952   52.8694   28.6724 C   0  0  0  0  0  0
   -0.1244   52.0330   27.4349 C   0  0  0  0  0  0
   -1.1968   52.3668   26.6026 C   0  0  0  0  0  0
   -1.5102   51.5654   25.5041 C   0  0  0  0  0  0
   -0.7652   50.4106   25.2505 C   0  0  0  0  0  0
    0.3045   50.0750   26.0814 C   0  0  0  0  0  0
    0.6306   50.8941   27.1597 C   0  0  0  0  0  0
   -1.1806   49.3352   23.8704 S   0  0  0  0  0  0
   -0.7956   47.9714   24.2531 O   0  0  0  0  0  0
   -2.5577   49.6462   23.4688 O   0  0  0  0  0  0
   -0.1057   49.8286   22.5464 N   0  0  0  0  0  0
   -0.4543   51.0569   21.8000 C   0  0  0  0  0  0
    0.2325   51.0253   20.4158 C   0  0  0  0  0  0
    1.7777   50.8093   20.4574 C   0  0  0  0  0  0
    2.1264   49.6708   21.4684 C   0  0  0  0  0  0
    1.3400   49.6593   22.7981 C   0  0  0  0  0  0
    2.4922   52.1481   20.7560 C   0  0  0  0  0  0
    3.0709   52.8963   19.8034 N   0  3  0  0  0  0
    3.1754   52.5404   18.3932 C   0  0  0  0  0  0
    2.2201   51.3832   18.0923 C   0  0  0  0  0  0
    2.3049   50.3851   19.1479 N   0  0  0  0  0  0
    2.4675   52.5789   22.0250 N   0  0  0  0  0  0
    2.7794   53.9330   22.5045 C   0  0  0  0  0  0
    4.1431   54.0964   23.1320 C   0  0  0  0  0  0
    4.2940   54.0968   24.5221 C   0  0  0  0  0  0
    5.5425   54.3498   25.0911 C   0  0  0  0  0  0
    6.6396   54.6057   24.2712 C   0  0  0  0  0  0
    6.4879   54.6085   22.8856 C   0  0  0  0  0  0
    5.2485   54.3405   22.3161 C   0  0  0  0  0  0
    7.5280   54.9037   22.0816 F   0  0  0  0  0  0
    5.6862   54.3608   26.4352 F   0  0  0  0  0  0
    2.9500   54.8363   27.7255 H   0  0  0  0  0  0
    1.2652   55.3478   27.8041 H   0  0  0  0  0  0
    1.7493   54.0972   26.6666 H   0  0  0  0  0  0
    2.3597   52.6068   28.6422 H   0  0  0  0  0  0
    1.8048   53.8545   29.7168 H   0  0  0  0  0  0
    0.0070   52.2432   29.5465 H   0  0  0  0  0  0
   -0.4958   53.7069   28.7562 H   0  0  0  0  0  0
   -1.7964   53.2399   26.8140 H   0  0  0  0  0  0
   -2.3477   51.8273   24.8731 H   0  0  0  0  0  0
    0.8733   49.1714   25.9072 H   0  0  0  0  0  0
    1.4492   50.6106   27.8039 H   0  0  0  0  0  0
   -1.5366   51.1236   21.6829 H   0  0  0  0  0  0
   -0.0725   51.9228   22.3409 H   0  0  0  0  0  0
   -0.2284   50.2300   19.8265 H   0  0  0  0  0  0
    0.0081   51.9513   19.8867 H   0  0  0  0  0  0
    3.1925   49.6914   21.6799 H   0  0  0  0  0  0
    1.9481   48.7025   20.9945 H   0  0  0  0  0  0
    1.6928   50.4955   23.3991 H   0  0  0  0  0  0
    1.5039   48.7153   23.3156 H   0  0  0  0  0  0
    2.9470   53.4161   17.7851 H   0  0  0  0  0  0
    4.2110   52.2533   18.2052 H   0  0  0  0  0  0
    1.1971   51.7410   17.9737 H   0  0  0  0  0  0
    2.5112   50.9212   17.1464 H   0  0  0  0  0  0
    3.2530   50.0196   19.1501 H   0  0  0  0  0  0
    2.0344   51.9564   22.6903 H   0  0  0  0  0  0
    2.7007   54.6384   21.6819 H   0  0  0  0  0  0
    2.0007   54.2058   23.2180 H   0  0  0  0  0  0
    3.4481   53.9140   25.1653 H   0  0  0  0  0  0
    7.6007   54.8148   24.7087 H   0  0  0  0  0  0
    5.1516   54.3687   21.2415 H   0  0  0  0  0  0
    3.4762   53.7706   20.1017 H   0  0  0  0  0  0
  1  2  1  0  0  0
  1 34  1  0  0  0
  1 35  1  0  0  0
  1 36  1  0  0  0
  2  3  1  0  0  0
  2 37  1  0  0  0
  2 38  1  0  0  0
  3  4  1  0  0  0
  3 39  1  0  0  0
  3 40  1  0  0  0
  4  9  2  0  0  0
  4  5  1  0  0  0
  5  6  2  0  0  0
  5 41  1  0  0  0
  6  7  1  0  0  0
  6 42  1  0  0  0
  7  8  2  0  0  0
  7 10  1  0  0  0
  8  9  1  0  0  0
  8 43  1  0  0  0
  9 44  1  0  0  0
 10 11  2  0  0  0
 10 12  2  0  0  0
 10 13  1  0  0  0
 13 18  1  0  0  0
 13 14  1  0  0  0
 14 15  1  0  0  0
 14 45  1  0  0  0
 14 46  1  0  0  0
 15 16  1  0  0  0
 15 47  1  0  0  0
 15 48  1  0  0  0
 16 23  1  0  0  0
 16 17  1  0  0  0
 16 19  1  0  0  0
 17 18  1  0  0  0
 17 49  1  0  0  0
 17 50  1  0  0  0
 18 51  1  0  0  0
 18 52  1  0  0  0
 19 20  2  0  0  0
 19 24  1  0  0  0
 20 21  1  0  0  0
 20 64  1  0  0  0
 21 22  1  0  0  0
 21 53  1  0  0  0
 21 54  1  0  0  0
 22 23  1  0  0  0
 22 55  1  0  0  0
 22 56  1  0  0  0
 23 57  1  0  0  0
 24 25  1  0  0  0
 24 58  1  0  0  0
 25 26  1  0  0  0
 25 59  1  0  0  0
 25 60  1  0  0  0
 26 31  2  0  0  0
 26 27  1  0  0  0
 27 28  2  0  0  0
 27 61  1  0  0  0
 28 29  1  0  0  0
 28 33  1  0  0  0
 29 30  2  0  0  0
 29 62  1  0  0  0
 30 31  1  0  0  0
 30 32  1  0  0  0
 31 63  1  0  0  0
M  CHG  1  20   1
M  END
> <i_i_glide_confnum>
114

> <i_i_glide_lignum>
5021

> <i_i_glide_posenum>
150

> <i_i_glide_rotatable_bonds>
7

> <i_m_Source_File_Index>
938

> <b_m_subgroup_collapsed>
0

> <r_i_docking_score>
-4.36759

> <r_i_glide_ecoul>
-0.990286

> <r_i_glide_eff_state_penalty>
0

> <r_i_glide_einternal>
3.52089

> <r_i_glide_emodel>
-44.2578

> <r_i_glide_energy>
-35.644

> <r_i_glide_erotb>
0.532893

> <r_i_glide_esite>
-0.109237

> <r_i_glide_evdw>
-34.6537

> <r_i_glide_gscore>
-4.36759

> <r_i_glide_hbond>
-0.0265678

> <r_i_glide_ligand_efficiency>
-0.132351

> <r_i_glide_ligand_efficiency_ln>
-0.971329

> <r_i_glide_ligand_efficiency_sa>
-0.424521

> <r_i_glide_lipo>
-2.27103

> <r_i_glide_metal>
0

> <r_i_glide_rewards>
-0.612418

> <s_i_glide_gridfile>
wee1_glide-grid

> <s_m_Source_File>
wee1_decoys_glide_SP.sdf

> <s_m_Source_Path>
/Users/zhangxujun/Desktop

> <s_m_entry_id>
1213

> <s_m_entry_name>
wee1_decoys_glide_SP.938

> <s_m_subgroup_title>
wee1_decoys_glide_SP

> <s_m_subgroupid>
wee1_decoys_glide_SP


$$$$
