ZINC08965442_5024
                    3D
 Schrodinger Suite 2024-2.
 57 59  0  0  1  0            999 V2000
   -0.1910   49.3376   17.6525 C   0  0  0  0  0  0
   -0.3949   49.8235   19.0911 C   0  0  0  0  0  0
   -0.5626   48.9148   20.1586 C   0  0  0  0  0  0
   -0.7323   49.4173   21.4732 C   0  0  0  0  0  0
   -0.7299   50.8170   21.6541 C   0  0  0  0  0  0
   -0.6282   51.6832   20.6227 N   0  0  0  0  0  0
   -0.4354   51.1970   19.3761 C   0  0  0  0  0  0
   -0.2337   52.2651   18.3131 C   0  0  0  0  0  0
   -0.8553   51.6075   23.2414 S   0  0  0  0  0  0
    0.5957   51.0654   24.1961 C   0  0  0  0  0  0
    0.8677   51.9262   25.4268 C   0  0  0  0  0  0
    1.6605   53.0290   25.6053 C   0  0  0  0  0  0
    1.7814   53.6799   27.0236 C   0  0  1  0  0  0
    1.4373   54.7035   26.9306 H   0  0  0  0  0  0
    0.7676   53.0538   27.9994 C   0  0  0  0  0  0
    0.0587   51.9671   27.6453 C   0  0  0  0  0  0
    0.1430   51.3750   26.4370 O   0  0  0  0  0  0
   -0.8732   51.2968   28.3893 N   0  0  0  0  0  0
    0.5557   53.6323   29.2889 C   0  0  0  0  0  0
    0.3475   54.0977   30.3281 N   0  0  0  0  0  0
    3.1971   53.8308   27.5981 C   0  0  0  0  0  0
    4.4298   53.4178   27.0841 C   0  0  0  0  0  0
    5.5486   53.7665   27.8298 C   0  0  0  0  0  0
    5.2046   54.4967   28.9386 C   0  0  0  0  0  0
    3.4996   54.7206   29.0697 S   0  0  0  0  0  0
    2.4423   53.6948   24.5160 C   0  0  0  0  0  0
    3.0643   54.7427   24.7026 O   0  0  0  0  0  0
    2.4626   53.0612   23.3183 O   0  0  0  0  0  0
    3.1704   53.5826   22.1869 C   0  0  0  0  0  0
    4.7049   53.5108   22.3463 C   0  0  0  0  0  0
    2.7158   52.7854   20.9594 C   0  0  0  0  0  0
   -0.9423   48.5142   22.6072 C   0  0  0  0  0  0
   -1.1096   47.7973   23.5005 N   0  0  0  0  0  0
   -0.5429   47.4081   19.8575 C   0  0  0  0  0  0
   -0.5335   50.0650   16.9165 H   0  0  0  0  0  0
    0.8633   49.1227   17.4667 H   0  0  0  0  0  0
   -0.7692   48.4381   17.4440 H   0  0  0  0  0  0
    0.6345   52.0328   17.6933 H   0  0  0  0  0  0
   -1.1151   52.3276   17.6720 H   0  0  0  0  0  0
   -0.0598   53.2501   18.7524 H   0  0  0  0  0  0
    0.4133   50.0474   24.5424 H   0  0  0  0  0  0
    1.4597   50.9597   23.5459 H   0  0  0  0  0  0
   -1.0682   51.5791   29.3388 H   0  0  0  0  0  0
   -1.1184   50.3387   28.1523 H   0  0  0  0  0  0
    4.5228   52.8970   26.1515 H   0  0  0  0  0  0
    6.5630   53.5125   27.5576 H   0  0  0  0  0  0
    5.8716   54.8966   29.6818 H   0  0  0  0  0  0
    2.8762   54.6245   22.0429 H   0  0  0  0  0  0
    5.2046   53.9127   21.4639 H   0  0  0  0  0  0
    5.0560   54.0907   23.1998 H   0  0  0  0  0  0
    5.0486   52.4858   22.4774 H   0  0  0  0  0  0
    3.2042   53.1402   20.0507 H   0  0  0  0  0  0
    2.9288   51.7210   21.0654 H   0  0  0  0  0  0
    1.6446   52.8966   20.8091 H   0  0  0  0  0  0
    0.3298   47.1602   19.2512 H   0  0  0  0  0  0
   -0.4958   46.7661   20.7368 H   0  0  0  0  0  0
   -1.4305   47.1284   19.2876 H   0  0  0  0  0  0
  1  2  1  0  0  0
  1 35  1  0  0  0
  1 36  1  0  0  0
  1 37  1  0  0  0
  2  7  2  0  0  0
  2  3  1  0  0  0
  3  4  2  0  0  0
  3 34  1  0  0  0
  4  5  1  0  0  0
  4 32  1  0  0  0
  5  6  2  0  0  0
  5  9  1  0  0  0
  6  7  1  0  0  0
  7  8  1  0  0  0
  8 38  1  0  0  0
  8 39  1  0  0  0
  8 40  1  0  0  0
  9 10  1  0  0  0
 10 11  1  0  0  0
 10 41  1  0  0  0
 10 42  1  0  0  0
 11 17  1  0  0  0
 11 12  2  0  0  0
 12 13  1  0  0  0
 12 26  1  0  0  0
 13 14  1  0  0  0
 13 15  1  0  0  0
 13 21  1  0  0  0
 15 16  2  0  0  0
 15 19  1  0  0  0
 16 17  1  0  0  0
 16 18  1  0  0  0
 18 43  1  0  0  0
 18 44  1  0  0  0
 19 20  3  0  0  0
 21 25  1  0  0  0
 21 22  2  0  0  0
 22 23  1  0  0  0
 22 45  1  0  0  0
 23 24  2  0  0  0
 23 46  1  0  0  0
 24 25  1  0  0  0
 24 47  1  0  0  0
 26 27  2  0  0  0
 26 28  1  0  0  0
 28 29  1  0  0  0
 29 30  1  0  0  0
 29 31  1  0  0  0
 29 48  1  0  0  0
 30 49  1  0  0  0
 30 50  1  0  0  0
 30 51  1  0  0  0
 31 52  1  0  0  0
 31 53  1  0  0  0
 31 54  1  0  0  0
 32 33  3  0  0  0
 34 55  1  0  0  0
 34 56  1  0  0  0
 34 57  1  0  0  0
M  END
> <i_i_glide_confnum>
42

> <i_i_glide_lignum>
5025

> <i_i_glide_posenum>
271

> <i_i_glide_rotatable_bonds>
9

> <i_m_Source_File_Index>
5251

> <b_m_subgroup_collapsed>
0

> <r_i_docking_score>
-5.05864

> <r_i_glide_ecoul>
-5.3065

> <r_i_glide_eff_state_penalty>
0

> <r_i_glide_einternal>
10.092

> <r_i_glide_emodel>
-51.8124

> <r_i_glide_energy>
-42.4556

> <r_i_glide_erotb>
0.526804

> <r_i_glide_esite>
-0.0895065

> <r_i_glide_evdw>
-37.1491

> <r_i_glide_gscore>
-5.05864

> <r_i_glide_hbond>
-0.16

> <r_i_glide_ligand_efficiency>
-0.153292

> <r_i_glide_ligand_efficiency_ln>
-1.12502

> <r_i_glide_ligand_efficiency_sa>
-0.49169

> <r_i_glide_lipo>
-1.89336

> <r_i_glide_metal>
0

> <r_i_glide_rewards>
-0.789144

> <s_i_glide_gridfile>
wee1_glide-grid

> <s_m_Source_File>
wee1_decoys_glide_SP.sdf

> <s_m_Source_Path>
/Users/zhangxujun/Desktop

> <s_m_entry_id>
5526

> <s_m_entry_name>
wee1_decoys_glide_SP.5251

> <s_m_subgroup_title>
wee1_decoys_glide_SP

> <s_m_subgroupid>
wee1_decoys_glide_SP


$$$$
