ZINC58326913_2572
                    3D
 Schrodinger Suite 2024-2.
 51 53  0  0  1  0            999 V2000
    2.8536   55.2213   28.4995 C   0  0  0  0  0  0
    4.1898   54.6337   28.0003 C   0  0  0  0  0  0
    5.1086   54.3376   29.1916 C   0  0  0  0  0  0
    4.0074   53.3846   27.1139 C   0  0  0  0  0  0
    3.4653   53.6970   25.7906 N   0  0  0  0  0  0
    2.1346   53.6203   25.4478 C   0  0  0  0  0  0
    1.9789   53.8513   24.0978 C   0  0  0  0  0  0
    3.2851   54.0769   23.5652 C   0  0  0  0  0  0
    4.1981   54.0533   24.6639 C   0  0  0  0  0  0
    5.5725   54.2797   24.4885 C   0  0  0  0  0  0
    6.0205   54.4959   23.1835 C   0  0  0  0  0  0
    5.1473   54.4964   22.0902 C   0  0  0  0  0  0
    3.7804   54.2842   22.2713 C   0  0  0  0  0  0
    5.5947   54.6792   20.7763 N   0  0  0  0  0  0
    6.4601   55.6206   20.3568 C   0  0  0  0  0  0
    6.9561   56.4960   21.0658 O   0  0  0  0  0  0
    6.6772   55.5268   19.0369 N   0  0  0  0  0  0
    7.1827   56.6122   18.1934 C   0  0  0  0  0  0
    6.2573   57.8564   18.0583 C   0  0  2  0  0  0
    5.9405   58.1773   19.0500 H   0  0  0  0  0  0
    4.9824   57.6318   17.2214 C   0  0  0  0  0  0
    4.6424   58.4968   16.1684 C   0  0  0  0  0  0
    3.4708   58.3147   15.4367 C   0  0  0  0  0  0
    2.6172   57.2564   15.7377 C   0  0  0  0  0  0
    2.9340   56.3865   16.7795 C   0  0  0  0  0  0
    4.1010   56.5789   17.5198 C   0  0  0  0  0  0
    2.1063   55.3627   17.0868 F   0  0  0  0  0  0
    1.4805   57.0841   15.0252 F   0  0  0  0  0  0
    7.0921   58.8967   17.5806 O   0  0  0  0  0  0
    2.3057   54.4987   29.1047 H   0  0  0  0  0  0
    2.2019   55.5165   27.6821 H   0  0  0  0  0  0
    3.0141   56.1080   29.1137 H   0  0  0  0  0  0
    4.7032   55.3716   27.3893 H   0  0  0  0  0  0
    4.6843   53.5817   29.8491 H   0  0  0  0  0  0
    6.0821   53.9739   28.8634 H   0  0  0  0  0  0
    5.2941   55.2360   29.7801 H   0  0  0  0  0  0
    4.9608   52.8785   26.9585 H   0  0  0  0  0  0
    3.3599   52.6513   27.5966 H   0  0  0  0  0  0
    1.4027   53.3633   26.2022 H   0  0  0  0  0  0
    1.0437   53.8170   23.5603 H   0  0  0  0  0  0
    6.2672   54.2516   25.3146 H   0  0  0  0  0  0
    7.0781   54.6559   23.0226 H   0  0  0  0  0  0
    3.1054   54.2911   21.4267 H   0  0  0  0  0  0
    5.1130   54.1403   20.0737 H   0  0  0  0  0  0
    6.4553   54.6609   18.5679 H   0  0  0  0  0  0
    8.1522   56.9081   18.6034 H   0  0  0  0  0  0
    7.4015   56.2147   17.2018 H   0  0  0  0  0  0
    5.2676   59.3423   15.9238 H   0  0  0  0  0  0
    3.2209   59.0038   14.6425 H   0  0  0  0  0  0
    4.2887   55.9080   18.3410 H   0  0  0  0  0  0
    6.6543   59.7643   17.6818 H   0  0  0  0  0  0
  1  2  1  0  0  0
  1 30  1  0  0  0
  1 31  1  0  0  0
  1 32  1  0  0  0
  2  3  1  0  0  0
  2  4  1  0  0  0
  2 33  1  0  0  0
  3 34  1  0  0  0
  3 35  1  0  0  0
  3 36  1  0  0  0
  4  5  1  0  0  0
  4 37  1  0  0  0
  4 38  1  0  0  0
  5  9  1  0  0  0
  5  6  1  0  0  0
  6  7  2  0  0  0
  6 39  1  0  0  0
  7  8  1  0  0  0
  7 40  1  0  0  0
  8 13  2  0  0  0
  8  9  1  0  0  0
  9 10  2  0  0  0
 10 11  1  0  0  0
 10 41  1  0  0  0
 11 12  2  0  0  0
 11 42  1  0  0  0
 12 13  1  0  0  0
 12 14  1  0  0  0
 13 43  1  0  0  0
 14 15  1  0  0  0
 14 44  1  0  0  0
 15 16  2  0  0  0
 15 17  1  0  0  0
 17 18  1  0  0  0
 17 45  1  0  0  0
 18 19  1  0  0  0
 18 46  1  0  0  0
 18 47  1  0  0  0
 19 20  1  0  0  0
 19 21  1  0  0  0
 19 29  1  0  0  0
 21 26  2  0  0  0
 21 22  1  0  0  0
 22 23  2  0  0  0
 22 48  1  0  0  0
 23 24  1  0  0  0
 23 49  1  0  0  0
 24 25  2  0  0  0
 24 28  1  0  0  0
 25 26  1  0  0  0
 25 27  1  0  0  0
 26 50  1  0  0  0
 29 51  1  0  0  0
M  END
> <i_i_glide_confnum>
88

> <i_i_glide_lignum>
2573

> <i_i_glide_posenum>
215

> <i_i_glide_rotatable_bonds>
9

> <i_m_Source_File_Index>
2253

> <b_m_subgroup_collapsed>
0

> <r_i_docking_score>
-6.18919

> <r_i_glide_ecoul>
-8.73435

> <r_i_glide_eff_state_penalty>
0

> <r_i_glide_einternal>
8.36019

> <r_i_glide_emodel>
-55.0015

> <r_i_glide_energy>
-42.9339

> <r_i_glide_erotb>
0.778441

> <r_i_glide_esite>
-0.0010723

> <r_i_glide_evdw>
-34.1996

> <r_i_glide_gscore>
-6.18919

> <r_i_glide_hbond>
-0.416709

> <r_i_glide_ligand_efficiency>
-0.221043

> <r_i_glide_ligand_efficiency_ln>
-1.42865

> <r_i_glide_ligand_efficiency_sa>
-0.671216

> <r_i_glide_lipo>
-2.55082

> <r_i_glide_metal>
0

> <r_i_glide_rewards>
-0.9789

> <s_i_glide_gridfile>
wee1_glide-grid

> <s_m_Source_File>
wee1_decoys_glide_SP.sdf

> <s_m_Source_Path>
/Users/zhangxujun/Desktop

> <s_m_entry_id>
2528

> <s_m_entry_name>
wee1_decoys_glide_SP.2253

> <s_m_subgroup_title>
wee1_decoys_glide_SP

> <s_m_subgroupid>
wee1_decoys_glide_SP


$$$$
