ZINC61327821_4812
                    3D
 Schrodinger Suite 2024-2.
 40 42  0  0  1  0            999 V2000
    5.9078   58.4934   16.8361 C   0  0  0  0  0  0
    6.0121   57.1700   17.4386 N   0  0  0  0  0  0
    6.2478   56.9529   18.7403 C   0  0  0  0  0  0
    6.7059   57.8061   19.5025 O   0  0  0  0  0  0
    5.8644   55.7128   19.1114 N   0  0  0  0  0  0
    5.8783   55.1836   20.4138 C   0  0  0  0  0  0
    6.8065   55.5830   21.3826 C   0  0  0  0  0  0
    6.7105   55.0930   22.6756 C   0  0  0  0  0  0
    5.7191   54.1712   23.0077 C   0  0  0  0  0  0
    4.8403   53.7085   22.0274 C   0  0  0  0  0  0
    4.9155   54.2193   20.7316 C   0  0  0  0  0  0
    5.6016   53.6967   24.3183 N   0  0  0  0  0  0
    5.2811   54.6620   25.3674 C   0  0  2  0  0  0
    4.8861   55.5620   24.8965 H   0  0  0  0  0  0
    6.5593   55.0366   26.1627 C   0  0  0  0  0  0
    6.9625   53.9857   27.2141 C   0  0  0  0  0  0
    5.8823   53.8025   28.2983 C   0  0  0  0  0  0
    4.5198   53.6969   27.6366 C   0  0  0  0  0  0
    4.2287   54.0966   26.3230 C   0  0  0  0  0  0
    2.8787   53.8842   26.0072 C   0  0  0  0  0  0
    2.1419   53.3636   27.0614 C   0  0  0  0  0  0
    3.1116   53.1220   28.4752 S   0  0  0  0  0  0
    6.2065   58.4498   15.7872 H   0  0  0  0  0  0
    6.5398   59.2316   17.3344 H   0  0  0  0  0  0
    4.8772   58.8444   16.8822 H   0  0  0  0  0  0
    5.8252   56.3828   16.8361 H   0  0  0  0  0  0
    5.3898   55.1530   18.4204 H   0  0  0  0  0  0
    7.6030   56.2731   21.1546 H   0  0  0  0  0  0
    7.4314   55.4310   23.4008 H   0  0  0  0  0  0
    4.0777   52.9828   22.2702 H   0  0  0  0  0  0
    4.2050   53.8835   19.9886 H   0  0  0  0  0  0
    5.0747   52.8405   24.4161 H   0  0  0  0  0  0
    7.3984   55.2165   25.4957 H   0  0  0  0  0  0
    6.3772   55.9851   26.6674 H   0  0  0  0  0  0
    7.1475   53.0310   26.7188 H   0  0  0  0  0  0
    7.9032   54.2725   27.6853 H   0  0  0  0  0  0
    6.0909   52.9064   28.8806 H   0  0  0  0  0  0
    5.9032   54.6515   28.9823 H   0  0  0  0  0  0
    2.4544   54.1083   25.0393 H   0  0  0  0  0  0
    1.0904   53.1151   27.0754 H   0  0  0  0  0  0
  1  2  1  0  0  0
  1 23  1  0  0  0
  1 24  1  0  0  0
  1 25  1  0  0  0
  2  3  1  0  0  0
  2 26  1  0  0  0
  3  4  2  0  0  0
  3  5  1  0  0  0
  5  6  1  0  0  0
  5 27  1  0  0  0
  6 11  2  0  0  0
  6  7  1  0  0  0
  7  8  2  0  0  0
  7 28  1  0  0  0
  8  9  1  0  0  0
  8 29  1  0  0  0
  9 10  2  0  0  0
  9 12  1  0  0  0
 10 11  1  0  0  0
 10 30  1  0  0  0
 11 31  1  0  0  0
 12 13  1  0  0  0
 12 32  1  0  0  0
 13 14  1  0  0  0
 13 19  1  0  0  0
 13 15  1  0  0  0
 15 16  1  0  0  0
 15 33  1  0  0  0
 15 34  1  0  0  0
 16 17  1  0  0  0
 16 35  1  0  0  0
 16 36  1  0  0  0
 17 18  1  0  0  0
 17 37  1  0  0  0
 17 38  1  0  0  0
 18 22  1  0  0  0
 18 19  2  0  0  0
 19 20  1  0  0  0
 20 21  2  0  0  0
 20 39  1  0  0  0
 21 22  1  0  0  0
 21 40  1  0  0  0
M  END
> <i_i_glide_confnum>
95

> <i_i_glide_lignum>
4813

> <i_i_glide_posenum>
365

> <i_i_glide_rotatable_bonds>
5

> <i_m_Source_File_Index>
3352

> <b_m_subgroup_collapsed>
0

> <r_i_docking_score>
-5.28178

> <r_i_glide_ecoul>
-3.72913

> <r_i_glide_eff_state_penalty>
0

> <r_i_glide_einternal>
8.11708

> <r_i_glide_emodel>
-42.3822

> <r_i_glide_energy>
-36.6056

> <r_i_glide_erotb>
0.810003

> <r_i_glide_esite>
-0.00422725

> <r_i_glide_evdw>
-32.8765

> <r_i_glide_gscore>
-5.28178

> <r_i_glide_hbond>
-0.291348

> <r_i_glide_ligand_efficiency>
-0.251514

> <r_i_glide_ligand_efficiency_ln>
-1.30591

> <r_i_glide_ligand_efficiency_sa>
-0.693907

> <r_i_glide_lipo>
-3.21575

> <r_i_glide_metal>
0

> <r_i_glide_rewards>
-0.377267

> <s_i_glide_gridfile>
wee1_glide-grid

> <s_m_Source_File>
wee1_decoys_glide_SP.sdf

> <s_m_Source_Path>
/Users/zhangxujun/Desktop

> <s_m_entry_id>
3627

> <s_m_entry_name>
wee1_decoys_glide_SP.3352

> <s_m_subgroup_title>
wee1_decoys_glide_SP

> <s_m_subgroupid>
wee1_decoys_glide_SP


$$$$
