ZINC06161896_985
                    3D
 Schrodinger Suite 2024-2.
 53 57  0  0  1  0            999 V2000
   -2.1151   47.3567   21.9338 C   0  0  0  0  0  0
   -1.5634   48.6203   22.1516 C   0  0  0  0  0  0
   -1.3668   49.0847   23.4557 C   0  0  0  0  0  0
   -1.6907   48.2591   24.5384 C   0  0  0  0  0  0
   -2.2842   47.0200   24.3220 C   0  0  0  0  0  0
   -2.4966   46.5640   23.0190 C   0  0  0  0  0  0
   -2.8061   46.0967   25.6814 Cl  0  0  0  0  0  0
   -0.7920   50.7659   23.6898 S   0  0  0  0  0  0
   -1.8841   51.6272   23.2216 O   0  0  0  0  0  0
    0.5330   50.8422   23.0640 O   0  0  0  0  0  0
   -0.6208   51.0270   25.4369 N   0  0  0  0  0  0
   -1.7935   50.9987   26.3423 C   0  0  0  0  0  0
   -1.8147   52.2288   27.2582 C   0  0  0  0  0  0
   -0.4513   52.4946   27.9401 C   0  0  0  0  0  0
    0.7031   52.4982   26.9028 C   0  0  2  0  0  0
    0.4952   53.2965   26.1984 H   0  0  0  0  0  0
    0.7044   51.2057   26.0647 C   0  0  0  0  0  0
    2.0816   52.8287   27.4678 C   0  0  0  0  0  0
    2.8905   53.5302   26.6289 N   0  0  0  0  0  0
    4.1348   53.7069   27.0840 C   0  0  0  0  0  0
    4.5956   53.2766   28.3443 C   0  0  0  0  0  0
    3.6561   52.5900   29.1393 C   0  0  0  0  0  0
    2.3945   52.3516   28.7008 N   0  0  0  0  0  0
    3.9300   52.1337   30.2931 O   0  5  0  0  0  0
    5.9043   53.6383   28.4817 N   0  0  0  0  0  0
    6.2834   54.2796   27.3185 N   0  0  0  0  0  0
    5.2304   54.3117   26.4731 N   0  0  0  0  0  0
    5.3763   54.9956   25.1797 C   0  0  0  0  0  0
    4.7204   54.3304   23.9671 C   0  0  0  0  0  0
    3.3329   54.3924   23.7869 C   0  0  0  0  0  0
    2.7357   53.7725   22.6939 C   0  0  0  0  0  0
    3.5276   53.1168   21.7578 C   0  0  0  0  0  0
    4.9109   53.0855   21.9019 C   0  0  0  0  0  0
    5.5107   53.6960   23.0033 C   0  0  0  0  0  0
    2.9490   52.5088   20.6999 F   0  0  0  0  0  0
   -2.2780   47.0057   20.9233 H   0  0  0  0  0  0
   -1.3085   49.2498   21.3088 H   0  0  0  0  0  0
   -1.5245   48.5605   25.5595 H   0  0  0  0  0  0
   -2.9676   45.6094   22.8453 H   0  0  0  0  0  0
   -1.7338   50.0995   26.9533 H   0  0  0  0  0  0
   -2.7058   50.9237   25.7497 H   0  0  0  0  0  0
   -2.5930   52.0940   28.0097 H   0  0  0  0  0  0
   -2.1087   53.1008   26.6701 H   0  0  0  0  0  0
   -0.2798   51.7220   28.6925 H   0  0  0  0  0  0
   -0.4951   53.4581   28.4509 H   0  0  0  0  0  0
    1.4574   51.2777   25.2801 H   0  0  0  0  0  0
    0.9238   50.3260   26.6710 H   0  0  0  0  0  0
    6.4439   55.1051   24.9769 H   0  0  0  0  0  0
    5.0077   56.0126   25.2944 H   0  0  0  0  0  0
    2.7090   54.9096   24.5019 H   0  0  0  0  0  0
    1.6634   53.8008   22.5667 H   0  0  0  0  0  0
    5.5043   52.5763   21.1570 H   0  0  0  0  0  0
    6.5844   53.6556   23.1145 H   0  0  0  0  0  0
  1  6  2  0  0  0
  1  2  1  0  0  0
  1 36  1  0  0  0
  2  3  2  0  0  0
  2 37  1  0  0  0
  3  4  1  0  0  0
  3  8  1  0  0  0
  4  5  2  0  0  0
  4 38  1  0  0  0
  5  6  1  0  0  0
  5  7  1  0  0  0
  6 39  1  0  0  0
  8  9  2  0  0  0
  8 10  2  0  0  0
  8 11  1  0  0  0
 11 17  1  0  0  0
 11 12  1  0  0  0
 12 13  1  0  0  0
 12 40  1  0  0  0
 12 41  1  0  0  0
 13 14  1  0  0  0
 13 42  1  0  0  0
 13 43  1  0  0  0
 14 15  1  0  0  0
 14 44  1  0  0  0
 14 45  1  0  0  0
 15 16  1  0  0  0
 15 17  1  0  0  0
 15 18  1  0  0  0
 17 46  1  0  0  0
 17 47  1  0  0  0
 18 23  2  0  0  0
 18 19  1  0  0  0
 19 20  2  0  0  0
 20 27  1  0  0  0
 20 21  1  0  0  0
 21 22  2  0  0  0
 21 25  1  0  0  0
 22 23  1  0  0  0
 22 24  1  0  0  0
 25 26  2  0  0  0
 26 27  1  0  0  0
 27 28  1  0  0  0
 28 29  1  0  0  0
 28 48  1  0  0  0
 28 49  1  0  0  0
 29 34  2  0  0  0
 29 30  1  0  0  0
 30 31  2  0  0  0
 30 50  1  0  0  0
 31 32  1  0  0  0
 31 51  1  0  0  0
 32 33  2  0  0  0
 32 35  1  0  0  0
 33 34  1  0  0  0
 33 52  1  0  0  0
 34 53  1  0  0  0
M  CHG  1  24  -1
M  END
> <i_i_glide_confnum>
29

> <i_i_glide_lignum>
986

> <i_i_glide_posenum>
270

> <i_i_glide_rotatable_bonds>
5

> <i_m_Source_File_Index>
4891

> <b_m_subgroup_collapsed>
0

> <r_i_docking_score>
-2.19614

> <r_i_glide_ecoul>
-0.739264

> <r_i_glide_eff_state_penalty>
0

> <r_i_glide_einternal>
6.42721

> <r_i_glide_emodel>
-40.6194

> <r_i_glide_energy>
-44.1357

> <r_i_glide_erotb>
0.405442

> <r_i_glide_esite>
-0.0321864

> <r_i_glide_evdw>
-43.3965

> <r_i_glide_gscore>
-2.19614

> <r_i_glide_hbond>
-0.0437018

> <r_i_glide_ligand_efficiency>
-0.0645923

> <r_i_glide_ligand_efficiency_ln>
-0.485189

> <r_i_glide_ligand_efficiency_sa>
-0.209254

> <r_i_glide_lipo>
-1.8454

> <r_i_glide_metal>
0

> <r_i_glide_rewards>
1.60042

> <s_i_glide_gridfile>
wee1_glide-grid

> <s_m_Source_File>
wee1_decoys_glide_SP.sdf

> <s_m_Source_Path>
/Users/zhangxujun/Desktop

> <s_m_entry_id>
5166

> <s_m_entry_name>
wee1_decoys_glide_SP.4891

> <s_m_subgroup_title>
wee1_decoys_glide_SP

> <s_m_subgroupid>
wee1_decoys_glide_SP


$$$$
