ZINC63752799_5367
                    3D
 Schrodinger Suite 2024-2.
 64 68  0  0  1  0            999 V2000
    2.6757   54.7034   12.6846 C   0  0  0  0  0  0
    2.9265   54.6526   14.1793 C   0  0  0  0  0  0
    1.9723   55.2127   15.1333 C   0  0  0  0  0  0
    2.1082   55.0936   16.4789 C   0  0  0  0  0  0
    3.2123   54.4297   17.0143 C   0  0  0  0  0  0
    3.5039   54.1966   18.2747 N   0  3  0  0  0  0
    4.7942   53.4788   18.3910 C   0  0  1  0  0  0
    4.6265   52.5028   18.8508 H   0  0  0  0  0  0
    5.1658   53.3475   16.9188 C   0  0  0  0  0  0
    4.1930   53.9058   16.1659 C   0  0  0  0  0  0
    3.9891   54.0063   14.7121 C   0  0  0  0  0  0
    6.2911   52.6285   16.6282 N   0  0  0  0  0  0
    7.1489   52.8116   15.6037 C   0  0  0  0  0  0
    7.0447   53.6989   14.7559 O   0  0  0  0  0  0
    8.2909   51.8255   15.5321 C   0  0  0  0  0  0
    8.7849   51.4209   14.2835 C   0  0  0  0  0  0
    9.8358   50.5078   14.2020 C   0  0  0  0  0  0
   10.4033   50.0048   15.3686 C   0  0  0  0  0  0
    9.9258   50.4009   16.6140 C   0  0  0  0  0  0
    8.8801   51.3140   16.6988 C   0  0  0  0  0  0
   11.4333   49.1327   15.2932 F   0  0  0  0  0  0
    5.7468   54.3539   19.2522 C   0  0  0  0  0  0
    6.5449   55.0889   18.6644 O   0  0  0  0  0  0
    5.5784   54.4111   20.6041 N   0  0  0  0  0  0
    4.8629   53.3405   21.3229 C   0  0  0  0  0  0
    4.4159   53.8679   22.7027 C   0  0  0  0  0  0
    5.4381   54.4962   23.5625 N   0  0  0  0  0  0
    6.6400   54.8981   22.8119 C   0  0  0  0  0  0
    6.4003   55.3771   21.3651 C   0  0  0  0  0  0
    5.4309   54.3726   24.9630 C   0  0  0  0  0  0
    6.6499   54.3867   25.6652 C   0  0  0  0  0  0
    6.7035   54.2556   27.0499 C   0  0  0  0  0  0
    5.5319   54.1041   27.7766 C   0  0  0  0  0  0
    4.3086   54.0980   27.1165 C   0  0  0  0  0  0
    4.2375   54.2370   25.7181 C   0  0  0  0  0  0
    3.0163   54.2672   25.0686 O   0  0  0  0  0  0
    1.9044   53.5895   25.6490 C   0  0  0  0  0  0
    2.7947   55.7196   12.3081 H   0  0  0  0  0  0
    3.3066   54.0054   12.1248 H   0  0  0  0  0  0
    1.6425   54.4183   12.4829 H   0  0  0  0  0  0
    1.1133   55.7460   14.7513 H   0  0  0  0  0  0
    1.3567   55.5310   17.1211 H   0  0  0  0  0  0
    4.6815   53.5438   14.0240 H   0  0  0  0  0  0
    6.4562   51.8472   17.2515 H   0  0  0  0  0  0
    8.3565   51.8086   13.3704 H   0  0  0  0  0  0
   10.2172   50.1938   13.2400 H   0  0  0  0  0  0
   10.3761   50.0118   17.5159 H   0  0  0  0  0  0
    8.5451   51.6137   17.6815 H   0  0  0  0  0  0
    5.5083   52.4824   21.5069 H   0  0  0  0  0  0
    3.9350   53.0496   20.8292 H   0  0  0  0  0  0
    3.9051   53.0607   23.2272 H   0  0  0  0  0  0
    3.6803   54.6560   22.5322 H   0  0  0  0  0  0
    7.1831   55.6772   23.3467 H   0  0  0  0  0  0
    7.2640   54.0052   22.7584 H   0  0  0  0  0  0
    5.9028   56.3456   21.3690 H   0  0  0  0  0  0
    7.3814   55.5187   20.9066 H   0  0  0  0  0  0
    7.5835   54.4938   25.1383 H   0  0  0  0  0  0
    7.6504   54.2710   27.5668 H   0  0  0  0  0  0
    5.5729   54.0039   28.8518 H   0  0  0  0  0  0
    3.4145   54.0001   27.7129 H   0  0  0  0  0  0
    1.0902   53.5607   24.9238 H   0  0  0  0  0  0
    2.1539   52.5590   25.9082 H   0  0  0  0  0  0
    1.5321   54.0968   26.5389 H   0  0  0  0  0  0
    2.9304   54.4894   19.0672 H   0  0  0  0  0  0
  1  2  1  0  0  0
  1 38  1  0  0  0
  1 39  1  0  0  0
  1 40  1  0  0  0
  2 11  2  0  0  0
  2  3  1  0  0  0
  3  4  2  0  0  0
  3 41  1  0  0  0
  4  5  1  0  0  0
  4 42  1  0  0  0
  5 10  1  0  0  0
  5  6  2  0  0  0
  6  7  1  0  0  0
  6 64  1  0  0  0
  7  8  1  0  0  0
  7  9  1  0  0  0
  7 22  1  0  0  0
  9 10  2  0  0  0
  9 12  1  0  0  0
 10 11  1  0  0  0
 11 43  1  0  0  0
 12 13  1  0  0  0
 12 44  1  0  0  0
 13 14  2  0  0  0
 13 15  1  0  0  0
 15 20  2  0  0  0
 15 16  1  0  0  0
 16 17  2  0  0  0
 16 45  1  0  0  0
 17 18  1  0  0  0
 17 46  1  0  0  0
 18 19  2  0  0  0
 18 21  1  0  0  0
 19 20  1  0  0  0
 19 47  1  0  0  0
 20 48  1  0  0  0
 22 23  2  0  0  0
 22 24  1  0  0  0
 24 29  1  0  0  0
 24 25  1  0  0  0
 25 26  1  0  0  0
 25 49  1  0  0  0
 25 50  1  0  0  0
 26 27  1  0  0  0
 26 51  1  0  0  0
 26 52  1  0  0  0
 27 28  1  0  0  0
 27 30  1  0  0  0
 28 29  1  0  0  0
 28 53  1  0  0  0
 28 54  1  0  0  0
 29 55  1  0  0  0
 29 56  1  0  0  0
 30 35  2  0  0  0
 30 31  1  0  0  0
 31 32  2  0  0  0
 31 57  1  0  0  0
 32 33  1  0  0  0
 32 58  1  0  0  0
 33 34  2  0  0  0
 33 59  1  0  0  0
 34 35  1  0  0  0
 34 60  1  0  0  0
 35 36  1  0  0  0
 36 37  1  0  0  0
 37 61  1  0  0  0
 37 62  1  0  0  0
 37 63  1  0  0  0
M  CHG  1   6   1
M  END
> <i_i_glide_confnum>
165

> <i_i_glide_lignum>
5368

> <i_i_glide_posenum>
7

> <i_i_glide_rotatable_bonds>
7

> <i_m_Source_File_Index>
980

> <b_m_subgroup_collapsed>
0

> <r_i_docking_score>
-6.01163

> <r_i_glide_ecoul>
-5.2213

> <r_i_glide_eff_state_penalty>
0

> <r_i_glide_einternal>
6.79758

> <r_i_glide_emodel>
-61.351

> <r_i_glide_energy>
-45.3182

> <r_i_glide_erotb>
0.51317

> <r_i_glide_esite>
-0.0892696

> <r_i_glide_evdw>
-40.0968

> <r_i_glide_gscore>
-6.01163

> <r_i_glide_hbond>
-0.12628

> <r_i_glide_ligand_efficiency>
-0.16699

> <r_i_glide_ligand_efficiency_ln>
-1.31157

> <r_i_glide_ligand_efficiency_sa>
-0.551388

> <r_i_glide_lipo>
-3.05536

> <r_i_glide_metal>
0

> <r_i_glide_rewards>
-0.465843

> <s_i_glide_gridfile>
wee1_glide-grid

> <s_m_Source_File>
wee1_decoys_glide_SP.sdf

> <s_m_Source_Path>
/Users/zhangxujun/Desktop

> <s_m_entry_id>
1255

> <s_m_entry_name>
wee1_decoys_glide_SP.980

> <s_m_subgroup_title>
wee1_decoys_glide_SP

> <s_m_subgroupid>
wee1_decoys_glide_SP


$$$$
