ZINC38653529_3176
                    3D
 Schrodinger Suite 2024-2.
 72 76  0  0  1  0            999 V2000
   -2.1164   51.6571   24.2509 C   0  0  0  0  0  0
   -0.9592   50.6306   24.4174 C   0  0  1  0  0  0
   -0.0495   50.6880   23.1339 C   0  0  0  0  0  0
    0.9887   51.8331   23.0029 C   0  0  2  0  0  0
    1.7361   51.5110   22.2757 H   0  0  0  0  0  0
    1.7298   52.2381   24.3166 C   0  0  2  0  0  0
    2.4109   51.4167   24.4808 H   0  0  0  0  0  0
    0.7647   52.2420   25.5376 C   0  0  1  0  0  0
    0.0676   53.0652   25.4038 H   0  0  0  0  0  0
   -0.0772   50.9416   25.6563 C   0  0  2  0  0  0
   -0.7585   51.0818   26.4996 H   0  0  0  0  0  0
    0.6727   49.6118   25.8883 C   0  0  0  0  0  0
   -0.3093   48.4968   25.5306 C   0  0  0  0  0  0
   -1.5033   49.1895   24.8253 C   0  0  2  0  0  0
   -2.0932   48.3228   23.6477 C   0  0  0  0  0  0
   -3.2750   47.9638   23.6241 O   0  0  0  0  0  0
   -1.1563   47.9063   22.4938 C   0  0  0  0  0  0
   -1.6199   46.8112   21.6938 O   0  0  0  0  0  0
   -2.4232   47.0103   20.6143 C   0  0  0  0  0  0
   -2.9721   48.0787   20.3325 O   0  0  0  0  0  0
   -2.5128   45.7622   19.6910 C   0  0  2  0  0  0
   -1.5322   45.2890   19.7417 H   0  0  0  0  0  0
   -2.7592   46.1670   18.2024 C   0  0  0  0  0  0
   -4.2407   46.4196   17.9180 C   0  0  0  0  0  0
   -5.2431   46.0695   18.7500 C   0  0  0  0  0  0
   -5.0402   45.3246   20.0658 C   0  0  0  0  0  0
   -3.6027   44.7252   20.1198 C   0  0  2  0  0  0
   -3.5502   43.8937   19.4147 H   0  0  0  0  0  0
   -3.2842   44.0247   21.4613 C   0  0  0  0  0  0
   -4.2339   43.6967   22.2058 O   0  0  0  0  0  0
   -2.0954   43.6971   21.6817 O   0  5  0  0  0  0
   -2.5300   49.2796   25.8205 O   0  0  0  0  0  0
    1.5380   52.4985   26.8530 C   0  0  0  0  0  0
    2.3338   53.7992   26.8444 C   0  0  0  0  0  0
    3.2662   53.8375   25.6287 C   0  0  0  0  0  0
    4.5800   54.1424   25.7665 C   0  0  0  0  0  0
    5.5449   54.2398   24.6724 C   0  0  0  0  0  0
    6.7033   54.6168   24.8359 O   0  0  0  0  0  0
    5.0006   53.8315   23.3785 C   0  0  0  0  0  0
    3.7053   53.5093   23.1745 C   0  0  0  0  0  0
    2.6002   53.5671   24.2433 C   0  0  1  0  0  0
    1.7915   54.8237   23.8931 C   0  0  0  0  0  0
    0.3045   52.8964   22.4040 O   0  0  0  0  0  0
   -1.7553   52.6513   23.9912 H   0  0  0  0  0  0
   -2.8064   51.3495   23.4647 H   0  0  0  0  0  0
   -2.6995   51.7713   25.1647 H   0  0  0  0  0  0
    0.5794   49.8011   23.1897 H   0  0  0  0  0  0
   -0.6511   50.6254   22.2280 H   0  0  0  0  0  0
    1.1044   49.5297   26.8815 H   0  0  0  0  0  0
    1.5037   49.5037   25.1959 H   0  0  0  0  0  0
   -0.6060   47.9977   26.4548 H   0  0  0  0  0  0
    0.1921   47.7328   24.9362 H   0  0  0  0  0  0
   -0.1646   47.6968   22.8812 H   0  0  0  0  0  0
   -1.0324   48.7390   21.8097 H   0  0  0  0  0  0
   -2.4089   45.3759   17.5375 H   0  0  0  0  0  0
   -2.1800   47.0527   17.9347 H   0  0  0  0  0  0
   -4.5063   46.9280   17.0032 H   0  0  0  0  0  0
   -6.2508   46.3249   18.4554 H   0  0  0  0  0  0
   -5.2137   46.0124   20.8953 H   0  0  0  0  0  0
   -5.7839   44.5323   20.1679 H   0  0  0  0  0  0
   -2.1893   48.9070   26.6495 H   0  0  0  0  0  0
    0.8397   52.5065   27.6921 H   0  0  0  0  0  0
    2.2217   51.6963   27.0917 H   0  0  0  0  0  0
    2.9020   53.8779   27.7722 H   0  0  0  0  0  0
    1.6402   54.6313   26.8817 H   0  0  0  0  0  0
    4.9470   54.3347   26.7641 H   0  0  0  0  0  0
    5.6745   53.7714   22.5370 H   0  0  0  0  0  0
    3.4289   53.2292   22.1677 H   0  0  0  0  0  0
    2.3971   55.6967   24.0821 H   0  0  0  0  0  0
    1.5230   54.8968   22.8426 H   0  0  0  0  0  0
    0.8846   54.8952   24.4814 H   0  0  0  0  0  0
    0.9526   53.5468   22.1167 H   0  0  0  0  0  0
  1  2  1  0  0  0
  1 44  1  0  0  0
  1 45  1  0  0  0
  1 46  1  0  0  0
  2 10  1  0  0  0
  2 14  1  0  0  0
  2  3  1  0  0  0
  3  4  1  0  0  0
  3 47  1  0  0  0
  3 48  1  0  0  0
  4  5  1  0  0  0
  4  6  1  0  0  0
  4 43  1  0  0  0
  6  7  1  0  0  0
  6 41  1  0  0  0
  6  8  1  0  0  0
  8  9  1  0  0  0
  8 10  1  0  0  0
  8 33  1  0  0  0
 10 11  1  0  0  0
 10 12  1  0  0  0
 12 13  1  0  0  0
 12 49  1  0  0  0
 12 50  1  0  0  0
 13 14  1  0  0  0
 13 51  1  0  0  0
 13 52  1  0  0  0
 14 15  1  0  0  0
 14 32  1  0  0  0
 15 16  2  0  0  0
 15 17  1  0  0  0
 17 18  1  0  0  0
 17 53  1  0  0  0
 17 54  1  0  0  0
 18 19  1  0  0  0
 19 20  2  0  0  0
 19 21  1  0  0  0
 21 22  1  0  0  0
 21 27  1  0  0  0
 21 23  1  0  0  0
 23 24  1  0  0  0
 23 55  1  0  0  0
 23 56  1  0  0  0
 24 25  2  0  0  0
 24 57  1  0  0  0
 25 26  1  0  0  0
 25 58  1  0  0  0
 26 27  1  0  0  0
 26 59  1  0  0  0
 26 60  1  0  0  0
 27 28  1  0  0  0
 27 29  1  0  0  0
 29 30  2  0  0  0
 29 31  1  0  0  0
 32 61  1  0  0  0
 33 34  1  0  0  0
 33 62  1  0  0  0
 33 63  1  0  0  0
 34 35  1  0  0  0
 34 64  1  0  0  0
 34 65  1  0  0  0
 35 41  1  0  0  0
 35 36  2  0  0  0
 36 37  1  0  0  0
 36 66  1  0  0  0
 37 38  2  0  0  0
 37 39  1  0  0  0
 39 40  2  0  0  0
 39 67  1  0  0  0
 40 41  1  0  0  0
 40 68  1  0  0  0
 41 42  1  0  0  0
 42 69  1  0  0  0
 42 70  1  0  0  0
 42 71  1  0  0  0
 43 72  1  0  0  0
M  CHG  1  31  -1
M  END
> <i_i_glide_confnum>
113

> <i_i_glide_lignum>
3177

> <i_i_glide_posenum>
348

> <i_i_glide_rotatable_bonds>
8

> <i_m_Source_File_Index>
45

> <b_m_subgroup_collapsed>
0

> <r_i_docking_score>
-4.32534

> <r_i_glide_ecoul>
-8.69481

> <r_i_glide_eff_state_penalty>
0

> <r_i_glide_einternal>
5.12352

> <r_i_glide_emodel>
-36.4038

> <r_i_glide_energy>
-27.3436

> <r_i_glide_erotb>
0.391529

> <r_i_glide_esite>
-0.0569745

> <r_i_glide_evdw>
-18.6488

> <r_i_glide_gscore>
-4.32534

> <r_i_glide_hbond>
-0.208379

> <r_i_glide_ligand_efficiency>
-0.116901

> <r_i_glide_ligand_efficiency_ln>
-0.938064

> <r_i_glide_ligand_efficiency_sa>
-0.38954

> <r_i_glide_lipo>
-1.84187

> <r_i_glide_metal>
0

> <r_i_glide_rewards>
-0.372976

> <s_i_glide_gridfile>
wee1_glide-grid

> <s_m_Source_File>
wee1_decoys_glide_SP.sdf

> <s_m_Source_Path>
/Users/zhangxujun/Desktop

> <s_m_entry_id>
320

> <s_m_entry_name>
wee1_decoys_glide_SP.45

> <s_m_subgroup_title>
wee1_decoys_glide_SP

> <s_m_subgroupid>
wee1_decoys_glide_SP


$$$$
