ZINC10255673_3758
                    3D
 Schrodinger Suite 2024-2.
 34 36  0  0  1  0            999 V2000
    5.0323   54.2980   25.8505 C   0  0  0  0  0  0
    6.3067   54.5416   25.3360 C   0  0  0  0  0  0
    6.5029   54.6230   23.9559 C   0  0  0  0  0  0
    5.4123   54.4693   23.0918 C   0  0  0  0  0  0
    4.1615   54.1253   23.6056 C   0  0  0  0  0  0
    3.9552   54.0964   24.9858 C   0  0  0  0  0  0
    3.1784   53.9916   22.4818 C   0  0  0  0  0  0
    4.0731   53.9227   21.2330 C   0  0  1  0  0  0
    3.6254   54.4826   20.4107 H   0  0  0  0  0  0
    5.3671   54.4977   21.6807 N   0  0  0  0  0  0
    6.1399   55.2960   20.8803 C   0  0  0  0  0  0
    7.0217   56.0412   21.3148 O   0  0  0  0  0  0
    5.9087   55.2797   19.3891 C   0  0  0  0  0  0
    6.0458   54.1012   18.6410 C   0  0  0  0  0  0
    5.8096   54.1027   17.2666 C   0  0  0  0  0  0
    5.4494   55.2858   16.6228 C   0  0  0  0  0  0
    5.3398   56.4688   17.3523 C   0  0  0  0  0  0
    5.5850   56.4686   18.7249 C   0  0  0  0  0  0
    4.8425   58.0843   16.4799 Br  0  0  0  0  0  0
    4.2278   52.4646   20.7483 C   0  0  0  0  0  0
    5.0245   51.6973   21.2792 O   0  0  0  0  0  0
    3.5094   52.0958   19.6887 N   0  0  0  0  0  0
    4.8822   54.2491   26.9192 H   0  0  0  0  0  0
    7.1387   54.6682   26.0100 H   0  0  0  0  0  0
    7.4916   54.8221   23.5721 H   0  0  0  0  0  0
    2.9750   53.8985   25.3938 H   0  0  0  0  0  0
    2.4732   53.1636   22.5793 H   0  0  0  0  0  0
    2.5711   54.8955   22.4397 H   0  0  0  0  0  0
    6.3297   53.1706   19.1113 H   0  0  0  0  0  0
    5.9029   53.1834   16.7059 H   0  0  0  0  0  0
    5.2603   55.2871   15.5592 H   0  0  0  0  0  0
    5.5058   57.3970   19.2720 H   0  0  0  0  0  0
    2.8564   52.7283   19.2543 H   0  0  0  0  0  0
    3.7110   51.2016   19.2544 H   0  0  0  0  0  0
  1  6  2  0  0  0
  1  2  1  0  0  0
  1 23  1  0  0  0
  2  3  2  0  0  0
  2 24  1  0  0  0
  3  4  1  0  0  0
  3 25  1  0  0  0
  4 10  1  0  0  0
  4  5  2  0  0  0
  5  6  1  0  0  0
  5  7  1  0  0  0
  6 26  1  0  0  0
  7  8  1  0  0  0
  7 27  1  0  0  0
  7 28  1  0  0  0
  8  9  1  0  0  0
  8 10  1  0  0  0
  8 20  1  0  0  0
 10 11  1  0  0  0
 11 12  2  0  0  0
 11 13  1  0  0  0
 13 18  2  0  0  0
 13 14  1  0  0  0
 14 15  2  0  0  0
 14 29  1  0  0  0
 15 16  1  0  0  0
 15 30  1  0  0  0
 16 17  2  0  0  0
 16 31  1  0  0  0
 17 18  1  0  0  0
 17 19  1  0  0  0
 18 32  1  0  0  0
 20 21  2  0  0  0
 20 22  1  0  0  0
 22 33  1  0  0  0
 22 34  1  0  0  0
M  END
> <i_i_glide_confnum>
9

> <i_i_glide_lignum>
3759

> <i_i_glide_posenum>
341

> <i_i_glide_rotatable_bonds>
3

> <i_m_Source_File_Index>
5004

> <b_m_subgroup_collapsed>
0

> <r_i_docking_score>
-5.59687

> <r_i_glide_ecoul>
-5.10784

> <r_i_glide_eff_state_penalty>
0

> <r_i_glide_einternal>
0.414428

> <r_i_glide_emodel>
-51.5725

> <r_i_glide_energy>
-37.3509

> <r_i_glide_erotb>
0.318853

> <r_i_glide_esite>
-0.0586782

> <r_i_glide_evdw>
-32.243

> <r_i_glide_gscore>
-5.59687

> <r_i_glide_hbond>
-0.0984558

> <r_i_glide_ligand_efficiency>
-0.266518

> <r_i_glide_ligand_efficiency_ln>
-1.38381

> <r_i_glide_ligand_efficiency_sa>
-0.735302

> <r_i_glide_lipo>
-1.82282

> <r_i_glide_metal>
0

> <r_i_glide_rewards>
-1.55744

> <s_i_glide_gridfile>
wee1_glide-grid

> <s_m_Source_File>
wee1_decoys_glide_SP.sdf

> <s_m_Source_Path>
/Users/zhangxujun/Desktop

> <s_m_entry_id>
5279

> <s_m_entry_name>
wee1_decoys_glide_SP.5004

> <s_m_subgroup_title>
wee1_decoys_glide_SP

> <s_m_subgroupid>
wee1_decoys_glide_SP


$$$$
