ZINC14230452_1571
                    3D
 Schrodinger Suite 2024-2.
 43 44  0  0  1  0            999 V2000
    5.5074   54.2220   28.7157 C   0  0  0  0  0  0
    4.9738   53.8574   27.3192 C   0  0  1  0  0  0
    5.1116   52.7802   27.2060 H   0  0  0  0  0  0
    3.4832   54.2210   27.1794 C   0  0  0  0  0  0
    2.8646   53.6681   25.8796 C   0  0  0  0  0  0
    3.7973   53.9307   24.6843 C   0  0  0  0  0  0
    5.1331   54.3238   24.8762 C   0  0  0  0  0  0
    5.9870   54.4967   23.3881 S   0  0  0  0  0  0
    4.5625   54.0789   22.4669 C   0  0  0  0  0  0
    3.4769   53.7462   23.3101 C   0  0  0  0  0  0
    2.1599   53.3347   22.8521 C   0  0  0  0  0  0
    1.1201   53.7255   23.3758 O   0  0  0  0  0  0
    2.1395   52.4970   21.8136 N   0  0  0  0  0  0
    4.5793   54.0014   21.0720 N   0  0  0  0  0  0
    5.5039   54.4757   20.2115 C   0  0  0  0  0  0
    6.3816   55.2909   20.4981 O   0  0  0  0  0  0
    5.4456   53.8872   18.7927 C   0  0  0  0  0  0
    4.1225   53.9840   17.9960 C   0  0  0  0  0  0
    3.5269   55.3082   17.8542 N   0  0  0  0  0  0
    3.9018   56.1664   16.8917 C   0  0  0  0  0  0
    4.7775   55.9173   16.0643 O   0  0  0  0  0  0
    3.1834   57.5072   16.8443 C   0  0  0  0  0  0
    5.7948   54.5794   26.2254 C   0  0  0  0  0  0
    5.4693   55.2964   28.9010 H   0  0  0  0  0  0
    4.9207   53.7329   29.4923 H   0  0  0  0  0  0
    6.5443   53.9066   28.8389 H   0  0  0  0  0  0
    2.9273   53.8162   28.0265 H   0  0  0  0  0  0
    3.3449   55.2965   27.2666 H   0  0  0  0  0  0
    1.8766   54.1071   25.7461 H   0  0  0  0  0  0
    2.7047   52.5955   25.9857 H   0  0  0  0  0  0
    2.9799   52.0285   21.5137 H   0  0  0  0  0  0
    1.2462   52.2173   21.4354 H   0  0  0  0  0  0
    3.7644   53.5741   20.6574 H   0  0  0  0  0  0
    5.8913   52.8966   18.7044 H   0  0  0  0  0  0
    6.1774   54.4279   18.1902 H   0  0  0  0  0  0
    3.3866   53.5468   18.6711 H   0  0  0  0  0  0
    4.0041   53.2507   17.1961 H   0  0  0  0  0  0
    2.7878   55.5570   18.4990 H   0  0  0  0  0  0
    2.1028   57.3776   16.8823 H   0  0  0  0  0  0
    3.4258   58.0390   15.9228 H   0  0  0  0  0  0
    3.5024   58.1264   17.6801 H   0  0  0  0  0  0
    6.8250   54.2213   26.2290 H   0  0  0  0  0  0
    5.8290   55.6520   26.4167 H   0  0  0  0  0  0
  1  2  1  0  0  0
  1 24  1  0  0  0
  1 25  1  0  0  0
  1 26  1  0  0  0
  2  3  1  0  0  0
  2 23  1  0  0  0
  2  4  1  0  0  0
  4  5  1  0  0  0
  4 27  1  0  0  0
  4 28  1  0  0  0
  5  6  1  0  0  0
  5 29  1  0  0  0
  5 30  1  0  0  0
  6 10  1  0  0  0
  6  7  2  0  0  0
  7  8  1  0  0  0
  7 23  1  0  0  0
  8  9  1  0  0  0
  9 10  2  0  0  0
  9 14  1  0  0  0
 10 11  1  0  0  0
 11 12  2  0  0  0
 11 13  1  0  0  0
 13 31  1  0  0  0
 13 32  1  0  0  0
 14 15  1  0  0  0
 14 33  1  0  0  0
 15 16  2  0  0  0
 15 17  1  0  0  0
 17 18  1  0  0  0
 17 34  1  0  0  0
 17 35  1  0  0  0
 18 19  1  0  0  0
 18 36  1  0  0  0
 18 37  1  0  0  0
 19 20  1  0  0  0
 19 38  1  0  0  0
 20 21  2  0  0  0
 20 22  1  0  0  0
 22 39  1  0  0  0
 22 40  1  0  0  0
 22 41  1  0  0  0
 23 42  1  0  0  0
 23 43  1  0  0  0
M  END
> <i_i_glide_confnum>
41

> <i_i_glide_lignum>
1572

> <i_i_glide_posenum>
273

> <i_i_glide_rotatable_bonds>
7

> <i_m_Source_File_Index>
28

> <b_m_subgroup_collapsed>
0

> <r_i_docking_score>
-5.46447

> <r_i_glide_ecoul>
-3.03478

> <r_i_glide_eff_state_penalty>
0

> <r_i_glide_einternal>
6.27018

> <r_i_glide_emodel>
-49.0496

> <r_i_glide_energy>
-36.4513

> <r_i_glide_erotb>
0.894577

> <r_i_glide_esite>
0

> <r_i_glide_evdw>
-33.4165

> <r_i_glide_gscore>
-5.46447

> <r_i_glide_hbond>
-0.269505

> <r_i_glide_ligand_efficiency>
-0.248385

> <r_i_glide_ligand_efficiency_ln>
-1.33572

> <r_i_glide_ligand_efficiency_sa>
-0.695985

> <r_i_glide_lipo>
-2.3115

> <r_i_glide_metal>
0

> <r_i_glide_rewards>
-1.652

> <s_i_glide_gridfile>
wee1_glide-grid

> <s_m_Source_File>
wee1_decoys_glide_SP.sdf

> <s_m_Source_Path>
/Users/zhangxujun/Desktop

> <s_m_entry_id>
303

> <s_m_entry_name>
wee1_decoys_glide_SP.28

> <s_m_subgroup_title>
wee1_decoys_glide_SP

> <s_m_subgroupid>
wee1_decoys_glide_SP


$$$$
