ZINC25392216_1225
                    3D
 Schrodinger Suite 2024-2.
 62 65  0  0  1  0            999 V2000
    1.2377   45.2872   16.2053 C   0  0  0  0  0  0
    0.2032   45.9592   16.9157 O   0  0  0  0  0  0
    0.5312   47.0166   17.7416 C   0  0  0  0  0  0
   -0.5353   47.7356   18.2820 C   0  0  0  0  0  0
   -0.3058   48.8413   19.0968 C   0  0  0  0  0  0
    1.0077   49.2291   19.3837 C   0  0  0  0  0  0
    2.0794   48.4927   18.8817 C   0  0  0  0  0  0
    1.8444   47.3993   18.0536 C   0  0  0  0  0  0
    1.3149   50.3324   20.1895 N   0  0  0  0  0  0
    0.7050   51.5429   20.2024 C   0  0  0  0  0  0
   -0.2669   51.8224   19.5014 O   0  0  0  0  0  0
    1.2077   52.4966   21.0226 N   0  0  0  0  0  0
    2.1078   52.4012   22.0286 C   0  0  0  0  0  0
    2.7044   51.3700   22.3457 O   0  0  0  0  0  0
    2.3536   53.6906   22.8295 C   0  0  0  0  0  0
    2.6701   53.3275   24.3136 N   0  3  1  0  0  0
    3.7437   54.2843   24.8768 C   0  0  0  0  0  0
    4.2228   53.7523   26.2386 C   0  0  0  0  0  0
    3.0992   53.2970   27.1649 C   0  0  0  0  0  0
    3.3971   53.0142   28.5020 C   0  0  0  0  0  0
    2.4371   52.4954   29.3811 C   0  0  0  0  0  0
    1.1317   52.3096   28.9252 C   0  0  0  0  0  0
    0.8233   52.6208   27.5960 C   0  0  0  0  0  0
    1.7896   53.0777   26.6859 C   0  0  0  0  0  0
    1.4038   53.3615   25.2174 C   0  0  2  0  0  0
    1.1044   54.4067   25.1537 H   0  0  0  0  0  0
    0.2844   52.4846   24.6564 C   0  0  0  0  0  0
   -0.8796   52.8766   23.9913 C   0  0  0  0  0  0
   -1.7072   51.8227   23.5954 C   0  0  0  0  0  0
   -1.2009   50.5898   23.9613 C   0  0  0  0  0  0
    0.3043   50.7397   24.7964 S   0  0  0  0  0  0
    0.2208   51.8089   29.8354 O   0  0  0  0  0  0
   -1.0959   51.4657   29.4275 C   0  0  0  0  0  0
    2.7008   52.1198   30.6869 O   0  0  0  0  0  0
    4.0164   52.2351   31.2003 C   0  0  0  0  0  0
    0.7931   44.5525   15.5339 H   0  0  0  0  0  0
    1.9036   44.7521   16.8815 H   0  0  0  0  0  0
    1.8239   45.9770   15.5955 H   0  0  0  0  0  0
   -1.5484   47.4437   18.0498 H   0  0  0  0  0  0
   -1.1460   49.3902   19.4956 H   0  0  0  0  0  0
    3.1010   48.7849   19.0878 H   0  0  0  0  0  0
    2.6992   46.8792   17.6501 H   0  0  0  0  0  0
    2.1735   50.2635   20.7190 H   0  0  0  0  0  0
    0.8310   53.4199   20.8626 H   0  0  0  0  0  0
    3.2398   54.1688   22.4100 H   0  0  0  0  0  0
    1.5332   54.4107   22.8114 H   0  0  0  0  0  0
    4.5831   54.2950   24.1789 H   0  0  0  0  0  0
    3.3093   55.2840   24.9271 H   0  0  0  0  0  0
    4.8890   52.9023   26.0822 H   0  0  0  0  0  0
    4.8340   54.5104   26.7311 H   0  0  0  0  0  0
    4.4127   53.1641   28.8354 H   0  0  0  0  0  0
   -0.1885   52.4870   27.2462 H   0  0  0  0  0  0
   -1.1220   53.9102   23.7953 H   0  0  0  0  0  0
   -2.6410   51.9552   23.0684 H   0  0  0  0  0  0
   -1.6314   49.6135   23.7933 H   0  0  0  0  0  0
   -1.5774   50.8969   30.2229 H   0  0  0  0  0  0
   -1.6930   52.3572   29.2721 H   0  0  0  0  0  0
   -1.1130   50.8606   28.5212 H   0  0  0  0  0  0
    4.0495   51.8098   32.2017 H   0  0  0  0  0  0
    4.7421   51.6967   30.5906 H   0  0  0  0  0  0
    4.3043   53.2832   31.2716 H   0  0  0  0  0  0
    3.0519   52.3894   24.3039 H   0  0  0  0  0  0
  1  2  1  0  0  0
  1 36  1  0  0  0
  1 37  1  0  0  0
  1 38  1  0  0  0
  2  3  1  0  0  0
  3  8  2  0  0  0
  3  4  1  0  0  0
  4  5  2  0  0  0
  4 39  1  0  0  0
  5  6  1  0  0  0
  5 40  1  0  0  0
  6  7  2  0  0  0
  6  9  1  0  0  0
  7  8  1  0  0  0
  7 41  1  0  0  0
  8 42  1  0  0  0
  9 10  1  0  0  0
  9 43  1  0  0  0
 10 11  2  0  0  0
 10 12  1  0  0  0
 12 13  1  0  0  0
 12 44  1  0  0  0
 13 14  2  0  0  0
 13 15  1  0  0  0
 15 16  1  0  0  0
 15 45  1  0  0  0
 15 46  1  0  0  0
 16 25  1  0  0  0
 16 17  1  0  0  0
 16 62  1  0  0  0
 17 18  1  0  0  0
 17 47  1  0  0  0
 17 48  1  0  0  0
 18 19  1  0  0  0
 18 49  1  0  0  0
 18 50  1  0  0  0
 19 24  2  0  0  0
 19 20  1  0  0  0
 20 21  2  0  0  0
 20 51  1  0  0  0
 21 22  1  0  0  0
 21 34  1  0  0  0
 22 23  2  0  0  0
 22 32  1  0  0  0
 23 24  1  0  0  0
 23 52  1  0  0  0
 24 25  1  0  0  0
 25 26  1  0  0  0
 25 27  1  0  0  0
 27 31  1  0  0  0
 27 28  2  0  0  0
 28 29  1  0  0  0
 28 53  1  0  0  0
 29 30  2  0  0  0
 29 54  1  0  0  0
 30 31  1  0  0  0
 30 55  1  0  0  0
 32 33  1  0  0  0
 33 56  1  0  0  0
 33 57  1  0  0  0
 33 58  1  0  0  0
 34 35  1  0  0  0
 35 59  1  0  0  0
 35 60  1  0  0  0
 35 61  1  0  0  0
M  CHG  1  16   1
M  END
> <i_i_glide_confnum>
5

> <i_i_glide_lignum>
1226

> <i_i_glide_posenum>
265

> <i_i_glide_rotatable_bonds>
10

> <i_m_Source_File_Index>
3959

> <b_m_subgroup_collapsed>
0

> <r_i_docking_score>
-3.70606

> <r_i_glide_ecoul>
-2.99359

> <r_i_glide_eff_state_penalty>
0

> <r_i_glide_einternal>
7.57648

> <r_i_glide_emodel>
-45.9053

> <r_i_glide_energy>
-41.5189

> <r_i_glide_erotb>
0.61003

> <r_i_glide_esite>
-0.0532664

> <r_i_glide_evdw>
-38.5253

> <r_i_glide_gscore>
-3.70606

> <r_i_glide_hbond>
-0.561941

> <r_i_glide_ligand_efficiency>
-0.109002

> <r_i_glide_ligand_efficiency_ln>
-0.818773

> <r_i_glide_ligand_efficiency_sa>
-0.353124

> <r_i_glide_lipo>
-2.06174

> <r_i_glide_metal>
0

> <r_i_glide_rewards>
0.736153

> <s_i_glide_gridfile>
wee1_glide-grid

> <s_m_Source_File>
wee1_decoys_glide_SP.sdf

> <s_m_Source_Path>
/Users/zhangxujun/Desktop

> <s_m_entry_id>
4234

> <s_m_entry_name>
wee1_decoys_glide_SP.3959

> <s_m_subgroup_title>
wee1_decoys_glide_SP

> <s_m_subgroupid>
wee1_decoys_glide_SP


$$$$
