ZINC14248819_2091
                    3D
 Schrodinger Suite 2024-2.
 52 55  0  0  1  0            999 V2000
    2.4086   54.2309   27.8464 C   0  0  0  0  0  0
    3.7398   54.2246   27.1103 C   0  0  0  0  0  0
    4.9497   54.3837   27.7729 C   0  0  0  0  0  0
    6.3224   54.4961   26.7012 S   0  0  0  0  0  0
    5.2860   54.3127   25.3208 C   0  0  0  0  0  0
    3.9184   54.0983   25.6780 C   0  0  0  0  0  0
    3.0456   53.8869   24.5659 C   0  0  0  0  0  0
    3.5105   54.0239   23.2908 N   0  0  0  0  0  0
    4.8280   54.2714   23.1096 C   0  0  0  0  0  0
    5.7667   54.3824   24.0796 N   0  0  0  0  0  0
    5.2723   54.4366   21.6561 C   0  0  0  0  0  0
    6.7042   55.5565   21.4183 S   0  0  0  0  0  0
    7.3385   55.2961   19.7873 C   0  0  0  0  0  0
    8.6400   55.7083   19.5053 C   0  0  0  0  0  0
    9.1877   55.4641   18.2494 C   0  0  0  0  0  0
    8.4314   54.8091   17.2790 C   0  0  0  0  0  0
    7.1256   54.4043   17.5535 C   0  0  0  0  0  0
    6.5756   54.6515   18.8082 C   0  0  0  0  0  0
    9.1185   54.4933   15.7287 Cl  0  0  0  0  0  0
    1.6947   53.5537   24.6981 N   0  0  0  0  0  0
    0.7221   53.7272   23.5912 C   0  0  0  0  0  0
    0.4102   52.4059   22.8595 C   0  0  0  0  0  0
   -0.1641   51.4603   23.8265 N   0  0  0  0  0  0
    0.8218   51.1672   24.8794 C   0  0  0  0  0  0
    1.2649   52.4633   25.6116 C   0  0  0  0  0  0
   -1.8651   51.6650   24.2884 S   0  0  0  0  0  0
   -1.9326   52.4964   25.4941 O   0  0  0  0  0  0
   -2.6207   52.0211   23.0843 O   0  0  0  0  0  0
   -2.3361   50.0499   24.7451 N   0  0  0  0  0  0
    5.1773   54.4991   29.2547 C   0  0  0  0  0  0
    2.4545   54.8368   28.7515 H   0  0  0  0  0  0
    1.5900   54.6517   27.2664 H   0  0  0  0  0  0
    2.1118   53.2348   28.1754 H   0  0  0  0  0  0
    5.5017   53.4497   21.2538 H   0  0  0  0  0  0
    4.4479   54.8478   21.0701 H   0  0  0  0  0  0
    9.2384   56.1947   20.2623 H   0  0  0  0  0  0
   10.2030   55.7672   18.0384 H   0  0  0  0  0  0
    6.5443   53.8976   16.7956 H   0  0  0  0  0  0
    5.5645   54.3283   19.0040 H   0  0  0  0  0  0
    1.0655   54.4835   22.8826 H   0  0  0  0  0  0
   -0.1831   54.1021   24.0712 H   0  0  0  0  0  0
   -0.2844   52.5030   22.0262 H   0  0  0  0  0  0
    1.3225   51.9877   22.4330 H   0  0  0  0  0  0
    0.4200   50.3986   25.5415 H   0  0  0  0  0  0
    1.6880   50.7147   24.3957 H   0  0  0  0  0  0
    0.4204   52.8951   26.1490 H   0  0  0  0  0  0
    2.0517   52.1913   26.3094 H   0  0  0  0  0  0
   -2.3619   49.8905   25.7583 H   0  0  0  0  0  0
   -3.1848   49.7272   24.2760 H   0  0  0  0  0  0
    4.7685   55.4237   29.6578 H   0  0  0  0  0  0
    4.7041   53.6749   29.7889 H   0  0  0  0  0  0
    6.2405   54.4970   29.4917 H   0  0  0  0  0  0
  1  2  1  0  0  0
  1 31  1  0  0  0
  1 32  1  0  0  0
  1 33  1  0  0  0
  2  6  1  0  0  0
  2  3  2  0  0  0
  3  4  1  0  0  0
  3 30  1  0  0  0
  4  5  1  0  0  0
  5 10  2  0  0  0
  5  6  1  0  0  0
  6  7  2  0  0  0
  7  8  1  0  0  0
  7 20  1  0  0  0
  8  9  2  0  0  0
  9 10  1  0  0  0
  9 11  1  0  0  0
 11 12  1  0  0  0
 11 34  1  0  0  0
 11 35  1  0  0  0
 12 13  1  0  0  0
 13 18  2  0  0  0
 13 14  1  0  0  0
 14 15  2  0  0  0
 14 36  1  0  0  0
 15 16  1  0  0  0
 15 37  1  0  0  0
 16 17  2  0  0  0
 16 19  1  0  0  0
 17 18  1  0  0  0
 17 38  1  0  0  0
 18 39  1  0  0  0
 20 25  1  0  0  0
 20 21  1  0  0  0
 21 22  1  0  0  0
 21 40  1  0  0  0
 21 41  1  0  0  0
 22 23  1  0  0  0
 22 42  1  0  0  0
 22 43  1  0  0  0
 23 24  1  0  0  0
 23 26  1  0  0  0
 24 25  1  0  0  0
 24 44  1  0  0  0
 24 45  1  0  0  0
 25 46  1  0  0  0
 25 47  1  0  0  0
 26 27  2  0  0  0
 26 28  2  0  0  0
 26 29  1  0  0  0
 29 48  1  0  0  0
 29 49  1  0  0  0
 30 50  1  0  0  0
 30 51  1  0  0  0
 30 52  1  0  0  0
M  END
> <i_i_glide_confnum>
25

> <i_i_glide_lignum>
2092

> <i_i_glide_posenum>
168

> <i_i_glide_rotatable_bonds>
5

> <i_m_Source_File_Index>
695

> <b_m_subgroup_collapsed>
0

> <r_i_docking_score>
-6.11457

> <r_i_glide_ecoul>
-3.52291

> <r_i_glide_eff_state_penalty>
0

> <r_i_glide_einternal>
3.694

> <r_i_glide_emodel>
-64.6548

> <r_i_glide_energy>
-48.2308

> <r_i_glide_erotb>
0.346631

> <r_i_glide_esite>
-0.0230001

> <r_i_glide_evdw>
-44.7079

> <r_i_glide_gscore>
-6.11457

> <r_i_glide_hbond>
0

> <r_i_glide_ligand_efficiency>
-0.203819

> <r_i_glide_ligand_efficiency_ln>
-1.3893

> <r_i_glide_ligand_efficiency_sa>
-0.633313

> <r_i_glide_lipo>
-2.88539

> <r_i_glide_metal>
0

> <r_i_glide_rewards>
-0.788979

> <s_i_glide_gridfile>
wee1_glide-grid

> <s_m_Source_File>
wee1_decoys_glide_SP.sdf

> <s_m_Source_Path>
/Users/zhangxujun/Desktop

> <s_m_entry_id>
970

> <s_m_entry_name>
wee1_decoys_glide_SP.695

> <s_m_subgroup_title>
wee1_decoys_glide_SP

> <s_m_subgroupid>
wee1_decoys_glide_SP


$$$$
