ZINC39859556_2986
                    3D
 Schrodinger Suite 2024-2.
 61 64  0  0  1  0            999 V2000
    7.0927   54.0299   27.5354 C   0  0  0  0  0  0
    6.5465   54.9926   26.6455 O   0  0  0  0  0  0
    5.3983   54.5906   26.0067 C   0  0  0  0  0  0
    5.4763   54.2940   24.6474 C   0  0  0  0  0  0
    4.3366   53.9267   23.9222 C   0  0  0  0  0  0
    3.1149   53.8303   24.6049 C   0  0  0  0  0  0
    3.0364   54.0967   25.9681 C   0  0  0  0  0  0
    4.1682   54.5153   26.6777 C   0  0  0  0  0  0
    4.1497   54.8936   28.0082 O   0  0  0  0  0  0
    2.9163   55.1541   28.6803 C   0  0  0  0  0  0
    2.5372   54.0162   29.6225 C   0  0  0  0  0  0
    1.2194   53.9249   30.0804 C   0  0  0  0  0  0
    0.8757   52.9576   31.0200 C   0  0  0  0  0  0
    1.8572   52.0968   31.5041 C   0  0  0  0  0  0
    3.1655   52.1494   31.0235 C   0  0  0  0  0  0
    3.5043   53.1111   30.0782 C   0  0  0  0  0  0
    4.4913   53.4347   22.4766 C   0  0  0  0  0  0
    3.4369   52.4957   22.0768 N   0  0  0  0  0  0
    3.4467   51.7560   20.9507 C   0  0  0  0  0  0
    4.3061   51.9076   20.0858 O   0  0  0  0  0  0
    2.3633   50.7098   20.7944 C   0  0  0  0  0  0
    1.4244   50.4541   21.8100 C   0  0  0  0  0  0
    0.4490   49.4761   21.6372 C   0  0  0  0  0  0
    0.4053   48.7409   20.4567 C   0  0  0  0  0  0
    1.3303   48.9750   19.4426 C   0  0  0  0  0  0
    2.3038   49.9553   19.6119 C   0  0  0  0  0  0
   -0.5401   47.7868   20.2950 F   0  0  0  0  0  0
    4.6864   54.4963   21.4845 N   0  0  0  0  0  0
    5.8710   55.0211   21.1194 C   0  0  0  0  0  0
    6.8901   54.8968   21.7986 O   0  0  0  0  0  0
    5.9141   55.7572   19.7977 C   0  0  0  0  0  0
    7.0467   56.5162   19.4692 C   0  0  0  0  0  0
    7.1134   57.2047   18.2607 C   0  0  0  0  0  0
    6.0562   57.1218   17.3613 C   0  0  0  0  0  0
    4.9381   56.3492   17.6547 C   0  0  0  0  0  0
    4.8708   55.6613   18.8625 C   0  0  0  0  0  0
    6.1263   57.7792   16.1822 F   0  0  0  0  0  0
    7.9052   54.4956   28.0840 H   0  0  0  0  0  0
    6.3745   53.6649   28.2690 H   0  0  0  0  0  0
    7.4993   53.1747   26.9946 H   0  0  0  0  0  0
    6.4430   54.3329   24.1711 H   0  0  0  0  0  0
    2.2153   53.5203   24.0978 H   0  0  0  0  0  0
    2.0792   53.9846   26.4544 H   0  0  0  0  0  0
    3.0822   56.0410   29.2918 H   0  0  0  0  0  0
    2.0907   55.4229   28.0199 H   0  0  0  0  0  0
    0.4671   54.6162   29.7334 H   0  0  0  0  0  0
   -0.1347   52.8883   31.3996 H   0  0  0  0  0  0
    1.5934   51.3726   32.2600 H   0  0  0  0  0  0
    3.9200   51.4785   31.4087 H   0  0  0  0  0  0
    4.5247   53.1716   29.7255 H   0  0  0  0  0  0
    5.4032   52.8259   22.4876 H   0  0  0  0  0  0
    2.5735   52.5506   22.5884 H   0  0  0  0  0  0
    1.4351   50.9909   22.7463 H   0  0  0  0  0  0
   -0.2716   49.2803   22.4200 H   0  0  0  0  0  0
    1.3011   48.3937   18.5324 H   0  0  0  0  0  0
    3.0208   50.1111   18.8124 H   0  0  0  0  0  0
    3.8478   54.8661   21.0640 H   0  0  0  0  0  0
    7.8902   56.5678   20.1421 H   0  0  0  0  0  0
    7.9847   57.7934   18.0152 H   0  0  0  0  0  0
    4.1307   56.2811   16.9399 H   0  0  0  0  0  0
    3.9958   55.0532   19.0503 H   0  0  0  0  0  0
  1  2  1  0  0  0
  1 38  1  0  0  0
  1 39  1  0  0  0
  1 40  1  0  0  0
  2  3  1  0  0  0
  3  8  2  0  0  0
  3  4  1  0  0  0
  4  5  2  0  0  0
  4 41  1  0  0  0
  5  6  1  0  0  0
  5 17  1  0  0  0
  6  7  2  0  0  0
  6 42  1  0  0  0
  7  8  1  0  0  0
  7 43  1  0  0  0
  8  9  1  0  0  0
  9 10  1  0  0  0
 10 11  1  0  0  0
 10 44  1  0  0  0
 10 45  1  0  0  0
 11 16  2  0  0  0
 11 12  1  0  0  0
 12 13  2  0  0  0
 12 46  1  0  0  0
 13 14  1  0  0  0
 13 47  1  0  0  0
 14 15  2  0  0  0
 14 48  1  0  0  0
 15 16  1  0  0  0
 15 49  1  0  0  0
 16 50  1  0  0  0
 17 18  1  0  0  0
 17 28  1  0  0  0
 17 51  1  0  0  0
 18 19  1  0  0  0
 18 52  1  0  0  0
 19 20  2  0  0  0
 19 21  1  0  0  0
 21 26  2  0  0  0
 21 22  1  0  0  0
 22 23  2  0  0  0
 22 53  1  0  0  0
 23 24  1  0  0  0
 23 54  1  0  0  0
 24 25  2  0  0  0
 24 27  1  0  0  0
 25 26  1  0  0  0
 25 55  1  0  0  0
 26 56  1  0  0  0
 28 29  1  0  0  0
 28 57  1  0  0  0
 29 30  2  0  0  0
 29 31  1  0  0  0
 31 36  2  0  0  0
 31 32  1  0  0  0
 32 33  2  0  0  0
 32 58  1  0  0  0
 33 34  1  0  0  0
 33 59  1  0  0  0
 34 35  2  0  0  0
 34 37  1  0  0  0
 35 36  1  0  0  0
 35 60  1  0  0  0
 36 61  1  0  0  0
M  END
> <i_i_glide_confnum>
208

> <i_i_glide_lignum>
2987

> <i_i_glide_posenum>
101

> <i_i_glide_rotatable_bonds>
11

> <i_m_Source_File_Index>
5669

> <b_m_subgroup_collapsed>
0

> <r_i_docking_score>
-5.39667

> <r_i_glide_ecoul>
-2.35362

> <r_i_glide_eff_state_penalty>
0

> <r_i_glide_einternal>
14.1196

> <r_i_glide_emodel>
-62.5224

> <r_i_glide_energy>
-52.1302

> <r_i_glide_erotb>
0.647365

> <r_i_glide_esite>
-0.0320543

> <r_i_glide_evdw>
-49.7766

> <r_i_glide_gscore>
-5.39667

> <r_i_glide_hbond>
-0.129219

> <r_i_glide_ligand_efficiency>
-0.145856

> <r_i_glide_ligand_efficiency_ln>
-1.17041

> <r_i_glide_ligand_efficiency_sa>
-0.486025

> <r_i_glide_lipo>
-2.57501

> <r_i_glide_metal>
0

> <r_i_glide_rewards>
-0.465881

> <s_i_glide_gridfile>
wee1_glide-grid

> <s_m_Source_File>
wee1_decoys_glide_SP.sdf

> <s_m_Source_Path>
/Users/zhangxujun/Desktop

> <s_m_entry_id>
5944

> <s_m_entry_name>
wee1_decoys_glide_SP.5669

> <s_m_subgroup_title>
wee1_decoys_glide_SP

> <s_m_subgroupid>
wee1_decoys_glide_SP


$$$$
