ZINC62794835_1871
                    3D
 Schrodinger Suite 2024-2.
 30 31  0  0  1  0            999 V2000
    6.2184   54.2257   28.0450 C   0  0  0  0  0  0
    5.7070   54.2952   26.6218 C   0  0  0  0  0  0
    6.4854   54.5087   25.5250 C   0  0  0  0  0  0
    5.8265   54.4967   24.2197 C   0  0  0  0  0  0
    6.5513   54.6948   23.2483 O   0  0  0  0  0  0
    4.5095   54.2751   24.2017 N   0  5  0  0  0  0
    3.8693   54.0765   25.3004 C   0  0  0  0  0  0
    4.3524   54.0874   26.5084 N   0  0  0  0  0  0
    2.1245   53.6967   25.0295 S   0  0  0  0  0  0
    1.5044   53.1867   26.6220 C   0  0  0  0  0  0
    1.5901   54.0465   27.7196 C   0  0  0  0  0  0
    1.0356   53.6882   28.9456 C   0  0  0  0  0  0
    0.3801   52.4566   29.1156 C   0  0  0  0  0  0
    0.3003   51.6005   28.0049 C   0  0  0  0  0  0
    0.8438   51.9578   26.7693 C   0  0  0  0  0  0
    0.6566   50.8567   25.4456 Cl  0  0  0  0  0  0
   -0.2144   52.0968   30.4031 C   0  0  0  0  0  0
    0.3044   52.5608   31.5235 N   0  3  0  0  0  0
   -1.2630   51.2967   30.4817 N   0  0  0  0  0  0
    7.2982   54.3711   28.0817 H   0  0  0  0  0  0
    5.7511   54.9967   28.6576 H   0  0  0  0  0  0
    5.9939   53.2523   28.4817 H   0  0  0  0  0  0
    7.5462   54.6539   25.5861 H   0  0  0  0  0  0
    2.0853   55.0016   27.6233 H   0  0  0  0  0  0
    1.1142   54.3968   29.7581 H   0  0  0  0  0  0
   -0.1957   50.6411   28.0817 H   0  0  0  0  0  0
    1.1132   53.1554   31.5351 H   0  0  0  0  0  0
   -1.6487   51.1476   31.4202 H   0  0  0  0  0  0
   -1.6421   50.7948   29.6902 H   0  0  0  0  0  0
   -0.2378   52.3427   32.3684 H   0  0  0  0  0  0
  1 20  1  0  0  0
  1 21  1  0  0  0
  1 22  1  0  0  0
  1  2  1  0  0  0
  2  3  2  0  0  0
  2  8  1  0  0  0
  3  4  1  0  0  0
  3 23  1  0  0  0
  4  6  1  0  0  0
  4  5  2  0  0  0
  6  7  1  0  0  0
  7  9  1  0  0  0
  7  8  2  0  0  0
  9 10  1  0  0  0
 10 15  2  0  0  0
 10 11  1  0  0  0
 11 12  2  0  0  0
 11 24  1  0  0  0
 12 13  1  0  0  0
 12 25  1  0  0  0
 13 14  2  0  0  0
 13 17  1  0  0  0
 14 15  1  0  0  0
 14 26  1  0  0  0
 15 16  1  0  0  0
 17 18  2  0  0  0
 17 19  1  0  0  0
 18 27  1  0  0  0
 18 30  1  0  0  0
 19 28  1  0  0  0
 19 29  1  0  0  0
M  CHG  2   6  -1  18   1
M  END
> <i_i_glide_confnum>
1

> <i_i_glide_lignum>
1872

> <i_i_glide_posenum>
205

> <i_i_glide_rotatable_bonds>
3

> <i_m_Source_File_Index>
941

> <b_m_subgroup_collapsed>
0

> <r_i_docking_score>
-6.72073

> <r_i_glide_ecoul>
-6.7491

> <r_i_glide_eff_state_penalty>
0

> <r_i_glide_einternal>
1.15112

> <r_i_glide_emodel>
-54.5318

> <r_i_glide_energy>
-35.5292

> <r_i_glide_erotb>
0.421107

> <r_i_glide_esite>
-0.283319

> <r_i_glide_evdw>
-28.7801

> <r_i_glide_gscore>
-6.72073

> <r_i_glide_hbond>
-0.385185

> <r_i_glide_ligand_efficiency>
-0.353723

> <r_i_glide_ligand_efficiency_ln>
-1.70385

> <r_i_glide_ligand_efficiency_sa>
-0.943874

> <r_i_glide_lipo>
-2.25542

> <r_i_glide_metal>
0

> <r_i_glide_rewards>
-1.76655

> <s_i_glide_gridfile>
wee1_glide-grid

> <s_m_Source_File>
wee1_decoys_glide_SP.sdf

> <s_m_Source_Path>
/Users/zhangxujun/Desktop

> <s_m_entry_id>
1216

> <s_m_entry_name>
wee1_decoys_glide_SP.941

> <s_m_subgroup_title>
wee1_decoys_glide_SP

> <s_m_subgroupid>
wee1_decoys_glide_SP


$$$$
