ZINC12376102_6092
                    3D
 Schrodinger Suite 2024-2.
 54 58  0  0  1  0            999 V2000
    4.3823   58.4967   16.4489 C   0  0  0  0  0  0
    5.6749   58.1288   16.8085 C   0  0  0  0  0  0
    5.9010   56.8888   17.3991 C   0  0  0  0  0  0
    4.8330   56.0133   17.6321 C   0  0  0  0  0  0
    3.5320   56.4044   17.2823 C   0  0  0  0  0  0
    3.3086   57.6434   16.6876 C   0  0  0  0  0  0
    5.1012   54.6312   18.2597 C   0  0  1  0  0  0
    6.0461   54.3537   17.7883 H   0  0  0  0  0  0
    5.3419   54.6540   19.7706 C   0  0  0  0  0  0
    4.6728   53.8447   20.6204 C   0  0  0  0  0  0
    3.7160   52.9194   20.1655 N   0  0  0  0  0  0
    3.5051   52.7058   18.7878 C   0  0  0  0  0  0
    4.1328   53.4888   17.8549 C   0  0  0  0  0  0
    3.9660   53.2559   16.3934 C   0  0  0  0  0  0
    4.7322   53.7435   15.5628 O   0  0  0  0  0  0
    2.9329   52.2198   15.9470 C   0  0  0  0  0  0
    1.8390   52.0050   16.9984 C   0  0  0  0  0  0
    2.4657   51.6464   18.3549 C   0  0  0  0  0  0
    2.9981   52.1593   21.0850 C   0  0  0  0  0  0
    3.1401   50.8750   21.3066 N   0  0  0  0  0  0
    2.3097   50.4112   22.3215 N   0  0  0  0  0  0
    1.5905   51.3555   22.8778 C   0  0  0  0  0  0
    1.7880   52.8953   22.0913 S   0  0  0  0  0  0
    0.5036   51.0628   24.2372 S   0  0  0  0  0  0
    0.3758   52.6978   25.0472 C   0  0  0  0  0  0
    1.2785   52.8019   26.2752 C   0  0  0  0  0  0
    0.9020   52.1190   27.4389 C   0  0  0  0  0  0
    1.6814   52.1927   28.5924 C   0  0  0  0  0  0
    2.8478   52.9535   28.5968 C   0  0  0  0  0  0
    3.2337   53.6405   27.4467 C   0  0  0  0  0  0
    2.4616   53.5690   26.2845 C   0  0  0  0  0  0
    3.0084   54.4542   24.8994 Cl  0  0  0  0  0  0
    4.9318   53.8626   21.9787 N   0  0  0  0  0  0
    6.3151   55.5746   20.2732 C   0  0  0  0  0  0
    7.1032   56.3047   20.7062 N   0  0  0  0  0  0
    4.2066   59.4579   15.9890 H   0  0  0  0  0  0
    6.4948   58.8106   16.6326 H   0  0  0  0  0  0
    6.9104   56.6078   17.6686 H   0  0  0  0  0  0
    2.6923   55.7520   17.4744 H   0  0  0  0  0  0
    2.3062   57.9489   16.4235 H   0  0  0  0  0  0
    3.4941   51.2949   15.8360 H   0  0  0  0  0  0
    2.5409   52.4812   14.9651 H   0  0  0  0  0  0
    1.1663   51.2074   16.6789 H   0  0  0  0  0  0
    1.2278   52.9050   17.0894 H   0  0  0  0  0  0
    2.8766   50.6364   18.4000 H   0  0  0  0  0  0
    1.6054   51.6586   19.0230 H   0  0  0  0  0  0
    0.5167   53.5344   24.3687 H   0  0  0  0  0  0
   -0.6588   52.8114   25.3724 H   0  0  0  0  0  0
    0.0023   51.5183   27.4512 H   0  0  0  0  0  0
    1.3776   51.6550   29.4812 H   0  0  0  0  0  0
    3.4530   53.0135   29.4899 H   0  0  0  0  0  0
    4.1412   54.2249   27.4551 H   0  0  0  0  0  0
    5.6079   54.5021   22.3687 H   0  0  0  0  0  0
    4.4444   53.2473   22.6132 H   0  0  0  0  0  0
  1  6  2  0  0  0
  1  2  1  0  0  0
  1 36  1  0  0  0
  2  3  2  0  0  0
  2 37  1  0  0  0
  3  4  1  0  0  0
  3 38  1  0  0  0
  4  5  2  0  0  0
  4  7  1  0  0  0
  5  6  1  0  0  0
  5 39  1  0  0  0
  6 40  1  0  0  0
  7  8  1  0  0  0
  7 13  1  0  0  0
  7  9  1  0  0  0
  9 10  2  0  0  0
  9 34  1  0  0  0
 10 11  1  0  0  0
 10 33  1  0  0  0
 11 12  1  0  0  0
 11 19  1  0  0  0
 12 18  1  0  0  0
 12 13  2  0  0  0
 13 14  1  0  0  0
 14 15  2  0  0  0
 14 16  1  0  0  0
 16 17  1  0  0  0
 16 41  1  0  0  0
 16 42  1  0  0  0
 17 18  1  0  0  0
 17 43  1  0  0  0
 17 44  1  0  0  0
 18 45  1  0  0  0
 18 46  1  0  0  0
 19 23  1  0  0  0
 19 20  2  0  0  0
 20 21  1  0  0  0
 21 22  2  0  0  0
 22 23  1  0  0  0
 22 24  1  0  0  0
 24 25  1  0  0  0
 25 26  1  0  0  0
 25 47  1  0  0  0
 25 48  1  0  0  0
 26 31  2  0  0  0
 26 27  1  0  0  0
 27 28  2  0  0  0
 27 49  1  0  0  0
 28 29  1  0  0  0
 28 50  1  0  0  0
 29 30  2  0  0  0
 29 51  1  0  0  0
 30 31  1  0  0  0
 30 52  1  0  0  0
 31 32  1  0  0  0
 33 53  1  0  0  0
 33 54  1  0  0  0
 34 35  3  0  0  0
M  END
> <i_i_glide_confnum>
85

> <i_i_glide_lignum>
6093

> <i_i_glide_posenum>
136

> <i_i_glide_rotatable_bonds>
6

> <i_m_Source_File_Index>
1524

> <b_m_subgroup_collapsed>
0

> <r_i_docking_score>
-4.25877

> <r_i_glide_ecoul>
-2.62186

> <r_i_glide_eff_state_penalty>
0

> <r_i_glide_einternal>
4.75311

> <r_i_glide_emodel>
-52.4724

> <r_i_glide_energy>
-43.0144

> <r_i_glide_erotb>
0.399433

> <r_i_glide_esite>
-0.0312767

> <r_i_glide_evdw>
-40.3925

> <r_i_glide_gscore>
-4.25877

> <r_i_glide_hbond>
-0.18939

> <r_i_glide_ligand_efficiency>
-0.125258

> <r_i_glide_ligand_efficiency_ln>
-0.940882

> <r_i_glide_ligand_efficiency_sa>
-0.405787

> <r_i_glide_lipo>
-1.82546

> <r_i_glide_metal>
0

> <r_i_glide_rewards>
-0.199167

> <s_i_glide_gridfile>
wee1_glide-grid

> <s_m_Source_File>
wee1_decoys_glide_SP.sdf

> <s_m_Source_Path>
/Users/zhangxujun/Desktop

> <s_m_entry_id>
1799

> <s_m_entry_name>
wee1_decoys_glide_SP.1524

> <s_m_subgroup_title>
wee1_decoys_glide_SP

> <s_m_subgroupid>
wee1_decoys_glide_SP


$$$$
