ZINC01555890_1823
                    3D
 Schrodinger Suite 2024-2.
 35 37  0  0  1  0            999 V2000
   -3.3306   52.7552   25.8042 C   0  0  0  0  0  0
   -3.1978   51.2722   25.4199 C   0  0  0  0  0  0
   -1.9003   50.5591   25.9338 C   0  0  1  0  0  0
   -2.1695   49.6384   26.4573 H   0  0  0  0  0  0
   -1.2459   50.1636   24.6408 C   0  0  0  0  0  0
   -0.0925   49.4591   24.3046 C   0  0  0  0  0  0
    0.3002   49.2965   23.0142 N   0  0  0  0  0  0
   -0.5090   49.8365   22.0652 C   0  0  0  0  0  0
   -1.6696   50.5108   22.2830 N   0  0  0  0  0  0
   -1.9963   50.6461   23.5912 C   0  0  0  0  0  0
   -3.1412   51.2849   23.9831 O   0  0  0  0  0  0
   -0.1125   49.6730   20.7485 N   0  0  0  0  0  0
    0.7054   48.8969   25.2862 N   0  0  0  0  0  0
   -1.0092   51.3456   26.9128 C   0  0  0  0  0  0
    0.0856   52.0971   26.4653 C   0  0  0  0  0  0
    0.8843   52.7886   27.3712 C   0  0  0  0  0  0
    0.5896   52.7339   28.7331 C   0  0  0  0  0  0
   -0.4952   51.9908   29.1913 C   0  0  0  0  0  0
   -1.2906   51.2977   28.2819 C   0  0  0  0  0  0
    1.5798   53.5896   29.8557 Cl  0  0  0  0  0  0
   -4.4750   50.4886   25.7782 C   0  0  0  0  0  0
   -3.4351   52.8837   26.8811 H   0  0  0  0  0  0
   -2.4431   53.2966   25.4824 H   0  0  0  0  0  0
   -4.1930   53.2208   25.3251 H   0  0  0  0  0  0
   -0.6488   50.1164   20.0213 H   0  0  0  0  0  0
    0.8004   49.2822   20.5724 H   0  0  0  0  0  0
    0.3617   48.8690   26.2368 H   0  0  0  0  0  0
    1.5376   48.3827   25.0071 H   0  0  0  0  0  0
    0.3216   52.1479   25.4125 H   0  0  0  0  0  0
    1.7284   53.3617   27.0177 H   0  0  0  0  0  0
   -0.7161   51.9355   30.2490 H   0  0  0  0  0  0
   -2.1175   50.7045   28.6476 H   0  0  0  0  0  0
   -4.6119   50.4302   26.8600 H   0  0  0  0  0  0
   -5.3622   50.9578   25.3525 H   0  0  0  0  0  0
   -4.4319   49.4695   25.3934 H   0  0  0  0  0  0
  1  2  1  0  0  0
  1 22  1  0  0  0
  1 23  1  0  0  0
  1 24  1  0  0  0
  2 11  1  0  0  0
  2  3  1  0  0  0
  2 21  1  0  0  0
  3  4  1  0  0  0
  3  5  1  0  0  0
  3 14  1  0  0  0
  5 10  2  0  0  0
  5  6  1  0  0  0
  6  7  2  0  0  0
  6 13  1  0  0  0
  7  8  1  0  0  0
  8  9  2  0  0  0
  8 12  1  0  0  0
  9 10  1  0  0  0
 10 11  1  0  0  0
 12 25  1  0  0  0
 12 26  1  0  0  0
 13 27  1  0  0  0
 13 28  1  0  0  0
 14 19  2  0  0  0
 14 15  1  0  0  0
 15 16  2  0  0  0
 15 29  1  0  0  0
 16 17  1  0  0  0
 16 30  1  0  0  0
 17 18  2  0  0  0
 17 20  1  0  0  0
 18 19  1  0  0  0
 18 31  1  0  0  0
 19 32  1  0  0  0
 21 33  1  0  0  0
 21 34  1  0  0  0
 21 35  1  0  0  0
M  END
> <i_i_glide_confnum>
2

> <i_i_glide_lignum>
1824

> <i_i_glide_posenum>
262

> <i_i_glide_rotatable_bonds>
1

> <i_m_Source_File_Index>
4454

> <b_m_subgroup_collapsed>
0

> <r_i_docking_score>
-4.04914

> <r_i_glide_ecoul>
-5.95567

> <r_i_glide_eff_state_penalty>
0

> <r_i_glide_einternal>
0.702348

> <r_i_glide_emodel>
-34.188

> <r_i_glide_energy>
-27.3802

> <r_i_glide_erotb>
0.215652

> <r_i_glide_esite>
-0.0544469

> <r_i_glide_evdw>
-21.4245

> <r_i_glide_gscore>
-4.04914

> <r_i_glide_hbond>
-0.32

> <r_i_glide_ligand_efficiency>
-0.202457

> <r_i_glide_ligand_efficiency_ln>
-1.01337

> <r_i_glide_ligand_efficiency_sa>
-0.549553

> <r_i_glide_lipo>
-0.496866

> <r_i_glide_metal>
0

> <r_i_glide_rewards>
-1.42891

> <s_i_glide_gridfile>
wee1_glide-grid

> <s_m_Source_File>
wee1_decoys_glide_SP.sdf

> <s_m_Source_Path>
/Users/zhangxujun/Desktop

> <s_m_entry_id>
4729

> <s_m_entry_name>
wee1_decoys_glide_SP.4454

> <s_m_subgroup_title>
wee1_decoys_glide_SP

> <s_m_subgroupid>
wee1_decoys_glide_SP


$$$$
