ZINC62788338_1919
                    3D
 Schrodinger Suite 2024-2.
 38 39  0  0  1  0            999 V2000
    5.2217   54.2737   20.3851 C   0  0  0  0  0  0
    3.9042   53.6842   20.5956 N   0  0  0  0  0  0
    3.4257   53.2200   21.7641 C   0  0  0  0  0  0
    4.0936   53.2968   22.7958 O   0  0  0  0  0  0
    1.9673   52.6324   21.7804 C   0  0  1  0  0  0
    1.3802   53.5081   22.0608 H   0  0  0  0  0  0
    1.4716   52.1448   20.3805 C   0  0  0  0  0  0
    2.1273   50.8228   19.9363 C   0  0  0  0  0  0
    2.0225   49.7691   21.0458 C   0  0  0  0  0  0
    2.4646   50.3136   22.4194 C   0  0  0  0  0  0
    1.7546   51.5564   22.7907 N   0  0  0  0  0  0
    1.2713   51.7341   24.0954 C   0  0  0  0  0  0
    1.7637   52.7999   24.8683 C   0  0  0  0  0  0
    1.4994   52.8960   26.2326 C   0  0  0  0  0  0
    0.6778   51.9620   26.8480 C   0  0  0  0  0  0
    0.1157   50.9372   26.0980 C   0  0  0  0  0  0
    0.3853   50.8082   24.7237 C   0  0  0  0  0  0
   -0.3507   49.7270   24.0194 C   0  0  0  0  0  0
   -1.4436   50.0285   22.8019 S   0  0  0  0  0  0
   -0.0954   48.4841   24.4904 N   0  0  0  0  0  0
    2.2238   54.1435   27.1769 Cl  0  0  0  0  0  0
    5.1256   55.1906   19.8026 H   0  0  0  0  0  0
    5.8495   53.5811   19.8226 H   0  0  0  0  0  0
    5.7338   54.5197   21.3169 H   0  0  0  0  0  0
    3.3015   53.6325   19.7865 H   0  0  0  0  0  0
    0.3890   52.0172   20.4253 H   0  0  0  0  0  0
    1.6173   52.8979   19.6078 H   0  0  0  0  0  0
    1.6671   50.4553   19.0182 H   0  0  0  0  0  0
    3.1792   50.9935   19.6971 H   0  0  0  0  0  0
    1.0128   49.3655   21.1093 H   0  0  0  0  0  0
    2.6472   48.9132   20.7869 H   0  0  0  0  0  0
    2.3015   49.5406   23.1707 H   0  0  0  0  0  0
    3.5360   50.4988   22.4110 H   0  0  0  0  0  0
    2.4187   53.5375   24.4398 H   0  0  0  0  0  0
    0.4679   52.0304   27.9054 H   0  0  0  0  0  0
   -0.5469   50.2438   26.6017 H   0  0  0  0  0  0
    0.5567   48.3532   25.2518 H   0  0  0  0  0  0
   -0.5972   47.6967   24.1098 H   0  0  0  0  0  0
  1  2  1  0  0  0
  1 22  1  0  0  0
  1 23  1  0  0  0
  1 24  1  0  0  0
  2  3  1  0  0  0
  2 25  1  0  0  0
  3  4  2  0  0  0
  3  5  1  0  0  0
  5  6  1  0  0  0
  5 11  1  0  0  0
  5  7  1  0  0  0
  7  8  1  0  0  0
  7 26  1  0  0  0
  7 27  1  0  0  0
  8  9  1  0  0  0
  8 28  1  0  0  0
  8 29  1  0  0  0
  9 10  1  0  0  0
  9 30  1  0  0  0
  9 31  1  0  0  0
 10 11  1  0  0  0
 10 32  1  0  0  0
 10 33  1  0  0  0
 11 12  1  0  0  0
 12 17  2  0  0  0
 12 13  1  0  0  0
 13 14  2  0  0  0
 13 34  1  0  0  0
 14 15  1  0  0  0
 14 21  1  0  0  0
 15 16  2  0  0  0
 15 35  1  0  0  0
 16 17  1  0  0  0
 16 36  1  0  0  0
 17 18  1  0  0  0
 18 19  2  0  0  0
 18 20  1  0  0  0
 20 37  1  0  0  0
 20 38  1  0  0  0
M  END
> <i_i_glide_confnum>
11

> <i_i_glide_lignum>
1920

> <i_i_glide_posenum>
200

> <i_i_glide_rotatable_bonds>
4

> <i_m_Source_File_Index>
908

> <b_m_subgroup_collapsed>
0

> <r_i_docking_score>
-4.08795

> <r_i_glide_ecoul>
-4.36883

> <r_i_glide_eff_state_penalty>
0

> <r_i_glide_einternal>
2.62598

> <r_i_glide_emodel>
-36.1928

> <r_i_glide_energy>
-28.6669

> <r_i_glide_erotb>
0.381556

> <r_i_glide_esite>
-0.0614983

> <r_i_glide_evdw>
-24.2981

> <r_i_glide_gscore>
-4.08795

> <r_i_glide_hbond>
0

> <r_i_glide_ligand_efficiency>
-0.204397

> <r_i_glide_ligand_efficiency_ln>
-1.02308

> <r_i_glide_ligand_efficiency_sa>
-0.55482

> <r_i_glide_lipo>
-1.03009

> <r_i_glide_metal>
0

> <r_i_glide_rewards>
-1.50769

> <s_i_glide_gridfile>
wee1_glide-grid

> <s_m_Source_File>
wee1_decoys_glide_SP.sdf

> <s_m_Source_Path>
/Users/zhangxujun/Desktop

> <s_m_entry_id>
1183

> <s_m_entry_name>
wee1_decoys_glide_SP.908

> <s_m_subgroup_title>
wee1_decoys_glide_SP

> <s_m_subgroupid>
wee1_decoys_glide_SP


$$$$
