ZINC10246296_3205
                    3D
 Schrodinger Suite 2024-2.
 58 62  0  0  1  0            999 V2000
    0.4242   53.4722   29.3297 C   0  0  0  0  0  0
    1.7653   53.9457   29.3891 O   0  0  0  0  0  0
    2.5119   54.0094   28.2272 C   0  0  0  0  0  0
    3.8348   54.4144   28.3619 C   0  0  0  0  0  0
    4.6729   54.4961   27.2533 C   0  0  0  0  0  0
    4.2037   54.1868   25.9605 C   0  0  0  0  0  0
    2.8613   53.7875   25.8364 C   0  0  0  0  0  0
    2.0302   53.6918   26.9517 C   0  0  0  0  0  0
    5.0366   54.2132   24.7911 N   0  0  0  0  0  0
    4.5309   53.8511   23.4482 C   0  0  0  0  0  0
    5.7291   53.7034   22.5162 C   0  0  2  0  0  0
    5.8261   52.6712   22.1786 H   0  0  0  0  0  0
    6.9111   54.1317   23.3785 C   0  0  0  0  0  0
    6.3746   54.4889   24.7617 C   0  0  0  0  0  0
    7.1038   54.8977   25.6620 O   0  0  0  0  0  0
    5.5641   54.5753   21.2469 C   0  0  0  0  0  0
    5.9043   55.7545   21.2817 O   0  0  0  0  0  0
    5.0155   53.9790   20.1646 N   0  0  0  0  0  0
    4.8143   54.5573   18.9060 C   0  0  0  0  0  0
    5.5305   55.6578   18.2840 C   0  0  0  0  0  0
    6.6717   56.4438   18.5503 C   0  0  0  0  0  0
    6.9800   57.5084   17.6979 C   0  0  0  0  0  0
    6.2008   57.7944   16.5790 C   0  0  0  0  0  0
    5.0959   57.0088   16.2501 C   0  0  0  0  0  0
    4.7918   55.9494   17.1130 C   0  0  0  0  0  0
    3.7616   55.0805   16.9452 O   0  0  0  0  0  0
    3.8109   54.1992   17.9872 C   0  0  0  0  0  0
    2.7174   53.2610   18.0814 C   0  0  0  0  0  0
    1.5971   53.5527   17.6498 O   0  0  0  0  0  0
    3.0182   52.0963   18.6973 N   0  0  0  0  0  0
    2.0885   51.1928   19.2441 C   0  0  0  0  0  0
    2.4347   49.8401   19.2868 C   0  0  0  0  0  0
    1.5666   48.9079   19.8575 C   0  0  0  0  0  0
    0.3457   49.3212   20.3926 C   0  0  0  0  0  0
   -0.0076   50.6727   20.3602 C   0  0  0  0  0  0
    0.8604   51.6065   19.7938 C   0  0  0  0  0  0
   -1.1893   51.0814   20.8824 F   0  0  0  0  0  0
   -0.4883   48.4069   20.9399 F   0  0  0  0  0  0
   -0.0097   53.4939   30.3290 H   0  0  0  0  0  0
   -0.1958   54.1003   28.6877 H   0  0  0  0  0  0
    0.3771   52.4424   28.9716 H   0  0  0  0  0  0
    4.2244   54.6587   29.3375 H   0  0  0  0  0  0
    5.6848   54.8061   27.4526 H   0  0  0  0  0  0
    2.4361   53.5279   24.8786 H   0  0  0  0  0  0
    1.0128   53.3643   26.8041 H   0  0  0  0  0  0
    3.8329   54.6202   23.1099 H   0  0  0  0  0  0
    4.0061   52.8988   23.4992 H   0  0  0  0  0  0
    7.6187   53.3107   23.4952 H   0  0  0  0  0  0
    7.5007   54.9648   22.9918 H   0  0  0  0  0  0
    4.6422   53.0512   20.2942 H   0  0  0  0  0  0
    7.3035   56.2489   19.4029 H   0  0  0  0  0  0
    7.8374   58.1298   17.9083 H   0  0  0  0  0  0
    6.4593   58.6394   15.9539 H   0  0  0  0  0  0
    4.4947   57.2130   15.3770 H   0  0  0  0  0  0
    3.9903   51.7982   18.7005 H   0  0  0  0  0  0
    3.3796   49.5025   18.8838 H   0  0  0  0  0  0
    1.8448   47.8628   19.8858 H   0  0  0  0  0  0
    0.5787   52.6488   19.7968 H   0  0  0  0  0  0
  1  2  1  0  0  0
  1 39  1  0  0  0
  1 40  1  0  0  0
  1 41  1  0  0  0
  2  3  1  0  0  0
  3  8  2  0  0  0
  3  4  1  0  0  0
  4  5  2  0  0  0
  4 42  1  0  0  0
  5  6  1  0  0  0
  5 43  1  0  0  0
  6  7  2  0  0  0
  6  9  1  0  0  0
  7  8  1  0  0  0
  7 44  1  0  0  0
  8 45  1  0  0  0
  9 14  1  0  0  0
  9 10  1  0  0  0
 10 11  1  0  0  0
 10 46  1  0  0  0
 10 47  1  0  0  0
 11 12  1  0  0  0
 11 13  1  0  0  0
 11 16  1  0  0  0
 13 14  1  0  0  0
 13 48  1  0  0  0
 13 49  1  0  0  0
 14 15  2  0  0  0
 16 17  2  0  0  0
 16 18  1  0  0  0
 18 19  1  0  0  0
 18 50  1  0  0  0
 19 27  2  0  0  0
 19 20  1  0  0  0
 20 25  2  0  0  0
 20 21  1  0  0  0
 21 22  2  0  0  0
 21 51  1  0  0  0
 22 23  1  0  0  0
 22 52  1  0  0  0
 23 24  2  0  0  0
 23 53  1  0  0  0
 24 25  1  0  0  0
 24 54  1  0  0  0
 25 26  1  0  0  0
 26 27  1  0  0  0
 27 28  1  0  0  0
 28 29  2  0  0  0
 28 30  1  0  0  0
 30 31  1  0  0  0
 30 55  1  0  0  0
 31 36  2  0  0  0
 31 32  1  0  0  0
 32 33  2  0  0  0
 32 56  1  0  0  0
 33 34  1  0  0  0
 33 57  1  0  0  0
 34 35  2  0  0  0
 34 38  1  0  0  0
 35 36  1  0  0  0
 35 37  1  0  0  0
 36 58  1  0  0  0
M  END
> <i_i_glide_confnum>
16

> <i_i_glide_lignum>
3206

> <i_i_glide_posenum>
288

> <i_i_glide_rotatable_bonds>
8

> <i_m_Source_File_Index>
5621

> <b_m_subgroup_collapsed>
0

> <r_i_docking_score>
-7.04597

> <r_i_glide_ecoul>
-7.20752

> <r_i_glide_eff_state_penalty>
0

> <r_i_glide_einternal>
13.9594

> <r_i_glide_emodel>
-68.3448

> <r_i_glide_energy>
-51.0336

> <r_i_glide_erotb>
0.560373

> <r_i_glide_esite>
-0.0987365

> <r_i_glide_evdw>
-43.826

> <r_i_glide_gscore>
-7.04597

> <r_i_glide_hbond>
-0.434515

> <r_i_glide_ligand_efficiency>
-0.190432

> <r_i_glide_ligand_efficiency_ln>
-1.52811

> <r_i_glide_ligand_efficiency_sa>
-0.634561

> <r_i_glide_lipo>
-2.29676

> <r_i_glide_metal>
0

> <r_i_glide_rewards>
-1.50391

> <s_i_glide_gridfile>
wee1_glide-grid

> <s_m_Source_File>
wee1_decoys_glide_SP.sdf

> <s_m_Source_Path>
/Users/zhangxujun/Desktop

> <s_m_entry_id>
5896

> <s_m_entry_name>
wee1_decoys_glide_SP.5621

> <s_m_subgroup_title>
wee1_decoys_glide_SP

> <s_m_subgroupid>
wee1_decoys_glide_SP


$$$$
