ZINC13260397_2593
                    3D
 Schrodinger Suite 2024-2.
 40 42  0  0  1  0            999 V2000
    1.1515   52.2132   27.7873 C   0  0  0  0  0  0
    1.8663   52.8533   26.7734 C   0  0  0  0  0  0
    1.3207   52.9738   25.4818 C   0  0  0  0  0  0
    0.0291   52.4791   25.2513 C   0  0  0  0  0  0
   -0.6918   51.8533   26.2700 C   0  0  0  0  0  0
   -0.1216   51.7048   27.5356 C   0  0  0  0  0  0
   -2.3475   51.2496   25.9639 S   0  0  0  0  0  0
   -3.0965   51.4333   27.2117 O   0  0  0  0  0  0
   -2.8211   51.8525   24.7118 O   0  0  0  0  0  0
   -2.1681   49.5213   25.7033 N   0  0  0  0  0  0
   -1.8525   48.9551   24.3797 C   0  0  0  0  0  0
   -0.4706   49.2569   23.8246 C   0  0  0  0  0  0
   -0.7794   47.8883   24.3425 C   0  0  0  0  0  0
    2.0723   53.6285   24.3453 C   0  0  0  0  0  0
    1.4593   54.0433   23.3595 O   0  0  0  0  0  0
    3.4125   53.6974   24.4869 N   0  0  0  0  0  0
    4.3967   54.0968   23.5619 C   0  0  0  0  0  0
    4.1526   54.0451   22.1756 C   0  0  0  0  0  0
    5.1015   54.4935   21.2637 C   0  0  0  0  0  0
    6.3060   55.0040   21.7212 C   0  0  0  0  0  0
    6.5764   55.0219   23.0847 C   0  0  0  0  0  0
    5.6538   54.5626   24.0383 C   0  0  0  0  0  0
    6.0330   54.6438   25.5031 C   0  0  0  0  0  0
    7.0981   55.2372   25.8028 O   0  0  0  0  0  0
    7.5809   55.6968   20.4908 Br  0  0  0  0  0  0
    1.5869   52.1097   28.7704 H   0  0  0  0  0  0
    2.8506   53.2357   27.0096 H   0  0  0  0  0  0
   -0.4215   52.5741   24.2723 H   0  0  0  0  0  0
   -0.6685   51.2041   28.3232 H   0  0  0  0  0  0
   -2.2623   48.8980   26.5169 H   0  0  0  0  0  0
   -2.6909   48.8914   23.6847 H   0  0  0  0  0  0
   -0.3688   49.4143   22.7519 H   0  0  0  0  0  0
    0.2237   49.8713   24.3970 H   0  0  0  0  0  0
   -0.3309   47.5694   25.2829 H   0  0  0  0  0  0
   -0.8970   47.0656   23.6376 H   0  0  0  0  0  0
    3.8071   53.5051   25.4033 H   0  0  0  0  0  0
    3.2256   53.6630   21.7752 H   0  0  0  0  0  0
    4.8895   54.4637   20.2045 H   0  0  0  0  0  0
    7.5047   55.4527   23.4062 H   0  0  0  0  0  0
    5.2725   54.1219   26.3525 O   0  5  0  0  0  0
  1  6  2  0  0  0
  1  2  1  0  0  0
  1 26  1  0  0  0
  2  3  2  0  0  0
  2 27  1  0  0  0
  3  4  1  0  0  0
  3 14  1  0  0  0
  4  5  2  0  0  0
  4 28  1  0  0  0
  5  6  1  0  0  0
  5  7  1  0  0  0
  6 29  1  0  0  0
  7  8  2  0  0  0
  7  9  2  0  0  0
  7 10  1  0  0  0
 10 11  1  0  0  0
 10 30  1  0  0  0
 11 13  1  0  0  0
 11 12  1  0  0  0
 11 31  1  0  0  0
 12 13  1  0  0  0
 12 32  1  0  0  0
 12 33  1  0  0  0
 13 34  1  0  0  0
 13 35  1  0  0  0
 14 15  2  0  0  0
 14 16  1  0  0  0
 16 17  1  0  0  0
 16 36  1  0  0  0
 17 22  2  0  0  0
 17 18  1  0  0  0
 18 19  2  0  0  0
 18 37  1  0  0  0
 19 20  1  0  0  0
 19 38  1  0  0  0
 20 21  2  0  0  0
 20 25  1  0  0  0
 21 22  1  0  0  0
 21 39  1  0  0  0
 22 23  1  0  0  0
 23 24  2  0  0  0
 23 40  1  0  0  0
M  CHG  1  40  -1
M  END
> <i_i_glide_confnum>
40

> <i_i_glide_lignum>
2594

> <i_i_glide_posenum>
387

> <i_i_glide_rotatable_bonds>
7

> <i_m_Source_File_Index>
5473

> <b_m_subgroup_collapsed>
0

> <r_i_docking_score>
-5.94791

> <r_i_glide_ecoul>
-7.29293

> <r_i_glide_eff_state_penalty>
0

> <r_i_glide_einternal>
5.13162

> <r_i_glide_emodel>
-60.1989

> <r_i_glide_energy>
-44.6191

> <r_i_glide_erotb>
0.623116

> <r_i_glide_esite>
-0.172247

> <r_i_glide_evdw>
-37.3261

> <r_i_glide_gscore>
-5.94791

> <r_i_glide_hbond>
-0.285063

> <r_i_glide_ligand_efficiency>
-0.228766

> <r_i_glide_ligand_efficiency_ln>
-1.39685

> <r_i_glide_ligand_efficiency_sa>
-0.677718

> <r_i_glide_lipo>
-1.9714

> <r_i_glide_metal>
0

> <r_i_glide_rewards>
-1.18206

> <s_i_glide_gridfile>
wee1_glide-grid

> <s_m_Source_File>
wee1_decoys_glide_SP.sdf

> <s_m_Source_Path>
/Users/zhangxujun/Desktop

> <s_m_entry_id>
5748

> <s_m_entry_name>
wee1_decoys_glide_SP.5473

> <s_m_subgroup_title>
wee1_decoys_glide_SP

> <s_m_subgroupid>
wee1_decoys_glide_SP


$$$$
