ZINC39637225_3667
                    3D
 Schrodinger Suite 2024-2.
 68 71  0  0  1  0            999 V2000
   -6.6788   53.9753   26.6983 C   0  0  0  0  0  0
   -6.1673   53.1773   25.4796 C   0  0  2  0  0  0
   -6.3500   53.7943   24.5964 H   0  0  0  0  0  0
   -6.9439   51.8573   25.3030 C   0  0  0  0  0  0
   -6.5362   51.1410   24.0047 C   0  0  0  0  0  0
   -5.0057   50.9593   23.8739 C   0  0  0  0  0  0
   -4.1580   52.2250   24.2092 C   0  0  1  0  0  0
   -4.3769   52.9593   23.4365 H   0  0  0  0  0  0
   -4.6391   52.8875   25.5319 C   0  0  2  0  0  0
   -4.1664   53.8714   25.5665 H   0  0  0  0  0  0
   -4.1574   52.0957   26.7665 C   0  0  0  0  0  0
   -2.7276   51.9499   24.1874 N   0  0  0  0  0  0
   -1.9496   51.8096   23.1039 C   0  0  0  0  0  0
   -2.3131   52.0960   21.9609 O   0  0  0  0  0  0
   -0.5280   51.2817   23.3953 C   0  0  2  0  0  0
   -0.2490   51.6190   24.3944 H   0  0  0  0  0  0
    0.5320   51.7112   22.3522 C   0  0  0  0  0  0
    0.6188   50.5814   21.4132 N   0  0  0  0  0  0
   -0.1970   49.4506   21.8542 C   0  0  0  0  0  0
   -0.4944   49.7210   23.3395 C   0  0  0  0  0  0
   -1.7116   48.8580   23.7967 C   0  0  0  0  0  0
   -1.9764   48.9245   25.3173 C   0  0  0  0  0  0
   -0.6986   48.5018   26.0738 N   0  3  0  0  0  0
    0.5517   49.2972   25.6734 C   0  0  0  0  0  0
    0.7040   49.1534   24.1459 C   0  0  0  0  0  0
    1.2577   50.5411   20.2129 C   0  0  0  0  0  0
    1.0948   49.6063   19.4243 O   0  0  0  0  0  0
    2.1983   51.6602   19.8230 C   0  0  0  0  0  0
    2.2344   52.1094   18.4981 C   0  0  0  0  0  0
    3.1080   53.1268   18.1162 C   0  0  0  0  0  0
    3.9723   53.6973   19.0487 C   0  0  0  0  0  0
    3.9871   53.2317   20.3706 C   0  0  0  0  0  0
    3.1080   52.2069   20.7381 C   0  0  0  0  0  0
    4.9226   53.8018   21.4339 C   0  0  0  0  0  0
    4.1917   54.4956   22.3089 F   0  0  0  0  0  0
    5.5041   52.8019   22.0935 F   0  0  0  0  0  0
    5.8835   54.5932   20.9497 F   0  0  0  0  0  0
    4.7909   54.6975   18.6485 F   0  0  0  0  0  0
   -6.6592   53.3851   27.6158 H   0  0  0  0  0  0
   -6.0837   54.8734   26.8678 H   0  0  0  0  0  0
   -7.7116   54.2950   26.5471 H   0  0  0  0  0  0
   -6.8111   51.2100   26.1710 H   0  0  0  0  0  0
   -8.0158   52.0633   25.2795 H   0  0  0  0  0  0
   -7.0270   50.1670   23.9534 H   0  0  0  0  0  0
   -6.9094   51.6998   23.1457 H   0  0  0  0  0  0
   -4.7181   50.1536   24.5509 H   0  0  0  0  0  0
   -4.7780   50.6135   22.8651 H   0  0  0  0  0  0
   -4.4552   51.0490   26.7224 H   0  0  0  0  0  0
   -4.5702   52.4937   27.6835 H   0  0  0  0  0  0
   -3.0726   52.1186   26.8649 H   0  0  0  0  0  0
   -2.2893   51.8864   25.0954 H   0  0  0  0  0  0
    0.2793   52.6703   21.8945 H   0  0  0  0  0  0
    1.4642   51.8290   22.9027 H   0  0  0  0  0  0
    0.2415   48.4676   21.6776 H   0  0  0  0  0  0
   -1.1335   49.4678   21.2937 H   0  0  0  0  0  0
   -2.6146   49.1382   23.2514 H   0  0  0  0  0  0
   -1.5501   47.8145   23.5224 H   0  0  0  0  0  0
   -2.2116   49.9180   25.6918 H   0  0  0  0  0  0
   -2.7623   48.2399   25.6402 H   0  0  0  0  0  0
   -0.8959   48.5191   27.0902 H   0  0  0  0  0  0
    0.4181   50.3181   26.0345 H   0  0  0  0  0  0
    1.3785   48.8330   26.2137 H   0  0  0  0  0  0
    0.8355   48.0963   23.9032 H   0  0  0  0  0  0
    1.6416   49.6190   23.8394 H   0  0  0  0  0  0
    1.5844   51.6738   17.7517 H   0  0  0  0  0  0
    3.1235   53.4711   17.0947 H   0  0  0  0  0  0
    3.1662   51.8193   21.7429 H   0  0  0  0  0  0
   -0.5087   47.5223   25.9088 H   0  0  0  0  0  0
  1  2  1  0  0  0
  1 39  1  0  0  0
  1 40  1  0  0  0
  1 41  1  0  0  0
  2  3  1  0  0  0
  2  9  1  0  0  0
  2  4  1  0  0  0
  4  5  1  0  0  0
  4 42  1  0  0  0
  4 43  1  0  0  0
  5  6  1  0  0  0
  5 44  1  0  0  0
  5 45  1  0  0  0
  6  7  1  0  0  0
  6 46  1  0  0  0
  6 47  1  0  0  0
  7  8  1  0  0  0
  7  9  1  0  0  0
  7 12  1  0  0  0
  9 10  1  0  0  0
  9 11  1  0  0  0
 11 48  1  0  0  0
 11 49  1  0  0  0
 11 50  1  0  0  0
 12 13  1  0  0  0
 12 51  1  0  0  0
 13 14  2  0  0  0
 13 15  1  0  0  0
 15 16  1  0  0  0
 15 20  1  0  0  0
 15 17  1  0  0  0
 17 18  1  0  0  0
 17 52  1  0  0  0
 17 53  1  0  0  0
 18 19  1  0  0  0
 18 26  1  0  0  0
 19 20  1  0  0  0
 19 54  1  0  0  0
 19 55  1  0  0  0
 20 25  1  0  0  0
 20 21  1  0  0  0
 21 22  1  0  0  0
 21 56  1  0  0  0
 21 57  1  0  0  0
 22 23  1  0  0  0
 22 58  1  0  0  0
 22 59  1  0  0  0
 23 24  1  0  0  0
 23 60  1  0  0  0
 23 68  1  0  0  0
 24 25  1  0  0  0
 24 61  1  0  0  0
 24 62  1  0  0  0
 25 63  1  0  0  0
 25 64  1  0  0  0
 26 27  2  0  0  0
 26 28  1  0  0  0
 28 33  2  0  0  0
 28 29  1  0  0  0
 29 30  2  0  0  0
 29 65  1  0  0  0
 30 31  1  0  0  0
 30 66  1  0  0  0
 31 32  2  0  0  0
 31 38  1  0  0  0
 32 33  1  0  0  0
 32 34  1  0  0  0
 33 67  1  0  0  0
 34 35  1  0  0  0
 34 36  1  0  0  0
 34 37  1  0  0  0
M  CHG  1  23   1
M  END
> <i_i_glide_confnum>
370

> <i_i_glide_lignum>
3668

> <i_i_glide_posenum>
98

> <i_i_glide_rotatable_bonds>
6

> <i_m_Source_File_Index>
2752

> <b_m_subgroup_collapsed>
0

> <r_i_docking_score>
-3.94973

> <r_i_glide_ecoul>
-10.4912

> <r_i_glide_eff_state_penalty>
0

> <r_i_glide_einternal>
8.39233

> <r_i_glide_emodel>
-47.3547

> <r_i_glide_energy>
-38.52

> <r_i_glide_erotb>
0.43249

> <r_i_glide_esite>
-0.109675

> <r_i_glide_evdw>
-28.0288

> <r_i_glide_gscore>
-3.94973

> <r_i_glide_hbond>
-0.138229

> <r_i_glide_ligand_efficiency>
-0.116169

> <r_i_glide_ligand_efficiency_ln>
-0.872606

> <r_i_glide_ligand_efficiency_sa>
-0.376341

> <r_i_glide_lipo>
-0.424382

> <r_i_glide_metal>
0

> <r_i_glide_rewards>
-0.734807

> <s_i_glide_gridfile>
wee1_glide-grid

> <s_m_Source_File>
wee1_decoys_glide_SP.sdf

> <s_m_Source_Path>
/Users/zhangxujun/Desktop

> <s_m_entry_id>
3027

> <s_m_entry_name>
wee1_decoys_glide_SP.2752

> <s_m_subgroup_title>
wee1_decoys_glide_SP

> <s_m_subgroupid>
wee1_decoys_glide_SP


$$$$
