ZINC40149602_138
                    3D
 Schrodinger Suite 2024-2.
 54 56  0  0  1  0            999 V2000
    6.6798   54.6967   27.2778 C   0  0  0  0  0  0
    5.3769   54.4533   26.5549 C   0  0  0  0  0  0
    5.2876   54.6372   25.1761 C   0  0  0  0  0  0
    4.0925   54.3672   24.5146 C   0  0  0  0  0  0
    2.9806   53.8932   25.2174 C   0  0  0  0  0  0
    3.0690   53.6963   26.6105 C   0  0  0  0  0  0
    4.2709   53.9998   27.2685 C   0  0  0  0  0  0
    1.9487   53.1703   27.2824 N   0  0  0  0  0  0
    1.8966   52.4858   28.4495 C   0  0  0  0  0  0
    2.8607   52.2680   29.1825 O   0  0  0  0  0  0
    0.5447   51.9059   28.8945 C   0  0  0  0  0  0
   -0.5196   51.7913   27.7631 N   0  3  1  0  0  0
   -0.1358   50.6858   26.7414 C   0  0  0  0  0  0
   -1.1979   50.6642   25.6266 C   0  0  0  0  0  0
   -2.6010   50.3353   26.1742 C   0  0  0  0  0  0
   -2.9607   51.2915   27.3431 C   0  0  2  0  0  0
   -3.1635   52.2872   26.9431 H   0  0  0  0  0  0
   -1.8603   51.4066   28.4282 C   0  0  0  0  0  0
   -4.2834   50.8526   28.0023 C   0  0  0  0  0  0
   -5.2682   51.5863   27.9086 O   0  0  0  0  0  0
   -4.2568   49.6770   28.6687 N   0  0  0  0  0  0
   -5.2736   49.0653   29.4169 C   0  0  0  0  0  0
   -4.8959   47.9338   30.1453 C   0  0  0  0  0  0
   -5.8464   47.2970   30.9447 C   0  0  0  0  0  0
   -7.1499   47.7882   30.9892 C   0  0  0  0  0  0
   -7.4639   48.9108   30.2232 C   0  0  0  0  0  0
   -6.5500   49.5485   29.4471 N   0  0  0  0  0  0
   -8.4637   46.9471   32.0791 Br  0  0  0  0  0  0
    1.7078   53.5845   24.4357 C   0  0  0  0  0  0
    6.8124   53.9913   28.0992 H   0  0  0  0  0  0
    7.5097   54.5432   26.5962 H   0  0  0  0  0  0
    6.7061   55.7053   27.6815 H   0  0  0  0  0  0
    6.1415   54.9836   24.6120 H   0  0  0  0  0  0
    4.0406   54.5138   23.4452 H   0  0  0  0  0  0
    4.3743   53.8797   28.3354 H   0  0  0  0  0  0
    1.1030   53.2090   26.7399 H   0  0  0  0  0  0
    0.6760   50.8968   29.2819 H   0  0  0  0  0  0
    0.1211   52.5228   29.6891 H   0  0  0  0  0  0
    0.8409   50.9237   26.3219 H   0  0  0  0  0  0
   -0.0783   49.7351   27.2781 H   0  0  0  0  0  0
   -1.2127   51.6246   25.1092 H   0  0  0  0  0  0
   -0.9161   49.9241   24.8753 H   0  0  0  0  0  0
   -3.3102   50.4253   25.3484 H   0  0  0  0  0  0
   -2.5275   49.2984   26.5125 H   0  0  0  0  0  0
   -1.6562   50.4967   28.9529 H   0  0  0  0  0  0
   -2.0970   52.0967   29.2202 H   0  0  0  0  0  0
   -3.3710   49.1824   28.6906 H   0  0  0  0  0  0
   -3.8769   47.5695   30.1190 H   0  0  0  0  0  0
   -5.5712   46.4430   31.5436 H   0  0  0  0  0  0
   -8.4626   49.3211   30.2280 H   0  0  0  0  0  0
    0.8555   54.0963   24.8786 H   0  0  0  0  0  0
    1.7723   53.9060   23.3949 H   0  0  0  0  0  0
    1.5022   52.5140   24.4548 H   0  0  0  0  0  0
   -0.6230   52.6838   27.3017 H   0  0  0  0  0  0
  1  2  1  0  0  0
  1 30  1  0  0  0
  1 31  1  0  0  0
  1 32  1  0  0  0
  2  7  2  0  0  0
  2  3  1  0  0  0
  3  4  2  0  0  0
  3 33  1  0  0  0
  4  5  1  0  0  0
  4 34  1  0  0  0
  5  6  2  0  0  0
  5 29  1  0  0  0
  6  7  1  0  0  0
  6  8  1  0  0  0
  7 35  1  0  0  0
  8  9  1  0  0  0
  8 36  1  0  0  0
  9 10  2  0  0  0
  9 11  1  0  0  0
 11 12  1  0  0  0
 11 37  1  0  0  0
 11 38  1  0  0  0
 12 18  1  0  0  0
 12 13  1  0  0  0
 12 54  1  0  0  0
 13 14  1  0  0  0
 13 39  1  0  0  0
 13 40  1  0  0  0
 14 15  1  0  0  0
 14 41  1  0  0  0
 14 42  1  0  0  0
 15 16  1  0  0  0
 15 43  1  0  0  0
 15 44  1  0  0  0
 16 17  1  0  0  0
 16 18  1  0  0  0
 16 19  1  0  0  0
 18 45  1  0  0  0
 18 46  1  0  0  0
 19 20  2  0  0  0
 19 21  1  0  0  0
 21 22  1  0  0  0
 21 47  1  0  0  0
 22 27  2  0  0  0
 22 23  1  0  0  0
 23 24  2  0  0  0
 23 48  1  0  0  0
 24 25  1  0  0  0
 24 49  1  0  0  0
 25 26  2  0  0  0
 25 28  1  0  0  0
 26 27  1  0  0  0
 26 50  1  0  0  0
 29 51  1  0  0  0
 29 52  1  0  0  0
 29 53  1  0  0  0
M  CHG  1  12   1
M  END
> <i_i_glide_confnum>
65

> <i_i_glide_lignum>
139

> <i_i_glide_posenum>
367

> <i_i_glide_rotatable_bonds>
7

> <i_m_Source_File_Index>
4789

> <b_m_subgroup_collapsed>
0

> <r_i_docking_score>
-5.04586

> <r_i_glide_ecoul>
-5.20803

> <r_i_glide_eff_state_penalty>
0

> <r_i_glide_einternal>
8.55998

> <r_i_glide_emodel>
-50.6036

> <r_i_glide_energy>
-39.9153

> <r_i_glide_erotb>
0.703232

> <r_i_glide_esite>
-0.190017

> <r_i_glide_evdw>
-34.7072

> <r_i_glide_gscore>
-5.04586

> <r_i_glide_hbond>
-0.15505

> <r_i_glide_ligand_efficiency>
-0.180209

> <r_i_glide_ligand_efficiency_ln>
-1.16473

> <r_i_glide_ligand_efficiency_sa>
-0.547222

> <r_i_glide_lipo>
-2.22004

> <r_i_glide_metal>
0

> <r_i_glide_rewards>
-0.667419

> <s_i_glide_gridfile>
wee1_glide-grid

> <s_m_Source_File>
wee1_decoys_glide_SP.sdf

> <s_m_Source_Path>
/Users/zhangxujun/Desktop

> <s_m_entry_id>
5064

> <s_m_entry_name>
wee1_decoys_glide_SP.4789

> <s_m_subgroup_title>
wee1_decoys_glide_SP

> <s_m_subgroupid>
wee1_decoys_glide_SP


$$$$
