ZINC03273524_5029
                    3D
 Schrodinger Suite 2024-2.
 63 66  0  0  1  0            999 V2000
   -2.3751   51.1616   24.5671 C   0  0  0  0  0  0
   -1.0171   51.8052   24.7783 C   0  0  0  0  0  0
   -0.2877   51.5111   25.9277 C   0  0  0  0  0  0
    0.9576   52.0966   26.1252 C   0  0  0  0  0  0
    1.5038   52.9949   25.1949 C   0  0  0  0  0  0
    0.7545   53.2672   24.0379 C   0  0  0  0  0  0
   -0.4911   52.6788   23.8296 C   0  0  0  0  0  0
    2.8659   53.6073   25.3936 C   0  0  0  0  0  0
    3.4797   53.9010   26.6367 C   0  0  0  0  0  0
    4.7668   54.3588   26.6688 N   0  0  0  0  0  0
    5.4602   54.5238   25.5302 N   0  0  0  0  0  0
    4.8478   54.2332   24.3558 C   0  0  0  0  0  0
    3.5663   53.8091   24.2405 N   0  0  0  0  0  0
    5.8273   54.3943   22.8881 S   0  0  0  0  0  0
    4.8501   53.8612   21.4282 C   0  0  2  0  0  0
    3.8262   54.1835   21.6245 H   0  0  0  0  0  0
    4.8534   52.3347   21.2255 C   0  0  0  0  0  0
    5.2895   54.5953   20.1435 C   0  0  0  0  0  0
    6.4723   54.8973   19.9781 O   0  0  0  0  0  0
    4.3051   54.8965   19.2680 N   0  0  0  0  0  0
    4.3344   55.8165   18.2028 C   0  0  0  0  0  0
    5.2643   56.8652   18.1119 C   0  0  0  0  0  0
    5.1011   57.8633   17.1578 C   0  0  0  0  0  0
    4.0229   57.8146   16.2754 C   0  0  0  0  0  0
    3.1230   56.7399   16.3256 C   0  0  0  0  0  0
    3.2821   55.7461   17.2868 C   0  0  0  0  0  0
    3.8571   58.9220   15.4325 N   0  0  0  0  0  0
    3.2335   58.9813   14.2414 C   0  0  0  0  0  0
    2.7465   58.0215   13.6446 O   0  0  0  0  0  0
    3.1695   60.3661   13.6110 C   0  0  0  0  0  0
    2.8467   53.7297   27.9769 C   0  0  0  0  0  0
    3.4631   52.9361   28.9520 C   0  0  0  0  0  0
    2.8187   52.6707   30.1589 C   0  0  0  0  0  0
    1.5506   53.1997   30.4030 C   0  0  0  0  0  0
    0.9536   54.0386   29.4629 C   0  0  0  0  0  0
    1.6018   54.3050   28.2612 C   0  0  0  0  0  0
    0.8144   52.8730   31.6889 C   0  0  0  0  0  0
   -2.2735   50.0762   24.5272 H   0  0  0  0  0  0
   -3.0330   51.3955   25.4048 H   0  0  0  0  0  0
   -2.8584   51.5001   23.6501 H   0  0  0  0  0  0
   -0.6752   50.8141   26.6588 H   0  0  0  0  0  0
    1.5073   51.8004   27.0044 H   0  0  0  0  0  0
    1.1366   53.9427   23.2878 H   0  0  0  0  0  0
   -1.0444   52.8968   22.9293 H   0  0  0  0  0  0
    4.2816   52.0355   20.3464 H   0  0  0  0  0  0
    5.8667   51.9524   21.1033 H   0  0  0  0  0  0
    4.4109   51.8275   22.0807 H   0  0  0  0  0  0
    3.3999   54.4739   19.4290 H   0  0  0  0  0  0
    6.0760   56.9688   18.8156 H   0  0  0  0  0  0
    5.7912   58.6956   17.1374 H   0  0  0  0  0  0
    2.2701   56.6936   15.6671 H   0  0  0  0  0  0
    2.5495   54.9543   17.3521 H   0  0  0  0  0  0
    4.2448   59.7969   15.7780 H   0  0  0  0  0  0
    4.1262   60.6096   13.1449 H   0  0  0  0  0  0
    2.9492   61.1254   14.3651 H   0  0  0  0  0  0
    2.3937   60.4041   12.8436 H   0  0  0  0  0  0
    4.4277   52.4880   28.7556 H   0  0  0  0  0  0
    3.3009   52.0431   30.8940 H   0  0  0  0  0  0
   -0.0208   54.4617   29.6511 H   0  0  0  0  0  0
    1.1080   54.9218   27.5278 H   0  0  0  0  0  0
    1.4826   52.4866   32.4600 H   0  0  0  0  0  0
    0.3358   53.7633   32.0983 H   0  0  0  0  0  0
    0.0344   52.1353   31.4993 H   0  0  0  0  0  0
  1  2  1  0  0  0
  1 38  1  0  0  0
  1 39  1  0  0  0
  1 40  1  0  0  0
  2  7  2  0  0  0
  2  3  1  0  0  0
  3  4  2  0  0  0
  3 41  1  0  0  0
  4  5  1  0  0  0
  4 42  1  0  0  0
  5  6  2  0  0  0
  5  8  1  0  0  0
  6  7  1  0  0  0
  6 43  1  0  0  0
  7 44  1  0  0  0
  8 13  2  0  0  0
  8  9  1  0  0  0
  9 10  2  0  0  0
  9 31  1  0  0  0
 10 11  1  0  0  0
 11 12  2  0  0  0
 12 13  1  0  0  0
 12 14  1  0  0  0
 14 15  1  0  0  0
 15 16  1  0  0  0
 15 17  1  0  0  0
 15 18  1  0  0  0
 17 45  1  0  0  0
 17 46  1  0  0  0
 17 47  1  0  0  0
 18 19  2  0  0  0
 18 20  1  0  0  0
 20 21  1  0  0  0
 20 48  1  0  0  0
 21 26  2  0  0  0
 21 22  1  0  0  0
 22 23  2  0  0  0
 22 49  1  0  0  0
 23 24  1  0  0  0
 23 50  1  0  0  0
 24 25  2  0  0  0
 24 27  1  0  0  0
 25 26  1  0  0  0
 25 51  1  0  0  0
 26 52  1  0  0  0
 27 28  1  0  0  0
 27 53  1  0  0  0
 28 29  2  0  0  0
 28 30  1  0  0  0
 30 54  1  0  0  0
 30 55  1  0  0  0
 30 56  1  0  0  0
 31 36  2  0  0  0
 31 32  1  0  0  0
 32 33  2  0  0  0
 32 57  1  0  0  0
 33 34  1  0  0  0
 33 58  1  0  0  0
 34 35  2  0  0  0
 34 37  1  0  0  0
 35 36  1  0  0  0
 35 59  1  0  0  0
 36 60  1  0  0  0
 37 61  1  0  0  0
 37 62  1  0  0  0
 37 63  1  0  0  0
M  END
> <i_i_glide_confnum>
178

> <i_i_glide_lignum>
5030

> <i_i_glide_posenum>
196

> <i_i_glide_rotatable_bonds>
9

> <i_m_Source_File_Index>
1756

> <b_m_subgroup_collapsed>
0

> <r_i_docking_score>
-6.09247

> <r_i_glide_ecoul>
-5.82259

> <r_i_glide_eff_state_penalty>
0

> <r_i_glide_einternal>
8.66428

> <r_i_glide_emodel>
-69.2566

> <r_i_glide_energy>
-53.3042

> <r_i_glide_erotb>
0.659091

> <r_i_glide_esite>
-0.106661

> <r_i_glide_evdw>
-47.4816

> <r_i_glide_gscore>
-6.09247

> <r_i_glide_hbond>
-0.26674

> <r_i_glide_ligand_efficiency>
-0.169235

> <r_i_glide_ligand_efficiency_ln>
-1.32921

> <r_i_glide_ligand_efficiency_sa>
-0.558802

> <r_i_glide_lipo>
-2.74048

> <r_i_glide_metal>
0

> <r_i_glide_rewards>
-0.390209

> <s_i_glide_gridfile>
wee1_glide-grid

> <s_m_Source_File>
wee1_decoys_glide_SP.sdf

> <s_m_Source_Path>
/Users/zhangxujun/Desktop

> <s_m_entry_id>
2031

> <s_m_entry_name>
wee1_decoys_glide_SP.1756

> <s_m_subgroup_title>
wee1_decoys_glide_SP

> <s_m_subgroupid>
wee1_decoys_glide_SP


$$$$
