ZINC19664914_1525
                    3D
 Schrodinger Suite 2024-2.
 50 53  0  0  1  0            999 V2000
   -0.1645   50.9301   27.4738 C   0  0  0  0  0  0
    0.4774   52.1460   28.1183 C   0  0  0  0  0  0
   -0.1268   52.7835   29.1990 C   0  0  0  0  0  0
    0.4317   53.9410   29.7364 C   0  0  0  0  0  0
    1.6330   54.4660   29.2294 C   0  0  0  0  0  0
    2.2925   53.7642   28.1947 C   0  0  0  0  0  0
    1.6883   52.6312   27.6336 C   0  0  0  0  0  0
    3.5574   54.1413   27.6863 N   0  0  0  0  0  0
    3.8795   54.1517   26.2572 C   0  0  0  0  0  0
    5.3881   53.9764   26.2022 C   0  0  2  0  0  0
    5.6261   52.9115   26.1149 H   0  0  0  0  0  0
    5.8533   54.5400   27.5360 C   0  0  0  0  0  0
    4.6446   54.4149   28.4593 C   0  0  0  0  0  0
    4.7039   54.4967   29.6816 O   0  0  0  0  0  0
    5.9441   54.6614   24.9370 C   0  0  0  0  0  0
    6.7046   55.6260   25.0321 O   0  0  0  0  0  0
    5.5062   54.1312   23.7751 N   0  0  0  0  0  0
    5.8163   54.4860   22.4534 C   0  0  0  0  0  0
    4.9481   54.0080   21.4608 C   0  0  0  0  0  0
    5.2084   54.2435   20.1081 C   0  0  0  0  0  0
    6.3615   54.9370   19.7427 C   0  0  0  0  0  0
    7.2241   55.4137   20.7295 C   0  0  0  0  0  0
    6.9510   55.2251   22.0806 C   0  0  0  0  0  0
    8.3612   56.0966   20.3618 O   0  0  0  0  0  0
    8.9631   55.6611   19.1189 C   0  0  0  0  0  0
    7.9397   55.4689   17.9596 C   0  0  0  0  0  0
    8.2013   55.6104   16.7682 O   0  0  0  0  0  0
    6.7140   55.1361   18.4103 N   0  0  0  0  0  0
    2.1885   55.6497   29.6838 O   0  0  0  0  0  0
    1.4741   56.4734   30.5978 C   0  0  0  0  0  0
    0.5725   50.1493   27.2798 H   0  0  0  0  0  0
   -0.9373   50.4971   28.1080 H   0  0  0  0  0  0
   -0.6115   51.2017   26.5177 H   0  0  0  0  0  0
   -1.0505   52.3981   29.6070 H   0  0  0  0  0  0
   -0.0950   54.4217   30.5453 H   0  0  0  0  0  0
    2.1688   52.0988   26.8290 H   0  0  0  0  0  0
    3.5730   55.1432   25.9158 H   0  0  0  0  0  0
    3.3526   53.3985   25.6740 H   0  0  0  0  0  0
    6.6214   53.9001   27.9732 H   0  0  0  0  0  0
    6.2391   55.5599   27.5151 H   0  0  0  0  0  0
    4.8138   53.4042   23.8579 H   0  0  0  0  0  0
    4.0664   53.4410   21.7246 H   0  0  0  0  0  0
    4.5341   53.8580   19.3559 H   0  0  0  0  0  0
    7.6472   55.6093   22.8084 H   0  0  0  0  0  0
    9.4176   54.6822   19.2773 H   0  0  0  0  0  0
    9.7439   56.3522   18.8009 H   0  0  0  0  0  0
    6.0442   54.9434   17.6808 H   0  0  0  0  0  0
    2.1154   57.2971   30.9041 H   0  0  0  0  0  0
    0.5915   56.8953   30.1235 H   0  0  0  0  0  0
    1.1706   55.9500   31.5041 H   0  0  0  0  0  0
  1  2  1  0  0  0
  1 31  1  0  0  0
  1 32  1  0  0  0
  1 33  1  0  0  0
  2  7  2  0  0  0
  2  3  1  0  0  0
  3  4  2  0  0  0
  3 34  1  0  0  0
  4  5  1  0  0  0
  4 35  1  0  0  0
  5  6  2  0  0  0
  5 29  1  0  0  0
  6  7  1  0  0  0
  6  8  1  0  0  0
  7 36  1  0  0  0
  8 13  1  0  0  0
  8  9  1  0  0  0
  9 10  1  0  0  0
  9 37  1  0  0  0
  9 38  1  0  0  0
 10 11  1  0  0  0
 10 12  1  0  0  0
 10 15  1  0  0  0
 12 13  1  0  0  0
 12 39  1  0  0  0
 12 40  1  0  0  0
 13 14  2  0  0  0
 15 16  2  0  0  0
 15 17  1  0  0  0
 17 18  1  0  0  0
 17 41  1  0  0  0
 18 23  2  0  0  0
 18 19  1  0  0  0
 19 20  2  0  0  0
 19 42  1  0  0  0
 20 21  1  0  0  0
 20 43  1  0  0  0
 21 28  1  0  0  0
 21 22  2  0  0  0
 22 23  1  0  0  0
 22 24  1  0  0  0
 23 44  1  0  0  0
 24 25  1  0  0  0
 25 26  1  0  0  0
 25 45  1  0  0  0
 25 46  1  0  0  0
 26 27  2  0  0  0
 26 28  1  0  0  0
 28 47  1  0  0  0
 29 30  1  0  0  0
 30 48  1  0  0  0
 30 49  1  0  0  0
 30 50  1  0  0  0
M  END
> <i_i_glide_confnum>
17

> <i_i_glide_lignum>
1526

> <i_i_glide_posenum>
26

> <i_i_glide_rotatable_bonds>
5

> <i_m_Source_File_Index>
4833

> <b_m_subgroup_collapsed>
0

> <r_i_docking_score>
-8.04895

> <r_i_glide_ecoul>
-7.42653

> <r_i_glide_eff_state_penalty>
0

> <r_i_glide_einternal>
11.8363

> <r_i_glide_emodel>
-75.0047

> <r_i_glide_energy>
-56.2572

> <r_i_glide_erotb>
0.500284

> <r_i_glide_esite>
0

> <r_i_glide_evdw>
-48.8307

> <r_i_glide_gscore>
-8.04895

> <r_i_glide_hbond>
-0.186099

> <r_i_glide_ligand_efficiency>
-0.27755

> <r_i_glide_ligand_efficiency_ln>
-1.84301

> <r_i_glide_ligand_efficiency_sa>
-0.852721

> <r_i_glide_lipo>
-2.85727

> <r_i_glide_metal>
0

> <r_i_glide_rewards>
-1.95035

> <s_i_glide_gridfile>
wee1_glide-grid

> <s_m_Source_File>
wee1_decoys_glide_SP.sdf

> <s_m_Source_Path>
/Users/zhangxujun/Desktop

> <s_m_entry_id>
5108

> <s_m_entry_name>
wee1_decoys_glide_SP.4833

> <s_m_subgroup_title>
wee1_decoys_glide_SP

> <s_m_subgroupid>
wee1_decoys_glide_SP


$$$$
