ZINC10246864_3366
                    3D
 Schrodinger Suite 2024-2.
 60 65  0  0  1  0            999 V2000
   -0.8338   48.4829   25.5843 C   0  0  0  0  0  0
   -0.9339   48.3649   24.0761 C   0  0  0  0  0  0
   -1.9193   47.5606   23.4984 C   0  0  0  0  0  0
   -1.9908   47.4292   22.1133 C   0  0  0  0  0  0
   -1.0692   48.0879   21.2984 C   0  0  0  0  0  0
   -0.0649   48.8983   21.8599 C   0  0  0  0  0  0
   -0.0187   49.0348   23.2576 C   0  0  0  0  0  0
    0.8943   49.5769   21.0598 N   0  0  0  0  0  0
    1.5725   50.8026   21.5005 C   0  0  0  0  0  0
    2.2929   51.3423   20.2746 C   0  0  2  0  0  0
    1.6763   52.0870   19.7667 H   0  0  0  0  0  0
    2.4931   50.0957   19.4294 C   0  0  0  0  0  0
    1.4392   49.0924   19.9048 C   0  0  0  0  0  0
    1.1719   48.0454   19.3155 O   0  0  0  0  0  0
    3.5993   52.0174   20.7357 C   0  0  0  0  0  0
    4.5104   51.3302   21.2066 O   0  0  0  0  0  0
    3.6543   53.3625   20.6338 N   0  0  0  0  0  0
    4.7425   54.0761   21.1005 C   0  0  0  0  0  0
    5.7846   54.6045   20.2744 C   0  0  0  0  0  0
    6.0736   54.6514   18.9000 C   0  0  0  0  0  0
    7.2834   55.2235   18.4897 C   0  0  0  0  0  0
    8.1966   55.7381   19.4144 C   0  0  0  0  0  0
    7.9297   55.7170   20.7845 C   0  0  0  0  0  0
    6.7142   55.1568   21.1832 C   0  0  0  0  0  0
    6.3042   55.0036   22.4741 O   0  0  0  0  0  0
    5.0961   54.3584   22.4265 C   0  0  0  0  0  0
    4.3947   54.0968   23.6633 C   0  0  0  0  0  0
    3.2482   53.6465   23.6529 O   0  0  0  0  0  0
    5.1084   54.3960   24.7713 N   0  0  0  0  0  0
    4.7287   54.2895   26.1207 C   0  0  0  0  0  0
    5.7590   54.3941   27.0755 C   0  0  0  0  0  0
    5.4856   54.3285   28.4482 C   0  0  0  0  0  0
    4.1593   54.1547   28.8309 C   0  0  0  0  0  0
    3.1539   54.0602   27.9152 C   0  0  0  0  0  0
    3.3950   54.1203   26.5500 C   0  0  0  0  0  0
    1.9606   53.9442   28.5531 O   0  0  0  0  0  0
    2.2615   53.8108   29.9127 C   0  0  0  0  0  0
    3.6270   54.0968   30.0817 O   0  0  0  0  0  0
   -1.2960   47.6291   26.0823 H   0  0  0  0  0  0
    0.2102   48.4982   25.9044 H   0  0  0  0  0  0
   -1.3136   49.3952   25.9428 H   0  0  0  0  0  0
   -2.6325   47.0425   24.1243 H   0  0  0  0  0  0
   -2.7567   46.8121   21.6665 H   0  0  0  0  0  0
   -1.1544   47.9756   20.2287 H   0  0  0  0  0  0
    0.7465   49.6349   23.7288 H   0  0  0  0  0  0
    2.2646   50.4715   22.2800 H   0  0  0  0  0  0
    0.8787   51.5205   21.9391 H   0  0  0  0  0  0
    2.2562   50.3037   18.3848 H   0  0  0  0  0  0
    3.5036   49.6808   19.4462 H   0  0  0  0  0  0
    2.9574   53.8536   20.0854 H   0  0  0  0  0  0
    5.3900   54.2318   18.1772 H   0  0  0  0  0  0
    7.5268   55.2520   17.4371 H   0  0  0  0  0  0
    9.1319   56.1512   19.0614 H   0  0  0  0  0  0
    8.6408   56.0943   21.5048 H   0  0  0  0  0  0
    6.0536   54.7084   24.6079 H   0  0  0  0  0  0
    6.7819   54.5293   26.7599 H   0  0  0  0  0  0
    6.2805   54.4315   29.1728 H   0  0  0  0  0  0
    2.5618   54.0677   25.8677 H   0  0  0  0  0  0
    1.6421   54.5046   30.4836 H   0  0  0  0  0  0
    2.0668   52.7791   30.2127 H   0  0  0  0  0  0
  1  2  1  0  0  0
  1 39  1  0  0  0
  1 40  1  0  0  0
  1 41  1  0  0  0
  2  7  2  0  0  0
  2  3  1  0  0  0
  3  4  2  0  0  0
  3 42  1  0  0  0
  4  5  1  0  0  0
  4 43  1  0  0  0
  5  6  2  0  0  0
  5 44  1  0  0  0
  6  7  1  0  0  0
  6  8  1  0  0  0
  7 45  1  0  0  0
  8 13  1  0  0  0
  8  9  1  0  0  0
  9 10  1  0  0  0
  9 46  1  0  0  0
  9 47  1  0  0  0
 10 11  1  0  0  0
 10 12  1  0  0  0
 10 15  1  0  0  0
 12 13  1  0  0  0
 12 48  1  0  0  0
 12 49  1  0  0  0
 13 14  2  0  0  0
 15 16  2  0  0  0
 15 17  1  0  0  0
 17 18  1  0  0  0
 17 50  1  0  0  0
 18 26  2  0  0  0
 18 19  1  0  0  0
 19 24  2  0  0  0
 19 20  1  0  0  0
 20 21  2  0  0  0
 20 51  1  0  0  0
 21 22  1  0  0  0
 21 52  1  0  0  0
 22 23  2  0  0  0
 22 53  1  0  0  0
 23 24  1  0  0  0
 23 54  1  0  0  0
 24 25  1  0  0  0
 25 26  1  0  0  0
 26 27  1  0  0  0
 27 28  2  0  0  0
 27 29  1  0  0  0
 29 30  1  0  0  0
 29 55  1  0  0  0
 30 35  2  0  0  0
 30 31  1  0  0  0
 31 32  2  0  0  0
 31 56  1  0  0  0
 32 33  1  0  0  0
 32 57  1  0  0  0
 33 38  1  0  0  0
 33 34  2  0  0  0
 34 35  1  0  0  0
 34 36  1  0  0  0
 35 58  1  0  0  0
 36 37  1  0  0  0
 37 38  1  0  0  0
 37 59  1  0  0  0
 37 60  1  0  0  0
M  END
> <i_i_glide_confnum>
49

> <i_i_glide_lignum>
3367

> <i_i_glide_posenum>
345

> <i_i_glide_rotatable_bonds>
7

> <i_m_Source_File_Index>
1360

> <b_m_subgroup_collapsed>
0

> <r_i_docking_score>
-6.51335

> <r_i_glide_ecoul>
-7.19824

> <r_i_glide_eff_state_penalty>
0

> <r_i_glide_einternal>
2.80412

> <r_i_glide_emodel>
-78.3678

> <r_i_glide_energy>
-56.4933

> <r_i_glide_erotb>
0.576946

> <r_i_glide_esite>
-0.0669067

> <r_i_glide_evdw>
-49.2951

> <r_i_glide_gscore>
-6.51335

> <r_i_glide_hbond>
-0.552785

> <r_i_glide_ligand_efficiency>
-0.176037

> <r_i_glide_ligand_efficiency_ln>
-1.41259

> <r_i_glide_ligand_efficiency_sa>
-0.586593

> <r_i_glide_lipo>
-2.53573

> <r_i_glide_metal>
0

> <r_i_glide_rewards>
-0.390384

> <s_i_glide_gridfile>
wee1_glide-grid

> <s_m_Source_File>
wee1_decoys_glide_SP.sdf

> <s_m_Source_Path>
/Users/zhangxujun/Desktop

> <s_m_entry_id>
1635

> <s_m_entry_name>
wee1_decoys_glide_SP.1360

> <s_m_subgroup_title>
wee1_decoys_glide_SP

> <s_m_subgroupid>
wee1_decoys_glide_SP


$$$$
