ZINC06812811_1713
                    3D
 Schrodinger Suite 2024-2.
 35 37  0  0  1  0            999 V2000
    1.4237   55.9598   30.3248 C   0  0  0  0  0  0
    0.9009   54.5431   30.2357 C   0  0  0  0  0  0
    0.9468   53.6639   29.1372 C   0  0  0  0  0  0
    0.2483   52.5608   29.5801 C   0  0  0  0  0  0
   -0.0954   52.7769   30.8816 N   0  0  0  0  0  0
   -0.6232   52.1466   31.4837 H   0  0  0  0  0  0
    0.3044   53.9926   31.2815 N   0  0  0  0  0  0
   -0.1228   51.4538   28.8609 O   0  0  0  0  0  0
    0.1689   51.5516   27.5281 C   0  0  0  0  0  0
    0.8941   52.5328   26.9293 C   0  0  0  0  0  0
    1.5155   53.7107   27.7146 C   0  0  2  0  0  0
    1.1545   54.6425   27.2814 H   0  0  0  0  0  0
    3.0460   53.8350   27.5714 C   0  0  0  0  0  0
    3.5629   54.2835   26.3459 C   0  0  0  0  0  0
    4.9327   54.4493   26.1342 C   0  0  0  0  0  0
    5.8143   54.1538   27.1822 C   0  0  0  0  0  0
    5.3229   53.6952   28.4017 C   0  0  0  0  0  0
    3.9528   53.5309   28.6035 C   0  0  0  0  0  0
    3.5363   53.0675   29.8052 F   0  0  0  0  0  0
    5.3199   54.8973   24.8874 O   0  0  0  0  0  0
    6.7009   55.1172   24.6231 C   0  0  0  0  0  0
    1.0557   52.5129   25.5106 C   0  0  0  0  0  0
    1.1640   52.5180   24.3591 N   0  0  0  0  0  0
   -0.4285   50.4966   26.8926 N   0  0  0  0  0  0
    0.7651   56.6551   29.8058 H   0  0  0  0  0  0
    2.4071   56.0548   29.8654 H   0  0  0  0  0  0
    1.5056   56.3205   31.3506 H   0  0  0  0  0  0
    2.8929   54.5100   25.5298 H   0  0  0  0  0  0
    6.8812   54.2638   27.0686 H   0  0  0  0  0  0
    6.0132   53.4627   29.1957 H   0  0  0  0  0  0
    6.8235   55.4570   23.5943 H   0  0  0  0  0  0
    7.1063   55.8919   25.2753 H   0  0  0  0  0  0
    7.2848   54.2025   24.7385 H   0  0  0  0  0  0
   -0.2871   50.3237   25.9090 H   0  0  0  0  0  0
   -0.8802   49.7620   27.4372 H   0  0  0  0  0  0
  1  2  1  0  0  0
  1 25  1  0  0  0
  1 26  1  0  0  0
  1 27  1  0  0  0
  2  7  2  0  0  0
  2  3  1  0  0  0
  3 11  1  0  0  0
  3  4  2  0  0  0
  4  5  1  0  0  0
  4  8  1  0  0  0
  5  6  1  0  0  0
  5  7  1  0  0  0
  8  9  1  0  0  0
  9 10  2  0  0  0
  9 24  1  0  0  0
 10 11  1  0  0  0
 10 22  1  0  0  0
 11 12  1  0  0  0
 11 13  1  0  0  0
 13 18  2  0  0  0
 13 14  1  0  0  0
 14 15  2  0  0  0
 14 28  1  0  0  0
 15 16  1  0  0  0
 15 20  1  0  0  0
 16 17  2  0  0  0
 16 29  1  0  0  0
 17 18  1  0  0  0
 17 30  1  0  0  0
 18 19  1  0  0  0
 20 21  1  0  0  0
 21 31  1  0  0  0
 21 32  1  0  0  0
 21 33  1  0  0  0
 22 23  3  0  0  0
 24 34  1  0  0  0
 24 35  1  0  0  0
M  END
> <i_i_glide_confnum>
1

> <i_i_glide_lignum>
1714

> <i_i_glide_posenum>
335

> <i_i_glide_rotatable_bonds>
3

> <i_m_Source_File_Index>
3040

> <b_m_subgroup_collapsed>
0

> <r_i_docking_score>
-7.84124

> <r_i_glide_ecoul>
-6.23326

> <r_i_glide_eff_state_penalty>
0

> <r_i_glide_einternal>
3.38276

> <r_i_glide_emodel>
-61.5611

> <r_i_glide_energy>
-44.0485

> <r_i_glide_erotb>
0.203824

> <r_i_glide_esite>
-0.188492

> <r_i_glide_evdw>
-37.8153

> <r_i_glide_gscore>
-7.84124

> <r_i_glide_hbond>
-0.304

> <r_i_glide_ligand_efficiency>
-0.35642

> <r_i_glide_ligand_efficiency_ln>
-1.91669

> <r_i_glide_ligand_efficiency_sa>
-0.998703

> <r_i_glide_lipo>
-2.94926

> <r_i_glide_metal>
0

> <r_i_glide_rewards>
-1.77757

> <s_i_glide_gridfile>
wee1_glide-grid

> <s_m_Source_File>
wee1_decoys_glide_SP.sdf

> <s_m_Source_Path>
/Users/zhangxujun/Desktop

> <s_m_entry_id>
3315

> <s_m_entry_name>
wee1_decoys_glide_SP.3040

> <s_m_subgroup_title>
wee1_decoys_glide_SP

> <s_m_subgroupid>
wee1_decoys_glide_SP


$$$$
