ZINC10042106_414
                    3D
 Schrodinger Suite 2024-2.
 53 54  0  0  1  0            999 V2000
   -0.4316   52.7505   28.0670 C   0  0  0  0  0  0
   -0.5922   51.6710   27.0151 C   0  0  0  0  0  0
   -1.7385   51.6288   26.2224 C   0  0  0  0  0  0
   -1.8566   50.6647   25.2237 C   0  0  0  0  0  0
   -0.8147   49.7554   24.9921 C   0  0  0  0  0  0
    0.3044   49.7707   25.8284 C   0  0  0  0  0  0
    0.4205   50.7330   26.8277 C   0  0  0  0  0  0
   -0.8740   48.7533   23.8647 C   0  0  0  0  0  0
   -0.6521   47.5648   24.0820 O   0  0  0  0  0  0
   -1.1466   49.1648   22.6094 N   0  0  0  0  0  0
   -1.2748   50.5282   22.0638 C   0  0  2  0  0  0
   -2.1223   50.9852   22.5741 H   0  0  0  0  0  0
   -1.6568   50.5304   20.5448 C   0  0  0  0  0  0
   -0.6621   49.8226   19.5955 C   0  0  0  0  0  0
   -3.0698   49.9517   20.3272 C   0  0  0  0  0  0
   -0.0509   51.4502   22.3204 C   0  0  0  0  0  0
   -0.2584   52.4967   22.9326 O   0  0  0  0  0  0
    1.1562   51.0422   21.8459 N   0  0  0  0  0  0
    2.3339   51.7511   21.7223 N   0  0  0  0  0  0
    2.7145   52.5857   22.6176 C   0  0  0  0  0  0
    3.9254   53.4081   22.4705 C   0  0  0  0  0  0
    4.6570   53.7935   23.6026 C   0  0  0  0  0  0
    5.8720   54.4970   23.4935 C   0  0  0  0  0  0
    6.3130   54.8834   22.2194 C   0  0  0  0  0  0
    5.5683   54.5434   21.0842 C   0  0  0  0  0  0
    4.3962   53.8009   21.2118 C   0  0  0  0  0  0
    6.1504   55.0524   19.3413 Br  0  0  0  0  0  0
    7.5045   55.5569   22.0821 O   0  0  0  0  0  0
    6.6682   54.8409   24.5755 O   0  0  0  0  0  0
    6.2879   54.4266   25.8846 C   0  0  0  0  0  0
   -0.8830   53.6800   27.7207 H   0  0  0  0  0  0
   -0.8998   52.4504   29.0040 H   0  0  0  0  0  0
    0.6206   52.9662   28.2537 H   0  0  0  0  0  0
   -2.5347   52.3417   26.3760 H   0  0  0  0  0  0
   -2.7591   50.6397   24.6331 H   0  0  0  0  0  0
    1.1008   49.0496   25.6951 H   0  0  0  0  0  0
    1.3008   50.7486   27.4531 H   0  0  0  0  0  0
   -1.1922   48.4336   21.9175 H   0  0  0  0  0  0
   -1.7178   51.5692   20.2122 H   0  0  0  0  0  0
   -0.4371   48.8084   19.9244 H   0  0  0  0  0  0
   -1.0706   49.7517   18.5873 H   0  0  0  0  0  0
    0.2778   50.3645   19.4997 H   0  0  0  0  0  0
   -3.1232   48.9018   20.6182 H   0  0  0  0  0  0
   -3.8131   50.4963   20.9111 H   0  0  0  0  0  0
   -3.3705   50.0193   19.2804 H   0  0  0  0  0  0
    1.1278   50.2380   21.2373 H   0  0  0  0  0  0
    2.1872   52.7134   23.5598 H   0  0  0  0  0  0
    4.2955   53.4933   24.5754 H   0  0  0  0  0  0
    3.8497   53.5315   20.3176 H   0  0  0  0  0  0
    8.0773   55.4544   22.8547 H   0  0  0  0  0  0
    7.0390   54.7586   26.6013 H   0  0  0  0  0  0
    5.3344   54.8659   26.1813 H   0  0  0  0  0  0
    6.2209   53.3403   25.9610 H   0  0  0  0  0  0
  1  2  1  0  0  0
  1 31  1  0  0  0
  1 32  1  0  0  0
  1 33  1  0  0  0
  2  7  2  0  0  0
  2  3  1  0  0  0
  3  4  2  0  0  0
  3 34  1  0  0  0
  4  5  1  0  0  0
  4 35  1  0  0  0
  5  6  2  0  0  0
  5  8  1  0  0  0
  6  7  1  0  0  0
  6 36  1  0  0  0
  7 37  1  0  0  0
  8  9  2  0  0  0
  8 10  1  0  0  0
 10 11  1  0  0  0
 10 38  1  0  0  0
 11 12  1  0  0  0
 11 13  1  0  0  0
 11 16  1  0  0  0
 13 14  1  0  0  0
 13 15  1  0  0  0
 13 39  1  0  0  0
 14 40  1  0  0  0
 14 41  1  0  0  0
 14 42  1  0  0  0
 15 43  1  0  0  0
 15 44  1  0  0  0
 15 45  1  0  0  0
 16 17  2  0  0  0
 16 18  1  0  0  0
 18 19  1  0  0  0
 18 46  1  0  0  0
 19 20  2  0  0  0
 20 21  1  0  0  0
 20 47  1  0  0  0
 21 26  2  0  0  0
 21 22  1  0  0  0
 22 23  2  0  0  0
 22 48  1  0  0  0
 23 24  1  0  0  0
 23 29  1  0  0  0
 24 25  2  0  0  0
 24 28  1  0  0  0
 25 26  1  0  0  0
 25 27  1  0  0  0
 26 49  1  0  0  0
 28 50  1  0  0  0
 29 30  1  0  0  0
 30 51  1  0  0  0
 30 52  1  0  0  0
 30 53  1  0  0  0
M  END
> <i_i_glide_confnum>
58

> <i_i_glide_lignum>
415

> <i_i_glide_posenum>
356

> <i_i_glide_rotatable_bonds>
10

> <i_m_Source_File_Index>
4886

> <b_m_subgroup_collapsed>
0

> <r_i_docking_score>
-2.18214

> <r_i_glide_ecoul>
-3.78081

> <r_i_glide_eff_state_penalty>
0

> <r_i_glide_einternal>
19.9493

> <r_i_glide_emodel>
-29.8204

> <r_i_glide_energy>
-37.4074

> <r_i_glide_erotb>
0.659643

> <r_i_glide_esite>
-0.0159359

> <r_i_glide_evdw>
-33.6266

> <r_i_glide_gscore>
-2.18214

> <r_i_glide_hbond>
0

> <r_i_glide_ligand_efficiency>
-0.0752462

> <r_i_glide_ligand_efficiency_ln>
-0.499655

> <r_i_glide_ligand_efficiency_sa>
-0.23118

> <r_i_glide_lipo>
-1.65719

> <r_i_glide_metal>
0

> <r_i_glide_rewards>
1.0798

> <s_i_glide_gridfile>
wee1_glide-grid

> <s_m_Source_File>
wee1_decoys_glide_SP.sdf

> <s_m_Source_Path>
/Users/zhangxujun/Desktop

> <s_m_entry_id>
5161

> <s_m_entry_name>
wee1_decoys_glide_SP.4886

> <s_m_subgroup_title>
wee1_decoys_glide_SP

> <s_m_subgroupid>
wee1_decoys_glide_SP


$$$$
