ZINC09598432_563
                    3D
 Schrodinger Suite 2024-2.
 75 78  0  0  1  0            999 V2000
    2.6505   52.4436   21.0787 C   0  0  0  0  0  0
    3.7727   53.2964   20.5011 C   0  0  0  0  0  0
    3.8483   53.5122   19.1206 C   0  0  0  0  0  0
    4.8516   54.3153   18.5685 C   0  0  0  0  0  0
    5.7655   54.6934   20.7627 C   0  0  0  0  0  0
    4.7294   53.9148   21.3633 C   0  0  0  0  0  0
    4.7304   53.8043   22.7870 C   0  0  0  0  0  0
    5.7224   54.4212   23.5562 C   0  0  0  0  0  0
    6.7081   55.1843   22.9182 C   0  0  0  0  0  0
    6.7513   55.3237   21.5379 C   0  0  0  0  0  0
    5.7224   54.1815   24.9466 N   0  0  0  0  0  0
    6.2733   54.9561   25.9089 C   0  0  0  0  0  0
    6.7043   56.0827   25.6831 O   0  0  0  0  0  0
    6.4104   54.4242   27.3520 C   0  0  0  0  0  0
    5.6708   53.1059   27.7088 C   0  0  0  0  0  0
    4.3317   53.3154   28.4176 C   0  0  0  0  0  0
    4.3043   53.4361   29.6417 O   0  0  0  0  0  0
    3.2330   53.3329   27.6434 N   0  0  0  0  0  0
    1.8525   53.5671   28.0791 C   0  0  0  0  0  0
    1.3111   52.4780   29.0482 C   0  0  0  0  0  0
    0.1519   52.8718   29.9800 C   0  0  0  0  0  0
    0.5934   53.7288   31.1773 C   0  0  0  0  0  0
    0.8380   55.2198   30.8813 C   0  0  0  0  0  0
    1.8800   55.5846   29.8099 C   0  0  0  0  0  0
    1.5759   55.0641   28.3932 C   0  0  0  0  0  0
    4.9079   54.6475   17.1695 N   0  0  0  0  0  0
    5.9924   55.4804   16.5800 C   0  0  0  0  0  0
    5.6175   56.9911   16.5177 C   0  0  1  0  0  0
    6.3452   57.4535   15.8475 H   0  0  0  0  0  0
    4.2163   57.1962   15.8982 C   0  0  0  0  0  0
    3.1576   56.2227   16.4611 C   0  0  2  0  0  0
    3.0292   56.4470   17.5216 H   0  0  0  0  0  0
    3.6719   54.7656   16.3585 C   0  0  0  0  0  0
    1.7917   56.3968   15.7771 C   0  0  0  0  0  0
    5.7535   57.6872   17.8844 C   0  0  0  0  0  0
    2.0323   52.0052   20.2953 H   0  0  0  0  0  0
    3.0526   51.6247   21.6768 H   0  0  0  0  0  0
    2.0034   53.0516   21.7111 H   0  0  0  0  0  0
    3.1128   53.0461   18.4852 H   0  0  0  0  0  0
    3.9439   53.2496   23.2719 H   0  0  0  0  0  0
    7.4933   55.6647   23.4824 H   0  0  0  0  0  0
    7.5384   55.8965   21.0678 H   0  0  0  0  0  0
    5.2844   53.3219   25.2399 H   0  0  0  0  0  0
    6.1313   55.2303   28.0341 H   0  0  0  0  0  0
    7.4795   54.2697   27.5030 H   0  0  0  0  0  0
    6.2856   52.5038   28.3788 H   0  0  0  0  0  0
    5.5037   52.4964   26.8310 H   0  0  0  0  0  0
    3.3559   53.1608   26.6585 H   0  0  0  0  0  0
    1.2974   53.4123   27.1507 H   0  0  0  0  0  0
    2.1153   52.0537   29.6492 H   0  0  0  0  0  0
    0.9855   51.6298   28.4447 H   0  0  0  0  0  0
   -0.2955   51.9565   30.3740 H   0  0  0  0  0  0
   -0.6431   53.3660   29.4206 H   0  0  0  0  0  0
    1.4817   53.2852   31.6252 H   0  0  0  0  0  0
   -0.1747   53.6618   31.9523 H   0  0  0  0  0  0
    1.1043   55.7143   31.8119 H   0  0  0  0  0  0
   -0.0955   55.6782   30.5936 H   0  0  0  0  0  0
    2.8735   55.2918   30.1286 H   0  0  0  0  0  0
    1.9197   56.6738   29.7604 H   0  0  0  0  0  0
    0.5347   55.2818   28.1617 H   0  0  0  0  0  0
    2.1470   55.6701   27.6869 H   0  0  0  0  0  0
    6.9348   55.2998   17.0952 H   0  0  0  0  0  0
    6.1381   55.1098   15.5646 H   0  0  0  0  0  0
    3.8887   58.2345   15.9811 H   0  0  0  0  0  0
    4.2924   57.0330   14.8230 H   0  0  0  0  0  0
    3.9215   54.5333   15.3247 H   0  0  0  0  0  0
    2.9250   54.0339   16.6659 H   0  0  0  0  0  0
    1.8442   56.1718   14.7102 H   0  0  0  0  0  0
    1.0404   55.7403   16.2181 H   0  0  0  0  0  0
    1.4275   57.4202   15.8817 H   0  0  0  0  0  0
    5.0277   57.3078   18.6047 H   0  0  0  0  0  0
    6.7497   57.5512   18.3071 H   0  0  0  0  0  0
    5.5902   58.7628   17.7893 H   0  0  0  0  0  0
    5.7774   54.8226   19.3972 N   0  3  0  0  0  0
    6.5012   55.3848   18.9761 H   0  0  0  0  0  0
  1  2  1  0  0  0
  1 36  1  0  0  0
  1 37  1  0  0  0
  1 38  1  0  0  0
  2  6  2  0  0  0
  2  3  1  0  0  0
  3  4  2  0  0  0
  3 39  1  0  0  0
  4 26  1  0  0  0
  4 74  1  0  0  0
  5 10  1  0  0  0
  5  6  1  0  0  0
  5 74  2  0  0  0
  6  7  1  0  0  0
  7  8  2  0  0  0
  7 40  1  0  0  0
  8  9  1  0  0  0
  8 11  1  0  0  0
  9 10  2  0  0  0
  9 41  1  0  0  0
 10 42  1  0  0  0
 11 12  1  0  0  0
 11 43  1  0  0  0
 12 13  2  0  0  0
 12 14  1  0  0  0
 14 15  1  0  0  0
 14 44  1  0  0  0
 14 45  1  0  0  0
 15 16  1  0  0  0
 15 46  1  0  0  0
 15 47  1  0  0  0
 16 17  2  0  0  0
 16 18  1  0  0  0
 18 19  1  0  0  0
 18 48  1  0  0  0
 19 25  1  0  0  0
 19 20  1  0  0  0
 19 49  1  0  0  0
 20 21  1  0  0  0
 20 50  1  0  0  0
 20 51  1  0  0  0
 21 22  1  0  0  0
 21 52  1  0  0  0
 21 53  1  0  0  0
 22 23  1  0  0  0
 22 54  1  0  0  0
 22 55  1  0  0  0
 23 24  1  0  0  0
 23 56  1  0  0  0
 23 57  1  0  0  0
 24 25  1  0  0  0
 24 58  1  0  0  0
 24 59  1  0  0  0
 25 60  1  0  0  0
 25 61  1  0  0  0
 26 33  1  0  0  0
 26 27  1  0  0  0
 27 28  1  0  0  0
 27 62  1  0  0  0
 27 63  1  0  0  0
 28 29  1  0  0  0
 28 30  1  0  0  0
 28 35  1  0  0  0
 30 31  1  0  0  0
 30 64  1  0  0  0
 30 65  1  0  0  0
 31 32  1  0  0  0
 31 33  1  0  0  0
 31 34  1  0  0  0
 33 66  1  0  0  0
 33 67  1  0  0  0
 34 68  1  0  0  0
 34 69  1  0  0  0
 34 70  1  0  0  0
 35 71  1  0  0  0
 35 72  1  0  0  0
 35 73  1  0  0  0
 74 75  1  0  0  0
M  CHG  1  74   1
M  END
> <i_i_glide_confnum>
2377

> <i_i_glide_lignum>
564

> <i_i_glide_posenum>
143

> <i_i_glide_rotatable_bonds>
8

> <i_m_Source_File_Index>
4642

> <b_m_subgroup_collapsed>
0

> <r_i_docking_score>
-6.89139

> <r_i_glide_ecoul>
-6.63744

> <r_i_glide_eff_state_penalty>
0

> <r_i_glide_einternal>
11.3384

> <r_i_glide_emodel>
-67.104

> <r_i_glide_energy>
-50.775

> <r_i_glide_erotb>
0.651112

> <r_i_glide_esite>
-0.00449288

> <r_i_glide_evdw>
-44.1375

> <r_i_glide_gscore>
-6.89139

> <r_i_glide_hbond>
-0.32

> <r_i_glide_ligand_efficiency>
-0.202688

> <r_i_glide_ligand_efficiency_ln>
-1.5225

> <r_i_glide_ligand_efficiency_sa>
-0.65663

> <r_i_glide_lipo>
-3.00101

> <r_i_glide_metal>
0

> <r_i_glide_rewards>
-1.0145

> <s_i_glide_gridfile>
wee1_glide-grid

> <s_m_Source_File>
wee1_decoys_glide_SP.sdf

> <s_m_Source_Path>
/Users/zhangxujun/Desktop

> <s_m_entry_id>
4917

> <s_m_entry_name>
wee1_decoys_glide_SP.4642

> <s_m_subgroup_title>
wee1_decoys_glide_SP

> <s_m_subgroupid>
wee1_decoys_glide_SP


$$$$
