ZINC58835069_4252
                    3D
 Schrodinger Suite 2024-2.
 64 68  0  0  1  0            999 V2000
   11.6319   61.1075   17.4753 C   0  0  0  0  0  0
   10.7140   59.8840   17.3028 C   0  0  1  0  0  0
   11.1729   59.2269   16.5609 H   0  0  0  0  0  0
   10.5451   59.1006   18.6216 C   0  0  0  0  0  0
    9.8123   57.7782   18.3480 C   0  0  0  0  0  0
    8.4977   58.0144   17.6052 C   0  0  0  0  0  0
    8.3003   59.1658   16.8111 C   0  0  0  0  0  0
    7.0935   59.2713   16.1078 C   0  0  0  0  0  0
    6.1028   58.2921   16.2285 C   0  0  0  0  0  0
    6.3544   57.2035   17.0817 C   0  0  0  0  0  0
    7.5255   57.0809   17.7558 N   0  0  0  0  0  0
    5.1799   55.8787   17.2869 S   0  0  0  0  0  0
    6.0293   54.5019   18.1165 C   0  0  0  0  0  0
    5.9147   54.5544   19.6271 C   0  0  0  0  0  0
    6.6578   55.2975   20.4123 N   0  0  0  0  0  0
    6.2932   55.0083   21.7240 N   0  0  0  0  0  0
    5.3359   54.1128   21.6686 C   0  0  0  0  0  0
    5.0293   53.8015   20.3619 N   0  0  0  0  0  0
    4.0920   52.8932   19.8952 N   0  0  0  0  0  0
    4.7044   53.4411   22.8698 C   0  0  0  0  0  0
    3.3481   54.3694   23.6436 S   0  0  0  0  0  0
    3.3458   54.0049   25.3866 C   0  0  0  0  0  0
    4.4379   54.2529   26.2396 C   0  0  0  0  0  0
    4.2822   53.9586   27.5987 C   0  0  0  0  0  0
    3.0852   53.4302   28.0946 C   0  0  0  0  0  0
    2.0563   53.1663   27.1646 C   0  0  0  0  0  0
    2.1777   53.4974   25.8519 N   0  0  0  0  0  0
    0.7443   52.5159   27.6033 C   0  0  0  0  0  0
    0.4570   52.7779   29.0900 C   0  0  0  0  0  0
    1.6645   52.3299   29.9377 C   0  0  1  0  0  0
    1.9164   51.3008   29.6733 H   0  0  0  0  0  0
    2.8794   53.2282   29.6024 C   0  0  0  0  0  0
    1.3400   52.3636   31.4437 C   0  0  0  0  0  0
    5.7005   54.8361   25.7988 C   0  0  0  0  0  0
    6.7038   55.2966   25.4531 N   0  0  0  0  0  0
    4.8638   58.4393   15.4695 C   0  0  0  0  0  0
    3.8828   58.5499   14.8646 N   0  0  0  0  0  0
    9.3211   60.3053   16.7805 C   0  0  0  0  0  0
   11.2297   61.8139   18.2010 H   0  0  0  0  0  0
   12.6243   60.8099   17.8162 H   0  0  0  0  0  0
   11.7593   61.6397   16.5318 H   0  0  0  0  0  0
   10.0416   59.7033   19.3786 H   0  0  0  0  0  0
   11.5233   58.8786   19.0509 H   0  0  0  0  0  0
    9.6454   57.2335   19.2785 H   0  0  0  0  0  0
   10.4445   57.1351   17.7342 H   0  0  0  0  0  0
    6.9091   60.1506   15.5034 H   0  0  0  0  0  0
    7.0750   54.4904   17.8098 H   0  0  0  0  0  0
    5.6095   53.5743   17.7249 H   0  0  0  0  0  0
    3.3659   53.3640   19.3728 H   0  0  0  0  0  0
    4.5308   52.1835   19.3163 H   0  0  0  0  0  0
    5.4628   53.1927   23.6100 H   0  0  0  0  0  0
    4.2725   52.4965   22.5521 H   0  0  0  0  0  0
    5.0864   54.1685   28.2921 H   0  0  0  0  0  0
    0.8241   51.4401   27.4392 H   0  0  0  0  0  0
   -0.0870   52.8548   26.9840 H   0  0  0  0  0  0
   -0.4286   52.2130   29.3859 H   0  0  0  0  0  0
    0.2003   53.8192   29.2921 H   0  0  0  0  0  0
    2.7393   54.2114   30.0543 H   0  0  0  0  0  0
    3.7836   52.8171   30.0540 H   0  0  0  0  0  0
    1.0527   53.3633   31.7705 H   0  0  0  0  0  0
    2.1912   52.0460   32.0463 H   0  0  0  0  0  0
    0.5071   51.7006   31.6834 H   0  0  0  0  0  0
    9.4075   60.7019   15.7670 H   0  0  0  0  0  0
    8.9239   61.1194   17.3895 H   0  0  0  0  0  0
  1  2  1  0  0  0
  1 39  1  0  0  0
  1 40  1  0  0  0
  1 41  1  0  0  0
  2  3  1  0  0  0
  2 38  1  0  0  0
  2  4  1  0  0  0
  4  5  1  0  0  0
  4 42  1  0  0  0
  4 43  1  0  0  0
  5  6  1  0  0  0
  5 44  1  0  0  0
  5 45  1  0  0  0
  6 11  2  0  0  0
  6  7  1  0  0  0
  7  8  2  0  0  0
  7 38  1  0  0  0
  8  9  1  0  0  0
  8 46  1  0  0  0
  9 10  2  0  0  0
  9 36  1  0  0  0
 10 11  1  0  0  0
 10 12  1  0  0  0
 12 13  1  0  0  0
 13 14  1  0  0  0
 13 47  1  0  0  0
 13 48  1  0  0  0
 14 18  1  0  0  0
 14 15  2  0  0  0
 15 16  1  0  0  0
 16 17  2  0  0  0
 17 18  1  0  0  0
 17 20  1  0  0  0
 18 19  1  0  0  0
 19 49  1  0  0  0
 19 50  1  0  0  0
 20 21  1  0  0  0
 20 51  1  0  0  0
 20 52  1  0  0  0
 21 22  1  0  0  0
 22 27  2  0  0  0
 22 23  1  0  0  0
 23 24  2  0  0  0
 23 34  1  0  0  0
 24 25  1  0  0  0
 24 53  1  0  0  0
 25 32  1  0  0  0
 25 26  2  0  0  0
 26 27  1  0  0  0
 26 28  1  0  0  0
 28 29  1  0  0  0
 28 54  1  0  0  0
 28 55  1  0  0  0
 29 30  1  0  0  0
 29 56  1  0  0  0
 29 57  1  0  0  0
 30 31  1  0  0  0
 30 32  1  0  0  0
 30 33  1  0  0  0
 32 58  1  0  0  0
 32 59  1  0  0  0
 33 60  1  0  0  0
 33 61  1  0  0  0
 33 62  1  0  0  0
 34 35  3  0  0  0
 36 37  3  0  0  0
 38 63  1  0  0  0
 38 64  1  0  0  0
M  END
> <i_i_glide_confnum>
187

> <i_i_glide_lignum>
4253

> <i_i_glide_posenum>
235

> <i_i_glide_rotatable_bonds>
8

> <i_m_Source_File_Index>
335

> <b_m_subgroup_collapsed>
0

> <r_i_docking_score>
-5.54562

> <r_i_glide_ecoul>
-3.8751

> <r_i_glide_eff_state_penalty>
0

> <r_i_glide_einternal>
13.2891

> <r_i_glide_emodel>
-61.6361

> <r_i_glide_energy>
-50.145

> <r_i_glide_erotb>
0.461346

> <r_i_glide_esite>
-0.0746236

> <r_i_glide_evdw>
-46.2699

> <r_i_glide_gscore>
-5.54562

> <r_i_glide_hbond>
-0.303634

> <r_i_glide_ligand_efficiency>
-0.154045

> <r_i_glide_ligand_efficiency_ln>
-1.2099

> <r_i_glide_ligand_efficiency_sa>
-0.508645

> <r_i_glide_lipo>
-1.864

> <r_i_glide_metal>
0

> <r_i_glide_rewards>
-0.869944

> <s_i_glide_gridfile>
wee1_glide-grid

> <s_m_Source_File>
wee1_decoys_glide_SP.sdf

> <s_m_Source_Path>
/Users/zhangxujun/Desktop

> <s_m_entry_id>
610

> <s_m_entry_name>
wee1_decoys_glide_SP.335

> <s_m_subgroup_title>
wee1_decoys_glide_SP

> <s_m_subgroupid>
wee1_decoys_glide_SP


$$$$
