ZINC64435840_2688
                    3D
 Schrodinger Suite 2024-2.
 54 57  0  0  1  0            999 V2000
    6.6378   55.9177   17.1638 C   0  0  0  0  0  0
    5.5340   56.4740   18.0846 C   0  0  1  0  0  0
    5.7831   57.5130   18.3128 H   0  0  0  0  0  0
    4.1614   56.4286   17.3904 C   0  0  0  0  0  0
    3.5623   55.3531   17.3222 O   0  0  0  0  0  0
    3.7325   57.6026   16.8751 N   0  0  0  0  0  0
    2.5444   57.8872   16.2602 C   0  0  0  0  0  0
    1.3821   57.2036   16.4776 C   0  0  0  0  0  0
    0.0491   57.6777   15.8805 C   0  0  1  0  0  0
   -0.4118   58.3358   16.6216 H   0  0  0  0  0  0
    0.3380   58.4370   14.6146 C   0  0  0  0  0  0
   -0.5584   58.0508   13.7018 C   0  0  0  0  0  0
   -1.2865   56.9831   14.3327 C   0  0  0  0  0  0
   -0.9423   56.7122   15.5329 N   0  0  0  0  0  0
    1.5127   59.2884   14.5257 C   0  0  0  0  0  0
    2.5585   59.0253   15.3363 C   0  0  0  0  0  0
    5.5045   55.6965   19.3291 N   0  0  0  0  0  0
    6.3035   55.9059   20.3934 C   0  0  0  0  0  0
    7.1017   56.8468   20.4163 O   0  0  0  0  0  0
    6.1550   55.0440   21.4385 N   0  0  0  0  0  0
    5.0724   54.0401   21.5556 C   0  0  0  0  0  0
    4.5148   54.0383   23.0085 C   0  0  0  0  0  0
    5.4737   54.2263   24.1218 N   0  0  0  0  0  0
    6.8633   54.1286   23.6525 C   0  0  0  0  0  0
    7.1851   55.0872   22.4890 C   0  0  0  0  0  0
    5.0881   54.1737   25.4699 C   0  0  0  0  0  0
    6.0270   54.0967   26.5160 C   0  0  0  0  0  0
    5.6280   54.0865   27.8511 C   0  0  0  0  0  0
    4.2769   54.1529   28.1677 C   0  0  0  0  0  0
    3.3256   54.2299   27.1585 C   0  0  0  0  0  0
    3.7284   54.2465   25.8251 C   0  0  0  0  0  0
    3.8902   54.1484   29.4646 F   0  0  0  0  0  0
    6.6780   56.4661   16.2231 H   0  0  0  0  0  0
    7.6195   55.9984   17.6301 H   0  0  0  0  0  0
    6.4646   54.8668   16.9277 H   0  0  0  0  0  0
    4.3509   58.3967   16.9731 H   0  0  0  0  0  0
    1.3520   56.3706   17.1630 H   0  0  0  0  0  0
   -0.6555   58.3766   12.6766 H   0  0  0  0  0  0
   -2.0681   56.4192   13.8332 H   0  0  0  0  0  0
    1.5862   60.1090   13.8274 H   0  0  0  0  0  0
    3.4309   59.6624   15.2837 H   0  0  0  0  0  0
    4.8437   54.9325   19.3335 H   0  0  0  0  0  0
    4.2423   54.1838   20.8621 H   0  0  0  0  0  0
    5.5104   53.0586   21.3630 H   0  0  0  0  0  0
    3.9501   53.1171   23.1601 H   0  0  0  0  0  0
    3.8501   54.8969   23.0642 H   0  0  0  0  0  0
    6.9926   53.0970   23.3215 H   0  0  0  0  0  0
    7.5944   54.2924   24.4376 H   0  0  0  0  0  0
    8.1636   54.8343   22.0808 H   0  0  0  0  0  0
    7.2220   56.0911   22.9143 H   0  0  0  0  0  0
    7.0859   54.0330   26.3356 H   0  0  0  0  0  0
    6.3660   54.0332   28.6383 H   0  0  0  0  0  0
    2.2758   54.2862   27.4084 H   0  0  0  0  0  0
    2.9626   54.3195   25.0686 H   0  0  0  0  0  0
  1  2  1  0  0  0
  1 33  1  0  0  0
  1 34  1  0  0  0
  1 35  1  0  0  0
  2  3  1  0  0  0
  2  4  1  0  0  0
  2 17  1  0  0  0
  4  5  2  0  0  0
  4  6  1  0  0  0
  6  7  1  0  0  0
  6 36  1  0  0  0
  7 16  1  0  0  0
  7  8  2  0  0  0
  8  9  1  0  0  0
  8 37  1  0  0  0
  9 10  1  0  0  0
  9 14  1  0  0  0
  9 11  1  0  0  0
 11 12  2  0  0  0
 11 15  1  0  0  0
 12 13  1  0  0  0
 12 38  1  0  0  0
 13 14  2  0  0  0
 13 39  1  0  0  0
 15 16  2  0  0  0
 15 40  1  0  0  0
 16 41  1  0  0  0
 17 18  1  0  0  0
 17 42  1  0  0  0
 18 19  2  0  0  0
 18 20  1  0  0  0
 20 25  1  0  0  0
 20 21  1  0  0  0
 21 22  1  0  0  0
 21 43  1  0  0  0
 21 44  1  0  0  0
 22 23  1  0  0  0
 22 45  1  0  0  0
 22 46  1  0  0  0
 23 24  1  0  0  0
 23 26  1  0  0  0
 24 25  1  0  0  0
 24 47  1  0  0  0
 24 48  1  0  0  0
 25 49  1  0  0  0
 25 50  1  0  0  0
 26 31  2  0  0  0
 26 27  1  0  0  0
 27 28  2  0  0  0
 27 51  1  0  0  0
 28 29  1  0  0  0
 28 52  1  0  0  0
 29 30  2  0  0  0
 29 32  1  0  0  0
 30 31  1  0  0  0
 30 53  1  0  0  0
 31 54  1  0  0  0
M  END
> <i_i_glide_confnum>
396

> <i_i_glide_lignum>
2689

> <i_i_glide_posenum>
370

> <i_i_glide_rotatable_bonds>
7

> <i_m_Source_File_Index>
5244

> <b_m_subgroup_collapsed>
0

> <r_i_docking_score>
-6.44956

> <r_i_glide_ecoul>
-6.71986

> <r_i_glide_eff_state_penalty>
0

> <r_i_glide_einternal>
8.66898

> <r_i_glide_emodel>
-57.3318

> <r_i_glide_energy>
-42.8124

> <r_i_glide_erotb>
0.704697

> <r_i_glide_esite>
-0.0159442

> <r_i_glide_evdw>
-36.0926

> <r_i_glide_gscore>
-6.44956

> <r_i_glide_hbond>
-0.309273

> <r_i_glide_ligand_efficiency>
-0.214985

> <r_i_glide_ligand_efficiency_ln>
-1.46541

> <r_i_glide_ligand_efficiency_sa>
-0.66801

> <r_i_glide_lipo>
-2.23428

> <r_i_glide_metal>
0

> <r_i_glide_rewards>
-1.78216

> <s_i_glide_gridfile>
wee1_glide-grid

> <s_m_Source_File>
wee1_decoys_glide_SP.sdf

> <s_m_Source_Path>
/Users/zhangxujun/Desktop

> <s_m_entry_id>
5519

> <s_m_entry_name>
wee1_decoys_glide_SP.5244

> <s_m_subgroup_title>
wee1_decoys_glide_SP

> <s_m_subgroupid>
wee1_decoys_glide_SP


$$$$
