ZINC44006032_3948
                    3D
 Schrodinger Suite 2024-2.
 56 58  0  0  1  0            999 V2000
    3.2131   58.0088   15.9139 C   0  0  0  0  0  0
    4.4604   57.7284   16.7297 C   0  0  0  0  0  0
    5.6112   58.4961   16.5328 C   0  0  0  0  0  0
    6.7600   58.2543   17.2904 C   0  0  0  0  0  0
    6.7506   57.2495   18.2603 C   0  0  0  0  0  0
    5.5917   56.4879   18.4790 C   0  0  0  0  0  0
    4.4624   56.7083   17.6847 C   0  0  0  0  0  0
    5.5045   55.5003   19.4732 N   0  0  0  0  0  0
    6.0349   55.5695   20.7096 C   0  0  0  0  0  0
    6.7313   56.4967   21.1292 O   0  0  0  0  0  0
    5.7151   54.4973   21.4490 N   0  0  0  0  0  0
    6.4469   54.0961   22.6504 C   0  0  0  0  0  0
    5.9770   54.7484   23.9669 C   0  0  0  0  0  0
    4.5273   54.3847   24.3482 C   0  0  0  0  0  0
    4.1090   55.0106   25.6977 C   0  0  0  0  0  0
    5.0944   54.5704   26.7098 N   0  0  0  0  0  0
    6.4833   55.0105   26.4625 C   0  0  0  0  0  0
    6.8961   54.3604   25.1335 C   0  0  0  0  0  0
    4.7455   54.0916   27.9321 C   0  0  0  0  0  0
    5.5281   54.0935   28.8816 O   0  0  0  0  0  0
    3.4885   53.6030   28.0169 N   0  0  0  0  0  0
    2.8265   53.1418   29.1611 C   0  0  0  0  0  0
    3.4876   52.4964   30.2146 C   0  0  0  0  0  0
    2.7675   52.0967   31.3323 C   0  0  0  0  0  0
    1.3961   52.3252   31.3888 C   0  0  0  0  0  0
    0.7271   52.9302   30.3302 C   0  0  0  0  0  0
    1.4442   53.3369   29.2082 C   0  0  0  0  0  0
    0.7088   51.9409   32.4815 F   0  0  0  0  0  0
    8.0095   59.0825   17.0561 C   0  0  0  0  0  0
    2.5825   57.1221   15.8298 H   0  0  0  0  0  0
    3.4786   58.3082   14.8987 H   0  0  0  0  0  0
    2.6394   58.8169   16.3706 H   0  0  0  0  0  0
    5.6054   59.2957   15.8049 H   0  0  0  0  0  0
    7.6420   57.0702   18.8436 H   0  0  0  0  0  0
    3.5687   56.1211   17.8417 H   0  0  0  0  0  0
    4.8570   54.7499   19.2840 H   0  0  0  0  0  0
    4.9851   53.8786   21.1296 H   0  0  0  0  0  0
    6.3075   53.0184   22.7454 H   0  0  0  0  0  0
    7.5261   54.2143   22.5260 H   0  0  0  0  0  0
    6.0619   55.8302   23.8853 H   0  0  0  0  0  0
    3.8443   54.6939   23.5566 H   0  0  0  0  0  0
    4.4119   53.2983   24.3991 H   0  0  0  0  0  0
    4.1778   56.0957   25.6820 H   0  0  0  0  0  0
    3.0782   54.7432   25.9206 H   0  0  0  0  0  0
    6.5065   56.0964   26.3751 H   0  0  0  0  0  0
    7.1756   54.7079   27.2503 H   0  0  0  0  0  0
    6.9463   53.2827   25.2513 H   0  0  0  0  0  0
    7.9044   54.6577   24.8818 H   0  0  0  0  0  0
    2.9166   53.6857   27.1913 H   0  0  0  0  0  0
    4.5488   52.3029   30.1809 H   0  0  0  0  0  0
    3.2681   51.6213   32.1625 H   0  0  0  0  0  0
   -0.3410   53.0816   30.3871 H   0  0  0  0  0  0
    0.9233   53.8169   28.3923 H   0  0  0  0  0  0
    8.8999   58.5938   17.4549 H   0  0  0  0  0  0
    8.1739   59.2236   15.9873 H   0  0  0  0  0  0
    7.9047   60.0691   17.5095 H   0  0  0  0  0  0
  1  2  1  0  0  0
  1 30  1  0  0  0
  1 31  1  0  0  0
  1 32  1  0  0  0
  2  7  2  0  0  0
  2  3  1  0  0  0
  3  4  2  0  0  0
  3 33  1  0  0  0
  4  5  1  0  0  0
  4 29  1  0  0  0
  5  6  2  0  0  0
  5 34  1  0  0  0
  6  7  1  0  0  0
  6  8  1  0  0  0
  7 35  1  0  0  0
  8  9  1  0  0  0
  8 36  1  0  0  0
  9 10  2  0  0  0
  9 11  1  0  0  0
 11 12  1  0  0  0
 11 37  1  0  0  0
 12 13  1  0  0  0
 12 38  1  0  0  0
 12 39  1  0  0  0
 13 18  1  0  0  0
 13 14  1  0  0  0
 13 40  1  0  0  0
 14 15  1  0  0  0
 14 41  1  0  0  0
 14 42  1  0  0  0
 15 16  1  0  0  0
 15 43  1  0  0  0
 15 44  1  0  0  0
 16 17  1  0  0  0
 16 19  1  0  0  0
 17 18  1  0  0  0
 17 45  1  0  0  0
 17 46  1  0  0  0
 18 47  1  0  0  0
 18 48  1  0  0  0
 19 20  2  0  0  0
 19 21  1  0  0  0
 21 22  1  0  0  0
 21 49  1  0  0  0
 22 27  2  0  0  0
 22 23  1  0  0  0
 23 24  2  0  0  0
 23 50  1  0  0  0
 24 25  1  0  0  0
 24 51  1  0  0  0
 25 26  2  0  0  0
 25 28  1  0  0  0
 26 27  1  0  0  0
 26 52  1  0  0  0
 27 53  1  0  0  0
 29 54  1  0  0  0
 29 55  1  0  0  0
 29 56  1  0  0  0
M  END
> <i_i_glide_confnum>
131

> <i_i_glide_lignum>
3949

> <i_i_glide_posenum>
400

> <i_i_glide_rotatable_bonds>
8

> <i_m_Source_File_Index>
421

> <b_m_subgroup_collapsed>
0

> <r_i_docking_score>
-5.4429

> <r_i_glide_ecoul>
-2.06811

> <r_i_glide_eff_state_penalty>
0

> <r_i_glide_einternal>
8.63712

> <r_i_glide_emodel>
-51.9084

> <r_i_glide_energy>
-42.1111

> <r_i_glide_erotb>
0.986766

> <r_i_glide_esite>
-0.1

> <r_i_glide_evdw>
-40.043

> <r_i_glide_gscore>
-5.4429

> <r_i_glide_hbond>
-0.230856

> <r_i_glide_ligand_efficiency>
-0.187686

> <r_i_glide_ligand_efficiency_ln>
-1.24629

> <r_i_glide_ligand_efficiency_sa>
-0.576632

> <r_i_glide_lipo>
-2.26027

> <r_i_glide_metal>
0

> <r_i_glide_rewards>
-1.52618

> <s_i_glide_gridfile>
wee1_glide-grid

> <s_m_Source_File>
wee1_decoys_glide_SP.sdf

> <s_m_Source_Path>
/Users/zhangxujun/Desktop

> <s_m_entry_id>
696

> <s_m_entry_name>
wee1_decoys_glide_SP.421

> <s_m_subgroup_title>
wee1_decoys_glide_SP

> <s_m_subgroupid>
wee1_decoys_glide_SP


$$$$
