ZINC63280103_753
                    3D
 Schrodinger Suite 2024-2.
 57 60  0  0  1  0            999 V2000
    4.2723   53.1985   18.6357 C   0  0  0  0  0  0
    4.4325   52.4792   19.9878 C   0  0  1  0  0  0
    5.4430   52.0857   20.0854 H   0  0  0  0  0  0
    4.0293   53.3033   21.2001 C   0  0  0  0  0  0
    2.9804   52.6858   21.7723 C   0  0  0  0  0  0
    2.1566   53.0758   22.9260 C   0  0  0  0  0  0
    1.1573   52.2869   23.3654 C   0  0  0  0  0  0
    0.9363   51.0290   22.6605 C   0  0  0  0  0  0
    1.6745   50.6577   21.5787 C   0  0  0  0  0  0
    2.6986   51.4880   21.1086 C   0  0  0  0  0  0
    3.5059   51.3352   20.0835 N   0  3  0  0  0  0
    0.3797   52.6633   24.4024 F   0  0  0  0  0  0
    4.7012   54.6203   21.5464 C   0  0  0  0  0  0
    5.8251   54.5438   22.5976 C   0  0  0  0  0  0
    5.3080   54.4411   23.9602 N   0  0  0  0  0  0
    5.9605   54.8504   25.0608 C   0  0  0  0  0  0
    7.1039   55.2994   25.0322 O   0  0  0  0  0  0
    5.2571   54.7146   26.4216 C   0  0  0  0  0  0
    3.7307   54.4898   26.3580 C   0  0  0  0  0  0
    3.1624   54.5247   27.7933 C   0  0  0  0  0  0
    3.8742   53.4940   28.5813 N   0  0  0  0  0  0
    5.3343   53.6954   28.7323 C   0  0  0  0  0  0
    5.9719   53.7018   27.3274 C   0  0  0  0  0  0
    3.2471   52.4965   29.2664 C   0  0  0  0  0  0
    3.8374   51.7581   30.0598 O   0  0  0  0  0  0
    1.7751   52.2453   29.0218 C   0  0  0  0  0  0
    1.3143   51.9952   27.7197 C   0  0  0  0  0  0
   -0.0293   51.7174   27.4762 C   0  0  0  0  0  0
   -0.9344   51.6955   28.5320 C   0  0  0  0  0  0
   -0.4960   51.9486   29.8270 C   0  0  0  0  0  0
    0.8472   52.2212   30.0806 C   0  0  0  0  0  0
    1.3432   52.4964   31.9010 Br  0  0  0  0  0  0
    4.9855   54.0137   18.5215 H   0  0  0  0  0  0
    4.4466   52.5010   17.8134 H   0  0  0  0  0  0
    3.2706   53.6121   18.5098 H   0  0  0  0  0  0
    2.3057   54.0172   23.4344 H   0  0  0  0  0  0
    0.1547   50.3709   23.0143 H   0  0  0  0  0  0
    1.4604   49.7128   21.0974 H   0  0  0  0  0  0
    3.9236   55.2967   21.8951 H   0  0  0  0  0  0
    5.0982   55.0415   20.6233 H   0  0  0  0  0  0
    6.4443   55.4409   22.5100 H   0  0  0  0  0  0
    6.4846   53.6972   22.4167 H   0  0  0  0  0  0
    4.4224   53.9730   24.0790 H   0  0  0  0  0  0
    5.4411   55.6958   26.8495 H   0  0  0  0  0  0
    3.4752   53.5179   25.9307 H   0  0  0  0  0  0
    3.2427   55.2954   25.8094 H   0  0  0  0  0  0
    2.0745   54.4464   27.8198 H   0  0  0  0  0  0
    3.3940   55.4840   28.2556 H   0  0  0  0  0  0
    5.5140   54.6455   29.2393 H   0  0  0  0  0  0
    5.8166   52.8949   29.2816 H   0  0  0  0  0  0
    7.0248   53.9535   27.4749 H   0  0  0  0  0  0
    5.8697   52.6894   26.9381 H   0  0  0  0  0  0
    1.9992   51.9957   26.8850 H   0  0  0  0  0  0
   -0.3688   51.4945   26.4759 H   0  0  0  0  0  0
   -1.9711   51.4488   28.3520 H   0  0  0  0  0  0
   -1.1913   51.8885   30.6534 H   0  0  0  0  0  0
    3.5256   50.5557   19.4271 H   0  0  0  0  0  0
  1  2  1  0  0  0
  1 33  1  0  0  0
  1 34  1  0  0  0
  1 35  1  0  0  0
  2  3  1  0  0  0
  2 11  1  0  0  0
  2  4  1  0  0  0
  4  5  2  0  0  0
  4 13  1  0  0  0
  5 10  1  0  0  0
  5  6  1  0  0  0
  6  7  2  0  0  0
  6 36  1  0  0  0
  7  8  1  0  0  0
  7 12  1  0  0  0
  8  9  2  0  0  0
  8 37  1  0  0  0
  9 10  1  0  0  0
  9 38  1  0  0  0
 10 11  2  0  0  0
 11 57  1  0  0  0
 13 14  1  0  0  0
 13 39  1  0  0  0
 13 40  1  0  0  0
 14 15  1  0  0  0
 14 41  1  0  0  0
 14 42  1  0  0  0
 15 16  1  0  0  0
 15 43  1  0  0  0
 16 17  2  0  0  0
 16 18  1  0  0  0
 18 23  1  0  0  0
 18 19  1  0  0  0
 18 44  1  0  0  0
 19 20  1  0  0  0
 19 45  1  0  0  0
 19 46  1  0  0  0
 20 21  1  0  0  0
 20 47  1  0  0  0
 20 48  1  0  0  0
 21 22  1  0  0  0
 21 24  1  0  0  0
 22 23  1  0  0  0
 22 49  1  0  0  0
 22 50  1  0  0  0
 23 51  1  0  0  0
 23 52  1  0  0  0
 24 25  2  0  0  0
 24 26  1  0  0  0
 26 31  2  0  0  0
 26 27  1  0  0  0
 27 28  2  0  0  0
 27 53  1  0  0  0
 28 29  1  0  0  0
 28 54  1  0  0  0
 29 30  2  0  0  0
 29 55  1  0  0  0
 30 31  1  0  0  0
 30 56  1  0  0  0
 31 32  1  0  0  0
M  CHG  1  11   1
M  END
> <i_i_glide_confnum>
269

> <i_i_glide_lignum>
754

> <i_i_glide_posenum>
23

> <i_i_glide_rotatable_bonds>
7

> <i_m_Source_File_Index>
2010

> <b_m_subgroup_collapsed>
0

> <r_i_docking_score>
-7.19045

> <r_i_glide_ecoul>
-6.28972

> <r_i_glide_eff_state_penalty>
0

> <r_i_glide_einternal>
8.26613

> <r_i_glide_emodel>
-74.1481

> <r_i_glide_energy>
-52.7247

> <r_i_glide_erotb>
0.599059

> <r_i_glide_esite>
-0.0730239

> <r_i_glide_evdw>
-46.435

> <r_i_glide_gscore>
-7.19045

> <r_i_glide_hbond>
-0.638081

> <r_i_glide_ligand_efficiency>
-0.23195

> <r_i_glide_ligand_efficiency_ln>
-1.62167

> <r_i_glide_ligand_efficiency_sa>
-0.728643

> <r_i_glide_lipo>
-2.44528

> <r_i_glide_metal>
0

> <r_i_glide_rewards>
-1.36792

> <s_i_glide_gridfile>
wee1_glide-grid

> <s_m_Source_File>
wee1_decoys_glide_SP.sdf

> <s_m_Source_Path>
/Users/zhangxujun/Desktop

> <s_m_entry_id>
2285

> <s_m_entry_name>
wee1_decoys_glide_SP.2010

> <s_m_subgroup_title>
wee1_decoys_glide_SP

> <s_m_subgroupid>
wee1_decoys_glide_SP


$$$$
