ZINC20101741_3008
                    3D
 Schrodinger Suite 2024-2.
 63 65  0  0  1  0            999 V2000
    0.3045   52.4394   31.2451 C   0  0  0  0  0  0
    0.7676   52.6716   29.8235 C   0  0  0  0  0  0
    1.5832   53.7668   29.5331 C   0  0  0  0  0  0
    2.0127   53.9829   28.2280 C   0  0  0  0  0  0
    1.6156   53.1066   27.2073 C   0  0  0  0  0  0
    0.7791   52.0275   27.4981 C   0  0  0  0  0  0
    0.3632   51.8031   28.8057 C   0  0  0  0  0  0
    1.9637   53.2947   25.8653 N   0  0  0  0  0  0
    3.0806   53.8656   25.3654 C   0  0  0  0  0  0
    4.0452   54.2170   26.0491 O   0  0  0  0  0  0
    3.1355   54.0900   23.8508 C   0  0  0  0  0  0
    1.5045   54.2817   23.0462 S   0  0  0  0  0  0
    1.1498   52.6817   22.3427 C   0  0  0  0  0  0
   -0.0138   51.9981   22.4373 C   0  0  0  0  0  0
   -0.2296   50.6517   21.7171 C   0  0  1  0  0  0
   -1.0984   50.7902   21.0703 H   0  0  0  0  0  0
    0.9755   50.3144   20.7884 C   0  0  0  0  0  0
    2.0974   51.0875   20.7759 C   0  0  0  0  0  0
    2.1669   52.2285   21.5430 N   0  0  0  0  0  0
    3.3302   50.9011   19.9100 C   0  0  0  0  0  0
    0.8857   49.0759   19.9698 C   0  0  0  0  0  0
    1.8643   48.4206   19.6081 O   0  0  0  0  0  0
   -0.3923   48.7351   19.6544 O   0  0  0  0  0  0
   -0.6945   47.6601   18.7689 C   0  0  0  0  0  0
   -0.4973   46.2971   19.4059 C   0  0  0  0  0  0
    0.2716   45.3298   18.8806 C   0  0  0  0  0  0
   -0.6354   49.5207   22.6703 C   0  0  0  0  0  0
    0.1052   49.2819   23.8318 C   0  0  0  0  0  0
   -0.2682   48.2651   24.7034 C   0  0  0  0  0  0
   -1.3660   47.4590   24.4098 C   0  0  0  0  0  0
   -2.1167   47.6636   23.2448 C   0  0  0  0  0  0
   -1.7477   48.7162   22.3903 C   0  0  0  0  0  0
   -3.1775   46.8063   22.9941 O   0  0  0  0  0  0
   -3.9959   47.0235   21.8491 C   0  0  0  0  0  0
   -1.6955   46.4622   25.2855 O   0  0  0  0  0  0
   -1.0834   52.4968   23.2390 C   0  0  0  0  0  0
   -1.9715   52.8967   23.8613 N   0  0  0  0  0  0
    1.1285   52.1017   31.8745 H   0  0  0  0  0  0
   -0.0908   53.3586   31.6802 H   0  0  0  0  0  0
   -0.4956   51.6977   31.2746 H   0  0  0  0  0  0
    1.8769   54.4540   30.3117 H   0  0  0  0  0  0
    2.6306   54.8437   28.0180 H   0  0  0  0  0  0
    0.4502   51.3528   26.7193 H   0  0  0  0  0  0
   -0.2732   50.9551   29.0248 H   0  0  0  0  0  0
    1.3062   52.9270   25.1934 H   0  0  0  0  0  0
    3.7191   53.2945   23.3917 H   0  0  0  0  0  0
    3.6866   55.0127   23.6821 H   0  0  0  0  0  0
    2.9459   52.8508   21.3851 H   0  0  0  0  0  0
    3.0736   50.6239   18.8857 H   0  0  0  0  0  0
    3.9583   51.7918   19.8462 H   0  0  0  0  0  0
    3.9177   50.0967   20.3326 H   0  0  0  0  0  0
   -0.1048   47.7417   17.8533 H   0  0  0  0  0  0
   -1.7405   47.7500   18.4727 H   0  0  0  0  0  0
   -1.0122   46.1289   20.3400 H   0  0  0  0  0  0
    0.8061   45.4805   17.9524 H   0  0  0  0  0  0
    0.3795   44.3755   19.3735 H   0  0  0  0  0  0
    0.9718   49.8840   24.0617 H   0  0  0  0  0  0
    0.3063   48.0983   25.6036 H   0  0  0  0  0  0
   -2.3064   48.9070   21.4895 H   0  0  0  0  0  0
   -4.7926   46.2792   21.8325 H   0  0  0  0  0  0
   -4.4653   48.0086   21.8755 H   0  0  0  0  0  0
   -3.4273   46.9195   20.9238 H   0  0  0  0  0  0
   -1.1618   46.5142   26.0891 H   0  0  0  0  0  0
  1  2  1  0  0  0
  1 38  1  0  0  0
  1 39  1  0  0  0
  1 40  1  0  0  0
  2  7  2  0  0  0
  2  3  1  0  0  0
  3  4  2  0  0  0
  3 41  1  0  0  0
  4  5  1  0  0  0
  4 42  1  0  0  0
  5  6  2  0  0  0
  5  8  1  0  0  0
  6  7  1  0  0  0
  6 43  1  0  0  0
  7 44  1  0  0  0
  8  9  1  0  0  0
  8 45  1  0  0  0
  9 10  2  0  0  0
  9 11  1  0  0  0
 11 12  1  0  0  0
 11 46  1  0  0  0
 11 47  1  0  0  0
 12 13  1  0  0  0
 13 19  1  0  0  0
 13 14  2  0  0  0
 14 15  1  0  0  0
 14 36  1  0  0  0
 15 16  1  0  0  0
 15 17  1  0  0  0
 15 27  1  0  0  0
 17 18  2  0  0  0
 17 21  1  0  0  0
 18 19  1  0  0  0
 18 20  1  0  0  0
 19 48  1  0  0  0
 20 49  1  0  0  0
 20 50  1  0  0  0
 20 51  1  0  0  0
 21 22  2  0  0  0
 21 23  1  0  0  0
 23 24  1  0  0  0
 24 25  1  0  0  0
 24 52  1  0  0  0
 24 53  1  0  0  0
 25 26  2  0  0  0
 25 54  1  0  0  0
 26 55  1  0  0  0
 26 56  1  0  0  0
 27 32  2  0  0  0
 27 28  1  0  0  0
 28 29  2  0  0  0
 28 57  1  0  0  0
 29 30  1  0  0  0
 29 58  1  0  0  0
 30 31  2  0  0  0
 30 35  1  0  0  0
 31 32  1  0  0  0
 31 33  1  0  0  0
 32 59  1  0  0  0
 33 34  1  0  0  0
 34 60  1  0  0  0
 34 61  1  0  0  0
 34 62  1  0  0  0
 35 63  1  0  0  0
 36 37  3  0  0  0
M  END
> <i_i_glide_confnum>
326

> <i_i_glide_lignum>
3009

> <i_i_glide_posenum>
224

> <i_i_glide_rotatable_bonds>
13

> <i_m_Source_File_Index>
3788

> <b_m_subgroup_collapsed>
0

> <r_i_docking_score>
-3.72556

> <r_i_glide_ecoul>
-4.98838

> <r_i_glide_eff_state_penalty>
0

> <r_i_glide_einternal>
8.62912

> <r_i_glide_emodel>
-56.491

> <r_i_glide_energy>
-48.485

> <r_i_glide_erotb>
0.800193

> <r_i_glide_esite>
-0.0116464

> <r_i_glide_evdw>
-43.4967

> <r_i_glide_gscore>
-3.72556

> <r_i_glide_hbond>
0

> <r_i_glide_ligand_efficiency>
-0.103488

> <r_i_glide_ligand_efficiency_ln>
-0.812818

> <r_i_glide_ligand_efficiency_sa>
-0.34171

> <r_i_glide_lipo>
-1.29167

> <r_i_glide_metal>
0

> <r_i_glide_rewards>
-0.299354

> <s_i_glide_gridfile>
wee1_glide-grid

> <s_m_Source_File>
wee1_decoys_glide_SP.sdf

> <s_m_Source_Path>
/Users/zhangxujun/Desktop

> <s_m_entry_id>
4063

> <s_m_entry_name>
wee1_decoys_glide_SP.3788

> <s_m_subgroup_title>
wee1_decoys_glide_SP

> <s_m_subgroupid>
wee1_decoys_glide_SP


$$$$
