ZINC37066399_1576
                    3D
 Schrodinger Suite 2024-2.
 45 46  0  0  1  0            999 V2000
   -0.4741   51.7552   22.1115 C   0  0  0  0  0  0
    0.7419   52.1944   22.9499 C   0  0  0  0  0  0
    0.2717   53.1333   24.0811 C   0  0  0  0  0  0
    1.4272   50.9304   23.5011 C   0  0  0  0  0  0
    1.5894   52.8624   22.0009 O   0  0  0  0  0  0
    2.8854   53.2884   22.2679 C   0  0  0  0  0  0
    3.8083   53.3195   21.2125 C   0  0  0  0  0  0
    5.1041   53.7499   21.4744 C   0  0  0  0  0  0
    5.4691   54.0968   22.7737 C   0  0  0  0  0  0
    4.5187   54.0340   23.8073 C   0  0  0  0  0  0
    3.2372   53.6369   23.5406 N   0  0  0  0  0  0
    4.8799   54.1866   25.1537 N   0  0  0  0  0  0
    6.1472   54.8229   25.5918 C   0  0  0  0  0  0
    6.6836   54.2769   26.9422 C   0  0  0  0  0  0
    5.6471   54.2654   28.0784 C   0  0  0  0  0  0
    4.3554   53.6551   27.5164 C   0  0  2  0  0  0
    4.5675   52.6146   27.2618 H   0  0  0  0  0  0
    3.8916   54.3911   26.2329 C   0  0  0  0  0  0
    3.2188   53.4841   28.5459 C   0  0  0  0  0  0
    3.2604   54.0305   29.6478 O   0  0  0  0  0  0
    2.1902   52.7046   28.2133 N   0  0  0  0  0  0
    3.4737   52.8968   19.9232 N   0  0  0  0  0  0
   -1.2023   51.2082   22.7118 H   0  0  0  0  0  0
   -0.1713   51.1050   21.2893 H   0  0  0  0  0  0
   -0.9867   52.6062   21.6661 H   0  0  0  0  0  0
    1.0462   53.3189   24.8215 H   0  0  0  0  0  0
   -0.0338   54.0992   23.6823 H   0  0  0  0  0  0
   -0.5799   52.7141   24.6186 H   0  0  0  0  0  0
    2.3044   51.1863   24.0819 H   0  0  0  0  0  0
    0.7618   50.3571   24.1480 H   0  0  0  0  0  0
    1.7595   50.2731   22.6962 H   0  0  0  0  0  0
    5.8355   53.7899   20.6808 H   0  0  0  0  0  0
    6.4946   54.3799   22.9417 H   0  0  0  0  0  0
    6.9427   54.6250   24.8776 H   0  0  0  0  0  0
    6.0231   55.9069   25.6229 H   0  0  0  0  0  0
    7.0976   53.2795   26.7856 H   0  0  0  0  0  0
    7.5290   54.8834   27.2627 H   0  0  0  0  0  0
    6.0684   53.6622   28.8829 H   0  0  0  0  0  0
    5.4971   55.2968   28.3924 H   0  0  0  0  0  0
    3.8180   55.4643   26.4065 H   0  0  0  0  0  0
    2.8884   54.0689   25.9567 H   0  0  0  0  0  0
    2.1580   52.2469   27.3152 H   0  0  0  0  0  0
    1.4385   52.5760   28.8734 H   0  0  0  0  0  0
    4.1962   52.7155   19.2387 H   0  0  0  0  0  0
    2.5178   52.6231   19.7449 H   0  0  0  0  0  0
  1  2  1  0  0  0
  1 23  1  0  0  0
  1 24  1  0  0  0
  1 25  1  0  0  0
  2  3  1  0  0  0
  2  4  1  0  0  0
  2  5  1  0  0  0
  3 26  1  0  0  0
  3 27  1  0  0  0
  3 28  1  0  0  0
  4 29  1  0  0  0
  4 30  1  0  0  0
  4 31  1  0  0  0
  5  6  1  0  0  0
  6 11  2  0  0  0
  6  7  1  0  0  0
  7  8  2  0  0  0
  7 22  1  0  0  0
  8  9  1  0  0  0
  8 32  1  0  0  0
  9 10  2  0  0  0
  9 33  1  0  0  0
 10 11  1  0  0  0
 10 12  1  0  0  0
 12 18  1  0  0  0
 12 13  1  0  0  0
 13 14  1  0  0  0
 13 34  1  0  0  0
 13 35  1  0  0  0
 14 15  1  0  0  0
 14 36  1  0  0  0
 14 37  1  0  0  0
 15 16  1  0  0  0
 15 38  1  0  0  0
 15 39  1  0  0  0
 16 17  1  0  0  0
 16 18  1  0  0  0
 16 19  1  0  0  0
 18 40  1  0  0  0
 18 41  1  0  0  0
 19 20  2  0  0  0
 19 21  1  0  0  0
 21 42  1  0  0  0
 21 43  1  0  0  0
 22 44  1  0  0  0
 22 45  1  0  0  0
M  END
> <i_i_glide_confnum>
1

> <i_i_glide_lignum>
1577

> <i_i_glide_posenum>
258

> <i_i_glide_rotatable_bonds>
4

> <i_m_Source_File_Index>
3021

> <b_m_subgroup_collapsed>
0

> <r_i_docking_score>
-6.40625

> <r_i_glide_ecoul>
-1.84606

> <r_i_glide_eff_state_penalty>
0

> <r_i_glide_einternal>
2.03296

> <r_i_glide_emodel>
-53.6196

> <r_i_glide_energy>
-38.9655

> <r_i_glide_erotb>
0.42712

> <r_i_glide_esite>
0

> <r_i_glide_evdw>
-37.1194

> <r_i_glide_gscore>
-6.40625

> <r_i_glide_hbond>
-0.173843

> <r_i_glide_ligand_efficiency>
-0.305059

> <r_i_glide_ligand_efficiency_ln>
-1.58393

> <r_i_glide_ligand_efficiency_sa>
-0.841636

> <r_i_glide_lipo>
-2.52039

> <r_i_glide_metal>
0

> <r_i_glide_rewards>
-2.00626

> <s_i_glide_gridfile>
wee1_glide-grid

> <s_m_Source_File>
wee1_decoys_glide_SP.sdf

> <s_m_Source_Path>
/Users/zhangxujun/Desktop

> <s_m_entry_id>
3296

> <s_m_entry_name>
wee1_decoys_glide_SP.3021

> <s_m_subgroup_title>
wee1_decoys_glide_SP

> <s_m_subgroupid>
wee1_decoys_glide_SP


$$$$
