ZINC49008032_40
                    3D
 Schrodinger Suite 2024-2.
 57 60  0  0  1  0            999 V2000
   -7.7487   51.5874   25.4518 C   0  0  0  0  0  0
   -6.2860   51.3838   25.8007 C   0  0  0  0  0  0
   -5.9350   50.6572   26.9386 C   0  0  0  0  0  0
   -4.5930   50.4617   27.2588 C   0  0  0  0  0  0
   -3.5853   50.9983   26.4526 C   0  0  0  0  0  0
   -3.9316   51.7059   25.2780 C   0  0  0  0  0  0
   -5.2842   51.8958   24.9734 C   0  0  0  0  0  0
   -2.9004   52.2249   24.2816 C   0  0  0  0  0  0
   -2.2700   50.7582   26.8819 N   0  0  0  0  0  0
   -1.3310   51.6993   27.0927 C   0  0  0  0  0  0
   -1.5004   52.8967   26.8814 O   0  0  0  0  0  0
   -0.0065   51.1788   27.6614 C   0  0  0  0  0  0
    0.9065   52.2379   28.1631 N   0  0  0  0  0  0
    1.7791   52.9219   27.2535 C   0  0  0  0  0  0
    1.6643   52.8828   25.8618 C   0  0  0  0  0  0
    2.6500   53.4579   25.0633 C   0  0  0  0  0  0
    3.7933   54.0576   25.6290 C   0  0  0  0  0  0
    3.8628   54.1666   27.0279 C   0  0  0  0  0  0
    2.8647   53.6153   27.8356 C   0  0  0  0  0  0
    2.9937   53.7329   29.2392 N   0  0  0  0  0  0
    2.0692   53.2193   29.9676 C   0  0  0  0  0  0
    0.8862   52.4849   29.5156 C   0  0  0  0  0  0
    0.0162   52.0988   30.2953 O   0  0  0  0  0  0
    4.9717   54.4904   24.7763 C   0  0  0  0  0  0
    5.9693   55.0049   25.2857 O   0  0  0  0  0  0
    4.8716   54.1956   23.4643 N   0  0  0  0  0  0
    5.9020   54.1922   22.4217 C   0  0  0  0  0  0
    5.2309   54.1756   21.0323 C   0  0  0  0  0  0
    6.1334   54.9893   20.1055 C   0  0  0  0  0  0
    6.6818   56.0818   21.0176 C   0  0  0  0  0  0
    6.8670   55.4030   22.3812 C   0  0  0  0  0  0
   -8.2978   50.6523   25.5683 H   0  0  0  0  0  0
   -7.8792   51.9099   24.4178 H   0  0  0  0  0  0
   -8.1992   52.3247   26.1164 H   0  0  0  0  0  0
   -6.7004   50.2435   27.5790 H   0  0  0  0  0  0
   -4.3386   49.9009   28.1481 H   0  0  0  0  0  0
   -5.5608   52.4385   24.0812 H   0  0  0  0  0  0
   -1.9970   51.6153   24.2852 H   0  0  0  0  0  0
   -3.2885   52.1796   23.2641 H   0  0  0  0  0  0
   -2.6371   53.2595   24.5015 H   0  0  0  0  0  0
   -2.0957   49.8488   27.3041 H   0  0  0  0  0  0
   -0.2468   50.4956   28.4719 H   0  0  0  0  0  0
    0.5018   50.5703   26.9136 H   0  0  0  0  0  0
    0.8360   52.3813   25.3845 H   0  0  0  0  0  0
    2.5260   53.3665   23.9944 H   0  0  0  0  0  0
    4.7151   54.6392   27.4976 H   0  0  0  0  0  0
    2.1814   53.2980   31.0424 H   0  0  0  0  0  0
    4.0262   53.7208   23.1938 H   0  0  0  0  0  0
    6.5176   53.2958   22.4953 H   0  0  0  0  0  0
    5.0379   53.1640   20.6717 H   0  0  0  0  0  0
    4.2571   54.6701   21.0702 H   0  0  0  0  0  0
    6.9433   54.3757   19.7078 H   0  0  0  0  0  0
    5.5890   55.3981   19.2529 H   0  0  0  0  0  0
    7.6143   56.4968   20.6339 H   0  0  0  0  0  0
    5.9581   56.8956   21.0964 H   0  0  0  0  0  0
    6.7138   56.1096   23.1913 H   0  0  0  0  0  0
    7.8983   55.0515   22.4533 H   0  0  0  0  0  0
  1  2  1  0  0  0
  1 32  1  0  0  0
  1 33  1  0  0  0
  1 34  1  0  0  0
  2  7  2  0  0  0
  2  3  1  0  0  0
  3  4  2  0  0  0
  3 35  1  0  0  0
  4  5  1  0  0  0
  4 36  1  0  0  0
  5  6  2  0  0  0
  5  9  1  0  0  0
  6  7  1  0  0  0
  6  8  1  0  0  0
  7 37  1  0  0  0
  8 38  1  0  0  0
  8 39  1  0  0  0
  8 40  1  0  0  0
  9 10  1  0  0  0
  9 41  1  0  0  0
 10 11  2  0  0  0
 10 12  1  0  0  0
 12 13  1  0  0  0
 12 42  1  0  0  0
 12 43  1  0  0  0
 13 22  1  0  0  0
 13 14  1  0  0  0
 14 19  2  0  0  0
 14 15  1  0  0  0
 15 16  2  0  0  0
 15 44  1  0  0  0
 16 17  1  0  0  0
 16 45  1  0  0  0
 17 18  2  0  0  0
 17 24  1  0  0  0
 18 19  1  0  0  0
 18 46  1  0  0  0
 19 20  1  0  0  0
 20 21  2  0  0  0
 21 22  1  0  0  0
 21 47  1  0  0  0
 22 23  2  0  0  0
 24 25  2  0  0  0
 24 26  1  0  0  0
 26 27  1  0  0  0
 26 48  1  0  0  0
 27 31  1  0  0  0
 27 28  1  0  0  0
 27 49  1  0  0  0
 28 29  1  0  0  0
 28 50  1  0  0  0
 28 51  1  0  0  0
 29 30  1  0  0  0
 29 52  1  0  0  0
 29 53  1  0  0  0
 30 31  1  0  0  0
 30 54  1  0  0  0
 30 55  1  0  0  0
 31 56  1  0  0  0
 31 57  1  0  0  0
M  END
> <i_i_glide_confnum>
99

> <i_i_glide_lignum>
41

> <i_i_glide_posenum>
342

> <i_i_glide_rotatable_bonds>
7

> <i_m_Source_File_Index>
5892

> <b_m_subgroup_collapsed>
0

> <r_i_docking_score>
-5.31224

> <r_i_glide_ecoul>
-3.89906

> <r_i_glide_eff_state_penalty>
0

> <r_i_glide_einternal>
6.97051

> <r_i_glide_emodel>
-57.3459

> <r_i_glide_energy>
-43.4051

> <r_i_glide_erotb>
0.790391

> <r_i_glide_esite>
-0.142056

> <r_i_glide_evdw>
-39.506

> <r_i_glide_gscore>
-5.31224

> <r_i_glide_hbond>
-0.16

> <r_i_glide_ligand_efficiency>
-0.171363

> <r_i_glide_ligand_efficiency_ln>
-1.19807

> <r_i_glide_ligand_efficiency_sa>
-0.538315

> <r_i_glide_lipo>
-2.17373

> <r_i_glide_metal>
0

> <r_i_glide_rewards>
-1.06669

> <s_i_glide_gridfile>
wee1_glide-grid

> <s_m_Source_File>
wee1_decoys_glide_SP.sdf

> <s_m_Source_Path>
/Users/zhangxujun/Desktop

> <s_m_entry_id>
6167

> <s_m_entry_name>
wee1_decoys_glide_SP.5892

> <s_m_subgroup_title>
wee1_decoys_glide_SP

> <s_m_subgroupid>
wee1_decoys_glide_SP


$$$$
