ZINC15973415_3311
                    3D
 Schrodinger Suite 2024-2.
 45 47  0  0  1  0            999 V2000
    6.2122   57.6782   12.5512 C   0  0  0  0  0  0
    6.6123   58.3614   13.7328 O   0  0  0  0  0  0
    6.8809   59.7194   13.6863 C   0  0  0  0  0  0
    6.7118   60.4965   12.5278 C   0  0  0  0  0  0
    6.9341   61.8722   12.5475 C   0  0  0  0  0  0
    7.3240   62.5198   13.7266 C   0  0  0  0  0  0
    7.5009   61.7476   14.8817 C   0  0  0  0  0  0
    7.3071   60.3647   14.8646 C   0  0  0  0  0  0
    7.5045   59.6967   16.0824 N   0  0  0  0  0  0
    8.2933   58.6173   16.2816 C   0  0  0  0  0  0
    8.9478   58.0822   15.3825 O   0  0  0  0  0  0
    8.3829   58.0311   17.7222 C   0  0  2  0  0  0
    7.8241   56.5930   17.7472 C   0  0  0  0  0  0
    6.8596   56.6354   18.8980 C   0  0  0  0  0  0
    6.7044   57.8135   19.3274 N   0  0  0  0  0  0
    7.5046   58.7257   18.6088 O   0  0  0  0  0  0
    6.1940   55.4426   19.4385 C   0  0  0  0  0  0
    5.9044   55.3628   20.8078 C   0  0  0  0  0  0
    5.2222   54.2616   21.3187 C   0  0  0  0  0  0
    4.8381   53.2324   20.4638 C   0  0  0  0  0  0
    5.1346   53.2967   19.1045 C   0  0  0  0  0  0
    5.8203   54.3938   18.5911 C   0  0  0  0  0  0
    3.9167   51.7209   21.1623 Br  0  0  0  0  0  0
    9.8505   58.0978   18.2868 C   0  0  0  0  0  0
   10.3690   59.4882   18.7053 C   0  0  0  0  0  0
   11.4781   59.5280   19.2813 O   0  0  0  0  0  0
    7.5398   63.9865   13.7555 N   0  3  0  0  0  0
    7.9116   64.5056   14.8045 O   0  0  0  0  0  0
    7.3450   64.6275   12.7262 O   0  5  0  0  0  0
    6.0715   56.6219   12.7794 H   0  0  0  0  0  0
    5.2656   58.0618   12.1681 H   0  0  0  0  0  0
    6.9724   57.7484   11.7718 H   0  0  0  0  0  0
    6.3911   60.0515   11.5990 H   0  0  0  0  0  0
    6.7863   62.4352   11.6368 H   0  0  0  0  0  0
    7.7856   62.2211   15.8125 H   0  0  0  0  0  0
    7.1323   60.1788   16.8998 H   0  0  0  0  0  0
    8.6119   55.8596   17.9244 H   0  0  0  0  0  0
    7.2987   56.3103   16.8326 H   0  0  0  0  0  0
    6.1940   56.1566   21.4812 H   0  0  0  0  0  0
    4.9922   54.2057   22.3723 H   0  0  0  0  0  0
    4.8322   52.4967   18.4455 H   0  0  0  0  0  0
    6.0288   54.4253   17.5312 H   0  0  0  0  0  0
    9.9158   57.4754   19.1803 H   0  0  0  0  0  0
   10.5575   57.6714   17.5743 H   0  0  0  0  0  0
    9.6652   60.4967   18.4817 O   0  5  0  0  0  0
  1  2  1  0  0  0
  1 30  1  0  0  0
  1 31  1  0  0  0
  1 32  1  0  0  0
  2  3  1  0  0  0
  3  8  2  0  0  0
  3  4  1  0  0  0
  4  5  2  0  0  0
  4 33  1  0  0  0
  5  6  1  0  0  0
  5 34  1  0  0  0
  6  7  2  0  0  0
  6 27  1  0  0  0
  7  8  1  0  0  0
  7 35  1  0  0  0
  8  9  1  0  0  0
  9 10  1  0  0  0
  9 36  1  0  0  0
 10 11  2  0  0  0
 10 12  1  0  0  0
 12 16  1  0  0  0
 12 13  1  0  0  0
 12 24  1  0  0  0
 13 14  1  0  0  0
 13 37  1  0  0  0
 13 38  1  0  0  0
 14 15  2  0  0  0
 14 17  1  0  0  0
 15 16  1  0  0  0
 17 22  2  0  0  0
 17 18  1  0  0  0
 18 19  2  0  0  0
 18 39  1  0  0  0
 19 20  1  0  0  0
 19 40  1  0  0  0
 20 21  2  0  0  0
 20 23  1  0  0  0
 21 22  1  0  0  0
 21 41  1  0  0  0
 22 42  1  0  0  0
 24 25  1  0  0  0
 24 43  1  0  0  0
 24 44  1  0  0  0
 25 26  2  0  0  0
 25 45  1  0  0  0
 27 28  2  0  0  0
 27 29  1  0  0  0
M  CHG  3  27   1  29  -1  45  -1
M  END
> <i_i_glide_confnum>
7

> <i_i_glide_lignum>
3312

> <i_i_glide_posenum>
391

> <i_i_glide_rotatable_bonds>
8

> <i_m_Source_File_Index>
1274

> <b_m_subgroup_collapsed>
0

> <r_i_docking_score>
-3.12757

> <r_i_glide_ecoul>
-9.17257

> <r_i_glide_eff_state_penalty>
0

> <r_i_glide_einternal>
3.61516

> <r_i_glide_emodel>
-36.3006

> <r_i_glide_energy>
-29.4487

> <r_i_glide_erotb>
0.444671

> <r_i_glide_esite>
-0.273558

> <r_i_glide_evdw>
-20.2761

> <r_i_glide_gscore>
-3.12757

> <r_i_glide_hbond>
-0.36

> <r_i_glide_ligand_efficiency>
-0.104252

> <r_i_glide_ligand_efficiency_ln>
-0.710618

> <r_i_glide_ligand_efficiency_sa>
-0.323936

> <r_i_glide_lipo>
-0.365066

> <r_i_glide_metal>
0

> <r_i_glide_rewards>
-0.183923

> <s_i_glide_gridfile>
wee1_glide-grid

> <s_m_Source_File>
wee1_decoys_glide_SP.sdf

> <s_m_Source_Path>
/Users/zhangxujun/Desktop

> <s_m_entry_id>
1549

> <s_m_entry_name>
wee1_decoys_glide_SP.1274

> <s_m_subgroup_title>
wee1_decoys_glide_SP

> <s_m_subgroupid>
wee1_decoys_glide_SP


$$$$
