ZINC09696039_1116
                    3D
 Schrodinger Suite 2024-2.
 60 63  0  0  1  0            999 V2000
   -1.3365   50.5781   16.9487 C   0  0  0  0  0  0
   -1.1860   50.9095   18.3260 O   0  0  0  0  0  0
    0.0713   51.1937   18.8347 C   0  0  0  0  0  0
    1.2404   51.1183   18.0552 C   0  0  0  0  0  0
    2.4908   51.3855   18.6063 C   0  0  0  0  0  0
    2.5998   51.7439   19.9440 C   0  0  0  0  0  0
    1.4541   51.8430   20.7254 C   0  0  0  0  0  0
    0.1838   51.5503   20.1959 C   0  0  0  0  0  0
   -1.0291   51.6263   21.0966 C   0  0  0  0  0  0
   -2.0937   52.0967   20.6907 O   0  0  0  0  0  0
   -0.8094   51.1206   22.3354 N   0  0  0  0  0  0
   -1.3876   51.3263   23.5665 C   0  0  0  0  0  0
   -2.8702   52.0954   23.8117 S   0  0  0  0  0  0
   -0.6218   50.8301   24.6103 N   0  0  0  0  0  0
    0.8530   50.7630   24.5277 C   0  0  0  0  0  0
    1.3774   52.0740   25.1623 C   0  0  0  0  0  0
   -0.5547   51.9802   26.7681 C   0  0  0  0  0  0
   -1.0727   50.7264   26.0187 C   0  0  0  0  0  0
    1.5923   53.3200   27.4178 C   0  0  0  0  0  0
    1.1532   53.4720   28.8815 C   0  0  0  0  0  0
    0.8098   52.3671   29.6718 C   0  0  0  0  0  0
    0.3630   52.5540   30.9749 C   0  0  0  0  0  0
    0.3044   53.8368   31.5080 C   0  0  0  0  0  0
    0.7044   54.9365   30.7520 C   0  0  0  0  0  0
    1.1125   54.7554   29.4356 C   0  0  0  0  0  0
    3.1074   53.5365   27.2417 C   0  0  0  0  0  0
    4.0145   53.0966   28.2161 C   0  0  0  0  0  0
    5.3754   53.3576   28.0817 C   0  0  0  0  0  0
    5.8384   54.0641   26.9754 C   0  0  0  0  0  0
    4.9504   54.5117   26.0010 C   0  0  0  0  0  0
    3.5886   54.2560   26.1392 C   0  0  0  0  0  0
    4.3087   52.0787   20.7160 Br  0  0  0  0  0  0
   -2.3920   50.4119   16.7316 H   0  0  0  0  0  0
   -0.9913   51.3871   16.3018 H   0  0  0  0  0  0
   -0.8007   49.6609   16.6961 H   0  0  0  0  0  0
    1.2090   50.8379   17.0136 H   0  0  0  0  0  0
    3.3796   51.3011   17.9952 H   0  0  0  0  0  0
    1.5736   52.1498   21.7541 H   0  0  0  0  0  0
    0.0704   50.6328   22.3902 H   0  0  0  0  0  0
    1.1808   49.8852   25.0863 H   0  0  0  0  0  0
    1.2612   50.6220   23.5279 H   0  0  0  0  0  0
    0.9743   52.9778   24.6987 H   0  0  0  0  0  0
    2.4624   52.0969   25.0858 H   0  0  0  0  0  0
   -1.0003   52.8966   26.3882 H   0  0  0  0  0  0
   -0.8330   51.8745   27.8142 H   0  0  0  0  0  0
   -2.1550   50.6281   26.1128 H   0  0  0  0  0  0
   -0.6741   49.8184   26.4776 H   0  0  0  0  0  0
    1.1044   54.1297   26.8798 H   0  0  0  0  0  0
    0.8618   51.3612   29.2801 H   0  0  0  0  0  0
    0.0556   51.7112   31.5791 H   0  0  0  0  0  0
   -0.0370   53.9686   32.5251 H   0  0  0  0  0  0
    0.7032   55.9277   31.1822 H   0  0  0  0  0  0
    1.4043   55.6153   28.8492 H   0  0  0  0  0  0
    3.6720   52.5502   29.0826 H   0  0  0  0  0  0
    6.0687   53.0114   28.8338 H   0  0  0  0  0  0
    6.8953   54.2618   26.8739 H   0  0  0  0  0  0
    5.3159   55.0607   25.1451 H   0  0  0  0  0  0
    2.9108   54.6203   25.3816 H   0  0  0  0  0  0
    1.0007   52.0810   26.6676 N   0  3  0  0  0  0
    1.4001   51.2557   27.0931 H   0  0  0  0  0  0
  1  2  1  0  0  0
  1 33  1  0  0  0
  1 34  1  0  0  0
  1 35  1  0  0  0
  2  3  1  0  0  0
  3  8  2  0  0  0
  3  4  1  0  0  0
  4  5  2  0  0  0
  4 36  1  0  0  0
  5  6  1  0  0  0
  5 37  1  0  0  0
  6  7  2  0  0  0
  6 32  1  0  0  0
  7  8  1  0  0  0
  7 38  1  0  0  0
  8  9  1  0  0  0
  9 10  2  0  0  0
  9 11  1  0  0  0
 11 12  1  0  0  0
 11 39  1  0  0  0
 12 13  2  0  0  0
 12 14  1  0  0  0
 14 18  1  0  0  0
 14 15  1  0  0  0
 15 16  1  0  0  0
 15 40  1  0  0  0
 15 41  1  0  0  0
 16 42  1  0  0  0
 16 43  1  0  0  0
 16 59  1  0  0  0
 17 18  1  0  0  0
 17 44  1  0  0  0
 17 45  1  0  0  0
 17 59  1  0  0  0
 18 46  1  0  0  0
 18 47  1  0  0  0
 19 20  1  0  0  0
 19 26  1  0  0  0
 19 48  1  0  0  0
 19 59  1  0  0  0
 20 25  2  0  0  0
 20 21  1  0  0  0
 21 22  2  0  0  0
 21 49  1  0  0  0
 22 23  1  0  0  0
 22 50  1  0  0  0
 23 24  2  0  0  0
 23 51  1  0  0  0
 24 25  1  0  0  0
 24 52  1  0  0  0
 25 53  1  0  0  0
 26 31  2  0  0  0
 26 27  1  0  0  0
 27 28  2  0  0  0
 27 54  1  0  0  0
 28 29  1  0  0  0
 28 55  1  0  0  0
 29 30  2  0  0  0
 29 56  1  0  0  0
 30 31  1  0  0  0
 30 57  1  0  0  0
 31 58  1  0  0  0
 59 60  1  0  0  0
M  CHG  1  59   1
M  END
> <i_i_glide_confnum>
125

> <i_i_glide_lignum>
1117

> <i_i_glide_posenum>
348

> <i_i_glide_rotatable_bonds>
8

> <i_m_Source_File_Index>
1751

> <b_m_subgroup_collapsed>
0

> <r_i_docking_score>
-5.14446

> <r_i_glide_ecoul>
-5.24522

> <r_i_glide_eff_state_penalty>
0

> <r_i_glide_einternal>
4.57579

> <r_i_glide_emodel>
-57.8055

> <r_i_glide_energy>
-45.3366

> <r_i_glide_erotb>
0.521786

> <r_i_glide_esite>
-0.0218744

> <r_i_glide_evdw>
-40.0914

> <r_i_glide_gscore>
-5.14446

> <r_i_glide_hbond>
-0.262295

> <r_i_glide_ligand_efficiency>
-0.155893

> <r_i_glide_ligand_efficiency_ln>
-1.1441

> <r_i_glide_ligand_efficiency_sa>
-0.500031

> <r_i_glide_lipo>
-2.60158

> <r_i_glide_metal>
0

> <r_i_glide_rewards>
0.010856

> <s_i_glide_gridfile>
wee1_glide-grid

> <s_m_Source_File>
wee1_decoys_glide_SP.sdf

> <s_m_Source_Path>
/Users/zhangxujun/Desktop

> <s_m_entry_id>
2026

> <s_m_entry_name>
wee1_decoys_glide_SP.1751

> <s_m_subgroup_title>
wee1_decoys_glide_SP

> <s_m_subgroupid>
wee1_decoys_glide_SP


$$$$
