ZINC33058379_4546
                    3D
 Schrodinger Suite 2024-2.
 51 54  0  0  1  0            999 V2000
   -2.0958   45.8349   22.4365 C   0  0  0  0  0  0
   -2.1978   47.3101   22.7592 C   0  0  0  0  0  0
   -2.1016   48.2479   21.7318 C   0  0  0  0  0  0
   -2.1894   49.6047   22.0215 C   0  0  0  0  0  0
   -2.3710   50.0212   23.3414 C   0  0  0  0  0  0
   -2.4555   49.0847   24.3733 C   0  0  0  0  0  0
   -2.3618   47.7273   24.0820 C   0  0  0  0  0  0
   -2.4913   51.7638   23.7147 S   0  0  0  0  0  0
   -3.7588   51.9776   24.4222 O   0  0  0  0  0  0
   -2.1770   52.4967   22.4822 O   0  0  0  0  0  0
   -1.1286   52.0609   24.8855 C   0  0  0  0  0  0
   -1.2458   51.9851   26.2879 C   0  0  0  0  0  0
   -0.0594   52.2361   26.9803 C   0  0  0  0  0  0
    1.2352   52.4969   25.8518 S   0  0  0  0  0  0
    0.1751   52.3487   24.4835 C   0  0  0  0  0  0
    0.6233   52.4368   23.1807 N   0  0  0  0  0  0
    1.8750   52.8089   22.6630 C   0  0  0  0  0  0
    2.6973   53.7641   23.2732 C   0  0  0  0  0  0
    3.9238   54.0965   22.7051 C   0  0  0  0  0  0
    4.3212   53.4952   21.5144 C   0  0  0  0  0  0
    3.5067   52.5535   20.8915 C   0  0  0  0  0  0
    2.2804   52.2187   21.4632 C   0  0  0  0  0  0
    5.5042   53.8375   20.9570 F   0  0  0  0  0  0
    0.2127   52.2944   28.4242 C   0  0  0  0  0  0
   -0.5710   51.8096   29.2394 O   0  0  0  0  0  0
    1.4815   52.9195   28.8836 C   0  0  0  0  0  0
    2.5486   52.1133   29.2907 C   0  0  0  0  0  0
    3.7494   52.7011   29.6816 C   0  0  0  0  0  0
    3.8712   54.0897   29.6724 C   0  0  0  0  0  0
    2.8052   54.8975   29.2816 C   0  0  0  0  0  0
    1.6077   54.3123   28.8820 C   0  0  0  0  0  0
   -2.4209   51.6967   26.9165 N   0  0  0  0  0  0
   -1.4063   45.6635   21.6094 H   0  0  0  0  0  0
   -1.6958   45.2965   23.2898 H   0  0  0  0  0  0
   -3.0724   45.4276   22.1743 H   0  0  0  0  0  0
   -1.9661   47.9295   20.7088 H   0  0  0  0  0  0
   -2.1227   50.3228   21.2177 H   0  0  0  0  0  0
   -2.5884   49.3968   25.3998 H   0  0  0  0  0  0
   -2.4217   47.0097   24.8874 H   0  0  0  0  0  0
   -0.0138   52.1455   22.4523 H   0  0  0  0  0  0
    2.3893   54.2739   24.1724 H   0  0  0  0  0  0
    4.5583   54.8316   23.1770 H   0  0  0  0  0  0
    3.8241   52.0948   19.9647 H   0  0  0  0  0  0
    1.6556   51.4885   20.9682 H   0  0  0  0  0  0
    2.4553   51.0372   29.2780 H   0  0  0  0  0  0
    4.5852   52.0849   29.9788 H   0  0  0  0  0  0
    4.8052   54.5473   29.9623 H   0  0  0  0  0  0
    2.9104   55.9733   29.2762 H   0  0  0  0  0  0
    0.7898   54.9459   28.5660 H   0  0  0  0  0  0
   -3.2833   51.5969   26.3956 H   0  0  0  0  0  0
   -2.4343   51.4591   27.9012 H   0  0  0  0  0  0
  1  2  1  0  0  0
  1 33  1  0  0  0
  1 34  1  0  0  0
  1 35  1  0  0  0
  2  7  2  0  0  0
  2  3  1  0  0  0
  3  4  2  0  0  0
  3 36  1  0  0  0
  4  5  1  0  0  0
  4 37  1  0  0  0
  5  6  2  0  0  0
  5  8  1  0  0  0
  6  7  1  0  0  0
  6 38  1  0  0  0
  7 39  1  0  0  0
  8  9  2  0  0  0
  8 10  2  0  0  0
  8 11  1  0  0  0
 11 15  2  0  0  0
 11 12  1  0  0  0
 12 13  2  0  0  0
 12 32  1  0  0  0
 13 14  1  0  0  0
 13 24  1  0  0  0
 14 15  1  0  0  0
 15 16  1  0  0  0
 16 17  1  0  0  0
 16 40  1  0  0  0
 17 22  2  0  0  0
 17 18  1  0  0  0
 18 19  2  0  0  0
 18 41  1  0  0  0
 19 20  1  0  0  0
 19 42  1  0  0  0
 20 21  2  0  0  0
 20 23  1  0  0  0
 21 22  1  0  0  0
 21 43  1  0  0  0
 22 44  1  0  0  0
 24 25  2  0  0  0
 24 26  1  0  0  0
 26 31  2  0  0  0
 26 27  1  0  0  0
 27 28  2  0  0  0
 27 45  1  0  0  0
 28 29  1  0  0  0
 28 46  1  0  0  0
 29 30  2  0  0  0
 29 47  1  0  0  0
 30 31  1  0  0  0
 30 48  1  0  0  0
 31 49  1  0  0  0
 32 50  1  0  0  0
 32 51  1  0  0  0
M  END
> <i_i_glide_confnum>
103

> <i_i_glide_lignum>
4547

> <i_i_glide_posenum>
151

> <i_i_glide_rotatable_bonds>
6

> <i_m_Source_File_Index>
3334

> <b_m_subgroup_collapsed>
0

> <r_i_docking_score>
-4.19658

> <r_i_glide_ecoul>
-2.13329

> <r_i_glide_eff_state_penalty>
0

> <r_i_glide_einternal>
9.98746

> <r_i_glide_emodel>
-51.2604

> <r_i_glide_energy>
-44.9719

> <r_i_glide_erotb>
0.556137

> <r_i_glide_esite>
-0.043262

> <r_i_glide_evdw>
-42.8386

> <r_i_glide_gscore>
-4.19658

> <r_i_glide_hbond>
0

> <r_i_glide_ligand_efficiency>
-0.131143

> <r_i_glide_ligand_efficiency_ln>
-0.939729

> <r_i_glide_ligand_efficiency_sa>
-0.416354

> <r_i_glide_lipo>
-1.82283

> <r_i_glide_metal>
0

> <r_i_glide_rewards>
-0.424698

> <s_i_glide_gridfile>
wee1_glide-grid

> <s_m_Source_File>
wee1_decoys_glide_SP.sdf

> <s_m_Source_Path>
/Users/zhangxujun/Desktop

> <s_m_entry_id>
3609

> <s_m_entry_name>
wee1_decoys_glide_SP.3334

> <s_m_subgroup_title>
wee1_decoys_glide_SP

> <s_m_subgroupid>
wee1_decoys_glide_SP


$$$$
