ZINC63819104_4100
                    3D
 Schrodinger Suite 2024-2.
 67 71  0  0  1  0            999 V2000
   -1.5185   51.5779   25.0036 C   0  0  0  0  0  0
   -0.4415   50.9743   24.2187 N   0  0  0  0  0  0
   -0.1495   49.5675   24.5090 C   0  0  0  0  0  0
    0.5697   51.7939   23.6437 C   0  0  0  0  0  0
    0.4924   53.1957   23.6937 C   0  0  0  0  0  0
    1.5070   53.9944   23.1735 C   0  0  0  0  0  0
    2.6434   53.4143   22.6046 C   0  0  0  0  0  0
    2.6994   52.0223   22.4827 C   0  0  0  0  0  0
    1.6815   51.2271   23.0018 C   0  0  0  0  0  0
    3.8131   54.2871   22.1145 C   0  0  2  0  0  0
    3.4203   55.2956   21.9815 H   0  0  0  0  0  0
    4.2631   53.8165   20.6928 C   0  0  0  0  0  0
    5.0883   54.7384   19.8953 N   0  0  0  0  0  0
    6.0142   54.3095   19.0103 C   0  0  0  0  0  0
    6.3028   53.1275   18.8841 O   0  0  0  0  0  0
    6.7824   55.2964   18.1226 C   0  0  0  0  0  0
    6.0239   56.5126   17.7968 N   0  0  0  0  0  0
    5.1141   56.5813   16.7990 C   0  0  0  0  0  0
    4.6384   55.6504   16.1438 O   0  0  0  0  0  0
    4.8954   58.0721   16.5461 C   0  0  0  0  0  0
    3.3857   58.4428   16.6034 C   0  0  0  0  0  0
    2.9801   58.9023   15.1977 C   0  0  0  0  0  0
    4.2786   59.3711   14.5455 C   0  0  0  0  0  0
    5.3476   58.4311   15.1005 C   0  0  0  0  0  0
    5.7164   58.6033   17.6007 N   0  0  0  0  0  0
    6.2775   57.6929   18.3973 C   0  0  0  0  0  0
    6.7131   57.8782   19.5344 O   0  0  0  0  0  0
    4.9423   54.4298   23.1649 C   0  0  0  0  0  0
    4.9697   54.3461   24.5207 C   0  0  0  0  0  0
    3.9096   54.0959   25.5165 C   0  0  0  0  0  0
    4.1792   54.0322   26.8348 C   0  0  0  0  0  0
    5.5577   54.1965   27.2582 C   0  0  0  0  0  0
    6.5541   54.4277   26.3681 C   0  0  0  0  0  0
    6.2787   54.5274   24.9963 C   0  0  0  0  0  0
    7.1008   54.7599   24.0087 N   0  3  0  0  0  0
    6.3494   54.8103   22.7508 C   0  0  0  0  0  0
   -1.1190   52.0326   25.9107 H   0  0  0  0  0  0
   -2.0308   52.3564   24.4424 H   0  0  0  0  0  0
   -2.2689   50.8438   25.3025 H   0  0  0  0  0  0
    0.1046   49.0165   23.6051 H   0  0  0  0  0  0
    0.7001   49.4855   25.1870 H   0  0  0  0  0  0
   -0.9896   49.0578   24.9843 H   0  0  0  0  0  0
   -0.3477   53.6923   24.1487 H   0  0  0  0  0  0
    1.4227   55.0645   23.2619 H   0  0  0  0  0  0
    3.5488   51.5312   22.0319 H   0  0  0  0  0  0
    1.7890   50.1568   22.9120 H   0  0  0  0  0  0
    3.3802   53.6046   20.0880 H   0  0  0  0  0  0
    4.7706   52.8567   20.7984 H   0  0  0  0  0  0
    4.8416   55.7164   19.9078 H   0  0  0  0  0  0
    6.9659   54.7784   17.1785 H   0  0  0  0  0  0
    7.7608   55.5116   18.5504 H   0  0  0  0  0  0
    3.2385   59.2885   17.2802 H   0  0  0  0  0  0
    2.7318   57.6485   16.9655 H   0  0  0  0  0  0
    2.2346   59.7020   15.2276 H   0  0  0  0  0  0
    2.5480   58.0699   14.6335 H   0  0  0  0  0  0
    4.5020   60.3989   14.8417 H   0  0  0  0  0  0
    4.2259   59.3473   13.4545 H   0  0  0  0  0  0
    5.3822   57.5573   14.4414 H   0  0  0  0  0  0
    6.3476   58.8725   15.0618 H   0  0  0  0  0  0
    5.9657   59.5880   17.6249 H   0  0  0  0  0  0
    2.8801   53.9512   25.2446 H   0  0  0  0  0  0
    3.3967   53.8455   27.5570 H   0  0  0  0  0  0
    5.8012   54.1106   28.3094 H   0  0  0  0  0  0
    7.5589   54.5052   26.7498 H   0  0  0  0  0  0
    6.8013   54.0943   22.0818 H   0  0  0  0  0  0
    6.4398   55.8108   22.3294 H   0  0  0  0  0  0
    8.1167   54.8983   24.0793 H   0  0  0  0  0  0
  1  2  1  0  0  0
  1 37  1  0  0  0
  1 38  1  0  0  0
  1 39  1  0  0  0
  2  3  1  0  0  0
  2  4  1  0  0  0
  3 40  1  0  0  0
  3 41  1  0  0  0
  3 42  1  0  0  0
  4  9  2  0  0  0
  4  5  1  0  0  0
  5  6  2  0  0  0
  5 43  1  0  0  0
  6  7  1  0  0  0
  6 44  1  0  0  0
  7  8  2  0  0  0
  7 10  1  0  0  0
  8  9  1  0  0  0
  8 45  1  0  0  0
  9 46  1  0  0  0
 10 11  1  0  0  0
 10 12  1  0  0  0
 10 28  1  0  0  0
 12 13  1  0  0  0
 12 47  1  0  0  0
 12 48  1  0  0  0
 13 14  1  0  0  0
 13 49  1  0  0  0
 14 15  2  0  0  0
 14 16  1  0  0  0
 16 17  1  0  0  0
 16 50  1  0  0  0
 16 51  1  0  0  0
 17 26  1  0  0  0
 17 18  1  0  0  0
 18 19  2  0  0  0
 18 20  1  0  0  0
 20 24  1  0  0  0
 20 21  1  0  0  0
 20 25  1  0  0  0
 21 22  1  0  0  0
 21 52  1  0  0  0
 21 53  1  0  0  0
 22 23  1  0  0  0
 22 54  1  0  0  0
 22 55  1  0  0  0
 23 24  1  0  0  0
 23 56  1  0  0  0
 23 57  1  0  0  0
 24 58  1  0  0  0
 24 59  1  0  0  0
 25 26  1  0  0  0
 25 60  1  0  0  0
 26 27  2  0  0  0
 28 36  1  0  0  0
 28 29  2  0  0  0
 29 34  1  0  0  0
 29 30  1  0  0  0
 30 31  2  0  0  0
 30 61  1  0  0  0
 31 32  1  0  0  0
 31 62  1  0  0  0
 32 33  2  0  0  0
 32 63  1  0  0  0
 33 34  1  0  0  0
 33 64  1  0  0  0
 34 35  2  0  0  0
 35 36  1  0  0  0
 35 67  1  0  0  0
 36 65  1  0  0  0
 36 66  1  0  0  0
M  CHG  1  35   1
M  END
> <i_i_glide_confnum>
29

> <i_i_glide_lignum>
4101

> <i_i_glide_posenum>
18

> <i_i_glide_rotatable_bonds>
8

> <i_m_Source_File_Index>
5648

> <b_m_subgroup_collapsed>
0

> <r_i_docking_score>
-6.51572

> <r_i_glide_ecoul>
-9.43519

> <r_i_glide_eff_state_penalty>
0

> <r_i_glide_einternal>
8.43941

> <r_i_glide_emodel>
-62.9359

> <r_i_glide_energy>
-45.9725

> <r_i_glide_erotb>
0.539096

> <r_i_glide_esite>
-0.112613

> <r_i_glide_evdw>
-36.5373

> <r_i_glide_gscore>
-6.51572

> <r_i_glide_hbond>
-0.430368

> <r_i_glide_ligand_efficiency>
-0.186163

> <r_i_glide_ligand_efficiency_ln>
-1.43035

> <r_i_glide_ligand_efficiency_sa>
-0.608953

> <r_i_glide_lipo>
-2.94797

> <r_i_glide_metal>
0

> <r_i_glide_rewards>
-0.321724

> <s_i_glide_gridfile>
wee1_glide-grid

> <s_m_Source_File>
wee1_decoys_glide_SP.sdf

> <s_m_Source_Path>
/Users/zhangxujun/Desktop

> <s_m_entry_id>
5923

> <s_m_entry_name>
wee1_decoys_glide_SP.5648

> <s_m_subgroup_title>
wee1_decoys_glide_SP

> <s_m_subgroupid>
wee1_decoys_glide_SP


$$$$
