ZINC09281664_4205
                    3D
 Schrodinger Suite 2024-2.
 59 65  0  0  1  0            999 V2000
    0.5200   51.6452   27.5148 C   0  0  0  0  0  0
    0.0811   50.4967   26.8719 C   0  0  0  0  0  0
   -1.1732   50.4764   26.2699 C   0  0  0  0  0  0
   -1.9820   51.6086   26.2233 C   0  0  0  0  0  0
   -1.5168   52.7523   26.8750 C   0  0  0  0  0  0
   -0.2887   52.7730   27.5395 C   0  0  0  0  0  0
   -3.3436   51.6049   25.5712 C   0  0  0  0  0  0
   -3.8134   51.0312   24.3415 C   0  0  0  0  0  0
   -5.1671   51.3027   24.3775 C   0  0  0  0  0  0
   -5.4272   52.0390   25.4850 N   0  0  0  0  0  0
   -6.3338   52.3908   25.7543 H   0  0  0  0  0  0
   -4.3223   52.2406   26.2021 N   0  0  0  0  0  0
   -6.1494   50.9265   23.4994 O   0  0  0  0  0  0
   -5.7027   50.1623   22.4657 C   0  0  0  0  0  0
   -4.4161   49.8099   22.2166 C   0  0  0  0  0  0
   -3.2460   50.2356   23.1403 C   0  0  2  0  0  0
   -2.4237   49.0851   23.5952 C   0  0  0  0  0  0
   -2.7660   47.9582   24.3484 C   0  0  0  0  0  0
   -1.7526   47.1139   24.7990 C   0  0  0  0  0  0
   -0.4260   47.4042   24.4818 C   0  0  0  0  0  0
   -0.0949   48.4967   23.6803 C   0  0  0  0  0  0
   -1.1125   49.3252   23.2273 C   0  0  0  0  0  0
   -1.0294   50.4828   22.4603 N   0  0  0  0  0  0
   -2.2354   51.0836   22.3344 C   0  0  0  0  0  0
   -2.4952   52.0967   21.6872 O   0  0  0  0  0  0
    0.1668   51.0007   21.7723 C   0  0  0  0  0  0
    1.0573   52.0051   22.5197 C   0  0  0  0  0  0
    0.6974   52.5138   23.7698 C   0  0  0  0  0  0
    1.5034   53.4264   24.4357 C   0  0  0  0  0  0
    2.6923   53.8671   23.8705 C   0  0  0  0  0  0
    3.1023   53.3880   22.6058 C   0  0  0  0  0  0
    2.2810   52.4413   21.9103 C   0  0  0  0  0  0
    2.7247   51.9860   20.6343 C   0  0  0  0  0  0
    3.9161   52.4501   20.0844 C   0  0  0  0  0  0
    4.7050   53.3637   20.7694 C   0  0  0  0  0  0
    4.3135   53.8324   22.0182 C   0  0  0  0  0  0
   -4.1332   48.9951   21.0757 C   0  0  0  0  0  0
   -3.9240   48.3267   20.1550 N   0  0  0  0  0  0
   -6.7941   49.8505   21.7006 N   0  0  0  0  0  0
    1.4801   51.6533   28.0092 H   0  0  0  0  0  0
    0.6799   49.5971   26.8788 H   0  0  0  0  0  0
   -1.5266   49.5389   25.8982 H   0  0  0  0  0  0
   -2.1199   53.6469   26.8700 H   0  0  0  0  0  0
    0.0405   53.6673   28.0497 H   0  0  0  0  0  0
   -3.7881   47.7714   24.6438 H   0  0  0  0  0  0
   -1.9831   46.2787   25.4441 H   0  0  0  0  0  0
    0.3690   46.8015   24.8816 H   0  0  0  0  0  0
    0.9432   48.7002   23.4570 H   0  0  0  0  0  0
    0.7885   50.1446   21.5098 H   0  0  0  0  0  0
   -0.1252   51.4669   20.8288 H   0  0  0  0  0  0
   -0.2221   52.2059   24.2401 H   0  0  0  0  0  0
    1.2006   53.7991   25.4020 H   0  0  0  0  0  0
    3.3095   54.5833   24.3947 H   0  0  0  0  0  0
    2.1364   51.2785   20.0697 H   0  0  0  0  0  0
    4.2340   52.0964   19.1131 H   0  0  0  0  0  0
    5.6239   53.7146   20.3226 H   0  0  0  0  0  0
    4.9294   54.5466   22.5456 H   0  0  0  0  0  0
   -6.7060   49.2371   20.9038 H   0  0  0  0  0  0
   -7.6326   50.4084   21.7697 H   0  0  0  0  0  0
  1  6  2  0  0  0
  1  2  1  0  0  0
  1 40  1  0  0  0
  2  3  2  0  0  0
  2 41  1  0  0  0
  3  4  1  0  0  0
  3 42  1  0  0  0
  4  5  2  0  0  0
  4  7  1  0  0  0
  5  6  1  0  0  0
  5 43  1  0  0  0
  6 44  1  0  0  0
  7 12  2  0  0  0
  7  8  1  0  0  0
  8 16  1  0  0  0
  8  9  2  0  0  0
  9 10  1  0  0  0
  9 13  1  0  0  0
 10 11  1  0  0  0
 10 12  1  0  0  0
 13 14  1  0  0  0
 14 15  2  0  0  0
 14 39  1  0  0  0
 15 16  1  0  0  0
 15 37  1  0  0  0
 16 24  1  0  0  0
 16 17  1  0  0  0
 17 22  2  0  0  0
 17 18  1  0  0  0
 18 19  2  0  0  0
 18 45  1  0  0  0
 19 20  1  0  0  0
 19 46  1  0  0  0
 20 21  2  0  0  0
 20 47  1  0  0  0
 21 22  1  0  0  0
 21 48  1  0  0  0
 22 23  1  0  0  0
 23 24  1  0  0  0
 23 26  1  0  0  0
 24 25  2  0  0  0
 26 27  1  0  0  0
 26 49  1  0  0  0
 26 50  1  0  0  0
 27 32  2  0  0  0
 27 28  1  0  0  0
 28 29  2  0  0  0
 28 51  1  0  0  0
 29 30  1  0  0  0
 29 52  1  0  0  0
 30 31  2  0  0  0
 30 53  1  0  0  0
 31 36  1  0  0  0
 31 32  1  0  0  0
 32 33  1  0  0  0
 33 34  2  0  0  0
 33 54  1  0  0  0
 34 35  1  0  0  0
 34 55  1  0  0  0
 35 36  2  0  0  0
 35 56  1  0  0  0
 36 57  1  0  0  0
 37 38  3  0  0  0
 39 58  1  0  0  0
 39 59  1  0  0  0
M  END
> <i_i_glide_confnum>
5

> <i_i_glide_lignum>
4206

> <i_i_glide_posenum>
267

> <i_i_glide_rotatable_bonds>
4

> <i_m_Source_File_Index>
1456

> <b_m_subgroup_collapsed>
0

> <r_i_docking_score>
-2.84164

> <r_i_glide_ecoul>
-3.08426

> <r_i_glide_eff_state_penalty>
0

> <r_i_glide_einternal>
1.71373

> <r_i_glide_emodel>
-37.887

> <r_i_glide_energy>
-31.207

> <r_i_glide_erotb>
0.249065

> <r_i_glide_esite>
-0.00204905

> <r_i_glide_evdw>
-28.1227

> <r_i_glide_gscore>
-2.84164

> <r_i_glide_hbond>
-0.0295156

> <r_i_glide_ligand_efficiency>
-0.07478

> <r_i_glide_ligand_efficiency_ln>
-0.612742

> <r_i_glide_ligand_efficiency_sa>
-0.251409

> <r_i_glide_lipo>
-1.15989

> <r_i_glide_metal>
0

> <r_i_glide_rewards>
-0.0304722

> <s_i_glide_gridfile>
wee1_glide-grid

> <s_m_Source_File>
wee1_decoys_glide_SP.sdf

> <s_m_Source_Path>
/Users/zhangxujun/Desktop

> <s_m_entry_id>
1731

> <s_m_entry_name>
wee1_decoys_glide_SP.1456

> <s_m_subgroup_title>
wee1_decoys_glide_SP

> <s_m_subgroupid>
wee1_decoys_glide_SP


$$$$
