ZINC35201758_4239
                    3D
 Schrodinger Suite 2024-2.
 73 78  0  0  1  0            999 V2000
   -5.2003   50.2538   31.6890 C   0  0  0  0  0  0
   -5.2553   50.4970   30.1934 C   0  0  0  0  0  0
   -6.4526   50.8714   29.5782 C   0  0  0  0  0  0
   -6.4873   51.1106   28.2046 C   0  0  0  0  0  0
   -5.3253   50.9843   27.4403 C   0  0  0  0  0  0
   -4.1131   50.6245   28.0514 C   0  0  0  0  0  0
   -4.0952   50.3727   29.4254 C   0  0  0  0  0  0
   -2.8962   50.4969   27.3544 N   0  0  0  0  0  0
   -2.4719   51.2854   26.3414 C   0  0  0  0  0  0
   -3.1478   52.2004   25.8668 O   0  0  0  0  0  0
   -1.0278   51.1019   25.8213 C   0  0  1  0  0  0
   -0.4517   51.8531   26.3657 H   0  0  0  0  0  0
   -0.3682   49.7069   26.0280 C   0  0  1  0  0  0
   -0.0275   49.4903   27.0370 H   0  0  0  0  0  0
   -1.0576   48.5683   25.2817 C   0  0  0  0  0  0
   -0.7926   48.7674   23.9775 C   0  0  0  0  0  0
   -0.0373   50.0879   23.9485 C   0  0  2  0  0  0
   -0.8919   51.2883   24.2855 C   0  0  2  0  0  0
   -1.8434   51.2519   23.7511 H   0  0  0  0  0  0
   -0.0926   52.5003   23.8027 C   0  0  0  0  0  0
   -0.3375   53.6723   24.0816 O   0  0  0  0  0  0
    0.8671   52.0206   22.9678 N   0  0  0  0  0  0
    0.8684   50.5519   22.8005 C   0  0  2  0  0  0
    1.8705   50.1384   22.9061 H   0  0  0  0  0  0
    0.3146   50.1368   21.4182 C   0  0  0  0  0  0
   -0.8768   50.3089   21.1487 O   0  0  0  0  0  0
    1.1795   49.5681   20.5599 N   0  0  0  0  0  0
    0.8270   49.1041   19.2136 C   0  0  2  0  0  0
   -0.0490   48.4605   19.3379 H   0  0  0  0  0  0
    1.8831   48.1293   18.6375 C   0  0  0  0  0  0
    1.5081   47.5633   17.2496 C   0  0  0  0  0  0
    1.0657   48.6604   16.2640 C   0  0  0  0  0  0
   -0.0601   49.5321   16.8540 C   0  0  1  0  0  0
   -0.8897   48.8713   17.1084 H   0  0  0  0  0  0
    0.4140   50.2007   18.1779 C   0  0  2  0  0  0
   -0.4781   50.6826   18.5795 H   0  0  0  0  0  0
    1.4971   51.2969   18.0198 C   0  0  0  0  0  0
   -0.5889   50.5436   15.8181 C   0  0  0  0  0  0
    1.6990   52.9397   22.1720 C   0  0  0  0  0  0
    2.9757   53.4126   22.8521 C   0  0  0  0  0  0
    4.2136   53.6747   22.2636 C   0  0  0  0  0  0
    5.2079   54.0961   23.1532 C   0  0  0  0  0  0
    4.7542   54.1594   24.4566 C   0  0  0  0  0  0
    3.0886   53.7027   24.5729 S   0  0  0  0  0  0
    0.7044   49.9398   25.1435 O   0  0  0  0  0  0
   -5.9112   50.8860   32.2247 H   0  0  0  0  0  0
   -4.2099   50.4956   32.0817 H   0  0  0  0  0  0
   -5.4180   49.2092   31.9150 H   0  0  0  0  0  0
   -7.3580   50.9707   30.1601 H   0  0  0  0  0  0
   -7.4141   51.3913   27.7265 H   0  0  0  0  0  0
   -5.3759   51.1678   26.3762 H   0  0  0  0  0  0
   -3.1662   50.0967   29.9086 H   0  0  0  0  0  0
   -2.2533   49.8070   27.7420 H   0  0  0  0  0  0
   -1.6273   47.7868   25.7650 H   0  0  0  0  0  0
   -1.1132   48.2043   23.1146 H   0  0  0  0  0  0
    2.1672   49.6011   20.7696 H   0  0  0  0  0  0
    2.8375   48.6488   18.5481 H   0  0  0  0  0  0
    2.0472   47.3014   19.3287 H   0  0  0  0  0  0
    2.3603   47.0219   16.8369 H   0  0  0  0  0  0
    0.7062   46.8324   17.3610 H   0  0  0  0  0  0
    1.9041   49.2882   15.9666 H   0  0  0  0  0  0
    0.7310   48.1992   15.3347 H   0  0  0  0  0  0
    2.4304   50.8963   17.6233 H   0  0  0  0  0  0
    1.1694   52.0963   17.3546 H   0  0  0  0  0  0
    1.7288   51.7659   18.9760 H   0  0  0  0  0  0
    0.2010   51.1931   15.4409 H   0  0  0  0  0  0
   -1.0219   50.0319   14.9576 H   0  0  0  0  0  0
   -1.3664   51.1769   16.2445 H   0  0  0  0  0  0
    1.9016   52.5005   21.1957 H   0  0  0  0  0  0
    1.1050   53.8244   21.9506 H   0  0  0  0  0  0
    4.3877   53.5640   21.2021 H   0  0  0  0  0  0
    6.2176   54.3427   22.8543 H   0  0  0  0  0  0
    5.3022   54.4453   25.3416 H   0  0  0  0  0  0
  1  2  1  0  0  0
  1 46  1  0  0  0
  1 47  1  0  0  0
  1 48  1  0  0  0
  2  7  2  0  0  0
  2  3  1  0  0  0
  3  4  2  0  0  0
  3 49  1  0  0  0
  4  5  1  0  0  0
  4 50  1  0  0  0
  5  6  2  0  0  0
  5 51  1  0  0  0
  6  7  1  0  0  0
  6  8  1  0  0  0
  7 52  1  0  0  0
  8  9  1  0  0  0
  8 53  1  0  0  0
  9 10  2  0  0  0
  9 11  1  0  0  0
 11 12  1  0  0  0
 11 18  1  0  0  0
 11 13  1  0  0  0
 13 14  1  0  0  0
 13 45  1  0  0  0
 13 15  1  0  0  0
 15 16  2  0  0  0
 15 54  1  0  0  0
 16 17  1  0  0  0
 16 55  1  0  0  0
 17 23  1  0  0  0
 17 18  1  0  0  0
 17 45  1  0  0  0
 18 19  1  0  0  0
 18 20  1  0  0  0
 20 21  2  0  0  0
 20 22  1  0  0  0
 22 23  1  0  0  0
 22 39  1  0  0  0
 23 24  1  0  0  0
 23 25  1  0  0  0
 25 26  2  0  0  0
 25 27  1  0  0  0
 27 28  1  0  0  0
 27 56  1  0  0  0
 28 29  1  0  0  0
 28 35  1  0  0  0
 28 30  1  0  0  0
 30 31  1  0  0  0
 30 57  1  0  0  0
 30 58  1  0  0  0
 31 32  1  0  0  0
 31 59  1  0  0  0
 31 60  1  0  0  0
 32 33  1  0  0  0
 32 61  1  0  0  0
 32 62  1  0  0  0
 33 34  1  0  0  0
 33 35  1  0  0  0
 33 38  1  0  0  0
 35 36  1  0  0  0
 35 37  1  0  0  0
 37 63  1  0  0  0
 37 64  1  0  0  0
 37 65  1  0  0  0
 38 66  1  0  0  0
 38 67  1  0  0  0
 38 68  1  0  0  0
 39 40  1  0  0  0
 39 69  1  0  0  0
 39 70  1  0  0  0
 40 44  1  0  0  0
 40 41  2  0  0  0
 41 42  1  0  0  0
 41 71  1  0  0  0
 42 43  2  0  0  0
 42 72  1  0  0  0
 43 44  1  0  0  0
 43 73  1  0  0  0
M  END
> <i_i_glide_confnum>
146

> <i_i_glide_lignum>
4240

> <i_i_glide_posenum>
224

> <i_i_glide_rotatable_bonds>
8

> <i_m_Source_File_Index>
627

> <b_m_subgroup_collapsed>
0

> <r_i_docking_score>
-4.15615

> <r_i_glide_ecoul>
-9.07194

> <r_i_glide_eff_state_penalty>
0

> <r_i_glide_einternal>
7.73588

> <r_i_glide_emodel>
-52.485

> <r_i_glide_energy>
-44.2359

> <r_i_glide_erotb>
0.579564

> <r_i_glide_esite>
-0.139796

> <r_i_glide_evdw>
-35.164

> <r_i_glide_gscore>
-4.15615

> <r_i_glide_hbond>
-0.16

> <r_i_glide_ligand_efficiency>
-0.109372

> <r_i_glide_ligand_efficiency_ln>
-0.896188

> <r_i_glide_ligand_efficiency_sa>
-0.367707

> <r_i_glide_lipo>
-1.16156

> <r_i_glide_metal>
0

> <r_i_glide_rewards>
-0.155367

> <s_i_glide_gridfile>
wee1_glide-grid

> <s_m_Source_File>
wee1_decoys_glide_SP.sdf

> <s_m_Source_Path>
/Users/zhangxujun/Desktop

> <s_m_entry_id>
902

> <s_m_entry_name>
wee1_decoys_glide_SP.627

> <s_m_subgroup_title>
wee1_decoys_glide_SP

> <s_m_subgroupid>
wee1_decoys_glide_SP


$$$$
