ZINC59447010_4459
                    3D
 Schrodinger Suite 2024-2.
 45 48  0  0  1  0            999 V2000
    4.3290   54.4966   20.3192 C   0  0  0  0  0  0
    3.7697   53.1298   20.5805 C   0  0  0  0  0  0
    3.1371   52.6132   21.7337 C   0  0  0  0  0  0
    2.9942   51.2769   21.4108 C   0  0  0  0  0  0
    3.4452   51.0890   20.1439 N   0  0  0  0  0  0
    3.4450   50.2240   19.6196 H   0  0  0  0  0  0
    3.9038   52.2286   19.6328 N   0  0  0  0  0  0
    2.4760   50.2712   22.1791 O   0  0  0  0  0  0
    1.8124   50.7435   23.2684 C   0  0  0  0  0  0
    1.8283   52.0199   23.7419 C   0  0  0  0  0  0
    2.7242   53.1432   23.1282 C   0  0  1  0  0  0
    2.0846   54.0159   22.9862 H   0  0  0  0  0  0
    3.9032   53.7164   23.9860 C   0  0  0  0  0  0
    5.2054   53.7829   23.4458 C   0  0  0  0  0  0
    6.2554   54.4047   24.1143 C   0  0  0  0  0  0
    6.0361   54.9732   25.3585 C   0  0  0  0  0  0
    4.7787   54.8865   25.9405 C   0  0  0  0  0  0
    3.7124   54.2373   25.2896 C   0  0  0  0  0  0
    2.4824   54.0630   25.8941 O   0  0  0  0  0  0
    2.1882   54.4967   27.2297 C   0  0  0  0  0  0
    2.5321   53.5307   28.3189 C   0  0  0  0  0  0
    1.6333   53.3900   29.3795 C   0  0  0  0  0  0
    2.0089   52.6636   30.4946 C   0  0  0  0  0  0
    3.2794   52.1079   30.5209 C   0  0  0  0  0  0
    4.1413   52.1733   29.4433 C   0  0  0  0  0  0
    3.7694   52.8963   28.3309 C   0  0  0  0  0  0
    3.9044   51.3025   32.0817 Br  0  0  0  0  0  0
    0.8568   52.3286   24.7424 C   0  0  0  0  0  0
    0.0115   52.4967   25.5149 N   0  0  0  0  0  0
    1.1039   49.6966   23.7892 N   0  0  0  0  0  0
    4.3045   55.1135   21.2164 H   0  0  0  0  0  0
    3.7748   55.0208   19.5405 H   0  0  0  0  0  0
    5.3703   54.4541   19.9981 H   0  0  0  0  0  0
    5.4452   53.3521   22.4892 H   0  0  0  0  0  0
    7.2376   54.4467   23.6652 H   0  0  0  0  0  0
    6.8415   55.4612   25.8847 H   0  0  0  0  0  0
    4.6703   55.2986   26.9297 H   0  0  0  0  0  0
    2.6395   55.4603   27.4627 H   0  0  0  0  0  0
    1.1140   54.6806   27.2808 H   0  0  0  0  0  0
    0.6698   53.8798   29.3672 H   0  0  0  0  0  0
    1.3480   52.5788   31.3465 H   0  0  0  0  0  0
    5.1044   51.6965   29.4823 H   0  0  0  0  0  0
    4.4635   52.9563   27.5103 H   0  0  0  0  0  0
    0.4698   49.8542   24.5598 H   0  0  0  0  0  0
    1.4803   48.7621   23.7047 H   0  0  0  0  0  0
  1  2  1  0  0  0
  1 31  1  0  0  0
  1 32  1  0  0  0
  1 33  1  0  0  0
  2  7  2  0  0  0
  2  3  1  0  0  0
  3 11  1  0  0  0
  3  4  2  0  0  0
  4  5  1  0  0  0
  4  8  1  0  0  0
  5  6  1  0  0  0
  5  7  1  0  0  0
  8  9  1  0  0  0
  9 10  2  0  0  0
  9 30  1  0  0  0
 10 11  1  0  0  0
 10 28  1  0  0  0
 11 12  1  0  0  0
 11 13  1  0  0  0
 13 18  2  0  0  0
 13 14  1  0  0  0
 14 15  2  0  0  0
 14 34  1  0  0  0
 15 16  1  0  0  0
 15 35  1  0  0  0
 16 17  2  0  0  0
 16 36  1  0  0  0
 17 18  1  0  0  0
 17 37  1  0  0  0
 18 19  1  0  0  0
 19 20  1  0  0  0
 20 21  1  0  0  0
 20 38  1  0  0  0
 20 39  1  0  0  0
 21 26  2  0  0  0
 21 22  1  0  0  0
 22 23  2  0  0  0
 22 40  1  0  0  0
 23 24  1  0  0  0
 23 41  1  0  0  0
 24 25  2  0  0  0
 24 27  1  0  0  0
 25 26  1  0  0  0
 25 42  1  0  0  0
 26 43  1  0  0  0
 28 29  3  0  0  0
 30 44  1  0  0  0
 30 45  1  0  0  0
M  END
> <i_i_glide_confnum>
63

> <i_i_glide_lignum>
4460

> <i_i_glide_posenum>
322

> <i_i_glide_rotatable_bonds>
5

> <i_m_Source_File_Index>
4873

> <b_m_subgroup_collapsed>
0

> <r_i_docking_score>
-5.08656

> <r_i_glide_ecoul>
-2.76977

> <r_i_glide_eff_state_penalty>
0

> <r_i_glide_einternal>
7.04421

> <r_i_glide_emodel>
-28.2606

> <r_i_glide_energy>
-22.3075

> <r_i_glide_erotb>
0.417109

> <r_i_glide_esite>
-0.0806924

> <r_i_glide_evdw>
-19.5377

> <r_i_glide_gscore>
-5.08656

> <r_i_glide_hbond>
-0.246339

> <r_i_glide_ligand_efficiency>
-0.181663

> <r_i_glide_ligand_efficiency_ln>
-1.17413

> <r_i_glide_ligand_efficiency_sa>
-0.551636

> <r_i_glide_lipo>
-3.06265

> <r_i_glide_metal>
0

> <r_i_glide_rewards>
-0.721641

> <s_i_glide_gridfile>
wee1_glide-grid

> <s_m_Source_File>
wee1_decoys_glide_SP.sdf

> <s_m_Source_Path>
/Users/zhangxujun/Desktop

> <s_m_entry_id>
5148

> <s_m_entry_name>
wee1_decoys_glide_SP.4873

> <s_m_subgroup_title>
wee1_decoys_glide_SP

> <s_m_subgroupid>
wee1_decoys_glide_SP


$$$$
