ZINC21657394_1529
                    3D
 Schrodinger Suite 2024-2.
 47 50  0  0  1  0            999 V2000
   -1.9737   50.0028   25.0396 C   0  0  0  0  0  0
   -1.2260   51.1017   25.7835 C   0  0  0  0  0  0
   -0.8507   52.0993   25.1667 O   0  0  0  0  0  0
   -1.0387   50.8963   27.1010 N   0  0  0  0  0  0
   -0.3305   51.7045   27.9957 C   0  0  0  0  0  0
   -0.7925   51.7531   29.3080 C   0  0  0  0  0  0
   -0.0993   52.4893   30.2608 C   0  0  0  0  0  0
    1.0800   53.1435   29.9168 C   0  0  0  0  0  0
    1.6026   53.0753   28.6072 C   0  0  0  0  0  0
    0.8558   52.3663   27.6500 C   0  0  0  0  0  0
    2.8813   53.6040   28.2389 N   0  0  0  0  0  0
    3.5227   53.2987   26.9597 C   0  0  0  0  0  0
    4.9946   53.6936   27.0839 C   0  0  2  0  0  0
    5.5928   52.7837   27.1585 H   0  0  0  0  0  0
    5.0683   54.4738   28.3702 C   0  0  0  0  0  0
    3.6867   54.3775   29.0128 C   0  0  0  0  0  0
    3.4102   54.8959   30.0805 O   0  0  0  0  0  0
    5.6143   54.3993   25.8478 C   0  0  0  0  0  0
    6.6004   55.1250   25.9968 O   0  0  0  0  0  0
    5.0648   54.0966   24.6526 N   0  0  0  0  0  0
    5.4715   54.4303   23.3500 C   0  0  0  0  0  0
    4.5629   54.0965   22.3243 C   0  0  0  0  0  0
    4.8497   54.3763   20.9811 C   0  0  0  0  0  0
    6.0675   54.9808   20.6984 C   0  0  0  0  0  0
    6.9607   55.2960   21.6826 C   0  0  0  0  0  0
    6.7035   55.0379   23.0246 C   0  0  0  0  0  0
    8.0458   55.8940   21.1256 O   0  0  0  0  0  0
    7.9107   55.6992   19.7438 C   0  0  0  0  0  0
    6.5709   55.3665   19.4955 O   0  0  0  0  0  0
   -2.0583   49.0959   25.6407 H   0  0  0  0  0  0
   -1.4522   49.7518   24.1157 H   0  0  0  0  0  0
   -2.9778   50.3420   24.7866 H   0  0  0  0  0  0
   -1.4104   50.0365   27.5028 H   0  0  0  0  0  0
   -1.6839   51.2135   29.5999 H   0  0  0  0  0  0
   -0.4640   52.5210   31.2780 H   0  0  0  0  0  0
    1.5786   53.6519   30.7223 H   0  0  0  0  0  0
    1.2121   52.2759   26.6358 H   0  0  0  0  0  0
    3.4140   52.2279   26.8487 H   0  0  0  0  0  0
    2.9861   53.8520   26.1865 H   0  0  0  0  0  0
    5.4176   55.4957   28.2587 H   0  0  0  0  0  0
    5.7734   53.9990   29.0529 H   0  0  0  0  0  0
    4.2400   53.5183   24.6879 H   0  0  0  0  0  0
    3.6177   53.6290   22.5595 H   0  0  0  0  0  0
    4.1409   54.1317   20.2018 H   0  0  0  0  0  0
    7.4367   55.3031   23.7691 H   0  0  0  0  0  0
    8.5547   54.8729   19.4337 H   0  0  0  0  0  0
    8.2014   56.5930   19.1908 H   0  0  0  0  0  0
  1  2  1  0  0  0
  1 30  1  0  0  0
  1 31  1  0  0  0
  1 32  1  0  0  0
  2  3  2  0  0  0
  2  4  1  0  0  0
  4  5  1  0  0  0
  4 33  1  0  0  0
  5 10  2  0  0  0
  5  6  1  0  0  0
  6  7  2  0  0  0
  6 34  1  0  0  0
  7  8  1  0  0  0
  7 35  1  0  0  0
  8  9  2  0  0  0
  8 36  1  0  0  0
  9 10  1  0  0  0
  9 11  1  0  0  0
 10 37  1  0  0  0
 11 16  1  0  0  0
 11 12  1  0  0  0
 12 13  1  0  0  0
 12 38  1  0  0  0
 12 39  1  0  0  0
 13 14  1  0  0  0
 13 15  1  0  0  0
 13 18  1  0  0  0
 15 16  1  0  0  0
 15 40  1  0  0  0
 15 41  1  0  0  0
 16 17  2  0  0  0
 18 19  2  0  0  0
 18 20  1  0  0  0
 20 21  1  0  0  0
 20 42  1  0  0  0
 21 26  2  0  0  0
 21 22  1  0  0  0
 22 23  2  0  0  0
 22 43  1  0  0  0
 23 24  1  0  0  0
 23 44  1  0  0  0
 24 29  1  0  0  0
 24 25  2  0  0  0
 25 26  1  0  0  0
 25 27  1  0  0  0
 26 45  1  0  0  0
 27 28  1  0  0  0
 28 29  1  0  0  0
 28 46  1  0  0  0
 28 47  1  0  0  0
M  END
> <i_i_glide_confnum>
15

> <i_i_glide_lignum>
1530

> <i_i_glide_posenum>
114

> <i_i_glide_rotatable_bonds>
6

> <i_m_Source_File_Index>
4675

> <b_m_subgroup_collapsed>
0

> <r_i_docking_score>
-7.74998

> <r_i_glide_ecoul>
-12.4269

> <r_i_glide_eff_state_penalty>
0

> <r_i_glide_einternal>
7.05333

> <r_i_glide_emodel>
-71.5369

> <r_i_glide_energy>
-51.4978

> <r_i_glide_erotb>
0.667246

> <r_i_glide_esite>
-0.126062

> <r_i_glide_evdw>
-39.0709

> <r_i_glide_gscore>
-7.74998

> <r_i_glide_hbond>
-0.672653

> <r_i_glide_ligand_efficiency>
-0.276785

> <r_i_glide_ligand_efficiency_ln>
-1.78892

> <r_i_glide_ligand_efficiency_sa>
-0.840483

> <r_i_glide_lipo>
-1.86948

> <r_i_glide_metal>
0

> <r_i_glide_rewards>
-1.93146

> <s_i_glide_gridfile>
wee1_glide-grid

> <s_m_Source_File>
wee1_decoys_glide_SP.sdf

> <s_m_Source_Path>
/Users/zhangxujun/Desktop

> <s_m_entry_id>
4950

> <s_m_entry_name>
wee1_decoys_glide_SP.4675

> <s_m_subgroup_title>
wee1_decoys_glide_SP

> <s_m_subgroupid>
wee1_decoys_glide_SP


$$$$
