ZINC16054892_5583
                    3D
 Schrodinger Suite 2024-2.
 54 56  0  0  1  0            999 V2000
   -2.0127   46.6531   24.8743 C   0  0  0  0  0  0
   -1.2352   47.8586   24.3813 C   0  0  0  0  0  0
   -0.3284   48.4967   25.2282 C   0  0  0  0  0  0
    0.3942   49.5933   24.7763 C   0  0  0  0  0  0
    0.1796   50.0811   23.4837 C   0  0  0  0  0  0
   -0.7354   49.4463   22.6336 C   0  0  0  0  0  0
   -1.4321   48.3270   23.0810 C   0  0  0  0  0  0
    0.8362   51.2761   23.0795 N   0  0  0  0  0  0
    1.9921   51.1855   22.2955 C   0  0  0  0  0  0
    2.7438   52.3029   22.0511 C   0  0  0  0  0  0
    2.5013   53.6232   22.8212 C   0  0  1  0  0  0
    2.6411   54.4715   22.1469 H   0  0  0  0  0  0
    1.0980   53.5952   23.2759 N   0  0  0  0  0  0
    0.2915   52.5037   23.4398 C   0  0  0  0  0  0
   -1.2273   52.7913   24.0817 S   0  0  0  0  0  0
    3.5328   53.9054   23.9329 C   0  0  0  0  0  0
    4.8170   54.3391   23.5894 C   0  0  0  0  0  0
    5.7723   54.5895   24.5697 C   0  0  0  0  0  0
    5.4631   54.4251   25.9192 C   0  0  0  0  0  0
    4.1718   54.0048   26.3000 C   0  0  0  0  0  0
    3.2317   53.7281   25.2918 C   0  0  0  0  0  0
    3.7900   53.7874   27.7166 N   0  3  0  0  0  0
    4.2555   54.5192   28.5839 O   0  0  0  0  0  0
    2.9800   52.8992   27.9647 O   0  5  0  0  0  0
    6.7314   54.7195   27.0601 Cl  0  0  0  0  0  0
    3.9215   52.3008   21.1767 C   0  0  0  0  0  0
    4.8294   51.4794   21.2820 O   0  0  0  0  0  0
    3.8951   53.2967   20.2614 O   0  0  0  0  0  0
    4.9088   53.3845   19.2649 C   0  0  0  0  0  0
    4.5621   54.3979   18.1701 C   0  0  0  0  0  0
    4.7109   55.7219   18.6613 O   0  0  0  0  0  0
    4.4483   56.7103   17.6755 C   0  0  0  0  0  0
    2.2712   49.8074   21.6500 C   0  0  0  0  0  0
   -1.6652   46.3129   25.8511 H   0  0  0  0  0  0
   -3.0733   46.8950   24.9459 H   0  0  0  0  0  0
   -1.9033   45.8294   24.1703 H   0  0  0  0  0  0
   -0.1858   48.1450   26.2407 H   0  0  0  0  0  0
    1.0880   50.0820   25.4440 H   0  0  0  0  0  0
   -0.9201   49.8303   21.6408 H   0  0  0  0  0  0
   -2.1395   47.8400   22.4259 H   0  0  0  0  0  0
    0.6806   54.4565   23.5966 H   0  0  0  0  0  0
    5.0837   54.4858   22.5526 H   0  0  0  0  0  0
    6.7628   54.9075   24.2757 H   0  0  0  0  0  0
    2.2507   53.3762   25.5781 H   0  0  0  0  0  0
    5.9184   53.5204   19.6521 H   0  0  0  0  0  0
    4.9159   52.4160   18.7701 H   0  0  0  0  0  0
    5.2301   54.2359   17.3220 H   0  0  0  0  0  0
    3.5462   54.2242   17.8089 H   0  0  0  0  0  0
    4.6638   57.6964   18.0818 H   0  0  0  0  0  0
    5.0778   56.5793   16.7935 H   0  0  0  0  0  0
    3.4021   56.6928   17.3654 H   0  0  0  0  0  0
    3.1045   49.7858   20.9522 H   0  0  0  0  0  0
    2.4838   49.0628   22.4186 H   0  0  0  0  0  0
    1.4143   49.4671   21.0695 H   0  0  0  0  0  0
  1  2  1  0  0  0
  1 34  1  0  0  0
  1 35  1  0  0  0
  1 36  1  0  0  0
  2  7  2  0  0  0
  2  3  1  0  0  0
  3  4  2  0  0  0
  3 37  1  0  0  0
  4  5  1  0  0  0
  4 38  1  0  0  0
  5  6  2  0  0  0
  5  8  1  0  0  0
  6  7  1  0  0  0
  6 39  1  0  0  0
  7 40  1  0  0  0
  8 14  1  0  0  0
  8  9  1  0  0  0
  9 10  2  0  0  0
  9 33  1  0  0  0
 10 11  1  0  0  0
 10 26  1  0  0  0
 11 12  1  0  0  0
 11 13  1  0  0  0
 11 16  1  0  0  0
 13 14  1  0  0  0
 13 41  1  0  0  0
 14 15  2  0  0  0
 16 21  2  0  0  0
 16 17  1  0  0  0
 17 18  2  0  0  0
 17 42  1  0  0  0
 18 19  1  0  0  0
 18 43  1  0  0  0
 19 20  2  0  0  0
 19 25  1  0  0  0
 20 21  1  0  0  0
 20 22  1  0  0  0
 21 44  1  0  0  0
 22 23  2  0  0  0
 22 24  1  0  0  0
 26 27  2  0  0  0
 26 28  1  0  0  0
 28 29  1  0  0  0
 29 30  1  0  0  0
 29 45  1  0  0  0
 29 46  1  0  0  0
 30 31  1  0  0  0
 30 47  1  0  0  0
 30 48  1  0  0  0
 31 32  1  0  0  0
 32 49  1  0  0  0
 32 50  1  0  0  0
 32 51  1  0  0  0
 33 52  1  0  0  0
 33 53  1  0  0  0
 33 54  1  0  0  0
M  CHG  2  22   1  24  -1
M  END
> <i_i_glide_confnum>
17

> <i_i_glide_lignum>
5584

> <i_i_glide_posenum>
316

> <i_i_glide_rotatable_bonds>
8

> <i_m_Source_File_Index>
2070

> <b_m_subgroup_collapsed>
0

> <r_i_docking_score>
-5.69579

> <r_i_glide_ecoul>
-4.27428

> <r_i_glide_eff_state_penalty>
0

> <r_i_glide_einternal>
3.00086

> <r_i_glide_emodel>
-61.7132

> <r_i_glide_energy>
-47.5397

> <r_i_glide_erotb>
0.536263

> <r_i_glide_esite>
0

> <r_i_glide_evdw>
-43.2654

> <r_i_glide_gscore>
-5.69579

> <r_i_glide_hbond>
0

> <r_i_glide_ligand_efficiency>
-0.177994

> <r_i_glide_ligand_efficiency_ln>
-1.27544

> <r_i_glide_ligand_efficiency_sa>
-0.565094

> <r_i_glide_lipo>
-2.39195

> <r_i_glide_metal>
0

> <r_i_glide_rewards>
-1.0357

> <s_i_glide_gridfile>
wee1_glide-grid

> <s_m_Source_File>
wee1_decoys_glide_SP.sdf

> <s_m_Source_Path>
/Users/zhangxujun/Desktop

> <s_m_entry_id>
2345

> <s_m_entry_name>
wee1_decoys_glide_SP.2070

> <s_m_subgroup_title>
wee1_decoys_glide_SP

> <s_m_subgroupid>
wee1_decoys_glide_SP


$$$$
