ZINC39606422_629
                    3D
 Schrodinger Suite 2024-2.
 68 71  0  0  1  0            999 V2000
    1.3513   52.0476   19.0037 C   0  0  0  0  0  0
    2.0202   50.7698   18.4679 C   0  0  0  0  0  0
    1.6511   49.4665   19.2223 C   0  0  1  0  0  0
    0.5649   49.3729   19.2016 H   0  0  0  0  0  0
    2.1947   48.2274   18.4810 C   0  0  0  0  0  0
    2.1248   49.4566   20.6988 C   0  0  0  0  0  0
    1.2900   50.2141   21.6328 N   0  0  0  0  0  0
    0.0599   49.8469   22.0355 C   0  0  0  0  0  0
   -0.5018   48.8422   21.6009 O   0  0  0  0  0  0
   -0.6205   50.6597   23.1682 C   0  0  2  0  0  0
   -1.6878   50.4896   23.0478 H   0  0  0  0  0  0
   -0.3565   52.1796   23.1004 C   0  0  0  0  0  0
    0.7926   52.3882   23.9938 N   0  0  0  0  0  0
    1.1047   51.1738   24.7430 C   0  0  0  0  0  0
   -0.1120   50.2477   24.5830 C   0  0  0  0  0  0
    0.2866   48.7755   24.8684 C   0  0  0  0  0  0
   -0.9129   47.8225   24.6999 C   0  0  0  0  0  0
   -2.0201   48.2583   25.6817 N   0  3  0  0  0  0
   -2.4108   49.7507   25.6130 C   0  0  0  0  0  0
   -1.1217   50.5932   25.7167 C   0  0  0  0  0  0
    1.4885   53.5541   24.0001 C   0  0  0  0  0  0
    1.1568   54.4940   23.2820 O   0  0  0  0  0  0
    2.7562   53.7285   24.8098 C   0  0  0  0  0  0
    3.9143   54.0968   24.1031 C   0  0  0  0  0  0
    5.0806   54.4486   24.7798 C   0  0  0  0  0  0
    5.0614   54.4414   26.1692 C   0  0  0  0  0  0
    3.9625   54.0962   26.8786 N   0  0  0  0  0  0
    2.8315   53.7104   26.2270 C   0  0  0  0  0  0
    1.4073   53.3205   27.2420 S   0  0  0  0  0  0
    1.9046   52.8748   28.8906 C   0  0  0  0  0  0
    0.9134   52.9016   29.8745 C   0  0  0  0  0  0
    1.2066   52.4971   31.1722 C   0  0  0  0  0  0
    2.5042   52.0967   31.4834 C   0  0  0  0  0  0
    3.5051   52.0960   30.5193 C   0  0  0  0  0  0
    3.1938   52.4350   29.2100 C   0  0  0  0  0  0
    1.5568   52.8956   18.3503 H   0  0  0  0  0  0
    1.7201   52.3156   19.9936 H   0  0  0  0  0  0
    0.2697   51.9356   19.0673 H   0  0  0  0  0  0
    1.7458   50.6603   17.4168 H   0  0  0  0  0  0
    3.1036   50.9005   18.4677 H   0  0  0  0  0  0
    3.2843   48.1856   18.5073 H   0  0  0  0  0  0
    1.8224   47.3034   18.9238 H   0  0  0  0  0  0
    1.8971   48.2265   17.4324 H   0  0  0  0  0  0
    2.1956   48.4304   21.0679 H   0  0  0  0  0  0
    3.1429   49.8417   20.7561 H   0  0  0  0  0  0
    1.6867   51.0585   22.0177 H   0  0  0  0  0  0
   -0.2031   52.5054   22.0695 H   0  0  0  0  0  0
   -1.2292   52.6993   23.4995 H   0  0  0  0  0  0
    1.3943   51.2967   25.7798 H   0  0  0  0  0  0
    1.9488   50.7048   24.2401 H   0  0  0  0  0  0
    1.0783   48.4787   24.1822 H   0  0  0  0  0  0
    0.7278   48.6611   25.8605 H   0  0  0  0  0  0
   -1.3630   47.8445   23.7094 H   0  0  0  0  0  0
   -0.6660   46.7934   24.9565 H   0  0  0  0  0  0
   -2.8424   47.6828   25.5718 H   0  0  0  0  0  0
   -2.9729   49.8920   24.6903 H   0  0  0  0  0  0
   -3.0755   49.9199   26.4625 H   0  0  0  0  0  0
   -0.6673   50.4637   26.7036 H   0  0  0  0  0  0
   -1.3937   51.6498   25.6762 H   0  0  0  0  0  0
    3.9059   54.1476   23.0228 H   0  0  0  0  0  0
    5.9686   54.7354   24.2357 H   0  0  0  0  0  0
    5.9339   54.7223   26.7400 H   0  0  0  0  0  0
   -0.0926   53.2090   29.6289 H   0  0  0  0  0  0
    0.4332   52.4875   31.9299 H   0  0  0  0  0  0
    2.7366   51.7752   32.4819 H   0  0  0  0  0  0
    4.5055   51.7731   30.7696 H   0  0  0  0  0  0
    3.9637   52.3197   28.4681 H   0  0  0  0  0  0
   -1.6957   48.0966   26.6420 H   0  0  0  0  0  0
  1  2  1  0  0  0
  1 36  1  0  0  0
  1 37  1  0  0  0
  1 38  1  0  0  0
  2  3  1  0  0  0
  2 39  1  0  0  0
  2 40  1  0  0  0
  3  4  1  0  0  0
  3  5  1  0  0  0
  3  6  1  0  0  0
  5 41  1  0  0  0
  5 42  1  0  0  0
  5 43  1  0  0  0
  6  7  1  0  0  0
  6 44  1  0  0  0
  6 45  1  0  0  0
  7  8  1  0  0  0
  7 46  1  0  0  0
  8  9  2  0  0  0
  8 10  1  0  0  0
 10 11  1  0  0  0
 10 15  1  0  0  0
 10 12  1  0  0  0
 12 13  1  0  0  0
 12 47  1  0  0  0
 12 48  1  0  0  0
 13 14  1  0  0  0
 13 21  1  0  0  0
 14 15  1  0  0  0
 14 49  1  0  0  0
 14 50  1  0  0  0
 15 20  1  0  0  0
 15 16  1  0  0  0
 16 17  1  0  0  0
 16 51  1  0  0  0
 16 52  1  0  0  0
 17 18  1  0  0  0
 17 53  1  0  0  0
 17 54  1  0  0  0
 18 19  1  0  0  0
 18 55  1  0  0  0
 18 68  1  0  0  0
 19 20  1  0  0  0
 19 56  1  0  0  0
 19 57  1  0  0  0
 20 58  1  0  0  0
 20 59  1  0  0  0
 21 22  2  0  0  0
 21 23  1  0  0  0
 23 28  2  0  0  0
 23 24  1  0  0  0
 24 25  2  0  0  0
 24 60  1  0  0  0
 25 26  1  0  0  0
 25 61  1  0  0  0
 26 27  2  0  0  0
 26 62  1  0  0  0
 27 28  1  0  0  0
 28 29  1  0  0  0
 29 30  1  0  0  0
 30 35  2  0  0  0
 30 31  1  0  0  0
 31 32  2  0  0  0
 31 63  1  0  0  0
 32 33  1  0  0  0
 32 64  1  0  0  0
 33 34  2  0  0  0
 33 65  1  0  0  0
 34 35  1  0  0  0
 34 66  1  0  0  0
 35 67  1  0  0  0
M  CHG  1  18   1
M  END
> <i_i_glide_confnum>
183

> <i_i_glide_lignum>
630

> <i_i_glide_posenum>
258

> <i_i_glide_rotatable_bonds>
9

> <i_m_Source_File_Index>
4420

> <b_m_subgroup_collapsed>
0

> <r_i_docking_score>
-5.59177

> <r_i_glide_ecoul>
-6.42108

> <r_i_glide_eff_state_penalty>
0

> <r_i_glide_einternal>
9.72051

> <r_i_glide_emodel>
-61.5498

> <r_i_glide_energy>
-47.6819

> <r_i_glide_erotb>
0.738343

> <r_i_glide_esite>
-0.1

> <r_i_glide_evdw>
-41.2608

> <r_i_glide_gscore>
-5.59177

> <r_i_glide_hbond>
-0.2

> <r_i_glide_ligand_efficiency>
-0.169447

> <r_i_glide_ligand_efficiency_ln>
-1.24358

> <r_i_glide_ligand_efficiency_sa>
-0.543509

> <r_i_glide_lipo>
-2.13333

> <r_i_glide_metal>
0

> <r_i_glide_rewards>
-0.870574

> <s_i_glide_gridfile>
wee1_glide-grid

> <s_m_Source_File>
wee1_decoys_glide_SP.sdf

> <s_m_Source_Path>
/Users/zhangxujun/Desktop

> <s_m_entry_id>
4695

> <s_m_entry_name>
wee1_decoys_glide_SP.4420

> <s_m_subgroup_title>
wee1_decoys_glide_SP

> <s_m_subgroupid>
wee1_decoys_glide_SP


$$$$
