ZINC39883305_949
                    3D
 Schrodinger Suite 2024-2.
 57 61  0  0  1  0            999 V2000
    4.6939   54.1074   27.8753 C   0  0  0  0  0  0
    5.9504   54.2508   27.2840 C   0  0  0  0  0  0
    5.9804   54.3546   25.8887 C   0  0  0  0  0  0
    4.8178   54.3055   25.0832 C   0  0  0  0  0  0
    3.5708   54.1527   25.7116 C   0  0  0  0  0  0
    3.5279   54.0694   27.1056 C   0  0  0  0  0  0
    1.8407   53.9138   27.9686 Br  0  0  0  0  0  0
    5.2740   54.4475   23.7287 C   0  0  0  0  0  0
    6.6570   54.5529   23.8353 C   0  0  0  0  0  0
    7.0976   54.5135   25.1248 O   0  0  0  0  0  0
    4.4240   54.4968   22.4675 C   0  0  0  0  0  0
    4.0953   53.1103   21.9039 C   0  0  0  0  0  0
    5.0180   52.3264   21.6786 O   0  0  0  0  0  0
    2.7815   52.8444   21.7241 N   0  0  0  0  0  0
    2.2016   51.7063   21.1581 C   0  0  0  0  0  0
    0.8547   51.2974   21.2643 C   0  0  0  0  0  0
    0.5671   50.1811   20.4300 C   0  0  0  0  0  0
    1.7124   49.6856   19.7959 C   0  0  0  0  0  0
    3.1043   50.6445   20.1164 S   0  0  0  0  0  0
    1.7882   48.4137   18.9662 C   0  0  0  0  0  0
    0.3662   47.9806   18.5584 C   0  0  0  0  0  0
   -0.6082   48.0329   19.7457 C   0  0  0  0  0  0
   -0.7863   49.4679   20.2907 C   0  0  0  0  0  0
   -0.1557   51.9658   22.0583 C   0  0  0  0  0  0
   -1.3188   52.0965   21.6710 O   0  0  0  0  0  0
    0.2755   52.3680   23.2660 N   0  0  0  0  0  0
   -0.5881   52.8985   24.3203 C   0  0  0  0  0  0
   -1.5533   51.8517   24.9302 C   0  0  2  0  0  0
   -2.3458   51.5702   24.2328 H   0  0  0  0  0  0
   -2.1095   52.2154   26.3142 C   0  0  0  0  0  0
   -1.2607   51.4233   27.2802 C   0  0  0  0  0  0
   -1.0070   50.1557   26.4816 C   0  0  0  0  0  0
   -0.7965   50.6524   25.1671 O   0  0  0  0  0  0
    4.6206   54.0341   28.9512 H   0  0  0  0  0  0
    6.8529   54.2891   27.8752 H   0  0  0  0  0  0
    2.6627   54.1061   25.1313 H   0  0  0  0  0  0
    7.4278   54.6656   23.0861 H   0  0  0  0  0  0
    3.5091   55.0714   22.6294 H   0  0  0  0  0  0
    4.9593   55.0146   21.6708 H   0  0  0  0  0  0
    2.1277   53.5175   22.0947 H   0  0  0  0  0  0
    2.4105   48.5564   18.0819 H   0  0  0  0  0  0
    2.2550   47.6257   19.5567 H   0  0  0  0  0  0
    0.0008   48.6258   17.7570 H   0  0  0  0  0  0
    0.3969   46.9720   18.1452 H   0  0  0  0  0  0
   -1.5796   47.6352   19.4492 H   0  0  0  0  0  0
   -0.2461   47.3804   20.5430 H   0  0  0  0  0  0
   -1.3166   49.4287   21.2428 H   0  0  0  0  0  0
   -1.4259   50.0429   19.6213 H   0  0  0  0  0  0
    1.2065   52.0956   23.5484 H   0  0  0  0  0  0
    0.0595   53.2949   25.1037 H   0  0  0  0  0  0
   -1.1584   53.7462   23.9393 H   0  0  0  0  0  0
   -2.1224   53.2875   26.5023 H   0  0  0  0  0  0
   -3.1385   51.8614   26.3915 H   0  0  0  0  0  0
   -0.3211   51.9320   27.4932 H   0  0  0  0  0  0
   -1.7600   51.2196   28.2293 H   0  0  0  0  0  0
   -0.1381   49.5967   26.8324 H   0  0  0  0  0  0
   -1.8598   49.4750   26.4816 H   0  0  0  0  0  0
  1  6  2  0  0  0
  1  2  1  0  0  0
  1 34  1  0  0  0
  2  3  2  0  0  0
  2 35  1  0  0  0
  3 10  1  0  0  0
  3  4  1  0  0  0
  4  5  2  0  0  0
  4  8  1  0  0  0
  5  6  1  0  0  0
  5 36  1  0  0  0
  6  7  1  0  0  0
  8  9  2  0  0  0
  8 11  1  0  0  0
  9 10  1  0  0  0
  9 37  1  0  0  0
 11 12  1  0  0  0
 11 38  1  0  0  0
 11 39  1  0  0  0
 12 13  2  0  0  0
 12 14  1  0  0  0
 14 15  1  0  0  0
 14 40  1  0  0  0
 15 19  1  0  0  0
 15 16  2  0  0  0
 16 17  1  0  0  0
 16 24  1  0  0  0
 17 23  1  0  0  0
 17 18  2  0  0  0
 18 19  1  0  0  0
 18 20  1  0  0  0
 20 21  1  0  0  0
 20 41  1  0  0  0
 20 42  1  0  0  0
 21 22  1  0  0  0
 21 43  1  0  0  0
 21 44  1  0  0  0
 22 23  1  0  0  0
 22 45  1  0  0  0
 22 46  1  0  0  0
 23 47  1  0  0  0
 23 48  1  0  0  0
 24 25  2  0  0  0
 24 26  1  0  0  0
 26 27  1  0  0  0
 26 49  1  0  0  0
 27 28  1  0  0  0
 27 50  1  0  0  0
 27 51  1  0  0  0
 28 29  1  0  0  0
 28 33  1  0  0  0
 28 30  1  0  0  0
 30 31  1  0  0  0
 30 52  1  0  0  0
 30 53  1  0  0  0
 31 32  1  0  0  0
 31 54  1  0  0  0
 31 55  1  0  0  0
 32 33  1  0  0  0
 32 56  1  0  0  0
 32 57  1  0  0  0
M  END
> <i_i_glide_confnum>
557

> <i_i_glide_lignum>
950

> <i_i_glide_posenum>
65

> <i_i_glide_rotatable_bonds>
8

> <i_m_Source_File_Index>
5695

> <b_m_subgroup_collapsed>
0

> <r_i_docking_score>
-5.82217

> <r_i_glide_ecoul>
-5.14292

> <r_i_glide_eff_state_penalty>
0

> <r_i_glide_einternal>
4.84878

> <r_i_glide_emodel>
-61.8697

> <r_i_glide_energy>
-47.6121

> <r_i_glide_erotb>
0.460117

> <r_i_glide_esite>
0

> <r_i_glide_evdw>
-42.4692

> <r_i_glide_gscore>
-5.82217

> <r_i_glide_hbond>
-0.156298

> <r_i_glide_ligand_efficiency>
-0.181943

> <r_i_glide_ligand_efficiency_ln>
-1.30374

> <r_i_glide_ligand_efficiency_sa>
-0.577633

> <r_i_glide_lipo>
-2.56149

> <r_i_glide_metal>
0

> <r_i_glide_rewards>
-0.669606

> <s_i_glide_gridfile>
wee1_glide-grid

> <s_m_Source_File>
wee1_decoys_glide_SP.sdf

> <s_m_Source_Path>
/Users/zhangxujun/Desktop

> <s_m_entry_id>
5970

> <s_m_entry_name>
wee1_decoys_glide_SP.5695

> <s_m_subgroup_title>
wee1_decoys_glide_SP

> <s_m_subgroupid>
wee1_decoys_glide_SP


$$$$
