ZINC14015684_475
                    3D
 Schrodinger Suite 2024-2.
 51 54  0  0  1  0            999 V2000
    1.3109   52.9531   25.9916 C   0  0  0  0  0  0
    0.5913   52.0526   25.2145 C   0  0  0  0  0  0
   -0.1090   51.0222   25.8326 C   0  0  0  0  0  0
   -0.0899   50.8955   27.2181 C   0  0  0  0  0  0
    0.6429   51.7820   27.9991 C   0  0  0  0  0  0
    1.3464   52.8195   27.3850 C   0  0  0  0  0  0
    2.2388   54.0075   28.3971 S   0  0  0  0  0  0
    2.2123   53.5122   29.7801 O   0  0  0  0  0  0
    1.6834   55.3248   28.0835 O   0  0  0  0  0  0
    3.9188   53.9657   27.8332 N   0  0  0  0  0  0
    4.9823   54.0448   28.8674 C   0  0  0  0  0  0
    6.3324   53.5536   28.2851 C   0  0  0  0  0  0
    6.6823   54.1631   26.9106 C   0  0  0  0  0  0
    5.4676   54.0018   25.9737 C   0  0  1  0  0  0
    5.2613   52.9354   25.8680 H   0  0  0  0  0  0
    4.2667   54.7164   26.6017 C   0  0  0  0  0  0
    5.7569   54.5457   24.5645 C   0  0  0  0  0  0
    6.4362   55.5641   24.4239 O   0  0  0  0  0  0
    5.2209   53.8199   23.5616 N   0  0  0  0  0  0
    5.3327   54.0314   22.2021 C   0  0  0  0  0  0
    5.9166   55.0323   21.6014 N   0  0  0  0  0  0
    5.8025   54.9255   20.2525 C   0  0  0  0  0  0
    6.3081   55.8561   19.3363 C   0  0  0  0  0  0
    6.1020   55.6252   17.9772 C   0  0  0  0  0  0
    5.4186   54.4930   17.5290 C   0  0  0  0  0  0
    4.9249   53.5380   18.4238 C   0  0  0  0  0  0
    5.1130   53.7731   19.7915 C   0  0  0  0  0  0
    4.6028   52.8195   21.1761 S   0  0  0  0  0  0
    5.1745   54.2853   15.7731 S   0  0  0  0  0  0
    6.4972   54.3689   15.1469 O   0  0  0  0  0  0
    4.2923   53.1334   15.5670 O   0  0  0  0  0  0
    4.2897   55.7050   15.2906 N   0  0  0  0  0  0
   -1.0093   49.9028   24.8764 Cl  0  0  0  0  0  0
    1.7988   53.7677   25.4887 H   0  0  0  0  0  0
    0.5643   52.1615   24.1397 H   0  0  0  0  0  0
   -0.6422   50.0970   27.6866 H   0  0  0  0  0  0
    0.6405   51.6662   29.0740 H   0  0  0  0  0  0
    4.7060   53.4515   29.7399 H   0  0  0  0  0  0
    5.1339   55.0925   29.1319 H   0  0  0  0  0  0
    6.2805   52.4737   28.1624 H   0  0  0  0  0  0
    7.1381   53.7392   28.9978 H   0  0  0  0  0  0
    7.5045   53.5735   26.5274 H   0  0  0  0  0  0
    6.9537   55.2071   27.0778 H   0  0  0  0  0  0
    4.6130   55.6965   26.9168 H   0  0  0  0  0  0
    3.4140   54.8314   25.9410 H   0  0  0  0  0  0
    4.7017   52.9983   23.8240 H   0  0  0  0  0  0
    6.8373   56.7340   19.6704 H   0  0  0  0  0  0
    6.4766   56.3398   17.2575 H   0  0  0  0  0  0
    4.4137   52.6463   18.0785 H   0  0  0  0  0  0
    4.7778   56.3054   14.6235 H   0  0  0  0  0  0
    3.3099   55.5262   15.0642 H   0  0  0  0  0  0
  1  6  2  0  0  0
  1  2  1  0  0  0
  1 34  1  0  0  0
  2  3  2  0  0  0
  2 35  1  0  0  0
  3  4  1  0  0  0
  3 33  1  0  0  0
  4  5  2  0  0  0
  4 36  1  0  0  0
  5  6  1  0  0  0
  5 37  1  0  0  0
  6  7  1  0  0  0
  7  8  2  0  0  0
  7  9  2  0  0  0
  7 10  1  0  0  0
 10 16  1  0  0  0
 10 11  1  0  0  0
 11 12  1  0  0  0
 11 38  1  0  0  0
 11 39  1  0  0  0
 12 13  1  0  0  0
 12 40  1  0  0  0
 12 41  1  0  0  0
 13 14  1  0  0  0
 13 42  1  0  0  0
 13 43  1  0  0  0
 14 15  1  0  0  0
 14 16  1  0  0  0
 14 17  1  0  0  0
 16 44  1  0  0  0
 16 45  1  0  0  0
 17 18  2  0  0  0
 17 19  1  0  0  0
 19 20  1  0  0  0
 19 46  1  0  0  0
 20 28  1  0  0  0
 20 21  2  0  0  0
 21 22  1  0  0  0
 22 27  2  0  0  0
 22 23  1  0  0  0
 23 24  2  0  0  0
 23 47  1  0  0  0
 24 25  1  0  0  0
 24 48  1  0  0  0
 25 26  2  0  0  0
 25 29  1  0  0  0
 26 27  1  0  0  0
 26 49  1  0  0  0
 27 28  1  0  0  0
 29 30  2  0  0  0
 29 31  2  0  0  0
 29 32  1  0  0  0
 32 50  1  0  0  0
 32 51  1  0  0  0
M  END
> <i_i_glide_confnum>
8

> <i_i_glide_lignum>
476

> <i_i_glide_posenum>
209

> <i_i_glide_rotatable_bonds>
6

> <i_m_Source_File_Index>
102

> <b_m_subgroup_collapsed>
0

> <r_i_docking_score>
-3.70545

> <r_i_glide_ecoul>
-3.07579

> <r_i_glide_eff_state_penalty>
0

> <r_i_glide_einternal>
7.32035

> <r_i_glide_emodel>
-50.3277

> <r_i_glide_energy>
-48.6899

> <r_i_glide_erotb>
0.386731

> <r_i_glide_esite>
-0.0248846

> <r_i_glide_evdw>
-45.6141

> <r_i_glide_gscore>
-3.70545

> <r_i_glide_hbond>
0

> <r_i_glide_ligand_efficiency>
-0.115795

> <r_i_glide_ligand_efficiency_ln>
-0.829752

> <r_i_glide_ligand_efficiency_sa>
-0.367628

> <r_i_glide_lipo>
-2.38305

> <r_i_glide_metal>
0

> <r_i_glide_rewards>
1.05782

> <s_i_glide_gridfile>
wee1_glide-grid

> <s_m_Source_File>
wee1_decoys_glide_SP.sdf

> <s_m_Source_Path>
/Users/zhangxujun/Desktop

> <s_m_entry_id>
377

> <s_m_entry_name>
wee1_decoys_glide_SP.102

> <s_m_subgroup_title>
wee1_decoys_glide_SP

> <s_m_subgroupid>
wee1_decoys_glide_SP


$$$$
