ZINC31632231_2504
                    3D
 Schrodinger Suite 2024-2.
 55 58  0  0  1  0            999 V2000
    1.0833   57.1005   16.2017 C   0  0  0  0  0  0
    2.5745   57.1201   16.4816 C   0  0  0  0  0  0
    3.2829   58.3174   16.3989 C   0  0  0  0  0  0
    4.6479   58.3397   16.6677 C   0  0  0  0  0  0
    5.3314   57.1635   17.0133 C   0  0  0  0  0  0
    4.5996   55.9671   17.1050 C   0  0  0  0  0  0
    3.2344   55.9434   16.8334 C   0  0  0  0  0  0
    6.8393   57.2019   17.3714 C   0  0  1  0  0  0
    7.0345   57.2232   18.8796 C   0  0  0  0  0  0
    6.7044   58.1337   19.6418 O   0  0  0  0  0  0
    7.6774   56.0739   19.1960 N   0  0  0  0  0  0
    7.9270   55.2743   18.1290 C   0  0  0  0  0  0
    8.2825   54.0981   18.1260 O   0  0  0  0  0  0
    7.5274   55.9737   17.0616 N   0  0  0  0  0  0
    8.0647   55.6908   20.5768 C   0  0  0  0  0  0
    6.8385   55.3917   21.4700 C   0  0  0  0  0  0
    5.7047   55.6371   21.0658 O   0  0  0  0  0  0
    7.1044   54.8776   22.6874 N   0  0  0  0  0  0
    6.1673   54.6205   23.6818 C   0  0  0  0  0  0
    4.8549   54.0915   23.6555 C   0  0  0  0  0  0
    4.2684   54.1130   24.9583 C   0  0  0  0  0  0
    5.1806   54.5279   25.9417 C   0  0  0  0  0  0
    6.7011   55.0043   25.2785 S   0  0  0  0  0  0
    4.9348   54.4806   27.4424 C   0  0  0  0  0  0
    3.4177   54.4801   27.7088 C   0  0  0  0  0  0
    2.7086   53.4123   26.8653 C   0  0  0  0  0  0
    2.8561   53.6382   25.3417 C   0  0  0  0  0  0
    4.2419   53.4826   22.4843 C   0  0  0  0  0  0
    4.8892   52.8143   21.6811 O   0  0  0  0  0  0
    2.9375   53.7028   22.3215 N   0  0  0  0  0  0
    7.6227   58.3998   16.7647 C   0  0  0  0  0  0
    0.8176   57.8562   15.4602 H   0  0  0  0  0  0
    0.7730   56.1362   15.7950 H   0  0  0  0  0  0
    0.5220   57.2974   17.1163 H   0  0  0  0  0  0
    2.7796   59.2412   16.1482 H   0  0  0  0  0  0
    5.1516   59.2947   16.6205 H   0  0  0  0  0  0
    5.0807   55.0449   17.3977 H   0  0  0  0  0  0
    2.6925   55.0127   16.9154 H   0  0  0  0  0  0
    7.9105   55.8166   16.1419 H   0  0  0  0  0  0
    8.6402   56.4966   21.0299 H   0  0  0  0  0  0
    8.7258   54.8276   20.5612 H   0  0  0  0  0  0
    8.0736   54.8962   22.9891 H   0  0  0  0  0  0
    5.4293   55.2968   27.9649 H   0  0  0  0  0  0
    5.3726   53.5657   27.8459 H   0  0  0  0  0  0
    2.9871   55.4559   27.4912 H   0  0  0  0  0  0
    3.2337   54.3002   28.7683 H   0  0  0  0  0  0
    1.6497   53.3710   27.1263 H   0  0  0  0  0  0
    3.1158   52.4405   27.1353 H   0  0  0  0  0  0
    2.5894   52.7176   24.8214 H   0  0  0  0  0  0
    2.1303   54.3843   25.0168 H   0  0  0  0  0  0
    2.4884   53.3722   21.4798 H   0  0  0  0  0  0
    2.4365   54.2992   22.9585 H   0  0  0  0  0  0
    7.3087   59.3572   17.1856 H   0  0  0  0  0  0
    8.6984   58.3231   16.9348 H   0  0  0  0  0  0
    7.4740   58.4584   15.6853 H   0  0  0  0  0  0
  1  2  1  0  0  0
  1 32  1  0  0  0
  1 33  1  0  0  0
  1 34  1  0  0  0
  2  7  2  0  0  0
  2  3  1  0  0  0
  3  4  2  0  0  0
  3 35  1  0  0  0
  4  5  1  0  0  0
  4 36  1  0  0  0
  5  6  2  0  0  0
  5  8  1  0  0  0
  6  7  1  0  0  0
  6 37  1  0  0  0
  7 38  1  0  0  0
  8 14  1  0  0  0
  8  9  1  0  0  0
  8 31  1  0  0  0
  9 10  2  0  0  0
  9 11  1  0  0  0
 11 12  1  0  0  0
 11 15  1  0  0  0
 12 13  2  0  0  0
 12 14  1  0  0  0
 14 39  1  0  0  0
 15 16  1  0  0  0
 15 40  1  0  0  0
 15 41  1  0  0  0
 16 17  2  0  0  0
 16 18  1  0  0  0
 18 19  1  0  0  0
 18 42  1  0  0  0
 19 23  1  0  0  0
 19 20  2  0  0  0
 20 21  1  0  0  0
 20 28  1  0  0  0
 21 27  1  0  0  0
 21 22  2  0  0  0
 22 23  1  0  0  0
 22 24  1  0  0  0
 24 25  1  0  0  0
 24 43  1  0  0  0
 24 44  1  0  0  0
 25 26  1  0  0  0
 25 45  1  0  0  0
 25 46  1  0  0  0
 26 27  1  0  0  0
 26 47  1  0  0  0
 26 48  1  0  0  0
 27 49  1  0  0  0
 27 50  1  0  0  0
 28 29  2  0  0  0
 28 30  1  0  0  0
 30 51  1  0  0  0
 30 52  1  0  0  0
 31 53  1  0  0  0
 31 54  1  0  0  0
 31 55  1  0  0  0
M  END
> <i_i_glide_confnum>
54

> <i_i_glide_lignum>
2505

> <i_i_glide_posenum>
339

> <i_i_glide_rotatable_bonds>
6

> <i_m_Source_File_Index>
1337

> <b_m_subgroup_collapsed>
0

> <r_i_docking_score>
-6.99298

> <r_i_glide_ecoul>
-7.79957

> <r_i_glide_eff_state_penalty>
0

> <r_i_glide_einternal>
8.86706

> <r_i_glide_emodel>
-64.643

> <r_i_glide_energy>
-48.5908

> <r_i_glide_erotb>
0.514476

> <r_i_glide_esite>
-0.0161041

> <r_i_glide_evdw>
-40.7913

> <r_i_glide_gscore>
-6.99298

> <r_i_glide_hbond>
-0.573324

> <r_i_glide_ligand_efficiency>
-0.22558

> <r_i_glide_ligand_efficiency_ln>
-1.57713

> <r_i_glide_ligand_efficiency_sa>
-0.708633

> <r_i_glide_lipo>
-2.56577

> <r_i_glide_metal>
0

> <r_i_glide_rewards>
-1.14276

> <s_i_glide_gridfile>
wee1_glide-grid

> <s_m_Source_File>
wee1_decoys_glide_SP.sdf

> <s_m_Source_Path>
/Users/zhangxujun/Desktop

> <s_m_entry_id>
1612

> <s_m_entry_name>
wee1_decoys_glide_SP.1337

> <s_m_subgroup_title>
wee1_decoys_glide_SP

> <s_m_subgroupid>
wee1_decoys_glide_SP


$$$$
