ZINC38745962_3232
                    3D
 Schrodinger Suite 2024-2.
 57 62  0  0  1  0            999 V2000
    6.8913   49.3625   11.9780 C   0  0  0  0  0  0
    7.9043   50.3501   12.1414 O   0  0  0  0  0  0
    7.8240   51.2204   13.2118 C   0  0  0  0  0  0
    8.9172   52.0592   13.4262 C   0  0  0  0  0  0
    8.9342   52.9410   14.5058 C   0  0  0  0  0  0
    7.8549   52.9922   15.3957 C   0  0  0  0  0  0
    6.7531   52.1601   15.1711 C   0  0  0  0  0  0
    6.7279   51.2967   14.0817 C   0  0  0  0  0  0
    7.8701   53.8835   16.5770 C   0  0  0  0  0  0
    7.2440   53.6711   17.7363 C   0  0  0  0  0  0
    7.4464   54.9503   18.4958 C   0  0  1  0  0  0
    8.0570   54.7821   19.3853 H   0  0  0  0  0  0
    8.2340   55.7441   17.5898 N   0  0  0  0  0  0
    8.4489   55.1035   16.5101 N   0  0  0  0  0  0
    6.1157   55.6735   18.8795 C   0  0  2  0  0  0
    6.3493   56.6396   19.3280 H   0  0  0  0  0  0
    5.3810   54.8971   19.8868 N   0  0  0  0  0  0
    4.3860   54.2263   19.1931 N   0  0  0  0  0  0
    3.5559   53.1455   19.4093 C   0  0  0  0  0  0
    2.8988   52.8971   18.2911 N   0  0  0  0  0  0
    3.1857   53.9057   17.3725 N   0  0  0  0  0  0
    4.0941   54.6524   17.9378 C   0  0  0  0  0  0
    5.0313   56.0181   17.4402 S   0  0  0  0  0  0
    3.5519   52.2561   20.6759 C   0  0  0  0  0  0
    3.7629   53.1158   21.9593 C   0  0  0  0  0  0
    2.6686   53.6970   22.6211 C   0  0  0  0  0  0
    2.8355   54.3671   23.8287 C   0  0  0  0  0  0
    4.1078   54.4967   24.3758 C   0  0  0  0  0  0
    5.2175   53.9936   23.7071 C   0  0  0  0  0  0
    5.0408   53.2967   22.5157 C   0  0  0  0  0  0
    2.2539   51.4085   20.8555 C   0  0  0  0  0  0
    1.0061   51.8339   20.3654 C   0  0  0  0  0  0
   -0.1406   51.0712   20.5703 C   0  0  0  0  0  0
   -0.0581   49.8774   21.2805 C   0  0  0  0  0  0
    1.1612   49.4453   21.7916 C   0  0  0  0  0  0
    2.3044   50.2078   21.5797 C   0  0  0  0  0  0
    4.6629   51.3807   20.4817 O   0  0  0  0  0  0
    7.1356   48.7321   11.1238 H   0  0  0  0  0  0
    6.8195   48.7145   12.8539 H   0  0  0  0  0  0
    5.9174   49.8150   11.7847 H   0  0  0  0  0  0
    9.7656   52.0101   12.7590 H   0  0  0  0  0  0
    9.7991   53.5697   14.6610 H   0  0  0  0  0  0
    5.9040   52.1770   15.8411 H   0  0  0  0  0  0
    5.8584   50.6707   13.9515 H   0  0  0  0  0  0
    6.6654   52.8169   18.0625 H   0  0  0  0  0  0
    5.9962   54.1829   20.2461 H   0  0  0  0  0  0
    1.6706   53.6148   22.2188 H   0  0  0  0  0  0
    1.9791   54.7840   24.3370 H   0  0  0  0  0  0
    4.2371   55.0149   25.3146 H   0  0  0  0  0  0
    6.2054   54.1067   24.1294 H   0  0  0  0  0  0
    5.9044   52.8592   22.0451 H   0  0  0  0  0  0
    0.9052   52.7746   19.8444 H   0  0  0  0  0  0
   -1.0914   51.4088   20.1862 H   0  0  0  0  0  0
   -0.9478   49.2878   21.4454 H   0  0  0  0  0  0
    1.2251   48.5279   22.3581 H   0  0  0  0  0  0
    3.2356   49.8654   21.9976 H   0  0  0  0  0  0
    4.6666   51.0604   19.5583 H   0  0  0  0  0  0
  1  2  1  0  0  0
  1 38  1  0  0  0
  1 39  1  0  0  0
  1 40  1  0  0  0
  2  3  1  0  0  0
  3  8  2  0  0  0
  3  4  1  0  0  0
  4  5  2  0  0  0
  4 41  1  0  0  0
  5  6  1  0  0  0
  5 42  1  0  0  0
  6  7  2  0  0  0
  6  9  1  0  0  0
  7  8  1  0  0  0
  7 43  1  0  0  0
  8 44  1  0  0  0
  9 14  1  0  0  0
  9 10  2  0  0  0
 10 11  1  0  0  0
 10 45  1  0  0  0
 11 12  1  0  0  0
 11 13  1  0  0  0
 11 15  1  0  0  0
 13 14  2  0  0  0
 15 16  1  0  0  0
 15 23  1  0  0  0
 15 17  1  0  0  0
 17 18  1  0  0  0
 17 46  1  0  0  0
 18 22  1  0  0  0
 18 19  1  0  0  0
 19 20  2  0  0  0
 19 24  1  0  0  0
 20 21  1  0  0  0
 21 22  2  0  0  0
 22 23  1  0  0  0
 24 25  1  0  0  0
 24 31  1  0  0  0
 24 37  1  0  0  0
 25 30  2  0  0  0
 25 26  1  0  0  0
 26 27  2  0  0  0
 26 47  1  0  0  0
 27 28  1  0  0  0
 27 48  1  0  0  0
 28 29  2  0  0  0
 28 49  1  0  0  0
 29 30  1  0  0  0
 29 50  1  0  0  0
 30 51  1  0  0  0
 31 36  2  0  0  0
 31 32  1  0  0  0
 32 33  2  0  0  0
 32 52  1  0  0  0
 33 34  1  0  0  0
 33 53  1  0  0  0
 34 35  2  0  0  0
 34 54  1  0  0  0
 35 36  1  0  0  0
 35 55  1  0  0  0
 36 56  1  0  0  0
 37 57  1  0  0  0
M  END
> <i_i_glide_confnum>
63

> <i_i_glide_lignum>
3233

> <i_i_glide_posenum>
312

> <i_i_glide_rotatable_bonds>
7

> <i_m_Source_File_Index>
706

> <b_m_subgroup_collapsed>
0

> <r_i_docking_score>
-3.53077

> <r_i_glide_ecoul>
-2.79304

> <r_i_glide_eff_state_penalty>
0

> <r_i_glide_einternal>
3.48875

> <r_i_glide_emodel>
-43.8775

> <r_i_glide_energy>
-36.3567

> <r_i_glide_erotb>
0.43576

> <r_i_glide_esite>
-0.0586567

> <r_i_glide_evdw>
-33.5637

> <r_i_glide_gscore>
-3.53077

> <r_i_glide_hbond>
-0.198358

> <r_i_glide_ligand_efficiency>
-0.100879

> <r_i_glide_ligand_efficiency_ln>
-0.775083

> <r_i_glide_ligand_efficiency_sa>
-0.329982

> <r_i_glide_lipo>
-1.49405

> <r_i_glide_metal>
0

> <r_i_glide_rewards>
-0.118331

> <s_i_glide_gridfile>
wee1_glide-grid

> <s_m_Source_File>
wee1_decoys_glide_SP.sdf

> <s_m_Source_Path>
/Users/zhangxujun/Desktop

> <s_m_entry_id>
981

> <s_m_entry_name>
wee1_decoys_glide_SP.706

> <s_m_subgroup_title>
wee1_decoys_glide_SP

> <s_m_subgroupid>
wee1_decoys_glide_SP


$$$$
