ZINC08881015_4057
                    3D
 Schrodinger Suite 2024-2.
 64 69  0  0  1  0            999 V2000
    1.4728   51.9550   18.8314 C   0  0  0  0  0  0
    0.3240   52.2240   19.5710 C   0  0  0  0  0  0
    0.3321   52.0354   20.9509 C   0  0  0  0  0  0
    1.4791   51.5376   21.5852 C   0  0  0  0  0  0
    2.6194   51.2461   20.8276 C   0  0  0  0  0  0
    2.6201   51.4751   19.4544 C   0  0  0  0  0  0
    1.4828   51.2648   23.0963 C   0  0  1  0  0  0
    2.3900   50.7133   23.3474 H   0  0  0  0  0  0
    1.5114   52.6096   23.8784 C   0  0  0  0  0  0
    0.5965   52.9014   24.6498 O   0  0  0  0  0  0
    2.7378   53.3956   23.8288 C   0  0  0  0  0  0
    3.4090   53.8535   22.7080 C   0  0  0  0  0  0
    4.5694   54.4758   23.0913 N   0  0  0  0  0  0
    5.2207   54.8672   22.4260 H   0  0  0  0  0  0
    4.6842   54.4649   24.4666 C   0  0  0  0  0  0
    3.5077   53.8262   24.9700 C   0  0  0  0  0  0
    3.3617   53.6991   26.3626 C   0  0  0  0  0  0
    4.3730   54.1732   27.1978 C   0  0  0  0  0  0
    5.5181   54.7713   26.6782 C   0  0  0  0  0  0
    5.7002   54.9435   25.3046 C   0  0  0  0  0  0
    0.2919   49.0389   22.6358 C   0  0  0  0  0  0
   -0.9217   48.1878   23.0409 C   0  0  0  0  0  0
   -0.8457   47.7553   24.5278 C   0  0  1  0  0  0
   -0.6365   48.9738   25.4629 C   0  0  0  0  0  0
    0.5847   49.7943   25.0197 C   0  0  0  0  0  0
   -2.1062   46.9213   24.8815 C   0  0  0  0  0  0
   -2.5090   46.0971   24.0601 O   0  0  0  0  0  0
   -2.6937   47.1221   26.0807 N   0  0  0  0  0  0
   -3.9280   46.6416   26.5584 C   0  0  0  0  0  0
   -4.9376   46.0772   25.7379 C   0  0  0  0  0  0
   -6.1663   45.6724   26.2786 C   0  0  0  0  0  0
   -6.3699   45.8753   27.6375 C   0  0  0  0  0  0
   -5.4090   46.4320   28.4330 C   0  0  0  0  0  0
   -4.1694   46.8131   27.9325 C   0  0  0  0  0  0
   -5.8696   46.4968   29.7093 O   0  0  0  0  0  0
   -7.2366   46.1917   29.6291 C   0  0  0  0  0  0
   -7.4579   45.5678   28.3920 O   0  0  0  0  0  0
    1.4778   52.1177   17.7619 H   0  0  0  0  0  0
   -0.5576   52.5986   19.0752 H   0  0  0  0  0  0
   -0.5541   52.2608   21.5265 H   0  0  0  0  0  0
    3.5097   50.8563   21.2985 H   0  0  0  0  0  0
    3.5040   51.2857   18.8642 H   0  0  0  0  0  0
    3.1671   53.7822   21.6549 H   0  0  0  0  0  0
    2.4889   53.2200   26.7801 H   0  0  0  0  0  0
    4.2755   54.0658   28.2690 H   0  0  0  0  0  0
    6.2780   55.1250   27.3631 H   0  0  0  0  0  0
    6.5893   55.4165   24.9106 H   0  0  0  0  0  0
    0.1486   49.3707   21.6080 H   0  0  0  0  0  0
    1.2486   48.5193   22.7199 H   0  0  0  0  0  0
   -1.7968   48.8196   22.8651 H   0  0  0  0  0  0
   -0.9291   47.3229   22.3723 H   0  0  0  0  0  0
   -0.0187   47.0595   24.6704 H   0  0  0  0  0  0
   -0.4156   48.6510   26.4815 H   0  0  0  0  0  0
   -1.4884   49.6581   25.4367 H   0  0  0  0  0  0
    1.5037   49.2076   25.0444 H   0  0  0  0  0  0
    0.6890   50.6594   25.6733 H   0  0  0  0  0  0
   -2.1797   47.6792   26.7605 H   0  0  0  0  0  0
   -4.8025   45.9616   24.6740 H   0  0  0  0  0  0
   -6.9318   45.2398   25.6534 H   0  0  0  0  0  0
   -3.4241   47.2516   28.5850 H   0  0  0  0  0  0
   -7.8147   47.1193   29.6753 H   0  0  0  0  0  0
   -7.5485   45.5478   30.4540 H   0  0  0  0  0  0
    0.3602   50.2798   23.5612 N   0  3  1  0  0  0
   -0.5085   50.7922   23.5058 H   0  0  0  0  0  0
  1  6  2  0  0  0
  1  2  1  0  0  0
  1 38  1  0  0  0
  2  3  2  0  0  0
  2 39  1  0  0  0
  3  4  1  0  0  0
  3 40  1  0  0  0
  4  5  2  0  0  0
  4  7  1  0  0  0
  5  6  1  0  0  0
  5 41  1  0  0  0
  6 42  1  0  0  0
  7  8  1  0  0  0
  7  9  1  0  0  0
  7 63  1  0  0  0
  9 10  2  0  0  0
  9 11  1  0  0  0
 11 16  1  0  0  0
 11 12  2  0  0  0
 12 13  1  0  0  0
 12 43  1  0  0  0
 13 14  1  0  0  0
 13 15  1  0  0  0
 15 20  2  0  0  0
 15 16  1  0  0  0
 16 17  2  0  0  0
 17 18  1  0  0  0
 17 44  1  0  0  0
 18 19  2  0  0  0
 18 45  1  0  0  0
 19 20  1  0  0  0
 19 46  1  0  0  0
 20 47  1  0  0  0
 21 22  1  0  0  0
 21 48  1  0  0  0
 21 49  1  0  0  0
 21 63  1  0  0  0
 22 23  1  0  0  0
 22 50  1  0  0  0
 22 51  1  0  0  0
 23 24  1  0  0  0
 23 26  1  0  0  0
 23 52  1  0  0  0
 24 25  1  0  0  0
 24 53  1  0  0  0
 24 54  1  0  0  0
 25 55  1  0  0  0
 25 56  1  0  0  0
 25 63  1  0  0  0
 26 27  2  0  0  0
 26 28  1  0  0  0
 28 29  1  0  0  0
 28 57  1  0  0  0
 29 34  2  0  0  0
 29 30  1  0  0  0
 30 31  2  0  0  0
 30 58  1  0  0  0
 31 32  1  0  0  0
 31 59  1  0  0  0
 32 37  1  0  0  0
 32 33  2  0  0  0
 33 34  1  0  0  0
 33 35  1  0  0  0
 34 60  1  0  0  0
 35 36  1  0  0  0
 36 37  1  0  0  0
 36 61  1  0  0  0
 36 62  1  0  0  0
 63 64  1  0  0  0
M  CHG  1  63   1
M  END
> <i_i_glide_confnum>
46

> <i_i_glide_lignum>
4058

> <i_i_glide_posenum>
352

> <i_i_glide_rotatable_bonds>
7

> <i_m_Source_File_Index>
23

> <b_m_subgroup_collapsed>
0

> <r_i_docking_score>
-5.53395

> <r_i_glide_ecoul>
-8.62373

> <r_i_glide_eff_state_penalty>
0

> <r_i_glide_einternal>
15.3195

> <r_i_glide_emodel>
-57.5992

> <r_i_glide_energy>
-46.4829

> <r_i_glide_erotb>
0.610082

> <r_i_glide_esite>
-0.192415

> <r_i_glide_evdw>
-37.8591

> <r_i_glide_gscore>
-5.53395

> <r_i_glide_hbond>
-0.264553

> <r_i_glide_ligand_efficiency>
-0.153721

> <r_i_glide_ligand_efficiency_ln>
-1.20736

> <r_i_glide_ligand_efficiency_sa>
-0.507575

> <r_i_glide_lipo>
-2.06533

> <r_i_glide_metal>
0

> <r_i_glide_rewards>
-0.435214

> <s_i_glide_gridfile>
wee1_glide-grid

> <s_m_Source_File>
wee1_decoys_glide_SP.sdf

> <s_m_Source_Path>
/Users/zhangxujun/Desktop

> <s_m_entry_id>
298

> <s_m_entry_name>
wee1_decoys_glide_SP.23

> <s_m_subgroup_title>
wee1_decoys_glide_SP

> <s_m_subgroupid>
wee1_decoys_glide_SP


$$$$
