ZINC14467121_5840
                    3D
 Schrodinger Suite 2024-2.
 42 45  0  0  1  0            999 V2000
    1.7202   52.6997   27.7247 C   0  0  0  0  0  0
    3.1428   53.2503   27.5594 C   0  0  0  0  0  0
    4.0361   53.2396   28.6483 C   0  0  0  0  0  0
    5.3606   53.6507   28.4557 C   0  0  0  0  0  0
    5.7962   54.0971   27.2126 C   0  0  0  0  0  0
    4.9190   54.1480   26.1283 C   0  0  0  0  0  0
    3.5890   53.7203   26.3084 C   0  0  0  0  0  0
    2.7091   53.6952   25.2007 N   0  0  0  0  0  0
    3.1112   53.8907   23.7943 C   0  0  1  0  0  0
    2.7598   54.8890   23.5271 H   0  0  0  0  0  0
    4.6659   53.9062   23.6707 C   0  0  2  0  0  0
    5.0268   52.8967   23.8081 H   0  0  0  0  0  0
    5.2745   54.7423   24.7773 C   0  0  2  0  0  0
    4.7836   55.6991   24.8158 H   0  0  0  0  0  0
    6.6903   54.9327   24.2924 C   0  0  0  0  0  0
    6.7045   54.8477   22.9473 C   0  0  0  0  0  0
    5.3531   54.4166   22.3991 C   0  0  0  0  0  0
    2.3329   52.9534   22.8429 C   0  0  0  0  0  0
    2.9862   52.1292   21.9128 C   0  0  0  0  0  0
    2.2680   51.2997   21.0548 C   0  0  0  0  0  0
    0.8776   51.2917   21.0924 C   0  0  0  0  0  0
    0.2025   52.0897   22.0125 C   0  0  0  0  0  0
    0.9253   52.8968   22.9002 C   0  0  0  0  0  0
    0.2311   53.6253   23.8343 O   0  0  0  0  0  0
   -1.5288   52.0643   22.0339 Cl  0  0  0  0  0  0
    3.1046   50.2701   19.9556 Cl  0  0  0  0  0  0
    3.6093   52.8049   29.9928 N   0  3  0  0  0  0
    4.3041   51.9881   30.5847 O   0  0  0  0  0  0
    2.5874   53.2940   30.4628 O   0  5  0  0  0  0
    1.3331   52.2607   26.8054 H   0  0  0  0  0  0
    1.0382   53.4844   28.0525 H   0  0  0  0  0  0
    1.6863   51.8850   28.4483 H   0  0  0  0  0  0
    6.0567   53.6465   29.2813 H   0  0  0  0  0  0
    6.8167   54.4329   27.1065 H   0  0  0  0  0  0
    1.7190   53.5280   25.3185 H   0  0  0  0  0  0
    7.5084   55.2359   24.9239 H   0  0  0  0  0  0
    7.5581   55.0240   22.3088 H   0  0  0  0  0  0
    5.4902   53.6309   21.6590 H   0  0  0  0  0  0
    4.8051   55.2194   21.9083 H   0  0  0  0  0  0
    4.0594   52.0869   21.8533 H   0  0  0  0  0  0
    0.3264   50.6564   20.4145 H   0  0  0  0  0  0
   -0.7034   53.4056   23.8250 H   0  0  0  0  0  0
  1  2  1  0  0  0
  1 30  1  0  0  0
  1 31  1  0  0  0
  1 32  1  0  0  0
  2  7  2  0  0  0
  2  3  1  0  0  0
  3  4  2  0  0  0
  3 27  1  0  0  0
  4  5  1  0  0  0
  4 33  1  0  0  0
  5  6  2  0  0  0
  5 34  1  0  0  0
  6 13  1  0  0  0
  6  7  1  0  0  0
  7  8  1  0  0  0
  8  9  1  0  0  0
  8 35  1  0  0  0
  9 10  1  0  0  0
  9 11  1  0  0  0
  9 18  1  0  0  0
 11 12  1  0  0  0
 11 17  1  0  0  0
 11 13  1  0  0  0
 13 14  1  0  0  0
 13 15  1  0  0  0
 15 16  2  0  0  0
 15 36  1  0  0  0
 16 17  1  0  0  0
 16 37  1  0  0  0
 17 38  1  0  0  0
 17 39  1  0  0  0
 18 23  2  0  0  0
 18 19  1  0  0  0
 19 20  2  0  0  0
 19 40  1  0  0  0
 20 21  1  0  0  0
 20 26  1  0  0  0
 21 22  2  0  0  0
 21 41  1  0  0  0
 22 23  1  0  0  0
 22 25  1  0  0  0
 23 24  1  0  0  0
 24 42  1  0  0  0
 27 28  2  0  0  0
 27 29  1  0  0  0
M  CHG  2  27   1  29  -1
M  END
> <i_i_glide_confnum>
2

> <i_i_glide_lignum>
5841

> <i_i_glide_posenum>
360

> <i_i_glide_rotatable_bonds>
3

> <i_m_Source_File_Index>
3481

> <b_m_subgroup_collapsed>
0

> <r_i_docking_score>
-6.42763

> <r_i_glide_ecoul>
-1.19764

> <r_i_glide_eff_state_penalty>
0

> <r_i_glide_einternal>
8.36632

> <r_i_glide_emodel>
-46.8188

> <r_i_glide_energy>
-36.8122

> <r_i_glide_erotb>
0.127472

> <r_i_glide_esite>
-0.0124095

> <r_i_glide_evdw>
-35.6145

> <r_i_glide_gscore>
-6.42763

> <r_i_glide_hbond>
0

> <r_i_glide_ligand_efficiency>
-0.247216

> <r_i_glide_ligand_efficiency_ln>
-1.50951

> <r_i_glide_ligand_efficiency_sa>
-0.732378

> <r_i_glide_lipo>
-3.42291

> <r_i_glide_metal>
0

> <r_i_glide_rewards>
-1.15941

> <s_i_glide_gridfile>
wee1_glide-grid

> <s_m_Source_File>
wee1_decoys_glide_SP.sdf

> <s_m_Source_Path>
/Users/zhangxujun/Desktop

> <s_m_entry_id>
3756

> <s_m_entry_name>
wee1_decoys_glide_SP.3481

> <s_m_subgroup_title>
wee1_decoys_glide_SP

> <s_m_subgroupid>
wee1_decoys_glide_SP


$$$$
