ZINC39678269_2159
                    3D
 Schrodinger Suite 2024-2.
 73 76  0  0  1  0            999 V2000
   -6.9125   52.6195   24.8220 C   0  0  0  0  0  0
   -5.8162   51.7417   24.1822 C   0  0  0  0  0  0
   -5.0476   50.7725   25.1239 C   0  0  2  0  0  0
   -4.4898   50.1077   24.4675 H   0  0  0  0  0  0
   -6.0001   49.8606   25.9327 C   0  0  0  0  0  0
   -4.0701   51.5170   26.0742 C   0  0  0  0  0  0
   -4.5358   52.3547   26.8531 O   0  0  0  0  0  0
   -2.7379   51.2684   26.0226 N   0  0  0  0  0  0
   -1.8121   51.9153   26.9471 C   0  0  0  0  0  0
   -0.5941   50.9766   26.9316 C   0  0  1  0  0  0
   -0.7594   50.2025   27.6768 H   0  0  0  0  0  0
   -0.5655   50.3645   25.5084 C   0  0  0  0  0  0
   -2.0833   50.2212   25.2297 C   0  0  0  0  0  0
    0.2089   49.0291   25.4798 C   0  0  0  0  0  0
    0.1034   48.3429   24.1087 C   0  0  0  0  0  0
    0.7052   49.2937   23.0465 N   0  3  0  0  0  0
    0.0570   50.6916   23.0179 C   0  0  0  0  0  0
    0.1225   51.2802   24.4404 C   0  0  0  0  0  0
    0.6345   51.8042   27.3546 C   0  0  0  0  0  0
    0.8552   52.8966   26.8362 O   0  0  0  0  0  0
    1.3655   51.3164   28.3720 N   0  0  0  0  0  0
    2.4759   52.0119   29.0308 C   0  0  0  0  0  0
    2.1272   53.4286   29.4863 C   0  0  0  0  0  0
    1.1167   53.5590   30.4536 C   0  0  0  0  0  0
    0.6934   54.8152   30.8739 C   0  0  0  0  0  0
    1.2663   55.9567   30.3254 C   0  0  0  0  0  0
    2.2790   55.8362   29.3728 C   0  0  0  0  0  0
    2.7464   54.5848   28.9557 C   0  0  0  0  0  0
    3.8251   54.5707   28.0751 N   0  0  0  0  0  0
    5.1485   54.2155   28.6116 C   0  0  0  0  0  0
    6.3178   54.6182   27.6851 C   0  0  0  0  0  0
    6.1405   54.0895   26.2636 C   0  0  0  0  0  0
    4.7692   54.5189   25.7355 C   0  0  0  0  0  0
    3.6364   54.0979   26.6898 C   0  0  0  0  0  0
   -7.3543   53.2840   24.0807 H   0  0  0  0  0  0
   -6.5253   53.2512   25.6212 H   0  0  0  0  0  0
   -7.7195   52.0134   25.2384 H   0  0  0  0  0  0
   -6.2757   51.1592   23.3816 H   0  0  0  0  0  0
   -5.0964   52.3917   23.6810 H   0  0  0  0  0  0
   -5.4458   49.1186   26.5100 H   0  0  0  0  0  0
   -6.6022   50.4321   26.6433 H   0  0  0  0  0  0
   -6.6816   49.3226   25.2746 H   0  0  0  0  0  0
   -1.5701   52.8830   26.5025 H   0  0  0  0  0  0
   -2.1996   52.0009   27.9636 H   0  0  0  0  0  0
   -2.4100   49.2735   25.6683 H   0  0  0  0  0  0
   -2.3493   50.1772   24.1755 H   0  0  0  0  0  0
    1.2437   49.1487   25.7944 H   0  0  0  0  0  0
   -0.2220   48.3525   26.2210 H   0  0  0  0  0  0
    0.6973   47.4316   24.0841 H   0  0  0  0  0  0
   -0.9203   48.1199   23.8075 H   0  0  0  0  0  0
    1.6919   49.3925   23.2428 H   0  0  0  0  0  0
    0.6313   51.2830   22.3012 H   0  0  0  0  0  0
   -0.9533   50.5672   22.6306 H   0  0  0  0  0  0
   -0.3650   52.2572   24.4299 H   0  0  0  0  0  0
    1.1637   51.4842   24.6940 H   0  0  0  0  0  0
    1.1232   50.4025   28.7296 H   0  0  0  0  0  0
    2.6994   51.4412   29.9295 H   0  0  0  0  0  0
    3.3874   51.9516   28.4400 H   0  0  0  0  0  0
    0.6385   52.6791   30.8662 H   0  0  0  0  0  0
   -0.0911   54.8953   31.6114 H   0  0  0  0  0  0
    0.9360   56.9348   30.6413 H   0  0  0  0  0  0
    2.7046   56.7429   28.9714 H   0  0  0  0  0  0
    5.2795   54.7462   29.5574 H   0  0  0  0  0  0
    5.1895   53.1485   28.8327 H   0  0  0  0  0  0
    6.4328   55.7016   27.6804 H   0  0  0  0  0  0
    7.2497   54.2305   28.1020 H   0  0  0  0  0  0
    6.2102   53.0028   26.2744 H   0  0  0  0  0  0
    6.9368   54.4513   25.6108 H   0  0  0  0  0  0
    4.6004   54.0609   24.7610 H   0  0  0  0  0  0
    4.7277   55.5947   25.5620 H   0  0  0  0  0  0
    3.5254   53.0159   26.6633 H   0  0  0  0  0  0
    2.7059   54.5151   26.3071 H   0  0  0  0  0  0
    0.6366   48.8769   22.1297 H   0  0  0  0  0  0
  1  2  1  0  0  0
  1 35  1  0  0  0
  1 36  1  0  0  0
  1 37  1  0  0  0
  2  3  1  0  0  0
  2 38  1  0  0  0
  2 39  1  0  0  0
  3  4  1  0  0  0
  3  5  1  0  0  0
  3  6  1  0  0  0
  5 40  1  0  0  0
  5 41  1  0  0  0
  5 42  1  0  0  0
  6  7  2  0  0  0
  6  8  1  0  0  0
  8 13  1  0  0  0
  8  9  1  0  0  0
  9 10  1  0  0  0
  9 43  1  0  0  0
  9 44  1  0  0  0
 10 11  1  0  0  0
 10 12  1  0  0  0
 10 19  1  0  0  0
 12 18  1  0  0  0
 12 13  1  0  0  0
 12 14  1  0  0  0
 13 45  1  0  0  0
 13 46  1  0  0  0
 14 15  1  0  0  0
 14 47  1  0  0  0
 14 48  1  0  0  0
 15 16  1  0  0  0
 15 49  1  0  0  0
 15 50  1  0  0  0
 16 17  1  0  0  0
 16 51  1  0  0  0
 16 73  1  0  0  0
 17 18  1  0  0  0
 17 52  1  0  0  0
 17 53  1  0  0  0
 18 54  1  0  0  0
 18 55  1  0  0  0
 19 20  2  0  0  0
 19 21  1  0  0  0
 21 22  1  0  0  0
 21 56  1  0  0  0
 22 23  1  0  0  0
 22 57  1  0  0  0
 22 58  1  0  0  0
 23 28  2  0  0  0
 23 24  1  0  0  0
 24 25  2  0  0  0
 24 59  1  0  0  0
 25 26  1  0  0  0
 25 60  1  0  0  0
 26 27  2  0  0  0
 26 61  1  0  0  0
 27 28  1  0  0  0
 27 62  1  0  0  0
 28 29  1  0  0  0
 29 34  1  0  0  0
 29 30  1  0  0  0
 30 31  1  0  0  0
 30 63  1  0  0  0
 30 64  1  0  0  0
 31 32  1  0  0  0
 31 65  1  0  0  0
 31 66  1  0  0  0
 32 33  1  0  0  0
 32 67  1  0  0  0
 32 68  1  0  0  0
 33 34  1  0  0  0
 33 69  1  0  0  0
 33 70  1  0  0  0
 34 71  1  0  0  0
 34 72  1  0  0  0
M  CHG  1  16   1
M  END
> <i_i_glide_confnum>
261

> <i_i_glide_lignum>
2160

> <i_i_glide_posenum>
265

> <i_i_glide_rotatable_bonds>
8

> <i_m_Source_File_Index>
1264

> <b_m_subgroup_collapsed>
0

> <r_i_docking_score>
-5.40597

> <r_i_glide_ecoul>
-2.29918

> <r_i_glide_eff_state_penalty>
0

> <r_i_glide_einternal>
11.5519

> <r_i_glide_emodel>
-50.8997

> <r_i_glide_energy>
-41.0588

> <r_i_glide_erotb>
0.716975

> <r_i_glide_esite>
-0.0346104

> <r_i_glide_evdw>
-38.7596

> <r_i_glide_gscore>
-5.40597

> <r_i_glide_hbond>
0

> <r_i_glide_ligand_efficiency>
-0.168937

> <r_i_glide_ligand_efficiency_ln>
-1.21054

> <r_i_glide_ligand_efficiency_sa>
-0.53634

> <r_i_glide_lipo>
-2.93523

> <r_i_glide_metal>
0

> <r_i_glide_rewards>
-0.870242

> <s_i_glide_gridfile>
wee1_glide-grid

> <s_m_Source_File>
wee1_decoys_glide_SP.sdf

> <s_m_Source_Path>
/Users/zhangxujun/Desktop

> <s_m_entry_id>
1539

> <s_m_entry_name>
wee1_decoys_glide_SP.1264

> <s_m_subgroup_title>
wee1_decoys_glide_SP

> <s_m_subgroupid>
wee1_decoys_glide_SP


$$$$
