ZINC12521510_6096
                    3D
 Schrodinger Suite 2024-2.
 61 65  0  0  1  0            999 V2000
   -4.5862   50.8208   24.4837 C   0  0  0  0  0  0
   -3.5646   51.3533   25.5062 C   0  0  1  0  0  0
   -3.8290   52.3967   25.6959 H   0  0  0  0  0  0
   -3.6005   50.5418   26.8183 C   0  0  0  0  0  0
   -2.7529   51.2038   27.9258 C   0  0  0  0  0  0
   -1.3776   51.5781   27.3666 C   0  0  0  0  0  0
   -1.1274   51.6455   25.9920 C   0  0  0  0  0  0
    0.5107   52.0963   25.5890 S   0  0  0  0  0  0
    0.8877   52.2618   27.2846 C   0  0  0  0  0  0
   -0.2160   51.9448   28.1288 C   0  0  0  0  0  0
    0.0495   52.0626   29.5191 C   0  0  0  0  0  0
    1.2478   52.5137   29.9734 N   0  0  0  0  0  0
    2.2063   52.7849   29.0517 C   0  0  0  0  0  0
    2.0872   52.6556   27.7094 N   0  0  0  0  0  0
    3.7292   53.4288   29.6844 S   0  0  0  0  0  0
    5.0933   53.4184   28.4644 C   0  0  0  0  0  0
    4.7864   53.7783   26.9921 C   0  0  0  0  0  0
    5.9024   54.4838   26.1931 C   0  0  0  0  0  0
    6.9368   54.8164   26.7788 O   0  0  0  0  0  0
    5.7285   54.6943   24.8577 N   0  0  0  0  0  0
    4.4717   54.3907   24.1555 C   0  0  0  0  0  0
    4.7889   53.8506   22.7439 C   0  0  0  0  0  0
    5.6957   54.6765   21.9256 N   0  0  0  0  0  0
    6.9093   55.0192   22.6871 C   0  0  0  0  0  0
    6.7080   55.5180   24.1349 C   0  0  0  0  0  0
    5.6452   54.6813   20.5230 C   0  0  0  0  0  0
    6.7915   54.9314   19.7456 C   0  0  0  0  0  0
    6.7319   54.9639   18.3547 C   0  0  0  0  0  0
    5.5178   54.7613   17.7125 C   0  0  0  0  0  0
    4.3647   54.5225   18.4509 C   0  0  0  0  0  0
    4.4304   54.4865   19.8431 C   0  0  0  0  0  0
    5.4552   54.8039   16.3618 F   0  0  0  0  0  0
   -0.8944   51.6969   30.4811 N   0  0  0  0  0  0
   -2.1406   51.3001   24.9045 C   0  0  0  0  0  0
   -4.3846   49.7801   24.2207 H   0  0  0  0  0  0
   -5.6033   50.8719   24.8764 H   0  0  0  0  0  0
   -4.5640   51.4058   23.5622 H   0  0  0  0  0  0
   -4.6292   50.4627   27.1719 H   0  0  0  0  0  0
   -3.2946   49.5075   26.6415 H   0  0  0  0  0  0
   -2.6685   50.5081   28.7626 H   0  0  0  0  0  0
   -3.2664   52.0961   28.2926 H   0  0  0  0  0  0
    5.5746   52.4418   28.4826 H   0  0  0  0  0  0
    5.8464   54.0914   28.8787 H   0  0  0  0  0  0
    4.0038   54.5390   27.0195 H   0  0  0  0  0  0
    4.3674   52.9081   26.4873 H   0  0  0  0  0  0
    3.8764   55.2964   24.0454 H   0  0  0  0  0  0
    3.8610   53.6384   24.6500 H   0  0  0  0  0  0
    3.8547   53.6142   22.2393 H   0  0  0  0  0  0
    5.3088   52.8986   22.8618 H   0  0  0  0  0  0
    7.4848   54.0953   22.7487 H   0  0  0  0  0  0
    7.5111   55.7612   22.1660 H   0  0  0  0  0  0
    7.6804   55.5575   24.6228 H   0  0  0  0  0  0
    6.3057   56.5242   24.0773 H   0  0  0  0  0  0
    7.7556   55.0862   20.2026 H   0  0  0  0  0  0
    7.6227   55.1495   17.7738 H   0  0  0  0  0  0
    3.4221   54.3728   17.9473 H   0  0  0  0  0  0
    3.5051   54.3322   20.3715 H   0  0  0  0  0  0
   -1.6961   51.1561   30.1825 H   0  0  0  0  0  0
   -0.7239   51.7689   31.4851 H   0  0  0  0  0  0
   -2.0571   51.9840   24.0578 H   0  0  0  0  0  0
   -1.9314   50.2978   24.5271 H   0  0  0  0  0  0
  1  2  1  0  0  0
  1 35  1  0  0  0
  1 36  1  0  0  0
  1 37  1  0  0  0
  2  3  1  0  0  0
  2 34  1  0  0  0
  2  4  1  0  0  0
  4  5  1  0  0  0
  4 38  1  0  0  0
  4 39  1  0  0  0
  5  6  1  0  0  0
  5 40  1  0  0  0
  5 41  1  0  0  0
  6 10  1  0  0  0
  6  7  2  0  0  0
  7  8  1  0  0  0
  7 34  1  0  0  0
  8  9  1  0  0  0
  9 14  2  0  0  0
  9 10  1  0  0  0
 10 11  2  0  0  0
 11 12  1  0  0  0
 11 33  1  0  0  0
 12 13  2  0  0  0
 13 14  1  0  0  0
 13 15  1  0  0  0
 15 16  1  0  0  0
 16 17  1  0  0  0
 16 42  1  0  0  0
 16 43  1  0  0  0
 17 18  1  0  0  0
 17 44  1  0  0  0
 17 45  1  0  0  0
 18 19  2  0  0  0
 18 20  1  0  0  0
 20 25  1  0  0  0
 20 21  1  0  0  0
 21 22  1  0  0  0
 21 46  1  0  0  0
 21 47  1  0  0  0
 22 23  1  0  0  0
 22 48  1  0  0  0
 22 49  1  0  0  0
 23 24  1  0  0  0
 23 26  1  0  0  0
 24 25  1  0  0  0
 24 50  1  0  0  0
 24 51  1  0  0  0
 25 52  1  0  0  0
 25 53  1  0  0  0
 26 31  2  0  0  0
 26 27  1  0  0  0
 27 28  2  0  0  0
 27 54  1  0  0  0
 28 29  1  0  0  0
 28 55  1  0  0  0
 29 30  2  0  0  0
 29 32  1  0  0  0
 30 31  1  0  0  0
 30 56  1  0  0  0
 31 57  1  0  0  0
 33 58  1  0  0  0
 33 59  1  0  0  0
 34 60  1  0  0  0
 34 61  1  0  0  0
M  END
> <i_i_glide_confnum>
401

> <i_i_glide_lignum>
6097

> <i_i_glide_posenum>
311

> <i_i_glide_rotatable_bonds>
6

> <i_m_Source_File_Index>
4424

> <b_m_subgroup_collapsed>
0

> <r_i_docking_score>
-6.71771

> <r_i_glide_ecoul>
-8.53301

> <r_i_glide_eff_state_penalty>
0

> <r_i_glide_einternal>
8.21354

> <r_i_glide_emodel>
-70.4462

> <r_i_glide_energy>
-53.3935

> <r_i_glide_erotb>
0.516854

> <r_i_glide_esite>
-0.0955556

> <r_i_glide_evdw>
-44.8604

> <r_i_glide_gscore>
-6.71771

> <r_i_glide_hbond>
-0.40907

> <r_i_glide_ligand_efficiency>
-0.203567

> <r_i_glide_ligand_efficiency_ln>
-1.49398

> <r_i_glide_ligand_efficiency_sa>
-0.652948

> <r_i_glide_lipo>
-1.68024

> <r_i_glide_metal>
0

> <r_i_glide_rewards>
-1.52672

> <s_i_glide_gridfile>
wee1_glide-grid

> <s_m_Source_File>
wee1_decoys_glide_SP.sdf

> <s_m_Source_Path>
/Users/zhangxujun/Desktop

> <s_m_entry_id>
4699

> <s_m_entry_name>
wee1_decoys_glide_SP.4424

> <s_m_subgroup_title>
wee1_decoys_glide_SP

> <s_m_subgroupid>
wee1_decoys_glide_SP


$$$$
