ZINC65733854_1452
                    3D
 Schrodinger Suite 2024-2.
 53 56  0  0  1  0            999 V2000
   -0.6264   51.8964   29.4920 C   0  0  0  0  0  0
   -0.0796   51.9462   28.0744 C   0  0  0  0  0  0
    0.5861   52.9052   27.6921 O   0  0  0  0  0  0
   -0.3827   50.8968   27.3028 N   0  0  0  0  0  0
   -0.0140   50.7103   25.8949 C   0  0  2  0  0  0
    1.0267   51.0361   25.8128 H   0  0  0  0  0  0
   -0.8256   51.5852   24.9016 C   0  0  1  0  0  0
   -0.5955   52.6300   25.1201 H   0  0  0  0  0  0
   -0.4290   51.2927   23.4414 C   0  0  2  0  0  0
   -1.1274   51.7899   22.7660 H   0  0  0  0  0  0
   -0.4032   49.7809   23.1511 C   0  0  1  0  0  0
   -1.4258   49.3973   23.1510 H   0  0  0  0  0  0
    0.2445   49.5608   21.7722 C   0  0  0  0  0  0
    1.4674   50.2901   21.6404 O   0  0  0  0  0  0
    1.3052   51.6602   21.9130 C   0  0  1  0  0  0
    0.5972   52.1122   21.2120 H   0  0  0  0  0  0
    0.8732   51.8391   23.2373 O   0  0  0  0  0  0
    2.6515   52.3855   21.7059 C   0  0  0  0  0  0
    3.0301   53.4373   22.5490 C   0  0  0  0  0  0
    4.2406   54.0927   22.3508 C   0  0  0  0  0  0
    5.0697   53.7067   21.3021 C   0  0  0  0  0  0
    4.7046   52.6610   20.4570 C   0  0  0  0  0  0
    3.4971   52.0001   20.6594 C   0  0  0  0  0  0
    0.4227   49.1101   24.1114 O   0  0  0  0  0  0
    0.0112   49.2261   25.4485 C   0  0  2  0  0  0
    0.8083   48.6853   25.9668 H   0  0  0  0  0  0
   -1.2152   48.6439   25.6817 O   0  0  0  0  0  0
   -2.2275   51.4406   25.1602 O   0  0  0  0  0  0
   -3.1496   52.3509   24.7600 C   0  0  0  0  0  0
   -2.8910   53.2992   24.0146 O   0  0  0  0  0  0
   -4.5189   52.0771   25.3047 C   0  0  0  0  0  0
   -5.5964   52.8701   24.8817 C   0  0  0  0  0  0
   -6.8759   52.6477   25.3850 C   0  0  0  0  0  0
   -7.0862   51.6335   26.3147 C   0  0  0  0  0  0
   -6.0280   50.8386   26.7478 C   0  0  0  0  0  0
   -4.7478   51.0572   26.2454 C   0  0  0  0  0  0
   -0.4965   50.9048   29.9220 H   0  0  0  0  0  0
   -0.1344   52.6244   30.1364 H   0  0  0  0  0  0
   -1.6954   52.0979   29.4764 H   0  0  0  0  0  0
   -0.9102   50.1395   27.7229 H   0  0  0  0  0  0
    0.4356   48.4998   21.6048 H   0  0  0  0  0  0
   -0.4249   49.8705   20.9672 H   0  0  0  0  0  0
    2.3902   53.7526   23.3603 H   0  0  0  0  0  0
    4.5325   54.8966   23.0086 H   0  0  0  0  0  0
    6.0041   54.2234   21.1426 H   0  0  0  0  0  0
    5.3493   52.3605   19.6423 H   0  0  0  0  0  0
    3.2195   51.1936   19.9950 H   0  0  0  0  0  0
   -1.2956   48.4961   26.6408 H   0  0  0  0  0  0
   -5.4554   53.6617   24.1582 H   0  0  0  0  0  0
   -7.7024   53.2582   25.0498 H   0  0  0  0  0  0
   -8.0793   51.4593   26.7041 H   0  0  0  0  0  0
   -6.1981   50.0534   27.4711 H   0  0  0  0  0  0
   -3.9435   50.4251   26.6018 H   0  0  0  0  0  0
  1  2  1  0  0  0
  1 37  1  0  0  0
  1 38  1  0  0  0
  1 39  1  0  0  0
  2  3  2  0  0  0
  2  4  1  0  0  0
  4  5  1  0  0  0
  4 40  1  0  0  0
  5  6  1  0  0  0
  5 25  1  0  0  0
  5  7  1  0  0  0
  7  8  1  0  0  0
  7  9  1  0  0  0
  7 28  1  0  0  0
  9 10  1  0  0  0
  9 17  1  0  0  0
  9 11  1  0  0  0
 11 12  1  0  0  0
 11 13  1  0  0  0
 11 24  1  0  0  0
 13 14  1  0  0  0
 13 41  1  0  0  0
 13 42  1  0  0  0
 14 15  1  0  0  0
 15 16  1  0  0  0
 15 17  1  0  0  0
 15 18  1  0  0  0
 18 23  2  0  0  0
 18 19  1  0  0  0
 19 20  2  0  0  0
 19 43  1  0  0  0
 20 21  1  0  0  0
 20 44  1  0  0  0
 21 22  2  0  0  0
 21 45  1  0  0  0
 22 23  1  0  0  0
 22 46  1  0  0  0
 23 47  1  0  0  0
 24 25  1  0  0  0
 25 26  1  0  0  0
 25 27  1  0  0  0
 27 48  1  0  0  0
 28 29  1  0  0  0
 29 30  2  0  0  0
 29 31  1  0  0  0
 31 36  2  0  0  0
 31 32  1  0  0  0
 32 33  2  0  0  0
 32 49  1  0  0  0
 33 34  1  0  0  0
 33 50  1  0  0  0
 34 35  2  0  0  0
 34 51  1  0  0  0
 35 36  1  0  0  0
 35 52  1  0  0  0
 36 53  1  0  0  0
M  END
> <i_i_glide_confnum>
14

> <i_i_glide_lignum>
1453

> <i_i_glide_posenum>
395

> <i_i_glide_rotatable_bonds>
7

> <i_m_Source_File_Index>
1587

> <b_m_subgroup_collapsed>
0

> <r_i_docking_score>
-3.8043

> <r_i_glide_ecoul>
-7.53836

> <r_i_glide_eff_state_penalty>
0

> <r_i_glide_einternal>
2.47335

> <r_i_glide_emodel>
-51.0619

> <r_i_glide_energy>
-41.5158

> <r_i_glide_erotb>
0.577126

> <r_i_glide_esite>
-0.158368

> <r_i_glide_evdw>
-33.9775

> <r_i_glide_gscore>
-3.8043

> <r_i_glide_hbond>
-0.152

> <r_i_glide_ligand_efficiency>
-0.12681

> <r_i_glide_ligand_efficiency_ln>
-0.864379

> <r_i_glide_ligand_efficiency_sa>
-0.394028

> <r_i_glide_lipo>
-0.514305

> <r_i_glide_metal>
0

> <r_i_glide_rewards>
-0.727129

> <s_i_glide_gridfile>
wee1_glide-grid

> <s_m_Source_File>
wee1_decoys_glide_SP.sdf

> <s_m_Source_Path>
/Users/zhangxujun/Desktop

> <s_m_entry_id>
1862

> <s_m_entry_name>
wee1_decoys_glide_SP.1587

> <s_m_subgroup_title>
wee1_decoys_glide_SP

> <s_m_subgroupid>
wee1_decoys_glide_SP


$$$$
