ZINC00987200_2419
                    3D
 Schrodinger Suite 2024-2.
 46 49  0  0  1  0            999 V2000
    1.4381   49.2941   21.1920 C   0  0  0  0  0  0
    2.0383   49.3000   22.4802 O   0  0  0  0  0  0
    1.3556   50.0149   23.4360 C   0  0  0  0  0  0
    0.6970   49.3133   24.4498 C   0  0  0  0  0  0
    0.0201   49.9941   25.4591 C   0  0  0  0  0  0
   -0.0368   51.3900   25.4447 C   0  0  0  0  0  0
    0.6252   52.0909   24.4282 C   0  0  0  0  0  0
    1.3573   51.4182   23.4369 C   0  0  0  0  0  0
    2.0763   52.0640   22.4487 O   0  0  0  0  0  0
    2.2275   53.4780   22.4922 C   0  0  0  0  0  0
   -0.8779   52.1387   26.4808 C   0  0  2  0  0  0
   -0.9354   53.1644   26.1361 H   0  0  0  0  0  0
   -0.3391   52.1327   27.9260 C   0  0  0  0  0  0
    0.8733   52.4520   28.6152 C   0  0  0  0  0  0
    0.7477   52.2338   29.9189 N   0  0  0  0  0  0
   -0.4956   51.7943   30.1140 N   0  0  0  0  0  0
   -0.8685   51.5635   31.0303 H   0  0  0  0  0  0
   -1.1650   51.6963   28.9426 C   0  0  0  0  0  0
   -2.4683   51.2824   28.8774 O   0  0  0  0  0  0
   -2.9897   51.2970   27.6235 C   0  0  0  0  0  0
   -2.3515   51.6809   26.4906 C   0  0  0  0  0  0
   -3.0553   51.6941   25.2474 C   0  0  0  0  0  0
   -3.6296   51.7418   24.2439 N   0  0  0  0  0  0
   -4.2799   50.8562   27.7236 N   0  0  0  0  0  0
    2.1907   52.9678   28.0949 C   0  0  0  0  0  0
    2.2600   53.6442   26.8731 C   0  0  0  0  0  0
    3.4759   54.1201   26.3864 C   0  0  0  0  0  0
    4.6378   53.9386   27.1316 C   0  0  0  0  0  0
    4.5870   53.2963   28.3636 C   0  0  0  0  0  0
    3.3710   52.8113   28.8399 C   0  0  0  0  0  0
    6.3023   54.5851   26.4695 Br  0  0  0  0  0  0
    2.0125   48.6476   20.5296 H   0  0  0  0  0  0
    1.4179   50.2902   20.7456 H   0  0  0  0  0  0
    0.4168   48.9118   21.2310 H   0  0  0  0  0  0
    0.7074   48.2330   24.4618 H   0  0  0  0  0  0
   -0.4883   49.4350   26.2349 H   0  0  0  0  0  0
    0.5641   53.1664   24.4105 H   0  0  0  0  0  0
    2.8342   53.7984   21.6446 H   0  0  0  0  0  0
    1.2726   53.9976   22.4289 H   0  0  0  0  0  0
    2.7409   53.7926   23.4015 H   0  0  0  0  0  0
   -4.8505   50.7864   26.8958 H   0  0  0  0  0  0
   -4.5260   50.2524   28.4936 H   0  0  0  0  0  0
    1.3663   53.8211   26.3056 H   0  0  0  0  0  0
    3.5139   54.6344   25.4378 H   0  0  0  0  0  0
    5.4918   53.1612   28.9363 H   0  0  0  0  0  0
    3.3565   52.3028   29.7918 H   0  0  0  0  0  0
  1  2  1  0  0  0
  1 32  1  0  0  0
  1 33  1  0  0  0
  1 34  1  0  0  0
  2  3  1  0  0  0
  3  8  2  0  0  0
  3  4  1  0  0  0
  4  5  2  0  0  0
  4 35  1  0  0  0
  5  6  1  0  0  0
  5 36  1  0  0  0
  6  7  2  0  0  0
  6 11  1  0  0  0
  7  8  1  0  0  0
  7 37  1  0  0  0
  8  9  1  0  0  0
  9 10  1  0  0  0
 10 38  1  0  0  0
 10 39  1  0  0  0
 10 40  1  0  0  0
 11 12  1  0  0  0
 11 21  1  0  0  0
 11 13  1  0  0  0
 13 18  2  0  0  0
 13 14  1  0  0  0
 14 15  2  0  0  0
 14 25  1  0  0  0
 15 16  1  0  0  0
 16 17  1  0  0  0
 16 18  1  0  0  0
 18 19  1  0  0  0
 19 20  1  0  0  0
 20 21  2  0  0  0
 20 24  1  0  0  0
 21 22  1  0  0  0
 22 23  3  0  0  0
 24 41  1  0  0  0
 24 42  1  0  0  0
 25 30  2  0  0  0
 25 26  1  0  0  0
 26 27  2  0  0  0
 26 43  1  0  0  0
 27 28  1  0  0  0
 27 44  1  0  0  0
 28 29  2  0  0  0
 28 31  1  0  0  0
 29 30  1  0  0  0
 29 45  1  0  0  0
 30 46  1  0  0  0
M  END
> <i_i_glide_confnum>
2

> <i_i_glide_lignum>
2420

> <i_i_glide_posenum>
63

> <i_i_glide_rotatable_bonds>
5

> <i_m_Source_File_Index>
481

> <b_m_subgroup_collapsed>
0

> <r_i_docking_score>
-4.9091

> <r_i_glide_ecoul>
-2.55718

> <r_i_glide_eff_state_penalty>
0

> <r_i_glide_einternal>
7.1998

> <r_i_glide_emodel>
-51.8218

> <r_i_glide_energy>
-42.5133

> <r_i_glide_erotb>
0.195375

> <r_i_glide_esite>
-0.115522

> <r_i_glide_evdw>
-39.9561

> <r_i_glide_gscore>
-4.9091

> <r_i_glide_hbond>
-0.0911166

> <r_i_glide_ligand_efficiency>
-0.169279

> <r_i_glide_ligand_efficiency_ln>
-1.12406

> <r_i_glide_ligand_efficiency_sa>
-0.52008

> <r_i_glide_lipo>
-2.15711

> <r_i_glide_metal>
0

> <r_i_glide_rewards>
-0.359346

> <s_i_glide_gridfile>
wee1_glide-grid

> <s_m_Source_File>
wee1_decoys_glide_SP.sdf

> <s_m_Source_Path>
/Users/zhangxujun/Desktop

> <s_m_entry_id>
756

> <s_m_entry_name>
wee1_decoys_glide_SP.481

> <s_m_subgroup_title>
wee1_decoys_glide_SP

> <s_m_subgroupid>
wee1_decoys_glide_SP


$$$$
