ZINC61856106_4813
                    3D
 Schrodinger Suite 2024-2.
 39 40  0  0  1  0            999 V2000
    7.8722   55.6951   21.6144 C   0  0  0  0  0  0
    6.7065   55.0840   22.3682 C   0  0  0  0  0  0
    5.6652   54.4949   21.6565 C   0  0  0  0  0  0
    4.6380   53.8442   22.3346 C   0  0  0  0  0  0
    4.6282   53.8457   23.7288 C   0  0  0  0  0  0
    5.6183   54.4973   24.4871 C   0  0  0  0  0  0
    6.6748   55.0929   23.7665 C   0  0  0  0  0  0
    5.5643   54.5080   25.9182 N   0  0  0  0  0  0
    6.7033   55.1130   26.6259 C   0  0  0  0  0  0
    4.5294   54.0398   26.7766 C   0  0  0  0  0  0
    3.1839   54.2020   26.4312 C   0  0  0  0  0  0
    2.1625   53.7012   27.2311 C   0  0  0  0  0  0
    2.4406   53.0272   28.4266 C   0  0  0  0  0  0
    3.7919   52.8972   28.8108 C   0  0  0  0  0  0
    4.8091   53.3961   27.9923 C   0  0  0  0  0  0
    4.2554   52.0940   30.2750 Cl  0  0  0  0  0  0
    1.3223   52.4335   29.1712 C   0  0  0  0  0  0
    1.0341   52.8612   30.3366 N   0  0  0  0  0  0
   -0.0954   52.2085   30.8778 O   0  0  0  0  0  0
    0.7231   51.4428   28.4125 N   0  0  0  0  0  0
    3.5739   53.0876   21.5626 C   0  0  0  0  0  0
    7.5447   56.1235   20.6672 H   0  0  0  0  0  0
    8.3356   56.4965   22.1868 H   0  0  0  0  0  0
    8.6234   54.9293   21.4087 H   0  0  0  0  0  0
    5.6874   54.4828   20.5764 H   0  0  0  0  0  0
    3.8371   53.2974   24.2079 H   0  0  0  0  0  0
    7.5038   55.5670   24.2663 H   0  0  0  0  0  0
    6.9416   56.0963   26.2202 H   0  0  0  0  0  0
    6.5146   55.2841   27.6861 H   0  0  0  0  0  0
    7.5733   54.4627   26.5585 H   0  0  0  0  0  0
    2.9167   54.7322   25.5290 H   0  0  0  0  0  0
    1.1378   53.8280   26.9066 H   0  0  0  0  0  0
    5.8331   53.2417   28.2985 H   0  0  0  0  0  0
   -0.1482   52.5149   31.7926 H   0  0  0  0  0  0
   -0.0669   50.9421   28.8009 H   0  0  0  0  0  0
    1.0929   51.1599   27.5202 H   0  0  0  0  0  0
    3.9511   52.7476   20.5973 H   0  0  0  0  0  0
    3.2646   52.1923   22.1043 H   0  0  0  0  0  0
    2.6933   53.7075   21.3986 H   0  0  0  0  0  0
  1  2  1  0  0  0
  1 22  1  0  0  0
  1 23  1  0  0  0
  1 24  1  0  0  0
  2  7  2  0  0  0
  2  3  1  0  0  0
  3  4  2  0  0  0
  3 25  1  0  0  0
  4  5  1  0  0  0
  4 21  1  0  0  0
  5  6  2  0  0  0
  5 26  1  0  0  0
  6  7  1  0  0  0
  6  8  1  0  0  0
  7 27  1  0  0  0
  8  9  1  0  0  0
  8 10  1  0  0  0
  9 28  1  0  0  0
  9 29  1  0  0  0
  9 30  1  0  0  0
 10 15  2  0  0  0
 10 11  1  0  0  0
 11 12  2  0  0  0
 11 31  1  0  0  0
 12 13  1  0  0  0
 12 32  1  0  0  0
 13 14  2  0  0  0
 13 17  1  0  0  0
 14 15  1  0  0  0
 14 16  1  0  0  0
 15 33  1  0  0  0
 17 18  2  0  0  0
 17 20  1  0  0  0
 18 19  1  0  0  0
 19 34  1  0  0  0
 20 35  1  0  0  0
 20 36  1  0  0  0
 21 37  1  0  0  0
 21 38  1  0  0  0
 21 39  1  0  0  0
M  END
> <i_i_glide_confnum>
6

> <i_i_glide_lignum>
4814

> <i_i_glide_posenum>
373

> <i_i_glide_rotatable_bonds>
4

> <i_m_Source_File_Index>
6015

> <b_m_subgroup_collapsed>
0

> <r_i_docking_score>
-6.58987

> <r_i_glide_ecoul>
-4.03994

> <r_i_glide_eff_state_penalty>
0

> <r_i_glide_einternal>
5.06793

> <r_i_glide_emodel>
-57.1245

> <r_i_glide_energy>
-41.5314

> <r_i_glide_erotb>
0.798925

> <r_i_glide_esite>
-0.1

> <r_i_glide_evdw>
-37.4915

> <r_i_glide_gscore>
-6.58987

> <r_i_glide_hbond>
-0.0489193

> <r_i_glide_ligand_efficiency>
-0.313803

> <r_i_glide_ligand_efficiency_ln>
-1.62933

> <r_i_glide_ligand_efficiency_sa>
-0.86576

> <r_i_glide_lipo>
-3.34424

> <r_i_glide_metal>
0

> <r_i_glide_rewards>
-1.41507

> <s_i_glide_gridfile>
wee1_glide-grid

> <s_m_Source_File>
wee1_decoys_glide_SP.sdf

> <s_m_Source_Path>
/Users/zhangxujun/Desktop

> <s_m_entry_id>
6290

> <s_m_entry_name>
wee1_decoys_glide_SP.6015

> <s_m_subgroup_title>
wee1_decoys_glide_SP

> <s_m_subgroupid>
wee1_decoys_glide_SP


$$$$
