ZINC40291045_3776
                    3D
 Schrodinger Suite 2024-2.
 39 41  0  0  1  0            999 V2000
    5.6183   53.8008   23.6487 C   0  0  0  0  0  0
    4.2067   53.8088   24.2555 C   0  0  0  0  0  0
    3.1122   53.7471   23.3782 C   0  0  0  0  0  0
    1.8350   53.6954   23.8114 N   0  0  0  0  0  0
    1.5817   53.6971   25.1196 N   0  0  0  0  0  0
    2.5746   53.7413   26.0517 C   0  0  0  0  0  0
    3.9479   53.7965   25.6604 C   0  0  0  0  0  0
    5.0515   53.8105   26.6845 C   0  0  0  0  0  0
    6.3046   54.8966   26.6984 S   0  0  0  0  0  0
    4.9302   52.9001   27.6776 N   0  0  0  0  0  0
    2.1144   53.8455   27.3790 N   0  0  0  0  0  0
    2.5030   55.0714   28.1002 C   0  0  0  0  0  0
    2.6611   54.8151   29.5981 C   0  0  0  0  0  0
    1.2843   54.4668   30.1541 C   0  0  0  0  0  0
    0.6657   53.3522   29.3238 C   0  0  0  0  0  0
    1.0692   53.0993   27.9793 C   0  0  0  0  0  0
    0.4557   52.0293   27.3027 C   0  0  0  0  0  0
   -0.5700   51.2964   27.8840 C   0  0  0  0  0  0
   -0.9597   51.5613   29.1876 C   0  0  0  0  0  0
   -0.3265   52.5607   29.9081 C   0  0  0  0  0  0
    3.2632   53.6951   21.8629 C   0  0  0  0  0  0
    5.6701   53.2527   22.7098 H   0  0  0  0  0  0
    5.9626   54.8195   23.4710 H   0  0  0  0  0  0
    6.3420   53.2971   24.2843 H   0  0  0  0  0  0
    4.1354   52.2766   27.6860 H   0  0  0  0  0  0
    5.6337   52.8532   28.3993 H   0  0  0  0  0  0
    3.3981   55.5397   27.7094 H   0  0  0  0  0  0
    1.7009   55.7941   27.9498 H   0  0  0  0  0  0
    3.3648   54.0005   29.7760 H   0  0  0  0  0  0
    3.0713   55.6972   30.0806 H   0  0  0  0  0  0
    1.3380   54.1764   31.2034 H   0  0  0  0  0  0
    0.6378   55.3453   30.1100 H   0  0  0  0  0  0
    0.7565   51.7344   26.3112 H   0  0  0  0  0  0
   -1.0385   50.4890   27.3403 H   0  0  0  0  0  0
   -1.7278   50.9558   29.6512 H   0  0  0  0  0  0
   -0.6260   52.7290   30.9334 H   0  0  0  0  0  0
    3.8335   54.5503   21.5008 H   0  0  0  0  0  0
    3.7750   52.7819   21.5599 H   0  0  0  0  0  0
    2.3025   53.6962   21.3501 H   0  0  0  0  0  0
  1  2  1  0  0  0
  1 22  1  0  0  0
  1 23  1  0  0  0
  1 24  1  0  0  0
  2  7  2  0  0  0
  2  3  1  0  0  0
  3  4  2  0  0  0
  3 21  1  0  0  0
  4  5  1  0  0  0
  5  6  2  0  0  0
  6  7  1  0  0  0
  6 11  1  0  0  0
  7  8  1  0  0  0
  8  9  2  0  0  0
  8 10  1  0  0  0
 10 25  1  0  0  0
 10 26  1  0  0  0
 11 16  1  0  0  0
 11 12  1  0  0  0
 12 13  1  0  0  0
 12 27  1  0  0  0
 12 28  1  0  0  0
 13 14  1  0  0  0
 13 29  1  0  0  0
 13 30  1  0  0  0
 14 15  1  0  0  0
 14 31  1  0  0  0
 14 32  1  0  0  0
 15 20  2  0  0  0
 15 16  1  0  0  0
 16 17  2  0  0  0
 17 18  1  0  0  0
 17 33  1  0  0  0
 18 19  2  0  0  0
 18 34  1  0  0  0
 19 20  1  0  0  0
 19 35  1  0  0  0
 20 36  1  0  0  0
 21 37  1  0  0  0
 21 38  1  0  0  0
 21 39  1  0  0  0
M  END
> <i_i_glide_confnum>
4

> <i_i_glide_lignum>
3777

> <i_i_glide_posenum>
221

> <i_i_glide_rotatable_bonds>
2

> <i_m_Source_File_Index>
14

> <b_m_subgroup_collapsed>
0

> <r_i_docking_score>
-6.1974

> <r_i_glide_ecoul>
-2.74276

> <r_i_glide_eff_state_penalty>
0

> <r_i_glide_einternal>
6.35659

> <r_i_glide_emodel>
-41.7619

> <r_i_glide_energy>
-31.8012

> <r_i_glide_erotb>
0.206077

> <r_i_glide_esite>
0

> <r_i_glide_evdw>
-29.0584

> <r_i_glide_gscore>
-6.1974

> <r_i_glide_hbond>
0

> <r_i_glide_ligand_efficiency>
-0.295114

> <r_i_glide_ligand_efficiency_ln>
-1.53229

> <r_i_glide_ligand_efficiency_sa>
-0.814197

> <r_i_glide_lipo>
-2.12149

> <r_i_glide_metal>
0

> <r_i_glide_rewards>
-2.41765

> <s_i_glide_gridfile>
wee1_glide-grid

> <s_m_Source_File>
wee1_decoys_glide_SP.sdf

> <s_m_Source_Path>
/Users/zhangxujun/Desktop

> <s_m_entry_id>
289

> <s_m_entry_name>
wee1_decoys_glide_SP.14

> <s_m_subgroup_title>
wee1_decoys_glide_SP

> <s_m_subgroupid>
wee1_decoys_glide_SP


$$$$
