ZINC08231517_1422
                    3D
 Schrodinger Suite 2024-2.
 42 45  0  0  1  0            999 V2000
    6.2868   53.8310   28.4810 C   0  0  0  0  0  0
    6.6797   54.2738   27.2237 C   0  0  0  0  0  0
    5.7439   54.4071   26.1906 C   0  0  0  0  0  0
    4.3998   54.0971   26.4467 C   0  0  0  0  0  0
    3.9995   53.6581   27.7083 C   0  0  0  0  0  0
    4.9525   53.5201   28.7257 C   0  0  0  0  0  0
    2.6550   53.2989   27.8574 N   0  0  0  0  0  0
    1.9310   53.2385   28.9926 C   0  0  0  0  0  0
    2.3015   53.6808   30.0818 O   0  0  0  0  0  0
    0.6719   52.5458   28.8621 C   0  0  0  0  0  0
   -0.1825   52.1780   29.9008 C   0  0  0  0  0  0
   -1.2954   51.4570   29.4623 C   0  0  0  0  0  0
   -1.3357   51.2999   28.0862 C   0  0  0  0  0  0
    0.0175   52.0480   27.3127 S   0  0  0  0  0  0
    6.1913   54.8816   24.8364 C   0  0  0  0  0  0
    7.1044   55.6967   24.7543 O   0  0  0  0  0  0
    5.5371   54.3252   23.7964 N   0  0  0  0  0  0
    5.7183   54.4895   22.4131 C   0  0  0  0  0  0
    6.7046   55.2933   21.8191 C   0  0  0  0  0  0
    6.8187   55.3348   20.4311 C   0  0  0  0  0  0
    5.9544   54.5752   19.6321 C   0  0  0  0  0  0
    4.9586   53.7951   20.2251 C   0  0  0  0  0  0
    4.8421   53.7572   21.6094 C   0  0  0  0  0  0
    6.1020   54.5595   18.2290 N   0  0  0  0  0  0
    5.8895   53.5246   17.3448 C   0  0  0  0  0  0
    6.1418   53.8983   16.1167 N   0  0  0  0  0  0
    6.5304   55.2308   16.2173 N   0  0  0  0  0  0
    6.5041   55.6376   17.5379 N   0  0  0  0  0  0
    7.0264   53.7293   29.2625 H   0  0  0  0  0  0
    7.7232   54.4969   27.0627 H   0  0  0  0  0  0
    3.6565   54.2005   25.6681 H   0  0  0  0  0  0
    4.6791   53.1477   29.6998 H   0  0  0  0  0  0
    2.1918   52.9933   27.0158 H   0  0  0  0  0  0
    0.0071   52.3830   30.9466 H   0  0  0  0  0  0
   -2.0309   51.0306   30.1318 H   0  0  0  0  0  0
   -2.0669   50.7480   27.5125 H   0  0  0  0  0  0
    4.8215   53.6622   24.0465 H   0  0  0  0  0  0
    7.4089   55.8626   22.4051 H   0  0  0  0  0  0
    7.6016   55.9313   19.9837 H   0  0  0  0  0  0
    4.2788   53.2076   19.6235 H   0  0  0  0  0  0
    4.0724   53.1375   22.0472 H   0  0  0  0  0  0
    5.5716   52.5455   17.6809 H   0  0  0  0  0  0
  1  6  2  0  0  0
  1  2  1  0  0  0
  1 29  1  0  0  0
  2  3  2  0  0  0
  2 30  1  0  0  0
  3  4  1  0  0  0
  3 15  1  0  0  0
  4  5  2  0  0  0
  4 31  1  0  0  0
  5  6  1  0  0  0
  5  7  1  0  0  0
  6 32  1  0  0  0
  7  8  1  0  0  0
  7 33  1  0  0  0
  8  9  2  0  0  0
  8 10  1  0  0  0
 10 14  1  0  0  0
 10 11  2  0  0  0
 11 12  1  0  0  0
 11 34  1  0  0  0
 12 13  2  0  0  0
 12 35  1  0  0  0
 13 14  1  0  0  0
 13 36  1  0  0  0
 15 16  2  0  0  0
 15 17  1  0  0  0
 17 18  1  0  0  0
 17 37  1  0  0  0
 18 23  2  0  0  0
 18 19  1  0  0  0
 19 20  2  0  0  0
 19 38  1  0  0  0
 20 21  1  0  0  0
 20 39  1  0  0  0
 21 22  2  0  0  0
 21 24  1  0  0  0
 22 23  1  0  0  0
 22 40  1  0  0  0
 23 41  1  0  0  0
 24 28  1  0  0  0
 24 25  1  0  0  0
 25 26  2  0  0  0
 25 42  1  0  0  0
 26 27  1  0  0  0
 27 28  2  0  0  0
M  END
> <i_i_glide_confnum>
71

> <i_i_glide_lignum>
1423

> <i_i_glide_posenum>
204

> <i_i_glide_rotatable_bonds>
7

> <i_m_Source_File_Index>
5828

> <b_m_subgroup_collapsed>
0

> <r_i_docking_score>
-6.69879

> <r_i_glide_ecoul>
-5.7476

> <r_i_glide_eff_state_penalty>
0

> <r_i_glide_einternal>
9.14876

> <r_i_glide_emodel>
-64.9206

> <r_i_glide_energy>
-49.3992

> <r_i_glide_erotb>
0.895705

> <r_i_glide_esite>
-0.0554784

> <r_i_glide_evdw>
-43.6516

> <r_i_glide_gscore>
-6.69879

> <r_i_glide_hbond>
-0.579713

> <r_i_glide_ligand_efficiency>
-0.239242

> <r_i_glide_ligand_efficiency_ln>
-1.54628

> <r_i_glide_ligand_efficiency_sa>
-0.726481

> <r_i_glide_lipo>
-2.45485

> <r_i_glide_metal>
0

> <r_i_glide_rewards>
-1.45974

> <s_i_glide_gridfile>
wee1_glide-grid

> <s_m_Source_File>
wee1_decoys_glide_SP.sdf

> <s_m_Source_Path>
/Users/zhangxujun/Desktop

> <s_m_entry_id>
6103

> <s_m_entry_name>
wee1_decoys_glide_SP.5828

> <s_m_subgroup_title>
wee1_decoys_glide_SP

> <s_m_subgroupid>
wee1_decoys_glide_SP


$$$$
