ZINC32811617_772
                    3D
 Schrodinger Suite 2024-2.
 63 65  0  0  1  0            999 V2000
   -5.5504   47.2713   28.0781 C   0  0  0  0  0  0
   -6.0427   48.7302   28.2045 C   0  0  1  0  0  0
   -6.3795   49.0481   27.2159 H   0  0  0  0  0  0
   -7.2916   48.8910   29.1029 C   0  0  0  0  0  0
   -6.9542   48.6941   30.5919 C   0  0  0  0  0  0
   -5.8570   49.6781   31.0402 C   0  0  0  0  0  0
   -4.6051   49.6239   30.1367 C   0  0  0  0  0  0
   -4.9208   49.7310   28.6205 C   0  0  1  0  0  0
   -5.3368   50.7364   28.5156 H   0  0  0  0  0  0
   -3.6957   49.6970   27.8190 N   0  0  0  0  0  0
   -3.5739   50.0060   26.5193 C   0  0  0  0  0  0
   -4.4814   50.5149   25.8554 O   0  0  0  0  0  0
   -2.3300   49.7051   26.0816 N   0  0  0  0  0  0
   -1.7886   50.0067   24.8769 C   0  0  0  0  0  0
   -2.4133   50.4250   23.8966 O   0  0  0  0  0  0
   -0.2674   49.7895   24.7669 C   0  0  0  0  0  0
    0.3442   50.5685   23.5641 N   0  3  0  0  0  0
    0.2989   52.1150   23.7770 C   0  0  0  0  0  0
    1.0989   52.8529   22.6820 C   0  0  0  0  0  0
    2.4468   52.2693   22.5971 N   0  0  0  0  0  0
    2.4672   50.8660   22.1411 C   0  0  0  0  0  0
    1.7302   49.9724   23.1676 C   0  0  0  0  0  0
    3.8898   53.3173   22.4610 S   0  0  0  0  0  0
    5.0266   52.4960   22.0267 O   0  0  0  0  0  0
    3.5046   54.5022   21.7007 O   0  0  0  0  0  0
    4.2849   53.8785   24.1268 C   0  0  0  0  0  0
    3.2987   53.9491   25.1115 C   0  0  0  0  0  0
    3.6618   54.0535   26.4498 C   0  0  0  0  0  0
    5.0106   54.1025   26.8096 C   0  0  0  0  0  0
    5.9865   54.1956   25.8087 C   0  0  0  0  0  0
    5.6227   54.0967   24.4673 C   0  0  0  0  0  0
    5.3937   53.9797   28.2847 C   0  0  0  0  0  0
    6.7065   54.0965   28.4795 F   0  0  0  0  0  0
    4.7653   54.8967   29.0152 F   0  0  0  0  0  0
    5.0183   52.7817   28.7293 F   0  0  0  0  0  0
   -5.1437   46.8982   29.0183 H   0  0  0  0  0  0
   -6.3631   46.6089   27.7789 H   0  0  0  0  0  0
   -4.7653   47.1789   27.3257 H   0  0  0  0  0  0
   -8.0658   48.1815   28.8042 H   0  0  0  0  0  0
   -7.7213   49.8840   28.9595 H   0  0  0  0  0  0
   -7.8486   48.8358   31.1993 H   0  0  0  0  0  0
   -6.6277   47.6684   30.7710 H   0  0  0  0  0  0
   -6.2609   50.6918   31.0302 H   0  0  0  0  0  0
   -5.5761   49.4769   32.0750 H   0  0  0  0  0  0
   -3.9056   50.4057   30.4380 H   0  0  0  0  0  0
   -4.0962   48.6772   30.3280 H   0  0  0  0  0  0
   -2.9463   49.1331   28.2194 H   0  0  0  0  0  0
   -1.7221   49.2702   26.7695 H   0  0  0  0  0  0
    0.2759   50.0999   25.6615 H   0  0  0  0  0  0
   -0.0593   48.7340   24.5828 H   0  0  0  0  0  0
   -0.7514   52.4036   23.7193 H   0  0  0  0  0  0
    0.6673   52.3171   24.7827 H   0  0  0  0  0  0
    0.6165   52.7563   21.7077 H   0  0  0  0  0  0
    1.1897   53.9202   22.8873 H   0  0  0  0  0  0
    3.5040   50.5493   22.0298 H   0  0  0  0  0  0
    1.9922   50.8021   21.1611 H   0  0  0  0  0  0
    2.3045   49.8279   24.0819 H   0  0  0  0  0  0
    1.5188   48.9933   22.7356 H   0  0  0  0  0  0
    2.2585   53.8424   24.8661 H   0  0  0  0  0  0
    2.8973   54.0160   27.2129 H   0  0  0  0  0  0
    7.0341   54.2557   26.0615 H   0  0  0  0  0  0
    6.3925   54.0657   23.7097 H   0  0  0  0  0  0
   -0.2360   50.4204   22.7467 H   0  0  0  0  0  0
  1  2  1  0  0  0
  1 36  1  0  0  0
  1 37  1  0  0  0
  1 38  1  0  0  0
  2  3  1  0  0  0
  2  8  1  0  0  0
  2  4  1  0  0  0
  4  5  1  0  0  0
  4 39  1  0  0  0
  4 40  1  0  0  0
  5  6  1  0  0  0
  5 41  1  0  0  0
  5 42  1  0  0  0
  6  7  1  0  0  0
  6 43  1  0  0  0
  6 44  1  0  0  0
  7  8  1  0  0  0
  7 45  1  0  0  0
  7 46  1  0  0  0
  8  9  1  0  0  0
  8 10  1  0  0  0
 10 11  1  0  0  0
 10 47  1  0  0  0
 11 12  2  0  0  0
 11 13  1  0  0  0
 13 14  1  0  0  0
 13 48  1  0  0  0
 14 15  2  0  0  0
 14 16  1  0  0  0
 16 17  1  0  0  0
 16 49  1  0  0  0
 16 50  1  0  0  0
 17 22  1  0  0  0
 17 18  1  0  0  0
 17 63  1  0  0  0
 18 19  1  0  0  0
 18 51  1  0  0  0
 18 52  1  0  0  0
 19 20  1  0  0  0
 19 53  1  0  0  0
 19 54  1  0  0  0
 20 21  1  0  0  0
 20 23  1  0  0  0
 21 22  1  0  0  0
 21 55  1  0  0  0
 21 56  1  0  0  0
 22 57  1  0  0  0
 22 58  1  0  0  0
 23 24  2  0  0  0
 23 25  2  0  0  0
 23 26  1  0  0  0
 26 31  2  0  0  0
 26 27  1  0  0  0
 27 28  2  0  0  0
 27 59  1  0  0  0
 28 29  1  0  0  0
 28 60  1  0  0  0
 29 30  2  0  0  0
 29 32  1  0  0  0
 30 31  1  0  0  0
 30 61  1  0  0  0
 31 62  1  0  0  0
 32 33  1  0  0  0
 32 34  1  0  0  0
 32 35  1  0  0  0
M  CHG  1  17   1
M  END
> <i_i_glide_confnum>
299

> <i_i_glide_lignum>
773

> <i_i_glide_posenum>
278

> <i_i_glide_rotatable_bonds>
9

> <i_m_Source_File_Index>
424

> <b_m_subgroup_collapsed>
0

> <r_i_docking_score>
-5.38328

> <r_i_glide_ecoul>
-7.03896

> <r_i_glide_eff_state_penalty>
0

> <r_i_glide_einternal>
3.89604

> <r_i_glide_emodel>
-51.8248

> <r_i_glide_energy>
-39.1678

> <r_i_glide_erotb>
0.674061

> <r_i_glide_esite>
-0.300381

> <r_i_glide_evdw>
-32.1289

> <r_i_glide_gscore>
-5.38328

> <r_i_glide_hbond>
-0.304

> <r_i_glide_ligand_efficiency>
-0.16313

> <r_i_glide_ligand_efficiency_ln>
-1.19721

> <r_i_glide_ligand_efficiency_sa>
-0.523244

> <r_i_glide_lipo>
-2.33962

> <r_i_glide_metal>
0

> <r_i_glide_rewards>
-0.451048

> <s_i_glide_gridfile>
wee1_glide-grid

> <s_m_Source_File>
wee1_decoys_glide_SP.sdf

> <s_m_Source_Path>
/Users/zhangxujun/Desktop

> <s_m_entry_id>
699

> <s_m_entry_name>
wee1_decoys_glide_SP.424

> <s_m_subgroup_title>
wee1_decoys_glide_SP

> <s_m_subgroupid>
wee1_decoys_glide_SP


$$$$
