ZINC13401014_2015
                    3D
 Schrodinger Suite 2024-2.
 44 46  0  0  1  0            999 V2000
    1.1816   55.4891   30.4816 C   0  0  0  0  0  0
    0.3047   54.4966   30.8852 C   0  0  0  0  0  0
    0.1085   53.3818   30.0834 C   0  0  0  0  0  0
    0.7929   53.2144   28.8652 C   0  0  0  0  0  0
    1.7595   54.1900   28.4774 C   0  0  0  0  0  0
    1.9042   55.3273   29.3042 C   0  0  0  0  0  0
    2.4535   54.0721   27.2838 N   0  5  0  0  0  0
    3.7517   54.3355   27.2242 C   0  0  0  0  0  0
    4.4758   54.4969   28.2138 O   0  0  0  0  0  0
    4.3916   54.4160   25.9123 C   0  0  0  0  0  0
    3.8138   53.9326   24.7827 C   0  0  0  0  0  0
    4.3082   53.9581   23.4168 C   0  0  0  0  0  0
    5.4202   54.4960   22.7755 C   0  0  0  0  0  0
    5.3026   54.1979   21.4160 C   0  0  0  0  0  0
    4.1344   53.4649   21.2678 C   0  0  0  0  0  0
    3.5487   53.3271   22.4853 O   0  0  0  0  0  0
    3.4164   52.8683   20.1080 C   0  0  0  0  0  0
    3.7056   53.2968   18.8106 C   0  0  0  0  0  0
    2.9892   52.7879   17.7314 C   0  0  0  0  0  0
    1.9925   51.8349   17.9491 C   0  0  0  0  0  0
    1.7155   51.3837   19.2398 C   0  0  0  0  0  0
    2.4235   51.9050   20.3179 C   0  0  0  0  0  0
    1.0930   51.1656   16.5601 S   0  0  0  0  0  0
    0.5081   49.8841   16.9702 O   0  0  0  0  0  0
    0.2460   52.2379   16.0259 O   0  0  0  0  0  0
    2.3045   50.8202   15.3626 N   0  0  0  0  0  0
    5.6746   55.0401   25.8718 C   0  0  0  0  0  0
    6.7044   55.5607   25.7930 N   0  0  0  0  0  0
    0.4647   51.9946   28.0586 N   0  3  0  0  0  0
   -0.4718   51.2968   28.4346 O   0  0  0  0  0  0
    1.1039   51.7014   27.0534 O   0  5  0  0  0  0
    1.3236   56.3711   31.0911 H   0  0  0  0  0  0
   -0.2326   54.5885   31.8164 H   0  0  0  0  0  0
   -0.5974   52.6396   30.4291 H   0  0  0  0  0  0
    2.5834   56.1172   29.0213 H   0  0  0  0  0  0
    2.8475   53.4484   24.8441 H   0  0  0  0  0  0
    6.2257   55.0566   23.2271 H   0  0  0  0  0  0
    5.9862   54.4831   20.6307 H   0  0  0  0  0  0
    4.4714   54.0371   18.6339 H   0  0  0  0  0  0
    3.2103   53.1259   16.7290 H   0  0  0  0  0  0
    0.9553   50.6343   19.4106 H   0  0  0  0  0  0
    2.1948   51.5598   21.3149 H   0  0  0  0  0  0
    2.9729   50.1220   15.7325 H   0  0  0  0  0  0
    1.8818   50.4518   14.5107 H   0  0  0  0  0  0
  1  6  2  0  0  0
  1  2  1  0  0  0
  1 32  1  0  0  0
  2  3  2  0  0  0
  2 33  1  0  0  0
  3  4  1  0  0  0
  3 34  1  0  0  0
  4  5  2  0  0  0
  4 29  1  0  0  0
  5  6  1  0  0  0
  5  7  1  0  0  0
  6 35  1  0  0  0
  7  8  1  0  0  0
  8  9  2  0  0  0
  8 10  1  0  0  0
 10 11  2  0  0  0
 10 27  1  0  0  0
 11 12  1  0  0  0
 11 36  1  0  0  0
 12 16  1  0  0  0
 12 13  2  0  0  0
 13 14  1  0  0  0
 13 37  1  0  0  0
 14 15  2  0  0  0
 14 38  1  0  0  0
 15 16  1  0  0  0
 15 17  1  0  0  0
 17 22  2  0  0  0
 17 18  1  0  0  0
 18 19  2  0  0  0
 18 39  1  0  0  0
 19 20  1  0  0  0
 19 40  1  0  0  0
 20 21  2  0  0  0
 20 23  1  0  0  0
 21 22  1  0  0  0
 21 41  1  0  0  0
 22 42  1  0  0  0
 23 24  2  0  0  0
 23 25  2  0  0  0
 23 26  1  0  0  0
 26 43  1  0  0  0
 26 44  1  0  0  0
 27 28  3  0  0  0
 29 30  2  0  0  0
 29 31  1  0  0  0
M  CHG  3   7  -1  29   1  31  -1
M  END
> <i_i_glide_confnum>
24

> <i_i_glide_lignum>
2016

> <i_i_glide_posenum>
291

> <i_i_glide_rotatable_bonds>
8

> <i_m_Source_File_Index>
2683

> <b_m_subgroup_collapsed>
0

> <r_i_docking_score>
-6.08254

> <r_i_glide_ecoul>
-6.36794

> <r_i_glide_eff_state_penalty>
0

> <r_i_glide_einternal>
3.64792

> <r_i_glide_emodel>
-59.645

> <r_i_glide_energy>
-45.4013

> <r_i_glide_erotb>
0.625359

> <r_i_glide_esite>
-0.233314

> <r_i_glide_evdw>
-39.0333

> <r_i_glide_gscore>
-6.08254

> <r_i_glide_hbond>
-0.456

> <r_i_glide_ligand_efficiency>
-0.196211

> <r_i_glide_ligand_efficiency_ln>
-1.3718

> <r_i_glide_ligand_efficiency_sa>
-0.616374

> <r_i_glide_lipo>
-2.4226

> <r_i_glide_metal>
0

> <r_i_glide_rewards>
-0.689132

> <s_i_glide_gridfile>
wee1_glide-grid

> <s_m_Source_File>
wee1_decoys_glide_SP.sdf

> <s_m_Source_Path>
/Users/zhangxujun/Desktop

> <s_m_entry_id>
2958

> <s_m_entry_name>
wee1_decoys_glide_SP.2683

> <s_m_subgroup_title>
wee1_decoys_glide_SP

> <s_m_subgroupid>
wee1_decoys_glide_SP


$$$$
