ZINC13404147_530
                    3D
 Schrodinger Suite 2024-2.
 53 56  0  0  1  0            999 V2000
   -0.8474   49.6364   25.6812 C   0  0  0  0  0  0
   -0.3870   50.4967   26.6654 C   0  0  0  0  0  0
    0.3192   51.6498   26.3332 C   0  0  0  0  0  0
    0.5606   51.9327   24.9861 C   0  0  0  0  0  0
    0.0987   51.0653   23.9915 C   0  0  0  0  0  0
   -0.6072   49.9044   24.3314 C   0  0  0  0  0  0
   -1.0773   48.9730   23.2800 C   0  0  0  0  0  0
   -1.5819   47.7350   23.4944 C   0  0  0  0  0  0
   -2.0956   46.7765   22.4135 C   0  0  0  0  0  0
   -2.5168   45.6950   22.8791 O   0  0  0  0  0  0
    0.8719   52.4808   27.3235 N   0  0  0  0  0  0
    0.4224   52.7140   28.5816 C   0  0  0  0  0  0
   -0.6158   52.2326   29.0330 O   0  0  0  0  0  0
    1.3529   53.4900   29.5490 C   0  0  2  0  0  0
    1.8395   52.6956   30.1154 H   0  0  0  0  0  0
    0.5810   54.4627   30.4753 C   0  0  0  0  0  0
    1.1834   55.8466   30.2497 C   0  0  0  0  0  0
    1.8825   55.7762   28.8968 C   0  0  0  0  0  0
    2.3249   54.3678   28.8337 N   0  0  0  0  0  0
    4.0468   53.9503   28.7985 S   0  0  0  0  0  0
    4.7579   54.8962   29.6634 O   0  0  0  0  0  0
    4.1601   52.5074   29.0320 O   0  0  0  0  0  0
    4.6027   54.2224   27.1146 C   0  0  0  0  0  0
    5.9558   54.4788   26.8517 C   0  0  0  0  0  0
    6.4082   54.5641   25.5296 C   0  0  0  0  0  0
    5.5121   54.3774   24.4762 C   0  0  0  0  0  0
    4.1531   54.1504   24.7386 C   0  0  0  0  0  0
    3.7018   54.0919   26.0525 C   0  0  0  0  0  0
    3.2350   53.8743   23.7458 O   0  0  0  0  0  0
    3.6860   54.1487   22.4154 C   0  0  0  0  0  0
    5.1785   53.7791   22.2260 C   0  0  0  0  0  0
    5.9987   54.4565   23.1878 O   0  0  0  0  0  0
   -1.3804   48.7580   26.0158 H   0  0  0  0  0  0
   -0.5513   50.2144   27.6925 H   0  0  0  0  0  0
    1.1127   52.8174   24.6982 H   0  0  0  0  0  0
    0.2991   51.2924   22.9550 H   0  0  0  0  0  0
   -1.0136   49.3345   22.2637 H   0  0  0  0  0  0
   -1.6396   47.3592   24.5033 H   0  0  0  0  0  0
    1.7190   52.9561   27.0613 H   0  0  0  0  0  0
   -0.4886   54.4967   30.2544 H   0  0  0  0  0  0
    0.6773   54.1673   31.5201 H   0  0  0  0  0  0
    0.4386   56.6394   30.2863 H   0  0  0  0  0  0
    1.9057   56.0877   31.0279 H   0  0  0  0  0  0
    1.1556   55.9537   28.1030 H   0  0  0  0  0  0
    2.6812   56.4949   28.7166 H   0  0  0  0  0  0
    6.6563   54.5837   27.6714 H   0  0  0  0  0  0
    7.4509   54.7402   25.3131 H   0  0  0  0  0  0
    2.6577   53.9095   26.2213 H   0  0  0  0  0  0
    3.5329   55.2075   22.2023 H   0  0  0  0  0  0
    3.0671   53.5896   21.7124 H   0  0  0  0  0  0
    5.5116   54.0415   21.2204 H   0  0  0  0  0  0
    5.2994   52.6998   22.3433 H   0  0  0  0  0  0
   -2.0075   47.1745   21.2316 O   0  5  0  0  0  0
  1  6  2  0  0  0
  1  2  1  0  0  0
  1 33  1  0  0  0
  2  3  2  0  0  0
  2 34  1  0  0  0
  3  4  1  0  0  0
  3 11  1  0  0  0
  4  5  2  0  0  0
  4 35  1  0  0  0
  5  6  1  0  0  0
  5 36  1  0  0  0
  6  7  1  0  0  0
  7  8  2  0  0  0
  7 37  1  0  0  0
  8  9  1  0  0  0
  8 38  1  0  0  0
  9 10  2  0  0  0
  9 53  1  0  0  0
 11 12  1  0  0  0
 11 39  1  0  0  0
 12 13  2  0  0  0
 12 14  1  0  0  0
 14 15  1  0  0  0
 14 19  1  0  0  0
 14 16  1  0  0  0
 16 17  1  0  0  0
 16 40  1  0  0  0
 16 41  1  0  0  0
 17 18  1  0  0  0
 17 42  1  0  0  0
 17 43  1  0  0  0
 18 19  1  0  0  0
 18 44  1  0  0  0
 18 45  1  0  0  0
 19 20  1  0  0  0
 20 21  2  0  0  0
 20 22  2  0  0  0
 20 23  1  0  0  0
 23 28  2  0  0  0
 23 24  1  0  0  0
 24 25  2  0  0  0
 24 46  1  0  0  0
 25 26  1  0  0  0
 25 47  1  0  0  0
 26 32  1  0  0  0
 26 27  2  0  0  0
 27 28  1  0  0  0
 27 29  1  0  0  0
 28 48  1  0  0  0
 29 30  1  0  0  0
 30 31  1  0  0  0
 30 49  1  0  0  0
 30 50  1  0  0  0
 31 32  1  0  0  0
 31 51  1  0  0  0
 31 52  1  0  0  0
M  CHG  1  53  -1
M  END
> <i_i_glide_confnum>
129

> <i_i_glide_lignum>
531

> <i_i_glide_posenum>
361

> <i_i_glide_rotatable_bonds>
7

> <i_m_Source_File_Index>
4128

> <b_m_subgroup_collapsed>
0

> <r_i_docking_score>
-5.65902

> <r_i_glide_ecoul>
-2.42719

> <r_i_glide_eff_state_penalty>
0

> <r_i_glide_einternal>
10.9593

> <r_i_glide_emodel>
-64.5292

> <r_i_glide_energy>
-52.5205

> <r_i_glide_erotb>
0.672461

> <r_i_glide_esite>
-0.0043949

> <r_i_glide_evdw>
-50.0933

> <r_i_glide_gscore>
-5.65902

> <r_i_glide_hbond>
-0.0550084

> <r_i_glide_ligand_efficiency>
-0.176844

> <r_i_glide_ligand_efficiency_ln>
-1.26721

> <r_i_glide_ligand_efficiency_sa>
-0.561446

> <r_i_glide_lipo>
-3.19721

> <r_i_glide_metal>
0

> <r_i_glide_rewards>
-0.206123

> <s_i_glide_gridfile>
wee1_glide-grid

> <s_m_Source_File>
wee1_decoys_glide_SP.sdf

> <s_m_Source_Path>
/Users/zhangxujun/Desktop

> <s_m_entry_id>
4403

> <s_m_entry_name>
wee1_decoys_glide_SP.4128

> <s_m_subgroup_title>
wee1_decoys_glide_SP

> <s_m_subgroupid>
wee1_decoys_glide_SP


$$$$
