ZINC22643402_3314
                    3D
 Schrodinger Suite 2024-2.
 56 59  0  0  1  0            999 V2000
    4.1027   54.1812   29.5594 C   0  0  0  0  0  0
    3.2881   52.8871   29.5398 C   0  0  0  0  0  0
    3.4087   52.1043   30.4842 O   0  0  0  0  0  0
    2.3600   52.6676   28.3850 C   0  0  0  0  0  0
    1.4915   51.5688   28.3872 C   0  0  0  0  0  0
    0.6544   51.3179   27.3007 C   0  0  0  0  0  0
    0.6559   52.1825   26.2027 C   0  0  0  0  0  0
    1.5043   53.2945   26.2102 C   0  0  0  0  0  0
    2.3525   53.5323   27.2838 C   0  0  0  0  0  0
   -0.4353   51.8528   24.7939 S   0  0  0  0  0  0
   -1.4851   50.9788   25.3258 O   0  0  0  0  0  0
   -0.8770   53.1641   24.3053 O   0  0  0  0  0  0
    0.5533   51.0908   23.8380 N   0  5  0  0  0  0
    1.4672   51.6748   22.9932 C   0  0  0  0  0  0
    1.7119   53.0512   22.8822 C   0  0  0  0  0  0
    2.7134   53.5514   22.0679 C   0  0  0  0  0  0
    3.4572   52.6907   21.2574 C   0  0  0  0  0  0
    3.2036   51.3160   21.3208 C   0  0  0  0  0  0
    2.2313   50.8225   22.1894 C   0  0  0  0  0  0
    4.5479   53.2194   20.3614 C   0  0  0  0  0  0
    5.5044   52.5021   20.0817 O   0  0  0  0  0  0
    4.4020   54.4877   19.9174 N   0  0  0  0  0  0
    5.3945   55.2935   19.3237 C   0  0  0  0  0  0
    6.7495   55.2099   19.6759 C   0  0  0  0  0  0
    7.6977   56.0453   19.0870 C   0  0  0  0  0  0
    7.2896   57.0395   18.1876 C   0  0  0  0  0  0
    5.9410   57.1083   17.8176 C   0  0  0  0  0  0
    4.9986   56.2469   18.3842 C   0  0  0  0  0  0
    5.7545   58.0931   16.7028 C   0  0  0  0  0  0
    7.1020   58.7889   16.6430 C   0  0  0  0  0  0
    8.0351   57.9703   17.4236 N   0  0  0  0  0  0
    9.3060   58.4349   17.5922 C   0  0  0  0  0  0
    9.7269   59.4456   17.0250 O   0  0  0  0  0  0
   10.3012   57.6954   18.4804 C   0  0  0  0  0  0
    3.4422   55.0432   29.4665 H   0  0  0  0  0  0
    4.7969   54.1996   28.7193 H   0  0  0  0  0  0
    4.6726   54.2822   30.4814 H   0  0  0  0  0  0
    1.4611   50.8956   29.2305 H   0  0  0  0  0  0
    0.0014   50.4543   27.3174 H   0  0  0  0  0  0
    1.5045   54.0022   25.4011 H   0  0  0  0  0  0
    2.9961   54.3982   27.2346 H   0  0  0  0  0  0
    1.1426   53.7843   23.4179 H   0  0  0  0  0  0
    2.8767   54.6197   22.0573 H   0  0  0  0  0  0
    3.7659   50.6217   20.7115 H   0  0  0  0  0  0
    2.0727   49.7547   22.2399 H   0  0  0  0  0  0
    3.4784   54.8900   20.0154 H   0  0  0  0  0  0
    7.0814   54.4968   20.4109 H   0  0  0  0  0  0
    8.7255   55.8942   19.3706 H   0  0  0  0  0  0
    3.9623   56.3058   18.0831 H   0  0  0  0  0  0
    5.5786   57.5715   15.7614 H   0  0  0  0  0  0
    4.9426   58.8117   16.8272 H   0  0  0  0  0  0
    6.9976   59.6965   17.2342 H   0  0  0  0  0  0
    7.4286   59.1369   15.6621 H   0  0  0  0  0  0
    9.9929   57.6985   19.5245 H   0  0  0  0  0  0
   10.4252   56.6670   18.1408 H   0  0  0  0  0  0
   11.2814   58.1701   18.4302 H   0  0  0  0  0  0
  1  2  1  0  0  0
  1 35  1  0  0  0
  1 36  1  0  0  0
  1 37  1  0  0  0
  2  3  2  0  0  0
  2  4  1  0  0  0
  4  9  2  0  0  0
  4  5  1  0  0  0
  5  6  2  0  0  0
  5 38  1  0  0  0
  6  7  1  0  0  0
  6 39  1  0  0  0
  7  8  2  0  0  0
  7 10  1  0  0  0
  8  9  1  0  0  0
  8 40  1  0  0  0
  9 41  1  0  0  0
 10 11  2  0  0  0
 10 12  2  0  0  0
 10 13  1  0  0  0
 13 14  1  0  0  0
 14 19  2  0  0  0
 14 15  1  0  0  0
 15 16  2  0  0  0
 15 42  1  0  0  0
 16 17  1  0  0  0
 16 43  1  0  0  0
 17 18  2  0  0  0
 17 20  1  0  0  0
 18 19  1  0  0  0
 18 44  1  0  0  0
 19 45  1  0  0  0
 20 21  2  0  0  0
 20 22  1  0  0  0
 22 23  1  0  0  0
 22 46  1  0  0  0
 23 28  2  0  0  0
 23 24  1  0  0  0
 24 25  2  0  0  0
 24 47  1  0  0  0
 25 26  1  0  0  0
 25 48  1  0  0  0
 26 31  1  0  0  0
 26 27  2  0  0  0
 27 28  1  0  0  0
 27 29  1  0  0  0
 28 49  1  0  0  0
 29 30  1  0  0  0
 29 50  1  0  0  0
 29 51  1  0  0  0
 30 31  1  0  0  0
 30 52  1  0  0  0
 30 53  1  0  0  0
 31 32  1  0  0  0
 32 33  2  0  0  0
 32 34  1  0  0  0
 34 54  1  0  0  0
 34 55  1  0  0  0
 34 56  1  0  0  0
M  CHG  1  13  -1
M  END
> <i_i_glide_confnum>
14

> <i_i_glide_lignum>
3315

> <i_i_glide_posenum>
321

> <i_i_glide_rotatable_bonds>
8

> <i_m_Source_File_Index>
618

> <b_m_subgroup_collapsed>
0

> <r_i_docking_score>
-5.06107

> <r_i_glide_ecoul>
-6.69661

> <r_i_glide_eff_state_penalty>
0

> <r_i_glide_einternal>
10.9033

> <r_i_glide_emodel>
-57.0445

> <r_i_glide_energy>
-47.1922

> <r_i_glide_erotb>
0.535073

> <r_i_glide_esite>
-0.0405747

> <r_i_glide_evdw>
-40.4956

> <r_i_glide_gscore>
-5.06107

> <r_i_glide_hbond>
-0.546276

> <r_i_glide_ligand_efficiency>
-0.148855

> <r_i_glide_ligand_efficiency_ln>
-1.11813

> <r_i_glide_ligand_efficiency_sa>
-0.482232

> <r_i_glide_lipo>
-1.59397

> <r_i_glide_metal>
0

> <r_i_glide_rewards>
-0.386047

> <s_i_glide_gridfile>
wee1_glide-grid

> <s_m_Source_File>
wee1_decoys_glide_SP.sdf

> <s_m_Source_Path>
/Users/zhangxujun/Desktop

> <s_m_entry_id>
893

> <s_m_entry_name>
wee1_decoys_glide_SP.618

> <s_m_subgroup_title>
wee1_decoys_glide_SP

> <s_m_subgroupid>
wee1_decoys_glide_SP


$$$$
