ZINC39758266_2933
                    3D
 Schrodinger Suite 2024-2.
 71 74  0  0  1  0            999 V2000
    6.8281   55.2734   11.7011 C   0  0  0  0  0  0
    5.6048   54.7120   12.4022 C   0  0  0  0  0  0
    4.3316   55.1977   12.0942 C   0  0  0  0  0  0
    3.2070   54.6643   12.7233 C   0  0  0  0  0  0
    3.3505   53.6468   13.6662 C   0  0  0  0  0  0
    4.6208   53.1633   13.9923 C   0  0  0  0  0  0
    5.7435   53.6884   13.3436 C   0  0  0  0  0  0
    4.7808   52.0434   15.0128 C   0  0  0  0  0  0
    4.9790   52.4970   16.4803 N   0  3  1  0  0  0
    6.2698   53.3264   16.6672 C   0  0  0  0  0  0
    6.4730   53.5477   18.1753 C   0  0  0  0  0  0
    5.2376   54.2671   18.7781 C   0  0  1  0  0  0
    3.9432   53.4465   18.5427 C   0  0  0  0  0  0
    3.7289   53.2152   17.0369 C   0  0  0  0  0  0
    5.5147   54.5679   20.2735 C   0  0  0  0  0  0
    6.4850   55.2776   20.5487 O   0  0  0  0  0  0
    4.6754   54.0653   21.2102 N   0  0  0  0  0  0
    4.8399   54.0941   22.6073 C   0  0  0  0  0  0
    3.6852   54.0842   23.3946 C   0  0  0  0  0  0
    3.7846   54.1296   24.7862 C   0  0  0  0  0  0
    5.0443   54.1569   25.3906 C   0  0  0  0  0  0
    6.1979   54.1384   24.6065 C   0  0  0  0  0  0
    6.0997   54.1052   23.2221 C   0  0  0  0  0  0
    5.2733   54.2507   27.1661 S   0  0  0  0  0  0
    5.4715   52.8984   27.6879 O   0  0  0  0  0  0
    6.3068   55.2728   27.3467 O   0  0  0  0  0  0
    3.8049   54.8960   27.9152 N   0  0  0  0  0  0
    2.6495   54.1798   28.2620 C   0  0  0  0  0  0
    2.3407   52.9460   27.6829 C   0  0  0  0  0  0
    1.1440   52.2946   27.9706 C   0  0  0  0  0  0
    0.2771   52.8571   28.9173 C   0  0  0  0  0  0
    0.6027   54.0557   29.5453 C   0  0  0  0  0  0
    1.7876   54.7347   29.2232 C   0  0  0  0  0  0
    2.1566   55.9367   29.8019 O   0  0  0  0  0  0
    1.3538   56.5049   30.8315 C   0  0  0  0  0  0
    0.8959   51.1295   27.2791 O   0  0  0  0  0  0
   -0.4444   50.6577   27.1959 C   0  0  0  0  0  0
    7.5909   54.5033   11.5738 H   0  0  0  0  0  0
    6.5777   55.6305   10.7012 H   0  0  0  0  0  0
    7.2562   56.0966   12.2729 H   0  0  0  0  0  0
    4.2096   55.9860   11.3651 H   0  0  0  0  0  0
    2.2238   55.0378   12.4780 H   0  0  0  0  0  0
    2.4709   53.2391   14.1435 H   0  0  0  0  0  0
    6.7283   53.3075   13.5744 H   0  0  0  0  0  0
    3.9098   51.3849   15.0354 H   0  0  0  0  0  0
    5.6538   51.4259   14.7923 H   0  0  0  0  0  0
    7.0900   52.7303   16.2616 H   0  0  0  0  0  0
    6.1675   54.2573   16.1054 H   0  0  0  0  0  0
    6.6005   52.5488   18.6007 H   0  0  0  0  0  0
    7.3848   54.1429   18.2724 H   0  0  0  0  0  0
    5.1281   55.2650   18.3466 H   0  0  0  0  0  0
    3.0692   53.9973   18.8871 H   0  0  0  0  0  0
    4.0062   52.4494   18.9878 H   0  0  0  0  0  0
    3.5868   54.1394   16.4748 H   0  0  0  0  0  0
    2.8842   52.5419   16.8799 H   0  0  0  0  0  0
    3.7924   53.7048   20.8832 H   0  0  0  0  0  0
    2.7074   54.0712   22.9331 H   0  0  0  0  0  0
    2.8799   54.1633   25.3728 H   0  0  0  0  0  0
    7.1752   54.1554   25.0672 H   0  0  0  0  0  0
    7.0114   54.0908   22.6442 H   0  0  0  0  0  0
    3.8001   55.8845   28.1171 H   0  0  0  0  0  0
    3.0080   52.4973   26.9641 H   0  0  0  0  0  0
   -0.6500   52.3760   29.1874 H   0  0  0  0  0  0
   -0.0916   54.4489   30.2713 H   0  0  0  0  0  0
    1.9018   57.3327   31.2832 H   0  0  0  0  0  0
    0.4226   56.8965   30.4258 H   0  0  0  0  0  0
    1.1094   55.8006   31.6278 H   0  0  0  0  0  0
   -0.4609   49.7066   26.6622 H   0  0  0  0  0  0
   -0.8878   50.4968   28.1767 H   0  0  0  0  0  0
   -1.0709   51.3608   26.6452 H   0  0  0  0  0  0
    5.1024   51.6388   17.0308 H   0  0  0  0  0  0
  1  2  1  0  0  0
  1 38  1  0  0  0
  1 39  1  0  0  0
  1 40  1  0  0  0
  2  7  2  0  0  0
  2  3  1  0  0  0
  3  4  2  0  0  0
  3 41  1  0  0  0
  4  5  1  0  0  0
  4 42  1  0  0  0
  5  6  2  0  0  0
  5 43  1  0  0  0
  6  7  1  0  0  0
  6  8  1  0  0  0
  7 44  1  0  0  0
  8  9  1  0  0  0
  8 45  1  0  0  0
  8 46  1  0  0  0
  9 14  1  0  0  0
  9 10  1  0  0  0
  9 71  1  0  0  0
 10 11  1  0  0  0
 10 47  1  0  0  0
 10 48  1  0  0  0
 11 12  1  0  0  0
 11 49  1  0  0  0
 11 50  1  0  0  0
 12 13  1  0  0  0
 12 15  1  0  0  0
 12 51  1  0  0  0
 13 14  1  0  0  0
 13 52  1  0  0  0
 13 53  1  0  0  0
 14 54  1  0  0  0
 14 55  1  0  0  0
 15 16  2  0  0  0
 15 17  1  0  0  0
 17 18  1  0  0  0
 17 56  1  0  0  0
 18 23  2  0  0  0
 18 19  1  0  0  0
 19 20  2  0  0  0
 19 57  1  0  0  0
 20 21  1  0  0  0
 20 58  1  0  0  0
 21 22  2  0  0  0
 21 24  1  0  0  0
 22 23  1  0  0  0
 22 59  1  0  0  0
 23 60  1  0  0  0
 24 25  2  0  0  0
 24 26  2  0  0  0
 24 27  1  0  0  0
 27 28  1  0  0  0
 27 61  1  0  0  0
 28 33  2  0  0  0
 28 29  1  0  0  0
 29 30  2  0  0  0
 29 62  1  0  0  0
 30 31  1  0  0  0
 30 36  1  0  0  0
 31 32  2  0  0  0
 31 63  1  0  0  0
 32 33  1  0  0  0
 32 64  1  0  0  0
 33 34  1  0  0  0
 34 35  1  0  0  0
 35 65  1  0  0  0
 35 66  1  0  0  0
 35 67  1  0  0  0
 36 37  1  0  0  0
 37 68  1  0  0  0
 37 69  1  0  0  0
 37 70  1  0  0  0
M  CHG  1   9   1
M  END
> <i_i_glide_confnum>
100

> <i_i_glide_lignum>
2934

> <i_i_glide_posenum>
385

> <i_i_glide_rotatable_bonds>
10

> <i_m_Source_File_Index>
2772

> <b_m_subgroup_collapsed>
0

> <r_i_docking_score>
-5.55644

> <r_i_glide_ecoul>
-5.70608

> <r_i_glide_eff_state_penalty>
0

> <r_i_glide_einternal>
14.3812

> <r_i_glide_emodel>
-62.7371

> <r_i_glide_energy>
-51.6251

> <r_i_glide_erotb>
0.598061

> <r_i_glide_esite>
-0.0647032

> <r_i_glide_evdw>
-45.919

> <r_i_glide_gscore>
-5.55644

> <r_i_glide_hbond>
-0.2

> <r_i_glide_ligand_efficiency>
-0.150174

> <r_i_glide_ligand_efficiency_ln>
-1.20506

> <r_i_glide_ligand_efficiency_sa>
-0.500413

> <r_i_glide_lipo>
-3.06869

> <r_i_glide_metal>
0

> <r_i_glide_rewards>
0.330754

> <s_i_glide_gridfile>
wee1_glide-grid

> <s_m_Source_File>
wee1_decoys_glide_SP.sdf

> <s_m_Source_Path>
/Users/zhangxujun/Desktop

> <s_m_entry_id>
3047

> <s_m_entry_name>
wee1_decoys_glide_SP.2772

> <s_m_subgroup_title>
wee1_decoys_glide_SP

> <s_m_subgroupid>
wee1_decoys_glide_SP


$$$$
