ZINC66248301_1400
                    3D
 Schrodinger Suite 2024-2.
 52 55  0  0  1  0            999 V2000
    5.4088   54.1391   28.5377 C   0  0  0  0  0  0
    6.6792   53.8583   28.0794 C   0  0  0  0  0  0
    6.7838   54.0654   26.7962 N   0  0  0  0  0  0
    5.5571   54.4430   26.3760 N   0  0  0  0  0  0
    4.6660   54.4920   27.4378 C   0  0  0  0  0  0
    3.3557   54.8609   27.3587 N   0  0  0  0  0  0
    2.1009   54.3013   28.4787 S   0  0  0  0  0  0
    1.1038   55.3678   28.4809 O   0  0  0  0  0  0
    2.7046   53.8467   29.7369 O   0  0  0  0  0  0
    1.3486   52.8424   27.6852 C   0  0  0  0  0  0
    1.0408   52.6654   26.3268 C   0  0  0  0  0  0
    0.3607   51.4470   26.1429 C   0  0  0  0  0  0
    0.2645   50.8973   27.4009 N   0  0  0  0  0  0
   -0.2145   50.0243   27.6067 H   0  0  0  0  0  0
    0.8444   51.7229   28.3311 C   0  0  0  0  0  0
   -0.2196   50.7763   24.9875 C   0  0  0  0  0  0
   -0.8697   49.7442   25.1745 O   0  0  0  0  0  0
   -0.0831   51.3014   23.7405 N   0  0  0  0  0  0
   -0.7488   50.6669   22.5907 C   0  0  0  0  0  0
   -0.4661   51.6255   21.4395 C   0  0  0  0  0  0
    0.8840   52.2069   21.8026 C   0  0  0  0  0  0
    0.8143   52.3820   23.3188 C   0  0  0  0  0  0
    5.3542   54.8396   24.9528 C   0  0  0  0  0  0
    6.6313   54.5422   24.1020 C   0  0  0  0  0  0
    6.4425   54.7755   22.5989 C   0  0  0  0  0  0
    5.2579   53.9544   22.0640 C   0  0  0  0  0  0
    3.9604   54.2479   22.8354 C   0  0  0  0  0  0
    4.1168   54.0994   24.3665 C   0  0  0  0  0  0
    5.0627   54.1027   29.5542 H   0  0  0  0  0  0
    7.5052   53.5491   28.6923 H   0  0  0  0  0  0
    3.0688   55.6661   26.8269 H   0  0  0  0  0  0
    1.2788   53.3958   25.5736 H   0  0  0  0  0  0
    0.8209   51.4595   29.3782 H   0  0  0  0  0  0
   -1.8198   50.5365   22.7527 H   0  0  0  0  0  0
   -0.2829   49.6991   22.3948 H   0  0  0  0  0  0
   -1.2207   52.4143   21.4175 H   0  0  0  0  0  0
   -0.4840   51.1294   20.4690 H   0  0  0  0  0  0
    1.6763   51.5006   21.5471 H   0  0  0  0  0  0
    1.1067   53.1395   21.2811 H   0  0  0  0  0  0
    1.8169   52.2738   23.7315 H   0  0  0  0  0  0
    0.3668   53.3535   23.5332 H   0  0  0  0  0  0
    5.1882   55.9148   25.0004 H   0  0  0  0  0  0
    7.4275   55.2187   24.4208 H   0  0  0  0  0  0
    7.0092   53.5346   24.2846 H   0  0  0  0  0  0
    6.3047   55.8371   22.3945 H   0  0  0  0  0  0
    7.3591   54.4970   22.0798 H   0  0  0  0  0  0
    5.1104   54.1576   21.0026 H   0  0  0  0  0  0
    5.4929   52.8910   22.1390 H   0  0  0  0  0  0
    3.6111   55.2553   22.5925 H   0  0  0  0  0  0
    3.1820   53.5816   22.4734 H   0  0  0  0  0  0
    4.0804   53.0620   24.6890 H   0  0  0  0  0  0
    3.2176   54.5445   24.7893 H   0  0  0  0  0  0
  1  5  2  0  0  0
  1  2  1  0  0  0
  1 29  1  0  0  0
  2  3  2  0  0  0
  2 30  1  0  0  0
  3  4  1  0  0  0
  4  5  1  0  0  0
  4 23  1  0  0  0
  5  6  1  0  0  0
  6  7  1  0  0  0
  6 31  1  0  0  0
  7  8  2  0  0  0
  7  9  2  0  0  0
  7 10  1  0  0  0
 10 15  2  0  0  0
 10 11  1  0  0  0
 11 12  2  0  0  0
 11 32  1  0  0  0
 12 13  1  0  0  0
 12 16  1  0  0  0
 13 14  1  0  0  0
 13 15  1  0  0  0
 15 33  1  0  0  0
 16 17  2  0  0  0
 16 18  1  0  0  0
 18 22  1  0  0  0
 18 19  1  0  0  0
 19 20  1  0  0  0
 19 34  1  0  0  0
 19 35  1  0  0  0
 20 21  1  0  0  0
 20 36  1  0  0  0
 20 37  1  0  0  0
 21 22  1  0  0  0
 21 38  1  0  0  0
 21 39  1  0  0  0
 22 40  1  0  0  0
 22 41  1  0  0  0
 23 28  1  0  0  0
 23 24  1  0  0  0
 23 42  1  0  0  0
 24 25  1  0  0  0
 24 43  1  0  0  0
 24 44  1  0  0  0
 25 26  1  0  0  0
 25 45  1  0  0  0
 25 46  1  0  0  0
 26 27  1  0  0  0
 26 47  1  0  0  0
 26 48  1  0  0  0
 27 28  1  0  0  0
 27 49  1  0  0  0
 27 50  1  0  0  0
 28 51  1  0  0  0
 28 52  1  0  0  0
M  END
> <i_i_glide_confnum>
204

> <i_i_glide_lignum>
1401

> <i_i_glide_posenum>
208

> <i_i_glide_rotatable_bonds>
6

> <i_m_Source_File_Index>
41

> <b_m_subgroup_collapsed>
0

> <r_i_docking_score>
-5.66786

> <r_i_glide_ecoul>
-1.39104

> <r_i_glide_eff_state_penalty>
0

> <r_i_glide_einternal>
9.56998

> <r_i_glide_emodel>
-56.0411

> <r_i_glide_energy>
-45.1479

> <r_i_glide_erotb>
0.763984

> <r_i_glide_esite>
-0.0858702

> <r_i_glide_evdw>
-43.7569

> <r_i_glide_gscore>
-5.66786

> <r_i_glide_hbond>
-0.0909596

> <r_i_glide_ligand_efficiency>
-0.209921

> <r_i_glide_ligand_efficiency_ln>
-1.31938

> <r_i_glide_ligand_efficiency_sa>
-0.629762

> <r_i_glide_lipo>
-2.81477

> <r_i_glide_metal>
0

> <r_i_glide_rewards>
-1.04374

> <s_i_glide_gridfile>
wee1_glide-grid

> <s_m_Source_File>
wee1_decoys_glide_SP.sdf

> <s_m_Source_Path>
/Users/zhangxujun/Desktop

> <s_m_entry_id>
316

> <s_m_entry_name>
wee1_decoys_glide_SP.41

> <s_m_subgroup_title>
wee1_decoys_glide_SP

> <s_m_subgroupid>
wee1_decoys_glide_SP


$$$$
