ZINC64843419_5979
                    3D
 Schrodinger Suite 2024-2.
 65 68  0  0  1  0            999 V2000
    2.2444   52.9347   27.1489 C   0  0  0  0  0  0
    1.0513   52.2194   27.2059 C   0  0  0  0  0  0
    0.2072   52.1967   26.0971 C   0  0  0  0  0  0
    0.5485   52.8948   24.9368 C   0  0  0  0  0  0
    1.7425   53.6048   24.8844 C   0  0  0  0  0  0
    2.6187   53.6213   25.9811 C   0  0  0  0  0  0
    3.9661   54.3747   25.8857 C   0  0  0  0  0  0
    4.9971   53.9781   26.9857 C   0  0  0  0  0  0
    6.3819   54.6286   26.8173 C   0  0  0  0  0  0
    6.9356   54.4165   25.4024 C   0  0  0  0  0  0
    5.9786   54.9675   24.3529 C   0  0  0  0  0  0
    4.5859   54.3280   24.4555 C   0  0  0  0  0  0
   -1.3157   51.2561   26.1628 S   0  0  0  0  0  0
   -2.1630   51.6953   25.0469 O   0  0  0  0  0  0
   -1.7961   51.3127   27.5469 O   0  0  0  0  0  0
   -0.8457   49.5746   25.8462 N   0  0  0  0  0  0
   -0.6788   49.1130   24.5354 C   0  0  0  0  0  0
   -1.4385   48.0554   24.0353 C   0  0  0  0  0  0
   -1.3653   47.6870   22.6744 C   0  0  0  0  0  0
   -0.5431   48.4966   21.8350 C   0  0  0  0  0  0
    0.2877   49.4372   22.3570 N   0  0  0  0  0  0
    0.2278   49.7201   23.6743 C   0  0  0  0  0  0
   -0.5386   48.4491   20.4207 N   0  0  0  0  0  0
   -1.7420   48.9388   19.7415 C   0  0  0  0  0  0
   -2.0238   50.4496   19.8917 C   0  0  0  0  0  0
   -1.1467   51.4132   19.0669 C   0  0  0  0  0  0
    0.3460   51.5118   19.4492 C   0  0  0  0  0  0
    1.2842   50.5218   18.7216 C   0  0  0  0  0  0
    1.7284   49.2798   19.5214 C   0  0  0  0  0  0
    0.6958   48.1423   19.6869 C   0  0  0  0  0  0
   -2.0957   46.4451   22.2152 C   0  0  0  0  0  0
   -2.0807   46.1296   21.0057 O   0  0  0  0  0  0
   -2.6380   45.7204   23.0867 O   0  5  0  0  0  0
    2.8755   52.9225   28.0234 H   0  0  0  0  0  0
    0.7852   51.6806   28.1051 H   0  0  0  0  0  0
   -0.1072   52.8896   24.0773 H   0  0  0  0  0  0
    1.9682   54.1354   23.9729 H   0  0  0  0  0  0
    3.6721   55.4074   26.0763 H   0  0  0  0  0  0
    4.6328   54.2920   27.9652 H   0  0  0  0  0  0
    5.1267   52.8951   27.0024 H   0  0  0  0  0  0
    6.3133   55.6964   27.0295 H   0  0  0  0  0  0
    7.0779   54.2201   27.5513 H   0  0  0  0  0  0
    7.9038   54.8970   25.2823 H   0  0  0  0  0  0
    7.1027   53.3525   25.2274 H   0  0  0  0  0  0
    5.9036   56.0488   24.4813 H   0  0  0  0  0  0
    6.3900   54.8066   23.3550 H   0  0  0  0  0  0
    4.6467   53.2968   24.1070 H   0  0  0  0  0  0
    3.9639   54.8845   23.7540 H   0  0  0  0  0  0
   -2.0953   47.5281   24.7142 H   0  0  0  0  0  0
    0.9048   50.4857   24.0144 H   0  0  0  0  0  0
   -2.6243   48.3826   20.0596 H   0  0  0  0  0  0
   -1.6400   48.7102   18.6802 H   0  0  0  0  0  0
   -1.9907   50.7305   20.9458 H   0  0  0  0  0  0
   -3.0602   50.6127   19.5913 H   0  0  0  0  0  0
   -1.5796   52.4085   19.1821 H   0  0  0  0  0  0
   -1.2483   51.1861   18.0040 H   0  0  0  0  0  0
    0.6749   52.5181   19.1777 H   0  0  0  0  0  0
    0.4799   51.4701   20.5301 H   0  0  0  0  0  0
    0.8703   50.2223   17.7571 H   0  0  0  0  0  0
    2.1982   51.0661   18.4677 H   0  0  0  0  0  0
    2.1122   49.5910   20.4927 H   0  0  0  0  0  0
    2.5977   48.8546   19.0135 H   0  0  0  0  0  0
    1.1796   47.2544   20.0960 H   0  0  0  0  0  0
    0.3660   47.8509   18.6882 H   0  0  0  0  0  0
   -0.8916   48.9271   26.6311 H   0  0  0  0  0  0
  1  6  2  0  0  0
  1  2  1  0  0  0
  1 34  1  0  0  0
  2  3  2  0  0  0
  2 35  1  0  0  0
  3  4  1  0  0  0
  3 13  1  0  0  0
  4  5  2  0  0  0
  4 36  1  0  0  0
  5  6  1  0  0  0
  5 37  1  0  0  0
  6  7  1  0  0  0
  7 12  1  0  0  0
  7  8  1  0  0  0
  7 38  1  0  0  0
  8  9  1  0  0  0
  8 39  1  0  0  0
  8 40  1  0  0  0
  9 10  1  0  0  0
  9 41  1  0  0  0
  9 42  1  0  0  0
 10 11  1  0  0  0
 10 43  1  0  0  0
 10 44  1  0  0  0
 11 12  1  0  0  0
 11 45  1  0  0  0
 11 46  1  0  0  0
 12 47  1  0  0  0
 12 48  1  0  0  0
 13 14  2  0  0  0
 13 15  2  0  0  0
 13 16  1  0  0  0
 16 17  1  0  0  0
 16 65  1  0  0  0
 17 22  2  0  0  0
 17 18  1  0  0  0
 18 19  2  0  0  0
 18 49  1  0  0  0
 19 20  1  0  0  0
 19 31  1  0  0  0
 20 21  2  0  0  0
 20 23  1  0  0  0
 21 22  1  0  0  0
 22 50  1  0  0  0
 23 30  1  0  0  0
 23 24  1  0  0  0
 24 25  1  0  0  0
 24 51  1  0  0  0
 24 52  1  0  0  0
 25 26  1  0  0  0
 25 53  1  0  0  0
 25 54  1  0  0  0
 26 27  1  0  0  0
 26 55  1  0  0  0
 26 56  1  0  0  0
 27 28  1  0  0  0
 27 57  1  0  0  0
 27 58  1  0  0  0
 28 29  1  0  0  0
 28 59  1  0  0  0
 28 60  1  0  0  0
 29 30  1  0  0  0
 29 61  1  0  0  0
 29 62  1  0  0  0
 30 63  1  0  0  0
 30 64  1  0  0  0
 31 32  2  0  0  0
 31 33  1  0  0  0
M  CHG  1  33  -1
M  END
> <i_i_glide_confnum>
613

> <i_i_glide_lignum>
5980

> <i_i_glide_posenum>
391

> <i_i_glide_rotatable_bonds>
6

> <i_m_Source_File_Index>
1113

> <b_m_subgroup_collapsed>
0

> <r_i_docking_score>
-5.03416

> <r_i_glide_ecoul>
-3.43164

> <r_i_glide_eff_state_penalty>
0

> <r_i_glide_einternal>
3.99374

> <r_i_glide_emodel>
-54.1898

> <r_i_glide_energy>
-40.6444

> <r_i_glide_erotb>
0.456188

> <r_i_glide_esite>
-0.248919

> <r_i_glide_evdw>
-37.2128

> <r_i_glide_gscore>
-5.03416

> <r_i_glide_hbond>
-0.202845

> <r_i_glide_ligand_efficiency>
-0.15255

> <r_i_glide_ligand_efficiency_ln>
-1.11957

> <r_i_glide_ligand_efficiency_sa>
-0.48931

> <r_i_glide_lipo>
-2.40399

> <r_i_glide_metal>
0

> <r_i_glide_rewards>
-0.259209

> <s_i_glide_gridfile>
wee1_glide-grid

> <s_m_Source_File>
wee1_decoys_glide_SP.sdf

> <s_m_Source_Path>
/Users/zhangxujun/Desktop

> <s_m_entry_id>
1388

> <s_m_entry_name>
wee1_decoys_glide_SP.1113

> <s_m_subgroup_title>
wee1_decoys_glide_SP

> <s_m_subgroupid>
wee1_decoys_glide_SP


$$$$
