ZINC15070972_158
                    3D
 Schrodinger Suite 2024-2.
 68 72  0  0  1  0            999 V2000
    2.2454   53.7520   23.4401 C   0  0  0  0  0  0
    3.7459   53.9757   23.5764 C   0  0  0  0  0  0
    4.3940   54.1644   24.8529 C   0  0  0  0  0  0
    3.9354   54.0986   26.1980 C   0  0  0  0  0  0
    4.7769   54.3774   27.2302 N   0  0  0  0  0  0
    6.0574   54.6914   26.9356 C   0  0  0  0  0  0
    6.6189   54.7692   25.7073 N   0  0  0  0  0  0
    5.7771   54.4980   24.7054 C   0  0  0  0  0  0
    6.2919   54.4972   23.0400 S   0  0  0  0  0  0
    4.6851   54.0012   22.5350 C   0  0  0  0  0  0
    4.4956   53.7550   21.1260 C   0  0  0  0  0  0
    5.1043   54.3851   20.2628 O   0  0  0  0  0  0
    3.7096   52.6965   20.8695 N   0  0  0  0  0  0
    3.5859   52.0059   19.5815 C   0  0  0  0  0  0
    2.2879   52.2581   18.7314 C   0  0  0  0  0  0
    2.1522   51.1985   17.5928 C   0  0  0  0  0  0
    1.9045   49.7590   18.1116 C   0  0  0  0  0  0
    0.7235   49.6750   19.1010 C   0  0  0  0  0  0
    0.8141   50.7326   20.2213 C   0  0  0  0  0  0
    1.0123   52.1460   19.6307 C   0  0  0  0  0  0
    1.0865   54.1284   17.2792 C   0  0  0  0  0  0
    1.1906   55.5955   16.8227 C   0  0  0  0  0  0
    2.4726   55.8780   16.0330 C   0  0  0  0  0  0
    3.7043   55.4507   16.8343 C   0  0  0  0  0  0
    3.6407   53.9696   17.2382 C   0  0  0  0  0  0
    2.6098   53.6965   26.4732 N   0  0  0  0  0  0
    1.9414   53.7101   27.7835 C   0  0  2  0  0  0
    0.9526   53.2601   27.6758 H   0  0  0  0  0  0
    1.7667   55.1163   28.3475 C   0  0  0  0  0  0
    2.4918   55.1003   29.6876 C   0  0  0  0  0  0
    2.4925   53.7358   30.0817 O   0  0  0  0  0  0
    2.6414   52.9291   28.9166 C   0  0  0  0  0  0
    1.6734   54.5011   23.9897 H   0  0  0  0  0  0
    1.8919   53.8299   22.4132 H   0  0  0  0  0  0
    1.9461   52.7710   23.8074 H   0  0  0  0  0  0
    6.7041   54.8953   27.7744 H   0  0  0  0  0  0
    3.2133   52.2913   21.6480 H   0  0  0  0  0  0
    3.6183   50.9575   19.8670 H   0  0  0  0  0  0
    4.4966   52.0968   18.9956 H   0  0  0  0  0  0
    3.0245   51.2202   16.9392 H   0  0  0  0  0  0
    1.3066   51.4280   16.9476 H   0  0  0  0  0  0
    2.8063   49.3690   18.5826 H   0  0  0  0  0  0
    1.7293   49.0927   17.2652 H   0  0  0  0  0  0
    0.6737   48.6756   19.5350 H   0  0  0  0  0  0
   -0.2092   49.8126   18.5537 H   0  0  0  0  0  0
    1.6270   50.4829   20.9026 H   0  0  0  0  0  0
   -0.0927   50.7059   20.8263 H   0  0  0  0  0  0
    0.1100   52.3434   19.0570 H   0  0  0  0  0  0
    1.0197   52.8963   20.4186 H   0  0  0  0  0  0
    0.9662   53.4594   16.4278 H   0  0  0  0  0  0
    0.2242   54.0728   17.9399 H   0  0  0  0  0  0
    0.3258   55.8424   16.2068 H   0  0  0  0  0  0
    1.1332   56.2606   17.6817 H   0  0  0  0  0  0
    2.5353   56.9403   15.7880 H   0  0  0  0  0  0
    2.4482   55.3481   15.0783 H   0  0  0  0  0  0
    3.8036   56.0685   17.7292 H   0  0  0  0  0  0
    4.6062   55.6297   16.2456 H   0  0  0  0  0  0
    4.5228   53.7924   17.8457 H   0  0  0  0  0  0
    3.6399   53.2992   16.3790 H   0  0  0  0  0  0
    1.9889   53.7650   25.6789 H   0  0  0  0  0  0
    2.1899   55.8979   27.7179 H   0  0  0  0  0  0
    0.7060   55.3256   28.5001 H   0  0  0  0  0  0
    3.5227   55.4501   29.6216 H   0  0  0  0  0  0
    2.0043   55.7235   30.4387 H   0  0  0  0  0  0
    2.1838   51.9530   29.0825 H   0  0  0  0  0  0
    3.6986   52.7254   28.7527 H   0  0  0  0  0  0
    2.3565   53.6967   18.0817 N   0  3  0  0  0  0
    2.3977   54.3294   18.8753 H   0  0  0  0  0  0
  1  2  1  0  0  0
  1 33  1  0  0  0
  1 34  1  0  0  0
  1 35  1  0  0  0
  2 10  2  0  0  0
  2  3  1  0  0  0
  3  8  2  0  0  0
  3  4  1  0  0  0
  4  5  2  0  0  0
  4 26  1  0  0  0
  5  6  1  0  0  0
  6  7  2  0  0  0
  6 36  1  0  0  0
  7  8  1  0  0  0
  8  9  1  0  0  0
  9 10  1  0  0  0
 10 11  1  0  0  0
 11 12  2  0  0  0
 11 13  1  0  0  0
 13 14  1  0  0  0
 13 37  1  0  0  0
 14 15  1  0  0  0
 14 38  1  0  0  0
 14 39  1  0  0  0
 15 20  1  0  0  0
 15 16  1  0  0  0
 15 67  1  0  0  0
 16 17  1  0  0  0
 16 40  1  0  0  0
 16 41  1  0  0  0
 17 18  1  0  0  0
 17 42  1  0  0  0
 17 43  1  0  0  0
 18 19  1  0  0  0
 18 44  1  0  0  0
 18 45  1  0  0  0
 19 20  1  0  0  0
 19 46  1  0  0  0
 19 47  1  0  0  0
 20 48  1  0  0  0
 20 49  1  0  0  0
 21 22  1  0  0  0
 21 50  1  0  0  0
 21 51  1  0  0  0
 21 67  1  0  0  0
 22 23  1  0  0  0
 22 52  1  0  0  0
 22 53  1  0  0  0
 23 24  1  0  0  0
 23 54  1  0  0  0
 23 55  1  0  0  0
 24 25  1  0  0  0
 24 56  1  0  0  0
 24 57  1  0  0  0
 25 58  1  0  0  0
 25 59  1  0  0  0
 25 67  1  0  0  0
 26 27  1  0  0  0
 26 60  1  0  0  0
 27 28  1  0  0  0
 27 32  1  0  0  0
 27 29  1  0  0  0
 29 30  1  0  0  0
 29 61  1  0  0  0
 29 62  1  0  0  0
 30 31  1  0  0  0
 30 63  1  0  0  0
 30 64  1  0  0  0
 31 32  1  0  0  0
 32 65  1  0  0  0
 32 66  1  0  0  0
 67 68  1  0  0  0
M  CHG  1  67   1
M  END
> <i_i_glide_confnum>
636

> <i_i_glide_lignum>
159

> <i_i_glide_posenum>
375

> <i_i_glide_rotatable_bonds>
7

> <i_m_Source_File_Index>
5175

> <b_m_subgroup_collapsed>
0

> <r_i_docking_score>
-6.28688

> <r_i_glide_ecoul>
-4.92611

> <r_i_glide_eff_state_penalty>
0

> <r_i_glide_einternal>
12.8762

> <r_i_glide_emodel>
-61.1644

> <r_i_glide_energy>
-47.6742

> <r_i_glide_erotb>
0.669358

> <r_i_glide_esite>
-0.0201691

> <r_i_glide_evdw>
-42.7481

> <r_i_glide_gscore>
-6.28688

> <r_i_glide_hbond>
-0.43252

> <r_i_glide_ligand_efficiency>
-0.196465

> <r_i_glide_ligand_efficiency_ln>
-1.4078

> <r_i_glide_ligand_efficiency_sa>
-0.623738

> <r_i_glide_lipo>
-2.56314

> <r_i_glide_metal>
0

> <r_i_glide_rewards>
-1.06409

> <s_i_glide_gridfile>
wee1_glide-grid

> <s_m_Source_File>
wee1_decoys_glide_SP.sdf

> <s_m_Source_Path>
/Users/zhangxujun/Desktop

> <s_m_entry_id>
5450

> <s_m_entry_name>
wee1_decoys_glide_SP.5175

> <s_m_subgroup_title>
wee1_decoys_glide_SP

> <s_m_subgroupid>
wee1_decoys_glide_SP


$$$$
