ZINC20179257_4828
                    3D
 Schrodinger Suite 2024-2.
 68 72  0  0  1  0            999 V2000
    7.1057   58.6640   18.3701 C   0  0  0  0  0  0
    7.0337   58.5515   16.8382 C   0  0  0  0  0  0
    5.6166   58.8966   16.3321 N   0  3  1  0  0  0
    5.5336   59.1401   14.8148 C   0  0  0  0  0  0
    4.0441   59.0379   14.4781 C   0  0  0  0  0  0
    3.3580   58.4695   15.7203 C   0  0  0  0  0  0
    4.4546   57.9255   16.6480 C   0  0  1  0  0  0
    4.2110   58.1603   17.6817 H   0  0  0  0  0  0
    4.7116   56.3952   16.5052 C   0  0  0  0  0  0
    4.9278   55.7424   17.7983 N   0  0  0  0  0  0
    6.1129   55.3634   18.3065 C   0  0  0  0  0  0
    7.1687   55.3905   17.6743 O   0  0  0  0  0  0
    6.0940   55.0434   19.7758 C   0  0  0  0  0  0
    7.1214   55.5182   20.5991 C   0  0  0  0  0  0
    7.0782   55.2967   21.9727 C   0  0  0  0  0  0
    6.0228   54.5747   22.5368 C   0  0  0  0  0  0
    5.0188   54.0650   21.7056 C   0  0  0  0  0  0
    5.0487   54.3004   20.3363 C   0  0  0  0  0  0
    5.9694   54.3994   24.0011 C   0  0  0  0  0  0
    4.8464   54.4133   24.7597 C   0  0  0  0  0  0
    4.9089   54.1283   26.1979 C   0  0  0  0  0  0
    5.9295   54.3324   26.8661 O   0  0  0  0  0  0
    3.7410   53.5978   26.6881 N   0  0  0  0  0  0
    2.5955   53.2972   25.8862 C   0  0  0  0  0  0
    1.5047   52.4983   26.2826 C   0  0  0  0  0  0
    0.4396   52.2693   25.4073 C   0  0  0  0  0  0
    0.4398   52.8379   24.1319 C   0  0  0  0  0  0
    1.5070   53.6376   23.7245 C   0  0  0  0  0  0
    2.5679   53.8489   24.6014 C   0  0  0  0  0  0
    3.6219   54.6274   24.1897 O   0  0  0  0  0  0
    3.7442   53.1482   28.1004 C   0  0  0  0  0  0
    2.7000   53.8157   28.9859 C   0  0  0  0  0  0
    2.6047   55.2076   29.0346 C   0  0  0  0  0  0
    1.6044   55.8227   29.7827 C   0  0  0  0  0  0
    0.7046   55.0350   30.4987 C   0  0  0  0  0  0
    0.8068   53.6469   30.4849 C   0  0  0  0  0  0
    1.8102   53.0403   29.7358 C   0  0  0  0  0  0
    1.9093   51.6966   29.7280 F   0  0  0  0  0  0
    8.0705   58.3076   18.7304 H   0  0  0  0  0  0
    6.9981   59.6966   18.6995 H   0  0  0  0  0  0
    6.3323   58.0838   18.8701 H   0  0  0  0  0  0
    7.2855   57.5675   16.4478 H   0  0  0  0  0  0
    7.6891   59.2871   16.3690 H   0  0  0  0  0  0
    6.1217   58.3511   14.3383 H   0  0  0  0  0  0
    5.9912   60.1114   14.6089 H   0  0  0  0  0  0
    3.8962   58.3870   13.6150 H   0  0  0  0  0  0
    3.6361   60.0183   14.2218 H   0  0  0  0  0  0
    2.5674   57.7496   15.5078 H   0  0  0  0  0  0
    2.8414   59.2788   16.2443 H   0  0  0  0  0  0
    5.5241   56.1977   15.8042 H   0  0  0  0  0  0
    3.8405   55.9078   16.0655 H   0  0  0  0  0  0
    4.1055   55.5552   18.3536 H   0  0  0  0  0  0
    7.9494   56.0778   20.1851 H   0  0  0  0  0  0
    7.8671   55.6974   22.5918 H   0  0  0  0  0  0
    4.2032   53.4868   22.1119 H   0  0  0  0  0  0
    4.2529   53.9040   19.7207 H   0  0  0  0  0  0
    6.9265   54.2172   24.4720 H   0  0  0  0  0  0
    1.4733   52.0267   27.2512 H   0  0  0  0  0  0
   -0.3836   51.6435   25.7211 H   0  0  0  0  0  0
   -0.3850   52.6552   23.4585 H   0  0  0  0  0  0
    1.5158   54.0824   22.7395 H   0  0  0  0  0  0
    4.7119   53.2899   28.5871 H   0  0  0  0  0  0
    3.5877   52.0704   28.1007 H   0  0  0  0  0  0
    3.3071   55.8039   28.4822 H   0  0  0  0  0  0
    1.5281   56.9000   29.8099 H   0  0  0  0  0  0
   -0.0802   55.4981   31.0696 H   0  0  0  0  0  0
    0.1145   53.0409   31.0534 H   0  0  0  0  0  0
    5.3967   59.7925   16.7680 H   0  0  0  0  0  0
  1  2  1  0  0  0
  1 39  1  0  0  0
  1 40  1  0  0  0
  1 41  1  0  0  0
  2  3  1  0  0  0
  2 42  1  0  0  0
  2 43  1  0  0  0
  3  7  1  0  0  0
  3  4  1  0  0  0
  3 68  1  0  0  0
  4  5  1  0  0  0
  4 44  1  0  0  0
  4 45  1  0  0  0
  5  6  1  0  0  0
  5 46  1  0  0  0
  5 47  1  0  0  0
  6  7  1  0  0  0
  6 48  1  0  0  0
  6 49  1  0  0  0
  7  8  1  0  0  0
  7  9  1  0  0  0
  9 10  1  0  0  0
  9 50  1  0  0  0
  9 51  1  0  0  0
 10 11  1  0  0  0
 10 52  1  0  0  0
 11 12  2  0  0  0
 11 13  1  0  0  0
 13 18  2  0  0  0
 13 14  1  0  0  0
 14 15  2  0  0  0
 14 53  1  0  0  0
 15 16  1  0  0  0
 15 54  1  0  0  0
 16 17  2  0  0  0
 16 19  1  0  0  0
 17 18  1  0  0  0
 17 55  1  0  0  0
 18 56  1  0  0  0
 19 20  2  0  0  0
 19 57  1  0  0  0
 20 30  1  0  0  0
 20 21  1  0  0  0
 21 22  2  0  0  0
 21 23  1  0  0  0
 23 24  1  0  0  0
 23 31  1  0  0  0
 24 29  2  0  0  0
 24 25  1  0  0  0
 25 26  2  0  0  0
 25 58  1  0  0  0
 26 27  1  0  0  0
 26 59  1  0  0  0
 27 28  2  0  0  0
 27 60  1  0  0  0
 28 29  1  0  0  0
 28 61  1  0  0  0
 29 30  1  0  0  0
 31 32  1  0  0  0
 31 62  1  0  0  0
 31 63  1  0  0  0
 32 37  2  0  0  0
 32 33  1  0  0  0
 33 34  2  0  0  0
 33 64  1  0  0  0
 34 35  1  0  0  0
 34 65  1  0  0  0
 35 36  2  0  0  0
 35 66  1  0  0  0
 36 37  1  0  0  0
 36 67  1  0  0  0
 37 38  1  0  0  0
M  CHG  1   3   1
M  END
> <i_i_glide_confnum>
190

> <i_i_glide_lignum>
4829

> <i_i_glide_posenum>
354

> <i_i_glide_rotatable_bonds>
8

> <i_m_Source_File_Index>
5565

> <b_m_subgroup_collapsed>
0

> <r_i_docking_score>
-7.67671

> <r_i_glide_ecoul>
-5.61382

> <r_i_glide_eff_state_penalty>
0

> <r_i_glide_einternal>
9.1849

> <r_i_glide_emodel>
-74.824

> <r_i_glide_energy>
-52.9691

> <r_i_glide_erotb>
0.570445

> <r_i_glide_esite>
-0.098368

> <r_i_glide_evdw>
-47.3553

> <r_i_glide_gscore>
-7.67671

> <r_i_glide_hbond>
-0.307462

> <r_i_glide_ligand_efficiency>
-0.207479

> <r_i_glide_ligand_efficiency_ln>
-1.6649

> <r_i_glide_ligand_efficiency_sa>
-0.691365

> <r_i_glide_lipo>
-3.98558

> <r_i_glide_metal>
0

> <r_i_glide_rewards>
-0.645905

> <s_i_glide_gridfile>
wee1_glide-grid

> <s_m_Source_File>
wee1_decoys_glide_SP.sdf

> <s_m_Source_Path>
/Users/zhangxujun/Desktop

> <s_m_entry_id>
5840

> <s_m_entry_name>
wee1_decoys_glide_SP.5565

> <s_m_subgroup_title>
wee1_decoys_glide_SP

> <s_m_subgroupid>
wee1_decoys_glide_SP


$$$$
