ZINC13129018_3116
                    3D
 Schrodinger Suite 2024-2.
 56 57  0  0  1  0            999 V2000
   -7.8665   52.0846   26.2592 C   0  0  0  0  0  0
   -6.4196   51.6283   26.2993 C   0  0  0  0  0  0
   -5.8455   51.2218   27.5033 C   0  0  0  0  0  0
   -4.5177   50.7892   27.5521 C   0  0  0  0  0  0
   -3.7463   50.7736   26.3728 C   0  0  0  0  0  0
   -4.3367   51.1502   25.1442 C   0  0  0  0  0  0
   -5.6667   51.5805   25.1266 C   0  0  0  0  0  0
   -3.6076   51.0497   23.8083 C   0  0  0  0  0  0
   -2.4056   50.3607   26.4825 N   0  0  0  0  0  0
   -1.3332   51.1083   26.1591 C   0  0  0  0  0  0
   -1.3874   52.2061   25.5989 O   0  0  0  0  0  0
    0.0286   50.5312   26.5785 C   0  0  0  0  0  0
    0.8554   51.5541   27.1463 O   0  0  0  0  0  0
    0.6813   52.0090   28.4231 C   0  0  0  0  0  0
   -0.2456   51.6844   29.1679 O   0  0  0  0  0  0
    1.7553   53.0104   28.8105 C   0  0  1  0  0  0
    1.6013   53.8905   28.1878 H   0  0  0  0  0  0
    1.6970   53.5163   30.2829 C   0  0  1  0  0  0
    2.6261   54.0436   30.4815 H   0  0  0  0  0  0
    0.5633   54.5203   30.5449 C   0  0  0  0  0  0
    1.6190   52.4744   31.2423 O   0  0  0  0  0  0
    3.1135   52.4967   28.4848 N   0  0  0  0  0  0
    4.3913   53.6171   28.0340 S   0  0  0  0  0  0
    4.1045   54.8967   28.6817 O   0  0  0  0  0  0
    5.6712   52.9389   28.2532 O   0  0  0  0  0  0
    4.2488   53.8818   26.2659 C   0  0  0  0  0  0
    3.0079   53.8595   25.6204 C   0  0  0  0  0  0
    2.9302   54.0394   24.2408 C   0  0  0  0  0  0
    4.0890   54.2419   23.4922 C   0  0  0  0  0  0
    5.3349   54.2728   24.1330 C   0  0  0  0  0  0
    5.4089   54.0968   25.5160 C   0  0  0  0  0  0
    6.7945   54.5257   23.2433 Cl  0  0  0  0  0  0
    3.9470   54.4871   21.7862 Cl  0  0  0  0  0  0
   -3.9356   50.3682   28.9002 C   0  0  0  0  0  0
   -8.4605   51.5600   27.0087 H   0  0  0  0  0  0
   -8.3216   51.8645   25.2927 H   0  0  0  0  0  0
   -7.9365   53.1563   26.4453 H   0  0  0  0  0  0
   -6.4365   51.2435   28.4073 H   0  0  0  0  0  0
   -6.1232   51.8729   24.1911 H   0  0  0  0  0  0
   -2.8851   50.2337   23.8097 H   0  0  0  0  0  0
   -4.3039   50.8333   22.9974 H   0  0  0  0  0  0
   -3.0907   51.9815   23.5785 H   0  0  0  0  0  0
   -2.2318   49.5604   27.0885 H   0  0  0  0  0  0
   -0.0957   49.7070   27.2820 H   0  0  0  0  0  0
    0.5172   50.0922   25.7087 H   0  0  0  0  0  0
    0.7025   55.4137   29.9346 H   0  0  0  0  0  0
   -0.4177   54.1036   30.3156 H   0  0  0  0  0  0
    0.5518   54.8405   31.5879 H   0  0  0  0  0  0
    0.7286   52.1037   31.2212 H   0  0  0  0  0  0
    3.1619   51.5701   28.0529 H   0  0  0  0  0  0
    2.0931   53.6964   26.1646 H   0  0  0  0  0  0
    1.9674   54.0221   23.7507 H   0  0  0  0  0  0
    6.3727   54.1122   26.0050 H   0  0  0  0  0  0
   -3.6964   49.3039   28.8958 H   0  0  0  0  0  0
   -3.0070   50.9039   29.1018 H   0  0  0  0  0  0
   -4.6125   50.5673   29.7312 H   0  0  0  0  0  0
  1  2  1  0  0  0
  1 35  1  0  0  0
  1 36  1  0  0  0
  1 37  1  0  0  0
  2  7  2  0  0  0
  2  3  1  0  0  0
  3  4  2  0  0  0
  3 38  1  0  0  0
  4  5  1  0  0  0
  4 34  1  0  0  0
  5  6  2  0  0  0
  5  9  1  0  0  0
  6  7  1  0  0  0
  6  8  1  0  0  0
  7 39  1  0  0  0
  8 40  1  0  0  0
  8 41  1  0  0  0
  8 42  1  0  0  0
  9 10  1  0  0  0
  9 43  1  0  0  0
 10 11  2  0  0  0
 10 12  1  0  0  0
 12 13  1  0  0  0
 12 44  1  0  0  0
 12 45  1  0  0  0
 13 14  1  0  0  0
 14 15  2  0  0  0
 14 16  1  0  0  0
 16 17  1  0  0  0
 16 18  1  0  0  0
 16 22  1  0  0  0
 18 19  1  0  0  0
 18 20  1  0  0  0
 18 21  1  0  0  0
 20 46  1  0  0  0
 20 47  1  0  0  0
 20 48  1  0  0  0
 21 49  1  0  0  0
 22 23  1  0  0  0
 22 50  1  0  0  0
 23 24  2  0  0  0
 23 25  2  0  0  0
 23 26  1  0  0  0
 26 31  2  0  0  0
 26 27  1  0  0  0
 27 28  2  0  0  0
 27 51  1  0  0  0
 28 29  1  0  0  0
 28 52  1  0  0  0
 29 30  2  0  0  0
 29 33  1  0  0  0
 30 31  1  0  0  0
 30 32  1  0  0  0
 31 53  1  0  0  0
 34 54  1  0  0  0
 34 55  1  0  0  0
 34 56  1  0  0  0
M  END
> <i_i_glide_confnum>
5

> <i_i_glide_lignum>
3117

> <i_i_glide_posenum>
207

> <i_i_glide_rotatable_bonds>
11

> <i_m_Source_File_Index>
502

> <b_m_subgroup_collapsed>
0

> <r_i_docking_score>
-4.73859

> <r_i_glide_ecoul>
-4.92578

> <r_i_glide_eff_state_penalty>
0

> <r_i_glide_einternal>
2.70064

> <r_i_glide_emodel>
-61.7143

> <r_i_glide_energy>
-48.2961

> <r_i_glide_erotb>
0.725932

> <r_i_glide_esite>
-0.138296

> <r_i_glide_evdw>
-43.3703

> <r_i_glide_gscore>
-4.73859

> <r_i_glide_hbond>
-0.16

> <r_i_glide_ligand_efficiency>
-0.148081

> <r_i_glide_ligand_efficiency_ln>
-1.0611

> <r_i_glide_ligand_efficiency_sa>
-0.470127

> <r_i_glide_lipo>
-2.14362

> <r_i_glide_metal>
0

> <r_i_glide_rewards>
-0.11522

> <s_i_glide_gridfile>
wee1_glide-grid

> <s_m_Source_File>
wee1_decoys_glide_SP.sdf

> <s_m_Source_Path>
/Users/zhangxujun/Desktop

> <s_m_entry_id>
777

> <s_m_entry_name>
wee1_decoys_glide_SP.502

> <s_m_subgroup_title>
wee1_decoys_glide_SP

> <s_m_subgroupid>
wee1_decoys_glide_SP


$$$$
