ZINC60369341_4912
                    3D
 Schrodinger Suite 2024-2.
 67 70  0  0  1  0            999 V2000
    6.4001   53.4325   27.9796 C   0  0  0  0  0  0
    6.5845   53.7136   26.6264 C   0  0  0  0  0  0
    5.5999   54.3819   25.8990 C   0  0  0  0  0  0
    4.4381   54.7978   26.5604 C   0  0  0  0  0  0
    4.2395   54.4970   27.9096 C   0  0  0  0  0  0
    5.2229   53.8179   28.6233 C   0  0  0  0  0  0
    3.1022   54.8840   28.5291 F   0  0  0  0  0  0
    5.8001   54.6671   24.4100 C   0  0  0  0  0  0
    5.0494   53.7047   23.4422 N   0  3  2  0  0  0
    5.2780   54.1185   21.9686 C   0  0  0  0  0  0
    4.5604   53.1175   21.0404 C   0  0  0  0  0  0
    3.0436   53.0825   21.3114 C   0  0  0  0  0  0
    2.7805   52.6854   22.7704 C   0  0  1  0  0  0
    3.0840   51.6505   22.8820 H   0  0  0  0  0  0
    3.5359   53.6087   23.7746 C   0  0  0  0  0  0
    1.2612   52.7288   23.1156 C   0  0  0  0  0  0
    0.8215   53.7359   23.6815 O   0  0  0  0  0  0
    0.4215   51.7303   22.7160 N   0  0  0  0  0  0
    0.8725   50.3815   22.3424 C   0  0  0  0  0  0
    0.8616   49.5274   23.6314 C   0  0  0  0  0  0
   -0.5024   49.5529   24.3582 C   0  0  0  0  0  0
   -1.0860   50.9832   24.5015 C   0  0  1  0  0  0
   -0.4472   51.5214   25.2035 H   0  0  0  0  0  0
   -0.9902   51.7504   23.1486 C   0  0  0  0  0  0
   -2.5241   50.9972   25.0579 C   0  0  0  0  0  0
   -2.6418   50.5201   26.4428 N   0  0  0  0  0  0
   -3.6316   50.8874   27.2742 C   0  0  0  0  0  0
   -4.4132   51.8040   27.0141 O   0  0  0  0  0  0
   -3.6962   50.0968   28.3652 N   0  0  0  0  0  0
   -4.6403   50.1336   29.4117 C   0  0  0  0  0  0
   -4.7935   48.9749   30.1789 C   0  0  0  0  0  0
   -5.6957   48.9427   31.2461 C   0  0  0  0  0  0
   -6.4250   50.0839   31.5791 C   0  0  0  0  0  0
   -6.2702   51.2466   30.8286 C   0  0  0  0  0  0
   -5.3965   51.2684   29.7445 C   0  0  0  0  0  0
   -6.9497   52.3688   31.1641 F   0  0  0  0  0  0
    7.1763   52.8975   28.5034 H   0  0  0  0  0  0
    7.4954   53.3870   26.1487 H   0  0  0  0  0  0
    3.6676   55.3354   26.0321 H   0  0  0  0  0  0
    5.0714   53.6034   29.6773 H   0  0  0  0  0  0
    5.5040   55.6925   24.1731 H   0  0  0  0  0  0
    6.8503   54.5625   24.1301 H   0  0  0  0  0  0
    4.9129   55.1395   21.8395 H   0  0  0  0  0  0
    6.3536   54.0970   21.7988 H   0  0  0  0  0  0
    4.7354   53.3980   20.0010 H   0  0  0  0  0  0
    4.9911   52.1205   21.1534 H   0  0  0  0  0  0
    2.7046   54.0965   21.1510 H   0  0  0  0  0  0
    2.5969   52.3849   20.6017 H   0  0  0  0  0  0
    3.4704   53.1780   24.7753 H   0  0  0  0  0  0
    3.1826   54.6438   23.7575 H   0  0  0  0  0  0
    0.1406   49.9939   21.6333 H   0  0  0  0  0  0
    1.7975   50.3672   21.7708 H   0  0  0  0  0  0
    1.1046   48.4970   23.3766 H   0  0  0  0  0  0
    1.6513   49.8590   24.3042 H   0  0  0  0  0  0
   -1.1988   48.9604   23.7606 H   0  0  0  0  0  0
   -0.4555   49.0452   25.3232 H   0  0  0  0  0  0
   -1.4003   52.7619   23.1677 H   0  0  0  0  0  0
   -1.5929   51.2534   22.3869 H   0  0  0  0  0  0
   -2.9031   52.0197   24.9881 H   0  0  0  0  0  0
   -3.1775   50.3953   24.4238 H   0  0  0  0  0  0
   -2.0139   49.7881   26.7459 H   0  0  0  0  0  0
   -3.0005   49.3576   28.4432 H   0  0  0  0  0  0
   -4.1996   48.0973   29.9596 H   0  0  0  0  0  0
   -5.8044   48.0415   31.8320 H   0  0  0  0  0  0
   -7.0963   50.0704   32.4255 H   0  0  0  0  0  0
   -5.2985   52.1802   29.1863 H   0  0  0  0  0  0
    5.4420   52.7792   23.5592 H   0  0  0  0  0  0
  1  6  2  0  0  0
  1  2  1  0  0  0
  1 37  1  0  0  0
  2  3  2  0  0  0
  2 38  1  0  0  0
  3  4  1  0  0  0
  3  8  1  0  0  0
  4  5  2  0  0  0
  4 39  1  0  0  0
  5  6  1  0  0  0
  5  7  1  0  0  0
  6 40  1  0  0  0
  8  9  1  0  0  0
  8 41  1  0  0  0
  8 42  1  0  0  0
  9 15  1  0  0  0
  9 10  1  0  0  0
  9 67  1  0  0  0
 10 11  1  0  0  0
 10 43  1  0  0  0
 10 44  1  0  0  0
 11 12  1  0  0  0
 11 45  1  0  0  0
 11 46  1  0  0  0
 12 13  1  0  0  0
 12 47  1  0  0  0
 12 48  1  0  0  0
 13 14  1  0  0  0
 13 15  1  0  0  0
 13 16  1  0  0  0
 15 49  1  0  0  0
 15 50  1  0  0  0
 16 17  2  0  0  0
 16 18  1  0  0  0
 18 24  1  0  0  0
 18 19  1  0  0  0
 19 20  1  0  0  0
 19 51  1  0  0  0
 19 52  1  0  0  0
 20 21  1  0  0  0
 20 53  1  0  0  0
 20 54  1  0  0  0
 21 22  1  0  0  0
 21 55  1  0  0  0
 21 56  1  0  0  0
 22 23  1  0  0  0
 22 24  1  0  0  0
 22 25  1  0  0  0
 24 57  1  0  0  0
 24 58  1  0  0  0
 25 26  1  0  0  0
 25 59  1  0  0  0
 25 60  1  0  0  0
 26 27  1  0  0  0
 26 61  1  0  0  0
 27 28  2  0  0  0
 27 29  1  0  0  0
 29 30  1  0  0  0
 29 62  1  0  0  0
 30 35  2  0  0  0
 30 31  1  0  0  0
 31 32  2  0  0  0
 31 63  1  0  0  0
 32 33  1  0  0  0
 32 64  1  0  0  0
 33 34  2  0  0  0
 33 65  1  0  0  0
 34 35  1  0  0  0
 34 36  1  0  0  0
 35 66  1  0  0  0
M  CHG  1   9   1
M  END
> <i_i_glide_confnum>
285

> <i_i_glide_lignum>
4913

> <i_i_glide_posenum>
112

> <i_i_glide_rotatable_bonds>
9

> <i_m_Source_File_Index>
3277

> <b_m_subgroup_collapsed>
0

> <r_i_docking_score>
-5.80464

> <r_i_glide_ecoul>
-5.19862

> <r_i_glide_eff_state_penalty>
0

> <r_i_glide_einternal>
9.44069

> <r_i_glide_emodel>
-54.4495

> <r_i_glide_energy>
-39.1941

> <r_i_glide_erotb>
0.727198

> <r_i_glide_esite>
-0.30807

> <r_i_glide_evdw>
-33.9955

> <r_i_glide_gscore>
-5.80464

> <r_i_glide_hbond>
-0.229764

> <r_i_glide_ligand_efficiency>
-0.170725

> <r_i_glide_ligand_efficiency_ln>
-1.28241

> <r_i_glide_ligand_efficiency_sa>
-0.553082

> <r_i_glide_lipo>
-2.63456

> <r_i_glide_metal>
0

> <r_i_glide_rewards>
-0.879879

> <s_i_glide_gridfile>
wee1_glide-grid

> <s_m_Source_File>
wee1_decoys_glide_SP.sdf

> <s_m_Source_Path>
/Users/zhangxujun/Desktop

> <s_m_entry_id>
3552

> <s_m_entry_name>
wee1_decoys_glide_SP.3277

> <s_m_subgroup_title>
wee1_decoys_glide_SP

> <s_m_subgroupid>
wee1_decoys_glide_SP


$$$$
