ZINC16974723_5957
                    3D
 Schrodinger Suite 2024-2.
 57 60  0  0  1  0            999 V2000
    1.2751   47.6124   17.5707 C   0  0  0  0  0  0
    1.3410   48.7565   18.5656 C   0  0  0  0  0  0
    0.6070   49.9216   18.3509 C   0  0  0  0  0  0
    0.6919   50.9713   19.2617 C   0  0  0  0  0  0
    1.5245   50.8717   20.3844 C   0  0  0  0  0  0
    2.2731   49.7054   20.5802 C   0  0  0  0  0  0
    2.1667   48.6479   19.6831 C   0  0  0  0  0  0
    1.5578   52.0260   21.4001 C   0  0  1  0  0  0
    1.1696   52.8734   20.8285 H   0  0  0  0  0  0
    0.5769   51.8462   22.6236 C   0  0  2  0  0  0
   -0.4427   51.8342   22.2350 H   0  0  0  0  0  0
    0.6719   53.0372   23.6215 C   0  0  0  0  0  0
   -0.3494   53.2967   24.2494 O   0  0  0  0  0  0
    1.8174   53.6808   23.7366 N   0  5  0  0  0  0
    2.9309   53.3496   22.9650 C   0  0  0  0  0  0
    2.9132   52.5581   21.8719 C   0  0  0  0  0  0
    4.1051   52.2931   21.1408 C   0  0  0  0  0  0
    5.1035   52.0966   20.5966 N   0  0  0  0  0  0
    4.4655   54.0965   23.5786 S   0  0  0  0  0  0
    4.1405   54.6781   25.2846 C   0  0  0  0  0  0
    5.3354   54.6324   26.2609 C   0  0  0  0  0  0
    6.4742   54.8653   25.8563 O   0  0  0  0  0  0
    5.1288   54.4379   27.5837 N   0  0  0  0  0  0
    3.9129   54.1213   28.2093 C   0  0  0  0  0  0
    3.4755   54.8885   29.2815 C   0  0  0  0  0  0
    2.2498   54.6291   29.8931 C   0  0  0  0  0  0
    1.4590   53.5305   29.4798 C   0  0  0  0  0  0
    0.2494   53.1816   30.1278 C   0  0  0  0  0  0
   -0.4954   52.0962   29.6749 C   0  0  0  0  0  0
   -0.0943   51.3712   28.5584 C   0  0  0  0  0  0
    1.0979   51.6750   27.9145 C   0  0  0  0  0  0
    1.9054   52.7386   28.3818 C   0  0  0  0  0  0
    3.1432   53.0422   27.7822 C   0  0  0  0  0  0
    0.7831   50.5516   23.4452 C   0  0  0  0  0  0
    1.9045   50.0979   23.6768 O   0  0  0  0  0  0
   -0.3775   49.9996   23.8642 O   0  0  0  0  0  0
   -0.3624   48.8451   24.6944 C   0  0  0  0  0  0
    0.6662   46.7982   17.9644 H   0  0  0  0  0  0
    0.8736   47.9347   16.6083 H   0  0  0  0  0  0
    2.2787   47.2258   17.3802 H   0  0  0  0  0  0
   -0.0286   50.0156   17.4829 H   0  0  0  0  0  0
    0.1083   51.8635   19.0915 H   0  0  0  0  0  0
    2.9324   49.6092   21.4299 H   0  0  0  0  0  0
    2.7332   47.7464   19.8504 H   0  0  0  0  0  0
    3.7719   55.6957   25.2810 H   0  0  0  0  0  0
    3.2986   54.1170   25.6461 H   0  0  0  0  0  0
    5.9092   54.6474   28.1883 H   0  0  0  0  0  0
    4.0899   55.6975   29.6362 H   0  0  0  0  0  0
    1.9022   55.2565   30.7024 H   0  0  0  0  0  0
   -0.0859   53.7477   30.9840 H   0  0  0  0  0  0
   -1.3913   51.7975   30.1935 H   0  0  0  0  0  0
   -0.6964   50.5419   28.2096 H   0  0  0  0  0  0
    1.4150   51.0933   27.0612 H   0  0  0  0  0  0
    3.4779   52.4628   26.9426 H   0  0  0  0  0  0
    0.1465   48.0107   24.2090 H   0  0  0  0  0  0
    0.1436   49.0509   25.6387 H   0  0  0  0  0  0
   -1.3830   48.5353   24.9198 H   0  0  0  0  0  0
  1  2  1  0  0  0
  1 38  1  0  0  0
  1 39  1  0  0  0
  1 40  1  0  0  0
  2  7  2  0  0  0
  2  3  1  0  0  0
  3  4  2  0  0  0
  3 41  1  0  0  0
  4  5  1  0  0  0
  4 42  1  0  0  0
  5  6  2  0  0  0
  5  8  1  0  0  0
  6  7  1  0  0  0
  6 43  1  0  0  0
  7 44  1  0  0  0
  8  9  1  0  0  0
  8 16  1  0  0  0
  8 10  1  0  0  0
 10 11  1  0  0  0
 10 12  1  0  0  0
 10 34  1  0  0  0
 12 13  2  0  0  0
 12 14  1  0  0  0
 14 15  1  0  0  0
 15 16  2  0  0  0
 15 19  1  0  0  0
 16 17  1  0  0  0
 17 18  3  0  0  0
 19 20  1  0  0  0
 20 21  1  0  0  0
 20 45  1  0  0  0
 20 46  1  0  0  0
 21 22  2  0  0  0
 21 23  1  0  0  0
 23 24  1  0  0  0
 23 47  1  0  0  0
 24 33  2  0  0  0
 24 25  1  0  0  0
 25 26  2  0  0  0
 25 48  1  0  0  0
 26 27  1  0  0  0
 26 49  1  0  0  0
 27 32  2  0  0  0
 27 28  1  0  0  0
 28 29  2  0  0  0
 28 50  1  0  0  0
 29 30  1  0  0  0
 29 51  1  0  0  0
 30 31  2  0  0  0
 30 52  1  0  0  0
 31 32  1  0  0  0
 31 53  1  0  0  0
 32 33  1  0  0  0
 33 54  1  0  0  0
 34 35  2  0  0  0
 34 36  1  0  0  0
 36 37  1  0  0  0
 37 55  1  0  0  0
 37 56  1  0  0  0
 37 57  1  0  0  0
M  CHG  1  14  -1
M  END
> <i_i_glide_confnum>
91

> <i_i_glide_lignum>
5958

> <i_i_glide_posenum>
284

> <i_i_glide_rotatable_bonds>
9

> <i_m_Source_File_Index>
3971

> <b_m_subgroup_collapsed>
0

> <r_i_docking_score>
-3.13946

> <r_i_glide_ecoul>
-3.40721

> <r_i_glide_eff_state_penalty>
0

> <r_i_glide_einternal>
7.4955

> <r_i_glide_emodel>
-47.9798

> <r_i_glide_energy>
-48.6221

> <r_i_glide_erotb>
0.518993

> <r_i_glide_esite>
0

> <r_i_glide_evdw>
-45.2149

> <r_i_glide_gscore>
-3.13946

> <r_i_glide_hbond>
-0.0595968

> <r_i_glide_ligand_efficiency>
-0.089699

> <r_i_glide_ligand_efficiency_ln>
-0.689182

> <r_i_glide_ligand_efficiency_sa>
-0.293411

> <r_i_glide_lipo>
-1.85459

> <r_i_glide_metal>
0

> <r_i_glide_rewards>
1.02756

> <s_i_glide_gridfile>
wee1_glide-grid

> <s_m_Source_File>
wee1_decoys_glide_SP.sdf

> <s_m_Source_Path>
/Users/zhangxujun/Desktop

> <s_m_entry_id>
4246

> <s_m_entry_name>
wee1_decoys_glide_SP.3971

> <s_m_subgroup_title>
wee1_decoys_glide_SP

> <s_m_subgroupid>
wee1_decoys_glide_SP


$$$$
