ZINC59310293_4511
                    3D
 Schrodinger Suite 2024-2.
 61 66  0  0  1  0            999 V2000
    6.1527   54.2572   28.2168 C   0  0  0  0  0  0
    4.8922   53.9314   27.3834 C   0  0  2  0  0  0
    4.6827   52.8678   27.5209 H   0  0  0  0  0  0
    5.0747   54.1110   25.8618 C   0  0  0  0  0  0
    3.9482   54.1051   25.0254 C   0  0  0  0  0  0
    4.0829   54.2890   23.6530 C   0  0  0  0  0  0
    5.3474   54.4652   23.0986 C   0  0  0  0  0  0
    6.4757   54.4754   23.9095 C   0  0  0  0  0  0
    6.3401   54.3055   25.2844 C   0  0  0  0  0  0
    3.7132   54.6670   27.8553 N   0  0  0  0  0  0
    3.1347   54.6235   29.0656 C   0  0  0  0  0  0
    3.5621   53.9530   30.0066 O   0  0  0  0  0  0
    1.8717   55.4804   29.2160 C   0  0  0  0  0  0
    0.7044   54.8856   30.4820 S   0  0  0  0  0  0
    0.1045   53.4007   29.7388 C   0  0  0  0  0  0
    0.1965   53.1168   28.4408 N   0  0  0  0  0  0
   -0.3868   51.9448   28.3614 C   0  0  0  0  0  0
   -0.8248   51.5699   29.5931 N   0  0  0  0  0  0
   -0.4951   52.4973   30.4815 N   0  0  0  0  0  0
   -0.5579   51.1366   27.2613 N   0  0  0  0  0  0
    0.0622   51.3575   26.0290 N   0  0  0  0  0  0
   -0.0519   50.4435   25.1533 C   0  0  0  0  0  0
    0.5664   50.5095   23.8119 C   0  0  0  0  0  0
    1.6184   51.4072   23.6069 C   0  0  0  0  0  0
    2.3029   51.4977   22.4094 C   0  0  0  0  0  0
    1.9644   50.6932   21.3154 C   0  0  0  0  0  0
    2.6512   50.7752   20.0905 C   0  0  0  0  0  0
    2.2984   49.9778   19.0193 C   0  0  0  0  0  0
    1.2460   49.0485   19.1201 C   0  0  0  0  0  0
    0.8718   48.2070   18.0491 C   0  0  0  0  0  0
   -0.1840   47.3147   18.1759 C   0  0  0  0  0  0
   -0.9074   47.2279   19.3575 C   0  0  0  0  0  0
   -0.5849   48.0340   20.4734 C   0  0  0  0  0  0
    0.5139   48.9518   20.3567 C   0  0  0  0  0  0
    0.8743   49.7699   21.4625 C   0  0  0  0  0  0
    0.1509   49.6731   22.7142 C   0  0  0  0  0  0
   -0.9352   48.7584   22.7691 C   0  0  0  0  0  0
   -1.2953   47.9759   21.6853 C   0  0  0  0  0  0
    6.9931   53.6123   27.9576 H   0  0  0  0  0  0
    6.4499   55.2958   28.0728 H   0  0  0  0  0  0
    5.9866   54.1235   29.2810 H   0  0  0  0  0  0
    2.9602   53.9552   25.4363 H   0  0  0  0  0  0
    3.2069   54.3113   23.0212 H   0  0  0  0  0  0
    5.4499   54.6034   22.0325 H   0  0  0  0  0  0
    7.4518   54.6177   23.4735 H   0  0  0  0  0  0
    7.2354   54.3195   25.8836 H   0  0  0  0  0  0
    3.2446   55.1989   27.1392 H   0  0  0  0  0  0
    2.1890   56.4820   29.5058 H   0  0  0  0  0  0
    1.3460   55.5820   28.2656 H   0  0  0  0  0  0
   -0.9558   50.2054   27.3625 H   0  0  0  0  0  0
   -0.5978   49.5277   25.3674 H   0  0  0  0  0  0
    1.9507   52.0469   24.4107 H   0  0  0  0  0  0
    3.1266   52.1852   22.3041 H   0  0  0  0  0  0
    3.4650   51.4778   19.9800 H   0  0  0  0  0  0
    2.8296   50.0850   18.0838 H   0  0  0  0  0  0
    1.4219   48.2693   17.1199 H   0  0  0  0  0  0
   -0.4496   46.6863   17.3382 H   0  0  0  0  0  0
   -1.7310   46.5333   19.4294 H   0  0  0  0  0  0
   -1.5206   48.6631   23.6705 H   0  0  0  0  0  0
   -2.1277   47.2939   21.7764 H   0  0  0  0  0  0
   -1.2958   50.7054   29.8333 H   0  0  0  0  0  0
  1  2  1  0  0  0
  1 39  1  0  0  0
  1 40  1  0  0  0
  1 41  1  0  0  0
  2  3  1  0  0  0
  2  4  1  0  0  0
  2 10  1  0  0  0
  4  9  2  0  0  0
  4  5  1  0  0  0
  5  6  2  0  0  0
  5 42  1  0  0  0
  6  7  1  0  0  0
  6 43  1  0  0  0
  7  8  2  0  0  0
  7 44  1  0  0  0
  8  9  1  0  0  0
  8 45  1  0  0  0
  9 46  1  0  0  0
 10 11  1  0  0  0
 10 47  1  0  0  0
 11 12  2  0  0  0
 11 13  1  0  0  0
 13 14  1  0  0  0
 13 48  1  0  0  0
 13 49  1  0  0  0
 14 15  1  0  0  0
 15 19  2  0  0  0
 15 16  1  0  0  0
 16 17  2  0  0  0
 17 18  1  0  0  0
 17 20  1  0  0  0
 18 19  1  0  0  0
 18 61  1  0  0  0
 20 21  1  0  0  0
 20 50  1  0  0  0
 21 22  2  0  0  0
 22 23  1  0  0  0
 22 51  1  0  0  0
 23 36  2  0  0  0
 23 24  1  0  0  0
 24 25  2  0  0  0
 24 52  1  0  0  0
 25 26  1  0  0  0
 25 53  1  0  0  0
 26 35  2  0  0  0
 26 27  1  0  0  0
 27 28  2  0  0  0
 27 54  1  0  0  0
 28 29  1  0  0  0
 28 55  1  0  0  0
 29 34  2  0  0  0
 29 30  1  0  0  0
 30 31  2  0  0  0
 30 56  1  0  0  0
 31 32  1  0  0  0
 31 57  1  0  0  0
 32 33  2  0  0  0
 32 58  1  0  0  0
 33 38  1  0  0  0
 33 34  1  0  0  0
 34 35  1  0  0  0
 35 36  1  0  0  0
 36 37  1  0  0  0
 37 38  2  0  0  0
 37 59  1  0  0  0
 38 60  1  0  0  0
M  END
> <i_i_glide_confnum>
147

> <i_i_glide_lignum>
4512

> <i_i_glide_posenum>
304

> <i_i_glide_rotatable_bonds>
9

> <i_m_Source_File_Index>
5222

> <b_m_subgroup_collapsed>
0

> <r_i_docking_score>
-7.35487

> <r_i_glide_ecoul>
-8.39092

> <r_i_glide_eff_state_penalty>
0

> <r_i_glide_einternal>
7.84489

> <r_i_glide_emodel>
-80.7202

> <r_i_glide_energy>
-56.8326

> <r_i_glide_erotb>
0.562132

> <r_i_glide_esite>
-0.184418

> <r_i_glide_evdw>
-48.4417

> <r_i_glide_gscore>
-7.35487

> <r_i_glide_hbond>
-0.439317

> <r_i_glide_ligand_efficiency>
-0.19878

> <r_i_glide_ligand_efficiency_ln>
-1.5951

> <r_i_glide_ligand_efficiency_sa>
-0.66238

> <r_i_glide_lipo>
-3.02823

> <r_i_glide_metal>
0

> <r_i_glide_rewards>
-0.584325

> <s_i_glide_gridfile>
wee1_glide-grid

> <s_m_Source_File>
wee1_decoys_glide_SP.sdf

> <s_m_Source_Path>
/Users/zhangxujun/Desktop

> <s_m_entry_id>
5497

> <s_m_entry_name>
wee1_decoys_glide_SP.5222

> <s_m_subgroup_title>
wee1_decoys_glide_SP

> <s_m_subgroupid>
wee1_decoys_glide_SP


$$$$
