ZINC40688658_3441
                    3D
 Schrodinger Suite 2024-2.
 59 62  0  0  1  0            999 V2000
    0.3318   51.1440   25.5737 C   0  0  0  0  0  0
    0.3765   51.6879   26.9992 C   0  0  0  0  0  0
    1.5503   52.2893   27.4539 C   0  0  0  0  0  0
    1.6602   52.8048   28.7534 C   0  0  0  0  0  0
    0.5550   52.6865   29.6131 C   0  0  0  0  0  0
   -0.5962   52.0316   29.1858 C   0  0  0  0  0  0
   -0.7082   51.5578   27.8807 C   0  0  0  0  0  0
   -1.8868   50.8967   27.5154 N   0  0  0  0  0  0
   -2.8067   51.2280   26.5052 C   0  0  0  0  0  0
   -3.6993   50.2645   25.9809 C   0  0  0  0  0  0
   -4.5857   50.7031   24.9576 C   0  0  0  0  0  0
   -4.5775   52.0023   24.5396 N   0  0  0  0  0  0
   -3.6920   52.8442   25.1132 C   0  0  0  0  0  0
   -2.8003   52.5177   26.0717 N   0  0  0  0  0  0
   -5.5100   49.9034   24.2688 N   0  0  0  0  0  0
   -5.4040   48.4339   24.1448 C   0  0  0  0  0  0
   -6.0463   47.8640   22.8604 C   0  0  0  0  0  0
   -7.4840   48.3503   22.6401 C   0  0  0  0  0  0
   -7.5152   49.8773   22.7783 C   0  0  0  0  0  0
   -6.9172   50.3514   24.1259 C   0  0  1  0  0  0
   -6.9245   51.4390   24.0453 H   0  0  0  0  0  0
   -7.8123   49.9987   25.3324 C   0  0  0  0  0  0
   -3.6955   48.9481   26.4816 N   0  0  0  0  0  0
    0.5715   53.3382   31.2166 Cl  0  0  0  0  0  0
    2.9560   53.4740   29.2460 C   0  0  1  0  0  0
    2.6643   54.4329   29.6755 H   0  0  0  0  0  0
    3.4915   52.7008   30.3844 C   0  0  0  0  0  0
    3.9045   52.0953   31.2795 N   0  0  0  0  0  0
    4.0303   53.8193   28.1958 C   0  0  0  0  0  0
    5.3716   53.4483   28.3615 C   0  0  0  0  0  0
    6.3232   53.7845   27.4026 C   0  0  0  0  0  0
    5.9363   54.4873   26.2650 C   0  0  0  0  0  0
    4.6082   54.8557   26.0824 C   0  0  0  0  0  0
    3.6654   54.5397   27.0545 C   0  0  0  0  0  0
    7.1043   54.9146   25.0734 Cl  0  0  0  0  0  0
    1.2671   51.2962   25.0342 H   0  0  0  0  0  0
    0.1130   50.0752   25.5869 H   0  0  0  0  0  0
   -0.4562   51.6310   25.0010 H   0  0  0  0  0  0
    2.3886   52.3362   26.7774 H   0  0  0  0  0  0
   -1.4163   51.8974   29.8740 H   0  0  0  0  0  0
   -1.9306   49.9395   27.8711 H   0  0  0  0  0  0
   -3.6968   53.8685   24.7707 H   0  0  0  0  0  0
   -4.3444   48.1777   24.0952 H   0  0  0  0  0  0
   -5.8162   47.9514   25.0319 H   0  0  0  0  0  0
   -5.4157   48.1023   22.0025 H   0  0  0  0  0  0
   -6.0423   46.7751   22.9146 H   0  0  0  0  0  0
   -7.8403   48.0491   21.6543 H   0  0  0  0  0  0
   -8.1555   47.8875   23.3643 H   0  0  0  0  0  0
   -6.9060   50.2800   21.9665 H   0  0  0  0  0  0
   -8.5248   50.2651   22.6389 H   0  0  0  0  0  0
   -8.7992   50.4503   25.2322 H   0  0  0  0  0  0
   -7.9521   48.9244   25.4455 H   0  0  0  0  0  0
   -7.3771   50.3692   26.2610 H   0  0  0  0  0  0
   -4.3805   48.2895   26.1451 H   0  0  0  0  0  0
   -3.0080   48.6660   27.1790 H   0  0  0  0  0  0
    5.6937   52.9006   29.2319 H   0  0  0  0  0  0
    7.3544   53.4952   27.5419 H   0  0  0  0  0  0
    4.3113   55.3894   25.1935 H   0  0  0  0  0  0
    2.6404   54.8470   26.9136 H   0  0  0  0  0  0
  1  2  1  0  0  0
  1 36  1  0  0  0
  1 37  1  0  0  0
  1 38  1  0  0  0
  2  7  2  0  0  0
  2  3  1  0  0  0
  3  4  2  0  0  0
  3 39  1  0  0  0
  4  5  1  0  0  0
  4 25  1  0  0  0
  5  6  2  0  0  0
  5 24  1  0  0  0
  6  7  1  0  0  0
  6 40  1  0  0  0
  7  8  1  0  0  0
  8  9  1  0  0  0
  8 41  1  0  0  0
  9 14  2  0  0  0
  9 10  1  0  0  0
 10 11  2  0  0  0
 10 23  1  0  0  0
 11 12  1  0  0  0
 11 15  1  0  0  0
 12 13  2  0  0  0
 13 14  1  0  0  0
 13 42  1  0  0  0
 15 20  1  0  0  0
 15 16  1  0  0  0
 16 17  1  0  0  0
 16 43  1  0  0  0
 16 44  1  0  0  0
 17 18  1  0  0  0
 17 45  1  0  0  0
 17 46  1  0  0  0
 18 19  1  0  0  0
 18 47  1  0  0  0
 18 48  1  0  0  0
 19 20  1  0  0  0
 19 49  1  0  0  0
 19 50  1  0  0  0
 20 21  1  0  0  0
 20 22  1  0  0  0
 22 51  1  0  0  0
 22 52  1  0  0  0
 22 53  1  0  0  0
 23 54  1  0  0  0
 23 55  1  0  0  0
 25 26  1  0  0  0
 25 27  1  0  0  0
 25 29  1  0  0  0
 27 28  3  0  0  0
 29 34  2  0  0  0
 29 30  1  0  0  0
 30 31  2  0  0  0
 30 56  1  0  0  0
 31 32  1  0  0  0
 31 57  1  0  0  0
 32 33  2  0  0  0
 32 35  1  0  0  0
 33 34  1  0  0  0
 33 58  1  0  0  0
 34 59  1  0  0  0
M  END
> <i_i_glide_confnum>
243

> <i_i_glide_lignum>
3442

> <i_i_glide_posenum>
127

> <i_i_glide_rotatable_bonds>
6

> <i_m_Source_File_Index>
2154

> <b_m_subgroup_collapsed>
0

> <r_i_docking_score>
-5.8938

> <r_i_glide_ecoul>
-6.3457

> <r_i_glide_eff_state_penalty>
0

> <r_i_glide_einternal>
4.20078

> <r_i_glide_emodel>
-59.6364

> <r_i_glide_energy>
-45.0236

> <r_i_glide_erotb>
0.437646

> <r_i_glide_esite>
-0.194091

> <r_i_glide_evdw>
-38.6779

> <r_i_glide_gscore>
-5.8938

> <r_i_glide_hbond>
-0.41914

> <r_i_glide_ligand_efficiency>
-0.1786

> <r_i_glide_ligand_efficiency_ln>
-1.31075

> <r_i_glide_ligand_efficiency_sa>
-0.572866

> <r_i_glide_lipo>
-2.27972

> <r_i_glide_metal>
0

> <r_i_glide_rewards>
-0.552742

> <s_i_glide_gridfile>
wee1_glide-grid

> <s_m_Source_File>
wee1_decoys_glide_SP.sdf

> <s_m_Source_Path>
/Users/zhangxujun/Desktop

> <s_m_entry_id>
2429

> <s_m_entry_name>
wee1_decoys_glide_SP.2154

> <s_m_subgroup_title>
wee1_decoys_glide_SP

> <s_m_subgroupid>
wee1_decoys_glide_SP


$$$$
