ZINC09142115_3562
                    3D
 Schrodinger Suite 2024-2.
 43 45  0  0  1  0            999 V2000
    0.7177   49.8526   22.7465 C   0  0  0  0  0  0
    1.7304   50.8693   22.2442 C   0  0  0  0  0  0
    1.9041   52.0697   22.9396 C   0  0  0  0  0  0
    2.8484   53.0035   22.5127 C   0  0  0  0  0  0
    3.6393   52.7579   21.3837 C   0  0  0  0  0  0
    3.4449   51.5606   20.6731 C   0  0  0  0  0  0
    2.4985   50.6232   21.0964 C   0  0  0  0  0  0
    2.3040   49.1634   20.1864 Cl  0  0  0  0  0  0
    4.6906   53.7618   20.9785 C   0  0  0  0  0  0
    5.2565   54.4346   21.8391 O   0  0  0  0  0  0
    4.8986   53.8652   19.6492 N   0  0  0  0  0  0
    5.8000   54.6732   18.9520 C   0  0  0  0  0  0
    5.8816   54.7949   17.5461 C   0  0  0  0  0  0
    6.8427   55.7693   17.1565 C   0  0  0  0  0  0
    7.5373   56.3119   18.2510 C   0  0  0  0  0  0
    6.9818   55.6776   19.7575 S   0  0  0  0  0  0
    8.6935   57.3074   18.1643 C   0  0  0  0  0  0
    8.7347   57.9257   16.7481 C   0  0  1  0  0  0
    9.7351   58.3424   16.6181 H   0  0  0  0  0  0
    8.6026   56.8196   15.6825 C   0  0  0  0  0  0
    7.2076   56.1605   15.7147 C   0  0  0  0  0  0
    7.7515   59.1023   16.5682 C   0  0  0  0  0  0
    5.0079   54.1287   16.5939 C   0  0  0  0  0  0
    4.6348   54.6638   15.5511 O   0  0  0  0  0  0
    4.6079   52.8968   16.9078 N   0  0  0  0  0  0
    0.1963   50.1915   23.6413 H   0  0  0  0  0  0
   -0.0249   49.6465   21.9753 H   0  0  0  0  0  0
    1.2185   48.9123   22.9823 H   0  0  0  0  0  0
    1.3210   52.2767   23.8246 H   0  0  0  0  0  0
    2.9675   53.9183   23.0779 H   0  0  0  0  0  0
    4.0351   51.3312   19.7958 H   0  0  0  0  0  0
    4.2674   53.3389   19.0632 H   0  0  0  0  0  0
    9.6422   56.8116   18.3796 H   0  0  0  0  0  0
    8.5823   58.0988   18.9017 H   0  0  0  0  0  0
    9.3703   56.0578   15.8321 H   0  0  0  0  0  0
    8.7591   57.2379   14.6856 H   0  0  0  0  0  0
    6.4541   56.8392   15.3142 H   0  0  0  0  0  0
    7.2045   55.2909   15.0572 H   0  0  0  0  0  0
    6.7198   58.7996   16.7518 H   0  0  0  0  0  0
    7.9781   59.9149   17.2612 H   0  0  0  0  0  0
    7.8014   59.5097   15.5586 H   0  0  0  0  0  0
    3.9701   52.4282   16.2829 H   0  0  0  0  0  0
    5.1040   52.3258   17.5852 H   0  0  0  0  0  0
  1  2  1  0  0  0
  1 26  1  0  0  0
  1 27  1  0  0  0
  1 28  1  0  0  0
  2  7  2  0  0  0
  2  3  1  0  0  0
  3  4  2  0  0  0
  3 29  1  0  0  0
  4  5  1  0  0  0
  4 30  1  0  0  0
  5  6  2  0  0  0
  5  9  1  0  0  0
  6  7  1  0  0  0
  6 31  1  0  0  0
  7  8  1  0  0  0
  9 10  2  0  0  0
  9 11  1  0  0  0
 11 12  1  0  0  0
 11 32  1  0  0  0
 12 16  1  0  0  0
 12 13  2  0  0  0
 13 14  1  0  0  0
 13 23  1  0  0  0
 14 21  1  0  0  0
 14 15  2  0  0  0
 15 16  1  0  0  0
 15 17  1  0  0  0
 17 18  1  0  0  0
 17 33  1  0  0  0
 17 34  1  0  0  0
 18 19  1  0  0  0
 18 20  1  0  0  0
 18 22  1  0  0  0
 20 21  1  0  0  0
 20 35  1  0  0  0
 20 36  1  0  0  0
 21 37  1  0  0  0
 21 38  1  0  0  0
 22 39  1  0  0  0
 22 40  1  0  0  0
 22 41  1  0  0  0
 23 24  2  0  0  0
 23 25  1  0  0  0
 25 42  1  0  0  0
 25 43  1  0  0  0
M  END
> <i_i_glide_confnum>
15

> <i_i_glide_lignum>
3563

> <i_i_glide_posenum>
336

> <i_i_glide_rotatable_bonds>
4

> <i_m_Source_File_Index>
5106

> <b_m_subgroup_collapsed>
0

> <r_i_docking_score>
-3.31259

> <r_i_glide_ecoul>
-3.68206

> <r_i_glide_eff_state_penalty>
0

> <r_i_glide_einternal>
0.938428

> <r_i_glide_emodel>
-37.4851

> <r_i_glide_energy>
-28.8873

> <r_i_glide_erotb>
0.437591

> <r_i_glide_esite>
-0.0929812

> <r_i_glide_evdw>
-25.2053

> <r_i_glide_gscore>
-3.31259

> <r_i_glide_hbond>
-0.128807

> <r_i_glide_ligand_efficiency>
-0.138025

> <r_i_glide_ligand_efficiency_ln>
-0.792855

> <r_i_glide_ligand_efficiency_sa>
-0.398132

> <r_i_glide_lipo>
-0.64933

> <r_i_glide_metal>
0

> <r_i_glide_rewards>
-1.06649

> <s_i_glide_gridfile>
wee1_glide-grid

> <s_m_Source_File>
wee1_decoys_glide_SP.sdf

> <s_m_Source_Path>
/Users/zhangxujun/Desktop

> <s_m_entry_id>
5381

> <s_m_entry_name>
wee1_decoys_glide_SP.5106

> <s_m_subgroup_title>
wee1_decoys_glide_SP

> <s_m_subgroupid>
wee1_decoys_glide_SP


$$$$
