ZINC24358570_4333
                    3D
 Schrodinger Suite 2024-2.
 61 66  0  0  1  0            999 V2000
    0.7084   54.7214   30.2621 C   0  0  0  0  0  0
    0.5838   53.3334   30.2591 C   0  0  0  0  0  0
    1.6376   52.5475   29.7998 C   0  0  0  0  0  0
    2.7927   53.1590   29.3889 N   0  0  0  0  0  0
    3.9888   52.6587   28.9586 C   0  0  0  0  0  0
    4.8072   53.7534   28.6856 C   0  0  0  0  0  0
    4.1913   54.8963   28.9456 N   0  0  0  0  0  0
    2.9472   54.5560   29.3694 C   0  0  0  0  0  0
    1.8691   55.3523   29.8006 C   0  0  0  0  0  0
    6.2424   53.7120   28.1887 C   0  0  0  0  0  0
    6.6996   54.8963   26.8789 S   0  0  0  0  0  0
    5.7703   54.5358   25.4250 C   0  0  0  0  0  0
    4.3848   54.3985   25.4659 C   0  0  0  0  0  0
    3.6830   54.0943   24.3027 C   0  0  0  0  0  0
    4.3671   53.9090   23.0905 C   0  0  0  0  0  0
    5.7524   54.0990   23.0548 C   0  0  0  0  0  0
    6.4488   54.4150   24.2168 C   0  0  0  0  0  0
    3.6441   53.5123   21.8264 C   0  0  0  0  0  0
    4.1508   53.7482   20.7238 O   0  0  0  0  0  0
    2.4516   52.8958   22.0032 N   0  0  0  0  0  0
    1.7032   52.4960   20.8934 N   0  0  0  0  0  0
    1.9995   51.3702   20.2025 C   0  0  0  0  0  0
    2.8501   50.5591   20.5840 O   0  0  0  0  0  0
    1.2163   51.1133   18.8771 C   0  0  0  0  0  0
   -0.0800   51.9927   18.7680 C   0  0  0  0  0  0
   -0.8089   51.7099   17.4281 C   0  0  2  0  0  0
   -1.1995   50.2108   17.3618 C   0  0  0  0  0  0
    0.0799   49.3334   17.4404 C   0  0  2  0  0  0
    0.8157   49.6062   18.7799 C   0  0  0  0  0  0
    1.0199   49.6906   16.2584 C   0  0  0  0  0  0
    1.4227   51.1864   16.3357 C   0  0  1  0  0  0
    0.1412   52.0592   16.2503 C   0  0  0  0  0  0
    2.1518   51.4691   17.6783 C   0  0  0  0  0  0
   -0.0974   55.3223   30.6495 H   0  0  0  0  0  0
   -0.3202   52.8660   30.6250 H   0  0  0  0  0  0
    1.6037   51.4689   29.7617 H   0  0  0  0  0  0
    4.1796   51.6018   28.8822 H   0  0  0  0  0  0
    1.9578   56.4307   29.8159 H   0  0  0  0  0  0
    6.4674   52.7209   27.8008 H   0  0  0  0  0  0
    6.9285   53.8606   29.0220 H   0  0  0  0  0  0
    3.8385   54.5246   26.3848 H   0  0  0  0  0  0
    2.6101   53.9898   24.3680 H   0  0  0  0  0  0
    6.3038   53.9955   22.1296 H   0  0  0  0  0  0
    7.5141   54.5537   24.1747 H   0  0  0  0  0  0
    2.2075   52.3825   22.8370 H   0  0  0  0  0  0
    1.0861   53.2232   20.5558 H   0  0  0  0  0  0
    0.1623   53.0560   18.8143 H   0  0  0  0  0  0
   -0.7551   51.7920   19.6016 H   0  0  0  0  0  0
   -1.7095   52.3248   17.3639 H   0  0  0  0  0  0
   -1.7410   50.0024   16.4383 H   0  0  0  0  0  0
   -1.8799   49.9590   18.1765 H   0  0  0  0  0  0
   -0.1972   48.2798   17.3824 H   0  0  0  0  0  0
    0.1791   49.3165   19.6190 H   0  0  0  0  0  0
    1.6988   48.9643   18.8353 H   0  0  0  0  0  0
    0.5254   49.4810   15.3080 H   0  0  0  0  0  0
    1.9046   49.0545   16.2825 H   0  0  0  0  0  0
    2.0878   51.4271   15.5064 H   0  0  0  0  0  0
    0.4043   53.1171   16.2754 H   0  0  0  0  0  0
   -0.3635   51.8948   15.2974 H   0  0  0  0  0  0
    3.0820   50.8960   17.7173 H   0  0  0  0  0  0
    2.4557   52.5173   17.7209 H   0  0  0  0  0  0
  1  9  2  0  0  0
  1  2  1  0  0  0
  1 34  1  0  0  0
  2  3  2  0  0  0
  2 35  1  0  0  0
  3  4  1  0  0  0
  3 36  1  0  0  0
  4  8  1  0  0  0
  4  5  1  0  0  0
  5  6  2  0  0  0
  5 37  1  0  0  0
  6  7  1  0  0  0
  6 10  1  0  0  0
  7  8  2  0  0  0
  8  9  1  0  0  0
  9 38  1  0  0  0
 10 11  1  0  0  0
 10 39  1  0  0  0
 10 40  1  0  0  0
 11 12  1  0  0  0
 12 17  2  0  0  0
 12 13  1  0  0  0
 13 14  2  0  0  0
 13 41  1  0  0  0
 14 15  1  0  0  0
 14 42  1  0  0  0
 15 16  2  0  0  0
 15 18  1  0  0  0
 16 17  1  0  0  0
 16 43  1  0  0  0
 17 44  1  0  0  0
 18 19  2  0  0  0
 18 20  1  0  0  0
 20 21  1  0  0  0
 20 45  1  0  0  0
 21 22  1  0  0  0
 21 46  1  0  0  0
 22 23  2  0  0  0
 22 24  1  0  0  0
 24 29  1  0  0  0
 24 33  1  0  0  0
 24 25  1  0  0  0
 25 26  1  0  0  0
 25 47  1  0  0  0
 25 48  1  0  0  0
 26 32  1  0  0  0
 26 27  1  0  0  0
 26 49  1  0  0  0
 27 28  1  0  0  0
 27 50  1  0  0  0
 27 51  1  0  0  0
 28 29  1  0  0  0
 28 30  1  0  0  0
 28 52  1  0  0  0
 29 53  1  0  0  0
 29 54  1  0  0  0
 30 31  1  0  0  0
 30 55  1  0  0  0
 30 56  1  0  0  0
 31 32  1  0  0  0
 31 33  1  0  0  0
 31 57  1  0  0  0
 32 58  1  0  0  0
 32 59  1  0  0  0
 33 60  1  0  0  0
 33 61  1  0  0  0
M  END
> <i_i_glide_confnum>
11

> <i_i_glide_lignum>
4334

> <i_i_glide_posenum>
301

> <i_i_glide_rotatable_bonds>
8

> <i_m_Source_File_Index>
3360

> <b_m_subgroup_collapsed>
0

> <r_i_docking_score>
-6.53848

> <r_i_glide_ecoul>
-1.32354

> <r_i_glide_eff_state_penalty>
0

> <r_i_glide_einternal>
4.66863

> <r_i_glide_emodel>
-67.1502

> <r_i_glide_energy>
-48.6471

> <r_i_glide_erotb>
0.664203

> <r_i_glide_esite>
-0.0496125

> <r_i_glide_evdw>
-47.3236

> <r_i_glide_gscore>
-6.53848

> <r_i_glide_hbond>
-0.195356

> <r_i_glide_ligand_efficiency>
-0.198136

> <r_i_glide_ligand_efficiency_ln>
-1.45412

> <r_i_glide_ligand_efficiency_sa>
-0.635527

> <r_i_glide_lipo>
-3.55705

> <r_i_glide_metal>
0

> <r_i_glide_rewards>
-0.835956

> <s_i_glide_gridfile>
wee1_glide-grid

> <s_m_Source_File>
wee1_decoys_glide_SP.sdf

> <s_m_Source_Path>
/Users/zhangxujun/Desktop

> <s_m_entry_id>
3635

> <s_m_entry_name>
wee1_decoys_glide_SP.3360

> <s_m_subgroup_title>
wee1_decoys_glide_SP

> <s_m_subgroupid>
wee1_decoys_glide_SP


$$$$
