ZINC67587174_1365
                    3D
 Schrodinger Suite 2024-2.
 45 47  0  0  1  0            999 V2000
    3.6131   54.4794   25.0766 C   0  0  0  0  0  0
    4.7795   54.8969   25.7047 C   0  0  0  0  0  0
    5.9793   54.8958   25.0020 C   0  0  0  0  0  0
    6.0281   54.4756   23.6744 C   0  0  0  0  0  0
    4.8591   54.0507   23.0453 C   0  0  0  0  0  0
    3.6474   54.0474   23.7466 C   0  0  0  0  0  0
    2.3697   53.5693   23.0663 C   0  0  0  0  0  0
    1.8102   52.2776   23.7218 N   0  3  2  0  0  0
    1.4570   51.1969   22.6730 C   0  0  0  0  0  0
    1.0318   49.9069   23.4061 C   0  0  0  0  0  0
   -0.0889   50.1208   24.4516 C   0  0  2  0  0  0
    0.1959   51.3175   25.3804 C   0  0  0  0  0  0
    0.5894   52.5916   24.6172 C   0  0  0  0  0  0
   -0.5080   48.9190   25.1781 N   0  0  0  0  0  0
   -1.3535   47.9973   24.6932 C   0  0  0  0  0  0
   -1.4908   47.7666   23.4899 O   0  0  0  0  0  0
   -2.0611   47.4243   25.6817 N   0  0  0  0  0  0
   -3.1545   46.5863   25.5296 C   0  0  0  0  0  0
   -3.8655   46.3562   24.4486 N   0  0  0  0  0  0
   -4.8943   45.4483   24.6785 N   0  0  0  0  0  0
   -4.9304   45.0022   25.9140 C   0  0  0  0  0  0
   -3.6915   45.7011   26.9167 S   0  0  0  0  0  0
   -5.9005   43.9445   26.3935 C   0  0  0  0  0  0
   -6.2231   44.1050   27.6787 F   0  0  0  0  0  0
   -5.3960   42.7209   26.2314 F   0  0  0  0  0  0
    7.1044   55.3096   25.6198 F   0  0  0  0  0  0
    2.6934   54.4964   25.6378 H   0  0  0  0  0  0
    4.7580   55.2280   26.7326 H   0  0  0  0  0  0
    6.9690   54.4822   23.1411 H   0  0  0  0  0  0
    4.8990   53.7257   22.0133 H   0  0  0  0  0  0
    2.5487   53.3505   22.0101 H   0  0  0  0  0  0
    1.5914   54.3360   23.1058 H   0  0  0  0  0  0
    0.6733   51.6021   22.0290 H   0  0  0  0  0  0
    2.3593   51.0118   22.0862 H   0  0  0  0  0  0
    1.9056   49.4835   23.9020 H   0  0  0  0  0  0
    0.7136   49.1703   22.6649 H   0  0  0  0  0  0
   -0.9638   50.4425   23.8772 H   0  0  0  0  0  0
   -0.6802   51.5284   25.9968 H   0  0  0  0  0  0
    1.0073   51.0629   26.0662 H   0  0  0  0  0  0
   -0.2106   52.9715   23.9779 H   0  0  0  0  0  0
    0.8861   53.3601   25.3288 H   0  0  0  0  0  0
   -0.3392   48.9110   26.1755 H   0  0  0  0  0  0
   -1.8135   47.6622   26.6407 H   0  0  0  0  0  0
   -6.8384   43.9621   25.8338 H   0  0  0  0  0  0
    2.5499   51.9187   24.3099 H   0  0  0  0  0  0
  1  6  2  0  0  0
  1  2  1  0  0  0
  1 27  1  0  0  0
  2  3  2  0  0  0
  2 28  1  0  0  0
  3  4  1  0  0  0
  3 26  1  0  0  0
  4  5  2  0  0  0
  4 29  1  0  0  0
  5  6  1  0  0  0
  5 30  1  0  0  0
  6  7  1  0  0  0
  7  8  1  0  0  0
  7 31  1  0  0  0
  7 32  1  0  0  0
  8 13  1  0  0  0
  8  9  1  0  0  0
  8 45  1  0  0  0
  9 10  1  0  0  0
  9 33  1  0  0  0
  9 34  1  0  0  0
 10 11  1  0  0  0
 10 35  1  0  0  0
 10 36  1  0  0  0
 11 12  1  0  0  0
 11 14  1  0  0  0
 11 37  1  0  0  0
 12 13  1  0  0  0
 12 38  1  0  0  0
 12 39  1  0  0  0
 13 40  1  0  0  0
 13 41  1  0  0  0
 14 15  1  0  0  0
 14 42  1  0  0  0
 15 16  2  0  0  0
 15 17  1  0  0  0
 17 18  1  0  0  0
 17 43  1  0  0  0
 18 22  1  0  0  0
 18 19  2  0  0  0
 19 20  1  0  0  0
 20 21  2  0  0  0
 21 22  1  0  0  0
 21 23  1  0  0  0
 23 24  1  0  0  0
 23 25  1  0  0  0
 23 44  1  0  0  0
M  CHG  1   8   1
M  END
> <i_i_glide_confnum>
30

> <i_i_glide_lignum>
1366

> <i_i_glide_posenum>
374

> <i_i_glide_rotatable_bonds>
7

> <i_m_Source_File_Index>
1736

> <b_m_subgroup_collapsed>
0

> <r_i_docking_score>
-5.19724

> <r_i_glide_ecoul>
-6.90493

> <r_i_glide_eff_state_penalty>
0

> <r_i_glide_einternal>
9.58688

> <r_i_glide_emodel>
-46.2967

> <r_i_glide_energy>
-38.2146

> <r_i_glide_erotb>
0.782085

> <r_i_glide_esite>
-0.383866

> <r_i_glide_evdw>
-31.3097

> <r_i_glide_gscore>
-5.19724

> <r_i_glide_hbond>
-0.16

> <r_i_glide_ligand_efficiency>
-0.199894

> <r_i_glide_ligand_efficiency_ln>
-1.22055

> <r_i_glide_ligand_efficiency_sa>
-0.592185

> <r_i_glide_lipo>
-2.13667

> <r_i_glide_metal>
0

> <r_i_glide_rewards>
-0.697567

> <s_i_glide_gridfile>
wee1_glide-grid

> <s_m_Source_File>
wee1_decoys_glide_SP.sdf

> <s_m_Source_Path>
/Users/zhangxujun/Desktop

> <s_m_entry_id>
2011

> <s_m_entry_name>
wee1_decoys_glide_SP.1736

> <s_m_subgroup_title>
wee1_decoys_glide_SP

> <s_m_subgroupid>
wee1_decoys_glide_SP


$$$$
