ZINC38547620_582
                    3D
 Schrodinger Suite 2024-2.
 57 60  0  0  1  0            999 V2000
    6.6320   54.8156   22.7827 C   0  0  0  0  0  0
    5.5065   54.3018   21.9026 C   0  0  0  0  0  0
    5.5523   54.4685   20.5118 C   0  0  0  0  0  0
    4.5329   53.9304   19.7228 C   0  0  0  0  0  0
    3.5072   53.2970   20.3215 N   0  3  0  0  0  0
    3.3966   53.1468   21.6584 C   0  0  0  0  0  0
    4.4187   53.6344   22.4749 C   0  0  0  0  0  0
    2.2561   52.5178   22.2298 N   0  0  0  0  0  0
    1.0026   52.3060   21.4812 C   0  0  2  0  0  0
    0.8163   53.2941   21.0574 H   0  0  0  0  0  0
   -0.2051   52.0550   22.4036 C   0  0  0  0  0  0
   -1.2834   51.2628   21.9808 C   0  0  0  0  0  0
   -2.3943   51.0808   22.7995 C   0  0  0  0  0  0
   -2.4511   51.6886   24.0551 C   0  0  0  0  0  0
   -1.3814   52.4787   24.4852 C   0  0  0  0  0  0
   -0.2750   52.6667   23.6629 C   0  0  0  0  0  0
   -3.6802   51.4876   24.9402 C   0  0  0  0  0  0
   -4.0880   50.2194   24.9036 F   0  0  0  0  0  0
   -3.4430   51.8132   26.2135 F   0  0  0  0  0  0
   -4.6639   52.2641   24.4895 F   0  0  0  0  0  0
    1.1454   51.3062   20.3223 C   0  0  0  0  0  0
    1.6610   49.9855   20.4316 C   0  0  0  0  0  0
    1.6351   49.2767   19.2199 C   0  0  0  0  0  0
    1.0703   50.2772   17.9226 S   0  0  0  0  0  0
    0.7748   51.6012   19.0042 C   0  0  0  0  0  0
    0.3052   52.8196   18.5272 N   0  0  0  0  0  0
   -0.6874   52.9725   17.6214 C   0  0  0  0  0  0
   -1.3561   52.0589   17.1358 O   0  0  0  0  0  0
   -0.9512   54.3443   17.2824 C   0  0  0  0  0  0
   -0.1308   55.4734   17.2510 C   0  0  0  0  0  0
   -0.9112   56.5297   16.7859 C   0  0  0  0  0  0
   -2.1551   55.9971   16.4933 C   0  0  0  0  0  0
   -2.1739   54.6677   16.7768 O   0  0  0  0  0  0
    2.0309   47.8450   18.9348 C   0  0  0  0  0  0
    2.1448   49.3723   21.7338 C   0  0  0  0  0  0
    7.5217   55.0612   22.2036 H   0  0  0  0  0  0
    6.3150   55.6934   23.3463 H   0  0  0  0  0  0
    6.9227   54.0485   23.5018 H   0  0  0  0  0  0
    6.3837   54.9758   20.0455 H   0  0  0  0  0  0
    4.5010   53.9841   18.6428 H   0  0  0  0  0  0
    4.3629   53.5129   23.5482 H   0  0  0  0  0  0
    2.2568   52.2930   23.2131 H   0  0  0  0  0  0
   -1.2821   50.7899   21.0096 H   0  0  0  0  0  0
   -3.2131   50.4693   22.4501 H   0  0  0  0  0  0
   -1.4050   52.9523   25.4568 H   0  0  0  0  0  0
    0.5234   53.3054   24.0135 H   0  0  0  0  0  0
    0.6121   53.6561   19.0028 H   0  0  0  0  0  0
    0.9073   55.5233   17.5493 H   0  0  0  0  0  0
   -0.5964   57.5564   16.6525 H   0  0  0  0  0  0
   -3.0672   56.4076   16.0886 H   0  0  0  0  0  0
    3.1087   47.6994   19.0076 H   0  0  0  0  0  0
    1.5594   47.1493   19.6268 H   0  0  0  0  0  0
    1.7485   47.5321   17.9284 H   0  0  0  0  0  0
    1.4098   49.4995   22.5322 H   0  0  0  0  0  0
    2.3548   48.3053   21.6629 H   0  0  0  0  0  0
    3.0528   49.8577   22.0952 H   0  0  0  0  0  0
    2.7738   52.9164   19.7403 H   0  0  0  0  0  0
  1  2  1  0  0  0
  1 36  1  0  0  0
  1 37  1  0  0  0
  1 38  1  0  0  0
  2  7  2  0  0  0
  2  3  1  0  0  0
  3  4  2  0  0  0
  3 39  1  0  0  0
  4  5  1  0  0  0
  4 40  1  0  0  0
  5  6  2  0  0  0
  5 57  1  0  0  0
  6  7  1  0  0  0
  6  8  1  0  0  0
  7 41  1  0  0  0
  8  9  1  0  0  0
  8 42  1  0  0  0
  9 10  1  0  0  0
  9 11  1  0  0  0
  9 21  1  0  0  0
 11 16  2  0  0  0
 11 12  1  0  0  0
 12 13  2  0  0  0
 12 43  1  0  0  0
 13 14  1  0  0  0
 13 44  1  0  0  0
 14 15  2  0  0  0
 14 17  1  0  0  0
 15 16  1  0  0  0
 15 45  1  0  0  0
 16 46  1  0  0  0
 17 18  1  0  0  0
 17 19  1  0  0  0
 17 20  1  0  0  0
 21 25  2  0  0  0
 21 22  1  0  0  0
 22 23  2  0  0  0
 22 35  1  0  0  0
 23 24  1  0  0  0
 23 34  1  0  0  0
 24 25  1  0  0  0
 25 26  1  0  0  0
 26 27  1  0  0  0
 26 47  1  0  0  0
 27 28  2  0  0  0
 27 29  1  0  0  0
 29 33  1  0  0  0
 29 30  2  0  0  0
 30 31  1  0  0  0
 30 48  1  0  0  0
 31 32  2  0  0  0
 31 49  1  0  0  0
 32 33  1  0  0  0
 32 50  1  0  0  0
 34 51  1  0  0  0
 34 52  1  0  0  0
 34 53  1  0  0  0
 35 54  1  0  0  0
 35 55  1  0  0  0
 35 56  1  0  0  0
M  CHG  1   5   1
M  END
> <i_i_glide_confnum>
191

> <i_i_glide_lignum>
583

> <i_i_glide_posenum>
314

> <i_i_glide_rotatable_bonds>
8

> <i_m_Source_File_Index>
5940

> <b_m_subgroup_collapsed>
0

> <r_i_docking_score>
-3.26501

> <r_i_glide_ecoul>
-3.12795

> <r_i_glide_eff_state_penalty>
0

> <r_i_glide_einternal>
7.62557

> <r_i_glide_emodel>
-40.2742

> <r_i_glide_energy>
-36.2063

> <r_i_glide_erotb>
0.600985

> <r_i_glide_esite>
-0.0587391

> <r_i_glide_evdw>
-33.0783

> <r_i_glide_gscore>
-3.26501

> <r_i_glide_hbond>
-0.315407

> <r_i_glide_ligand_efficiency>
-0.0960296

> <r_i_glide_ligand_efficiency_ln>
-0.721332

> <r_i_glide_ligand_efficiency_sa>
-0.311099

> <r_i_glide_lipo>
-1.24348

> <r_i_glide_metal>
0

> <r_i_glide_rewards>
-0.125257

> <s_i_glide_gridfile>
wee1_glide-grid

> <s_m_Source_File>
wee1_decoys_glide_SP.sdf

> <s_m_Source_Path>
/Users/zhangxujun/Desktop

> <s_m_entry_id>
6215

> <s_m_entry_name>
wee1_decoys_glide_SP.5940

> <s_m_subgroup_title>
wee1_decoys_glide_SP

> <s_m_subgroupid>
wee1_decoys_glide_SP


$$$$
