ZINC38915385_5115
                    3D
 Schrodinger Suite 2024-2.
 49 52  0  0  1  0            999 V2000
   -3.5660   50.8977   28.2522 C   0  0  0  0  0  0
   -4.2788   51.1484   27.0814 C   0  0  0  0  0  0
   -3.6509   51.7806   26.0098 C   0  0  0  0  0  0
   -2.3091   52.1583   26.0947 C   0  0  0  0  0  0
   -1.5862   51.9170   27.2779 C   0  0  0  0  0  0
   -2.2348   51.2964   28.3528 C   0  0  0  0  0  0
   -0.1144   52.2800   27.4383 C   0  0  0  0  0  0
    0.1188   53.6953   28.5633 S   0  0  0  0  0  0
    1.9089   53.6771   28.7901 C   0  0  0  0  0  0
    2.4887   54.4008   29.6562 N   0  0  0  0  0  0
    3.8677   54.1747   29.6822 N   0  0  0  0  0  0
    4.4091   53.5069   28.5256 C   0  0  1  0  0  0
    5.1641   52.7830   28.8340 H   0  0  0  0  0  0
    3.0014   52.6619   27.7920 S   0  0  0  0  0  0
    5.1787   54.7440   27.4513 S   0  0  0  0  0  0
    5.8869   53.7078   26.1416 C   0  0  0  0  0  0
    6.4229   54.5450   24.9792 C   0  0  0  0  0  0
    7.0947   55.5505   25.2225 O   0  0  0  0  0  0
    6.0888   54.1445   23.7365 N   0  0  0  0  0  0
    6.3650   54.8966   22.6492 N   0  0  0  0  0  0
    5.8397   54.5696   21.5290 C   0  0  0  0  0  0
    4.9083   53.5061   21.2293 C   0  0  0  0  0  0
    3.7512   53.2169   21.8698 C   0  0  0  0  0  0
    3.0694   53.8379   23.0234 C   0  0  0  0  0  0
    1.9163   53.3288   23.5037 C   0  0  0  0  0  0
    1.3607   52.1568   22.8431 C   0  0  0  0  0  0
    1.9499   51.5922   21.7577 C   0  0  0  0  0  0
    3.1454   52.1138   21.2495 C   0  0  0  0  0  0
    3.8456   51.7165   20.2109 N   0  3  0  0  0  0
    5.0326   52.5637   20.0511 C   0  0  0  0  0  0
   -1.5846   52.8965   24.7090 Cl  0  0  0  0  0  0
   -4.0351   50.3867   29.0801 H   0  0  0  0  0  0
   -5.3124   50.8433   27.0011 H   0  0  0  0  0  0
   -4.2052   51.9646   25.0999 H   0  0  0  0  0  0
   -1.6943   51.0806   29.2656 H   0  0  0  0  0  0
    0.3562   52.4823   26.4766 H   0  0  0  0  0  0
    0.3922   51.4045   27.8470 H   0  0  0  0  0  0
    4.3551   54.9921   30.0193 H   0  0  0  0  0  0
    5.1063   53.0324   25.7999 H   0  0  0  0  0  0
    6.6890   53.1019   26.5585 H   0  0  0  0  0  0
    5.5136   53.3311   23.5705 H   0  0  0  0  0  0
    6.0909   55.1205   20.6272 H   0  0  0  0  0  0
    3.4556   54.7271   23.5012 H   0  0  0  0  0  0
    1.4064   53.7916   24.3367 H   0  0  0  0  0  0
    0.4460   51.7238   23.2184 H   0  0  0  0  0  0
    1.4867   50.7280   21.3029 H   0  0  0  0  0  0
    5.9010   51.9076   20.0761 H   0  0  0  0  0  0
    4.9705   53.0478   19.0758 H   0  0  0  0  0  0
    3.6243   50.9484   19.5779 H   0  0  0  0  0  0
  1  6  2  0  0  0
  1  2  1  0  0  0
  1 32  1  0  0  0
  2  3  2  0  0  0
  2 33  1  0  0  0
  3  4  1  0  0  0
  3 34  1  0  0  0
  4  5  2  0  0  0
  4 31  1  0  0  0
  5  6  1  0  0  0
  5  7  1  0  0  0
  6 35  1  0  0  0
  7  8  1  0  0  0
  7 36  1  0  0  0
  7 37  1  0  0  0
  8  9  1  0  0  0
  9 14  1  0  0  0
  9 10  2  0  0  0
 10 11  1  0  0  0
 11 12  1  0  0  0
 11 38  1  0  0  0
 12 13  1  0  0  0
 12 14  1  0  0  0
 12 15  1  0  0  0
 15 16  1  0  0  0
 16 17  1  0  0  0
 16 39  1  0  0  0
 16 40  1  0  0  0
 17 18  2  0  0  0
 17 19  1  0  0  0
 19 20  1  0  0  0
 19 41  1  0  0  0
 20 21  2  0  0  0
 21 22  1  0  0  0
 21 42  1  0  0  0
 22 30  1  0  0  0
 22 23  2  0  0  0
 23 28  1  0  0  0
 23 24  1  0  0  0
 24 25  2  0  0  0
 24 43  1  0  0  0
 25 26  1  0  0  0
 25 44  1  0  0  0
 26 27  2  0  0  0
 26 45  1  0  0  0
 27 28  1  0  0  0
 27 46  1  0  0  0
 28 29  2  0  0  0
 29 30  1  0  0  0
 29 49  1  0  0  0
 30 47  1  0  0  0
 30 48  1  0  0  0
M  CHG  1  29   1
M  END
> <i_i_glide_confnum>
220

> <i_i_glide_lignum>
5116

> <i_i_glide_posenum>
70

> <i_i_glide_rotatable_bonds>
9

> <i_m_Source_File_Index>
4103

> <b_m_subgroup_collapsed>
0

> <r_i_docking_score>
-5.59245

> <r_i_glide_ecoul>
-3.86382

> <r_i_glide_eff_state_penalty>
0

> <r_i_glide_einternal>
15.8533

> <r_i_glide_emodel>
-57.3159

> <r_i_glide_energy>
-46.5767

> <r_i_glide_erotb>
0.712002

> <r_i_glide_esite>
-0.0676081

> <r_i_glide_evdw>
-42.7128

> <r_i_glide_gscore>
-5.59245

> <r_i_glide_hbond>
-0.492436

> <r_i_glide_ligand_efficiency>
-0.186415

> <r_i_glide_ligand_efficiency_ln>
-1.27067

> <r_i_glide_ligand_efficiency_sa>
-0.579235

> <r_i_glide_lipo>
-1.94854

> <r_i_glide_metal>
0

> <r_i_glide_rewards>
-1.08065

> <s_i_glide_gridfile>
wee1_glide-grid

> <s_m_Source_File>
wee1_decoys_glide_SP.sdf

> <s_m_Source_Path>
/Users/zhangxujun/Desktop

> <s_m_entry_id>
4378

> <s_m_entry_name>
wee1_decoys_glide_SP.4103

> <s_m_subgroup_title>
wee1_decoys_glide_SP

> <s_m_subgroupid>
wee1_decoys_glide_SP


$$$$
