ZINC51151403_1752
                    3D
 Schrodinger Suite 2024-2.
 31 34  0  0  1  0            999 V2000
    6.0921   54.4966   24.4738 C   0  0  0  0  0  0
    4.5835   54.2095   24.5525 C   0  0  0  0  0  0
    4.3215   54.1049   26.0370 C   0  0  0  0  0  0
    5.4305   54.4969   26.7430 C   0  0  0  0  0  0
    5.2603   54.4467   28.4729 S   0  0  0  0  0  0
    3.6150   53.8749   28.2703 C   0  0  0  0  0  0
    3.2400   53.7168   26.8952 C   0  0  0  0  0  0
    1.9214   53.2253   26.6913 C   0  0  0  0  0  0
    1.1200   52.9060   27.7400 N   0  0  0  0  0  0
    1.5963   53.1397   28.9863 C   0  0  0  0  0  0
    2.8253   53.6169   29.3146 N   0  0  0  0  0  0
    0.6312   52.8682   30.1348 C   0  0  0  0  0  0
    1.1048   52.4963   31.5260 C   0  0  0  0  0  0
    0.4799   53.8442   31.2813 C   0  0  0  0  0  0
    1.3716   52.8965   25.4445 N   0  0  0  0  0  0
    1.5469   53.7545   24.2991 N   0  0  0  0  0  0
    6.5631   54.9391   25.8642 C   0  0  0  0  0  0
    6.3245   55.2412   23.7106 H   0  0  0  0  0  0
    6.6210   53.5850   24.1886 H   0  0  0  0  0  0
    4.3475   53.2968   24.0096 H   0  0  0  0  0  0
    4.0061   55.0087   24.0908 H   0  0  0  0  0  0
   -0.2952   52.3891   29.8124 H   0  0  0  0  0  0
    0.5374   51.7471   32.0802 H   0  0  0  0  0  0
    2.1734   52.4349   31.7336 H   0  0  0  0  0  0
    1.1033   54.7393   31.2810 H   0  0  0  0  0  0
   -0.4955   54.0275   31.7199 H   0  0  0  0  0  0
    0.4263   52.5329   25.4487 H   0  0  0  0  0  0
    1.6408   54.7112   24.6143 H   0  0  0  0  0  0
    2.3685   53.4519   23.7924 H   0  0  0  0  0  0
    6.7093   56.0187   25.9108 H   0  0  0  0  0  0
    7.5043   54.4618   26.1290 H   0  0  0  0  0  0
  1 17  1  0  0  0
  1  2  1  0  0  0
  1 18  1  0  0  0
  1 19  1  0  0  0
  2  3  1  0  0  0
  2 20  1  0  0  0
  2 21  1  0  0  0
  3  7  1  0  0  0
  3  4  2  0  0  0
  4  5  1  0  0  0
  4 17  1  0  0  0
  5  6  1  0  0  0
  6 11  2  0  0  0
  6  7  1  0  0  0
  7  8  2  0  0  0
  8  9  1  0  0  0
  8 15  1  0  0  0
  9 10  2  0  0  0
 10 11  1  0  0  0
 10 12  1  0  0  0
 12 14  1  0  0  0
 12 13  1  0  0  0
 12 22  1  0  0  0
 13 14  1  0  0  0
 13 23  1  0  0  0
 13 24  1  0  0  0
 14 25  1  0  0  0
 14 26  1  0  0  0
 15 16  1  0  0  0
 15 27  1  0  0  0
 16 28  1  0  0  0
 16 29  1  0  0  0
 17 30  1  0  0  0
 17 31  1  0  0  0
M  END
> <i_i_glide_confnum>
2

> <i_i_glide_lignum>
1753

> <i_i_glide_posenum>
98

> <i_i_glide_rotatable_bonds>
2

> <i_m_Source_File_Index>
2615

> <b_m_subgroup_collapsed>
0

> <r_i_docking_score>
-5.87536

> <r_i_glide_ecoul>
0.0845995

> <r_i_glide_eff_state_penalty>
0

> <r_i_glide_einternal>
5.31949

> <r_i_glide_emodel>
-44.3482

> <r_i_glide_energy>
-34.5794

> <r_i_glide_erotb>
0.287178

> <r_i_glide_esite>
0

> <r_i_glide_evdw>
-34.664

> <r_i_glide_gscore>
-5.87536

> <r_i_glide_hbond>
0

> <r_i_glide_ligand_efficiency>
-0.345609

> <r_i_glide_ligand_efficiency_ln>
-1.53275

> <r_i_glide_ligand_efficiency_sa>
-0.888659

> <r_i_glide_lipo>
-2.38264

> <r_i_glide_metal>
0

> <r_i_glide_rewards>
-2.05938

> <s_i_glide_gridfile>
wee1_glide-grid

> <s_m_Source_File>
wee1_decoys_glide_SP.sdf

> <s_m_Source_Path>
/Users/zhangxujun/Desktop

> <s_m_entry_id>
2890

> <s_m_entry_name>
wee1_decoys_glide_SP.2615

> <s_m_subgroup_title>
wee1_decoys_glide_SP

> <s_m_subgroupid>
wee1_decoys_glide_SP


$$$$
