ZINC22023832_3382
                    3D
 Schrodinger Suite 2024-2.
 63 66  0  0  1  0            999 V2000
   -4.1972   48.6378   23.1333 C   0  0  0  0  0  0
   -3.0295   48.9960   23.9304 N   0  0  0  0  0  0
   -2.4071   50.2222   23.8811 C   0  0  0  0  0  0
   -1.3363   50.2462   24.7558 C   0  0  0  0  0  0
   -1.3098   48.9832   25.3561 C   0  0  0  0  0  0
   -2.3961   48.2290   24.8979 C   0  0  0  0  0  0
   -2.7402   46.8666   25.2368 C   0  0  0  0  0  0
   -3.2958   46.1009   24.4527 O   0  0  0  0  0  0
   -2.4427   46.4970   26.4816 N   0  0  0  0  0  0
   -0.1840   51.6200   25.0160 S   0  0  0  0  0  0
    1.1010   51.1922   24.4523 O   0  0  0  0  0  0
   -0.8589   52.8330   24.5366 O   0  0  0  0  0  0
   -0.0636   51.6374   26.7929 N   0  0  0  0  0  0
   -0.8923   52.6050   27.5810 C   0  0  0  0  0  0
   -0.1355   53.4324   28.6718 C   0  0  0  0  0  0
    1.1408   52.8329   29.1412 N   0  0  0  0  0  0
    1.2903   51.3938   28.8724 C   0  0  0  0  0  0
    1.2141   51.1502   27.3683 C   0  0  0  0  0  0
    2.5844   53.8501   29.3647 S   0  0  0  0  0  0
    2.1419   55.2156   29.6684 O   0  0  0  0  0  0
    3.4987   53.1454   30.2722 O   0  0  0  0  0  0
    3.4173   53.9470   27.7819 C   0  0  0  0  0  0
    4.8107   53.8976   27.7126 C   0  0  0  0  0  0
    5.4437   53.9733   26.4733 C   0  0  0  0  0  0
    4.6953   54.0967   25.2935 C   0  0  0  0  0  0
    3.2994   54.1556   25.3837 C   0  0  0  0  0  0
    2.6692   54.0967   26.6185 C   0  0  0  0  0  0
    5.4133   54.1124   23.9301 C   0  0  0  0  0  0
    4.4670   54.1149   22.6914 C   0  0  0  0  0  0
    5.2117   54.1644   21.3465 C   0  0  0  0  0  0
    6.2435   55.3036   21.2911 C   0  0  0  0  0  0
    7.2175   55.2475   22.4787 C   0  0  0  0  0  0
    6.5125   55.2048   23.8487 C   0  0  0  0  0  0
   -4.6179   49.5232   22.6558 H   0  0  0  0  0  0
   -3.8953   47.9329   22.3579 H   0  0  0  0  0  0
   -4.9559   48.1832   23.7718 H   0  0  0  0  0  0
   -2.7690   50.9866   23.2098 H   0  0  0  0  0  0
   -0.5828   48.6531   26.0876 H   0  0  0  0  0  0
   -2.7003   45.5883   26.8329 H   0  0  0  0  0  0
   -2.0737   47.1867   27.1412 H   0  0  0  0  0  0
   -1.3553   53.2961   26.8811 H   0  0  0  0  0  0
   -1.7194   52.0435   28.0161 H   0  0  0  0  0  0
   -0.7577   53.5669   29.5571 H   0  0  0  0  0  0
    0.0703   54.4336   28.2937 H   0  0  0  0  0  0
    0.4638   50.8969   29.3795 H   0  0  0  0  0  0
    2.2269   51.0367   29.2959 H   0  0  0  0  0  0
    1.2831   50.0796   27.1846 H   0  0  0  0  0  0
    2.0175   51.6967   26.8837 H   0  0  0  0  0  0
    5.4029   53.7923   28.6104 H   0  0  0  0  0  0
    6.5204   53.9048   26.4345 H   0  0  0  0  0  0
    2.6734   54.2392   24.5093 H   0  0  0  0  0  0
    1.5918   54.1392   26.6543 H   0  0  0  0  0  0
    5.9286   53.1534   23.9171 H   0  0  0  0  0  0
    3.8687   53.2018   22.6869 H   0  0  0  0  0  0
    3.7811   54.9597   22.7265 H   0  0  0  0  0  0
    5.7007   53.2068   21.1749 H   0  0  0  0  0  0
    4.4937   54.2780   20.5333 H   0  0  0  0  0  0
    6.8006   55.2504   20.3551 H   0  0  0  0  0  0
    5.7302   56.2651   21.2817 H   0  0  0  0  0  0
    7.8523   54.3665   22.3896 H   0  0  0  0  0  0
    7.8999   56.0968   22.4382 H   0  0  0  0  0  0
    6.1020   56.1822   24.0866 H   0  0  0  0  0  0
    7.2947   55.0009   24.5811 H   0  0  0  0  0  0
  1  2  1  0  0  0
  1 34  1  0  0  0
  1 35  1  0  0  0
  1 36  1  0  0  0
  2  6  1  0  0  0
  2  3  1  0  0  0
  3  4  2  0  0  0
  3 37  1  0  0  0
  4  5  1  0  0  0
  4 10  1  0  0  0
  5  6  2  0  0  0
  5 38  1  0  0  0
  6  7  1  0  0  0
  7  8  2  0  0  0
  7  9  1  0  0  0
  9 39  1  0  0  0
  9 40  1  0  0  0
 10 11  2  0  0  0
 10 12  2  0  0  0
 10 13  1  0  0  0
 13 18  1  0  0  0
 13 14  1  0  0  0
 14 15  1  0  0  0
 14 41  1  0  0  0
 14 42  1  0  0  0
 15 16  1  0  0  0
 15 43  1  0  0  0
 15 44  1  0  0  0
 16 17  1  0  0  0
 16 19  1  0  0  0
 17 18  1  0  0  0
 17 45  1  0  0  0
 17 46  1  0  0  0
 18 47  1  0  0  0
 18 48  1  0  0  0
 19 20  2  0  0  0
 19 21  2  0  0  0
 19 22  1  0  0  0
 22 27  2  0  0  0
 22 23  1  0  0  0
 23 24  2  0  0  0
 23 49  1  0  0  0
 24 25  1  0  0  0
 24 50  1  0  0  0
 25 26  2  0  0  0
 25 28  1  0  0  0
 26 27  1  0  0  0
 26 51  1  0  0  0
 27 52  1  0  0  0
 28 33  1  0  0  0
 28 29  1  0  0  0
 28 53  1  0  0  0
 29 30  1  0  0  0
 29 54  1  0  0  0
 29 55  1  0  0  0
 30 31  1  0  0  0
 30 56  1  0  0  0
 30 57  1  0  0  0
 31 32  1  0  0  0
 31 58  1  0  0  0
 31 59  1  0  0  0
 32 33  1  0  0  0
 32 60  1  0  0  0
 32 61  1  0  0  0
 33 62  1  0  0  0
 33 63  1  0  0  0
M  END
> <i_i_glide_confnum>
820

> <i_i_glide_lignum>
3383

> <i_i_glide_posenum>
200

> <i_i_glide_rotatable_bonds>
6

> <i_m_Source_File_Index>
777

> <b_m_subgroup_collapsed>
0

> <r_i_docking_score>
-5.34592

> <r_i_glide_ecoul>
-8.45352

> <r_i_glide_eff_state_penalty>
0

> <r_i_glide_einternal>
6.07733

> <r_i_glide_emodel>
-61.851

> <r_i_glide_energy>
-50.4246

> <r_i_glide_erotb>
0.416495

> <r_i_glide_esite>
-0.197782

> <r_i_glide_evdw>
-41.971

> <r_i_glide_gscore>
-5.34592

> <r_i_glide_hbond>
-0.220031

> <r_i_glide_ligand_efficiency>
-0.161998

> <r_i_glide_ligand_efficiency_ln>
-1.18891

> <r_i_glide_ligand_efficiency_sa>
-0.519613

> <r_i_glide_lipo>
-2.69151

> <r_i_glide_metal>
0

> <r_i_glide_rewards>
0.713483

> <s_i_glide_gridfile>
wee1_glide-grid

> <s_m_Source_File>
wee1_decoys_glide_SP.sdf

> <s_m_Source_Path>
/Users/zhangxujun/Desktop

> <s_m_entry_id>
1052

> <s_m_entry_name>
wee1_decoys_glide_SP.777

> <s_m_subgroup_title>
wee1_decoys_glide_SP

> <s_m_subgroupid>
wee1_decoys_glide_SP


$$$$
