ZINC59294520_2382
                    3D
 Schrodinger Suite 2024-2.
 62 64  0  0  1  0            999 V2000
    5.9307   54.6382   20.3689 C   0  0  0  0  0  0
    5.0861   53.4991   20.9707 C   0  0  2  0  0  0
    5.7132   52.9691   21.6894 H   0  0  0  0  0  0
    4.6014   52.5353   19.8747 C   0  0  0  0  0  0
    3.9128   51.2922   20.4746 C   0  0  0  0  0  0
    2.8211   51.7328   21.4566 C   0  0  0  0  0  0
    2.8411   53.0288   21.9970 C   0  0  0  0  0  0
    1.4586   53.3592   22.9547 S   0  0  0  0  0  0
    0.8748   51.7270   22.7556 C   0  0  0  0  0  0
    1.6699   50.9908   21.8537 C   0  0  0  0  0  0
    1.4151   49.6142   21.4646 C   0  0  0  0  0  0
    2.3040   48.8255   21.1722 O   0  0  0  0  0  0
    0.1314   49.2529   21.4042 N   0  0  0  0  0  0
   -0.1582   51.2572   23.5685 N   0  0  0  0  0  0
   -1.2313   51.9680   23.9783 C   0  0  0  0  0  0
   -1.6984   52.8966   23.3153 O   0  0  0  0  0  0
   -1.9770   51.4459   25.2421 C   0  0  0  0  0  0
   -2.7506   52.5699   25.9800 C   0  0  0  0  0  0
   -2.9674   50.3310   24.8462 C   0  0  0  0  0  0
   -1.0713   50.8465   26.1993 O   0  0  0  0  0  0
   -0.1403   51.5696   26.9374 C   0  0  0  0  0  0
   -0.0329   51.2970   28.2970 C   0  0  0  0  0  0
    0.9597   51.8931   29.0767 C   0  0  0  0  0  0
    1.8881   52.7721   28.5031 C   0  0  0  0  0  0
    1.7379   53.0912   27.1526 C   0  0  0  0  0  0
    0.7389   52.5045   26.3919 C   0  0  0  0  0  0
    3.0567   53.4065   29.2927 C   0  0  0  0  0  0
    3.2270   52.8056   30.7097 C   0  0  0  0  0  0
    2.8221   54.9329   29.3958 C   0  0  0  0  0  0
    4.3996   53.1616   28.5581 C   0  0  0  0  0  0
    3.8933   54.1015   21.7402 C   0  0  0  0  0  0
    5.3345   55.2842   19.7210 H   0  0  0  0  0  0
    6.3682   55.2640   21.1483 H   0  0  0  0  0  0
    6.7489   54.2483   19.7634 H   0  0  0  0  0  0
    3.9549   53.0538   19.1641 H   0  0  0  0  0  0
    5.4584   52.2200   19.2818 H   0  0  0  0  0  0
    4.6464   50.6708   20.9804 H   0  0  0  0  0  0
    3.5037   50.6846   19.6663 H   0  0  0  0  0  0
   -0.5905   49.9292   21.5972 H   0  0  0  0  0  0
   -0.1076   48.3239   21.0976 H   0  0  0  0  0  0
   -0.0778   50.3057   23.8973 H   0  0  0  0  0  0
   -3.5333   53.0020   25.3547 H   0  0  0  0  0  0
   -3.2358   52.1802   26.8767 H   0  0  0  0  0  0
   -2.0958   53.3747   26.3040 H   0  0  0  0  0  0
   -3.7582   50.7019   24.1925 H   0  0  0  0  0  0
   -2.4660   49.5054   24.3393 H   0  0  0  0  0  0
   -3.4490   49.9111   25.7303 H   0  0  0  0  0  0
   -0.7140   50.5858   28.7422 H   0  0  0  0  0  0
    0.9972   51.6360   30.1203 H   0  0  0  0  0  0
    2.4027   53.7924   26.6706 H   0  0  0  0  0  0
    0.6954   52.8039   25.3725 H   0  0  0  0  0  0
    4.0359   53.2943   31.2514 H   0  0  0  0  0  0
    3.4767   51.7447   30.6662 H   0  0  0  0  0  0
    2.3222   52.8969   31.3111 H   0  0  0  0  0  0
    2.5203   55.3715   28.4432 H   0  0  0  0  0  0
    2.0406   55.1761   30.1167 H   0  0  0  0  0  0
    3.7304   55.4584   29.6818 H   0  0  0  0  0  0
    4.4226   53.5908   27.5570 H   0  0  0  0  0  0
    5.2402   53.5994   29.0998 H   0  0  0  0  0  0
    4.6093   52.0979   28.4630 H   0  0  0  0  0  0
    3.4496   54.8966   21.1478 H   0  0  0  0  0  0
    4.2406   54.5357   22.6794 H   0  0  0  0  0  0
  1  2  1  0  0  0
  1 32  1  0  0  0
  1 33  1  0  0  0
  1 34  1  0  0  0
  2  3  1  0  0  0
  2 31  1  0  0  0
  2  4  1  0  0  0
  4  5  1  0  0  0
  4 35  1  0  0  0
  4 36  1  0  0  0
  5  6  1  0  0  0
  5 37  1  0  0  0
  5 38  1  0  0  0
  6 10  1  0  0  0
  6  7  2  0  0  0
  7  8  1  0  0  0
  7 31  1  0  0  0
  8  9  1  0  0  0
  9 10  2  0  0  0
  9 14  1  0  0  0
 10 11  1  0  0  0
 11 12  2  0  0  0
 11 13  1  0  0  0
 13 39  1  0  0  0
 13 40  1  0  0  0
 14 15  1  0  0  0
 14 41  1  0  0  0
 15 16  2  0  0  0
 15 17  1  0  0  0
 17 18  1  0  0  0
 17 19  1  0  0  0
 17 20  1  0  0  0
 18 42  1  0  0  0
 18 43  1  0  0  0
 18 44  1  0  0  0
 19 45  1  0  0  0
 19 46  1  0  0  0
 19 47  1  0  0  0
 20 21  1  0  0  0
 21 26  2  0  0  0
 21 22  1  0  0  0
 22 23  2  0  0  0
 22 48  1  0  0  0
 23 24  1  0  0  0
 23 49  1  0  0  0
 24 25  2  0  0  0
 24 27  1  0  0  0
 25 26  1  0  0  0
 25 50  1  0  0  0
 26 51  1  0  0  0
 27 28  1  0  0  0
 27 29  1  0  0  0
 27 30  1  0  0  0
 28 52  1  0  0  0
 28 53  1  0  0  0
 28 54  1  0  0  0
 29 55  1  0  0  0
 29 56  1  0  0  0
 29 57  1  0  0  0
 30 58  1  0  0  0
 30 59  1  0  0  0
 30 60  1  0  0  0
 31 61  1  0  0  0
 31 62  1  0  0  0
M  END
> <i_i_glide_confnum>
8

> <i_i_glide_lignum>
2383

> <i_i_glide_posenum>
229

> <i_i_glide_rotatable_bonds>
7

> <i_m_Source_File_Index>
5979

> <b_m_subgroup_collapsed>
0

> <r_i_docking_score>
-2.83769

> <r_i_glide_ecoul>
0.292868

> <r_i_glide_eff_state_penalty>
0

> <r_i_glide_einternal>
12.3448

> <r_i_glide_emodel>
-34.942

> <r_i_glide_energy>
-36.9088

> <r_i_glide_erotb>
0.540727

> <r_i_glide_esite>
0

> <r_i_glide_evdw>
-37.2017

> <r_i_glide_gscore>
-2.83769

> <r_i_glide_hbond>
0

> <r_i_glide_ligand_efficiency>
-0.0945898

> <r_i_glide_ligand_efficiency_ln>
-0.644755

> <r_i_glide_ligand_efficiency_sa>
-0.293912

> <r_i_glide_lipo>
-1.82145

> <r_i_glide_metal>
0

> <r_i_glide_rewards>
0.259186

> <s_i_glide_gridfile>
wee1_glide-grid

> <s_m_Source_File>
wee1_decoys_glide_SP.sdf

> <s_m_Source_Path>
/Users/zhangxujun/Desktop

> <s_m_entry_id>
6254

> <s_m_entry_name>
wee1_decoys_glide_SP.5979

> <s_m_subgroup_title>
wee1_decoys_glide_SP

> <s_m_subgroupid>
wee1_decoys_glide_SP


$$$$
