ZINC02544093_813
                    3D
 Schrodinger Suite 2024-2.
 46 48  0  0  1  0            999 V2000
    6.6617   54.8607   23.3790 C   0  0  0  0  0  0
    5.6043   54.0315   23.0291 C   0  0  0  0  0  0
    4.5800   53.8064   23.9428 C   0  0  0  0  0  0
    4.6002   54.4078   25.2129 C   0  0  0  0  0  0
    5.6830   55.2258   25.5532 C   0  0  0  0  0  0
    6.7030   55.4554   24.6351 C   0  0  0  0  0  0
    3.4789   54.2138   26.1932 C   0  0  0  0  0  0
    3.3435   54.8931   27.2145 O   0  0  0  0  0  0
    2.6709   53.1780   25.8254 O   0  0  0  0  0  0
    1.4653   52.8333   26.4172 C   0  0  0  0  0  0
    1.2741   52.8583   27.8101 C   0  0  0  0  0  0
    0.0826   52.4104   28.3755 C   0  0  0  0  0  0
   -0.9287   51.9162   27.5590 C   0  0  0  0  0  0
   -0.7504   51.8663   26.1787 C   0  0  0  0  0  0
    0.4359   52.3204   25.5885 C   0  0  0  0  0  0
    0.5934   52.1662   24.1333 C   0  0  0  0  0  0
    1.0764   53.0857   23.3833 N   0  0  0  0  0  0
    1.6416   52.8117   22.1497 N   0  0  0  0  0  0
    2.3076   51.6855   21.7454 C   0  0  0  0  0  0
    2.1487   50.5564   22.2195 O   0  0  0  0  0  0
    3.4035   51.9369   20.7718 C   0  0  0  0  0  0
    4.4554   51.3044   20.8816 O   0  0  0  0  0  0
    3.1621   52.8991   19.8435 N   0  0  0  0  0  0
    4.0592   53.5216   18.9483 C   0  0  0  0  0  0
    3.5047   54.4539   18.0674 C   0  0  0  0  0  0
    4.3155   55.1606   17.1829 C   0  0  0  0  0  0
    5.6890   54.9318   17.1720 C   0  0  0  0  0  0
    6.2560   53.9987   18.0339 C   0  0  0  0  0  0
    5.4445   53.2968   18.9215 C   0  0  0  0  0  0
   -2.5545   51.2970   28.3292 Br  0  0  0  0  0  0
    7.4605   55.0412   22.6747 H   0  0  0  0  0  0
    5.5800   53.5627   22.0565 H   0  0  0  0  0  0
    3.7778   53.1486   23.6540 H   0  0  0  0  0  0
    5.7392   55.6848   26.5293 H   0  0  0  0  0  0
    7.5333   56.0950   24.8831 H   0  0  0  0  0  0
    2.0590   53.1982   28.4681 H   0  0  0  0  0  0
   -0.0515   52.4286   29.4478 H   0  0  0  0  0  0
   -1.5440   51.4528   25.5722 H   0  0  0  0  0  0
    0.3158   51.1862   23.7546 H   0  0  0  0  0  0
    1.8883   53.6652   21.6658 H   0  0  0  0  0  0
    2.2327   53.2904   19.8047 H   0  0  0  0  0  0
    2.4413   54.6466   18.0650 H   0  0  0  0  0  0
    3.8833   55.8859   16.5107 H   0  0  0  0  0  0
    6.3189   55.4768   16.4841 H   0  0  0  0  0  0
    7.3209   53.8169   18.0141 H   0  0  0  0  0  0
    5.9129   52.5771   19.5689 H   0  0  0  0  0  0
  1  6  2  0  0  0
  1  2  1  0  0  0
  1 31  1  0  0  0
  2  3  2  0  0  0
  2 32  1  0  0  0
  3  4  1  0  0  0
  3 33  1  0  0  0
  4  5  2  0  0  0
  4  7  1  0  0  0
  5  6  1  0  0  0
  5 34  1  0  0  0
  6 35  1  0  0  0
  7  8  2  0  0  0
  7  9  1  0  0  0
  9 10  1  0  0  0
 10 15  2  0  0  0
 10 11  1  0  0  0
 11 12  2  0  0  0
 11 36  1  0  0  0
 12 13  1  0  0  0
 12 37  1  0  0  0
 13 14  2  0  0  0
 13 30  1  0  0  0
 14 15  1  0  0  0
 14 38  1  0  0  0
 15 16  1  0  0  0
 16 17  2  0  0  0
 16 39  1  0  0  0
 17 18  1  0  0  0
 18 19  1  0  0  0
 18 40  1  0  0  0
 19 20  2  0  0  0
 19 21  1  0  0  0
 21 22  2  0  0  0
 21 23  1  0  0  0
 23 24  1  0  0  0
 23 41  1  0  0  0
 24 29  2  0  0  0
 24 25  1  0  0  0
 25 26  2  0  0  0
 25 42  1  0  0  0
 26 27  1  0  0  0
 26 43  1  0  0  0
 27 28  2  0  0  0
 27 44  1  0  0  0
 28 29  1  0  0  0
 28 45  1  0  0  0
 29 46  1  0  0  0
M  END
> <i_i_glide_confnum>
208

> <i_i_glide_lignum>
814

> <i_i_glide_posenum>
382

> <i_i_glide_rotatable_bonds>
9

> <i_m_Source_File_Index>
446

> <b_m_subgroup_collapsed>
0

> <r_i_docking_score>
-4.97364

> <r_i_glide_ecoul>
-4.29464

> <r_i_glide_eff_state_penalty>
0

> <r_i_glide_einternal>
38.4006

> <r_i_glide_emodel>
-36.1045

> <r_i_glide_energy>
-42.9981

> <r_i_glide_erotb>
0.742286

> <r_i_glide_esite>
-0.0291443

> <r_i_glide_evdw>
-38.7034

> <r_i_glide_gscore>
-4.97364

> <r_i_glide_hbond>
-0.305753

> <r_i_glide_ligand_efficiency>
-0.165788

> <r_i_glide_ligand_efficiency_ln>
-1.13006

> <r_i_glide_ligand_efficiency_sa>
-0.515141

> <r_i_glide_lipo>
-2.03469

> <r_i_glide_metal>
0

> <r_i_glide_rewards>
-0.766967

> <s_i_glide_gridfile>
wee1_glide-grid

> <s_m_Source_File>
wee1_decoys_glide_SP.sdf

> <s_m_Source_Path>
/Users/zhangxujun/Desktop

> <s_m_entry_id>
721

> <s_m_entry_name>
wee1_decoys_glide_SP.446

> <s_m_subgroup_title>
wee1_decoys_glide_SP

> <s_m_subgroupid>
wee1_decoys_glide_SP


$$$$
