ZINC61099044_1659
                    3D
 Schrodinger Suite 2024-2.
 28 29  0  0  1  0            999 V2000
   -0.3520   50.6584   26.0577 C   0  0  0  0  0  0
   -0.0368   51.5129   27.1867 N   0  0  0  0  0  0
    0.8185   52.5762   27.2398 C   0  0  0  0  0  0
    0.7571   53.0433   28.5496 C   0  0  0  0  0  0
   -0.1311   52.1664   29.1808 C   0  0  0  0  0  0
   -0.6431   51.2967   28.3509 N   0  0  0  0  0  0
   -0.4956   52.1290   30.4817 N   0  0  0  0  0  0
    1.6110   54.4536   29.3135 S   0  0  0  0  0  0
    1.2372   55.5987   28.4817 O   0  0  0  0  0  0
    1.1044   54.4674   30.6886 O   0  0  0  0  0  0
    3.1346   54.0887   29.2475 N   0  5  0  0  0  0
    3.9252   54.2371   28.1351 C   0  0  0  0  0  0
    3.4738   54.4967   26.8323 C   0  0  0  0  0  0
    4.3459   54.5971   25.7512 C   0  0  0  0  0  0
    5.7160   54.4741   25.9552 C   0  0  0  0  0  0
    6.1866   54.2218   27.2393 C   0  0  0  0  0  0
    5.3020   54.0967   28.3045 C   0  0  0  0  0  0
    7.5044   54.0967   27.4629 F   0  0  0  0  0  0
    6.5813   54.5958   24.9209 F   0  0  0  0  0  0
    3.8527   54.8142   24.5117 F   0  0  0  0  0  0
    0.3282   50.8627   25.2306 H   0  0  0  0  0  0
   -1.3782   50.8443   25.7407 H   0  0  0  0  0  0
   -0.2502   49.6128   26.3554 H   0  0  0  0  0  0
    1.3583   52.8749   26.3570 H   0  0  0  0  0  0
   -0.1128   52.7925   31.1441 H   0  0  0  0  0  0
   -1.1174   51.4201   30.8500 H   0  0  0  0  0  0
    2.4288   54.6279   26.6337 H   0  0  0  0  0  0
    5.7059   53.8985   29.2817 H   0  0  0  0  0  0
  1  2  1  0  0  0
  1 21  1  0  0  0
  1 22  1  0  0  0
  1 23  1  0  0  0
  2  6  1  0  0  0
  2  3  1  0  0  0
  3  4  2  0  0  0
  3 24  1  0  0  0
  4  5  1  0  0  0
  4  8  1  0  0  0
  5  6  2  0  0  0
  5  7  1  0  0  0
  7 25  1  0  0  0
  7 26  1  0  0  0
  8  9  2  0  0  0
  8 10  2  0  0  0
  8 11  1  0  0  0
 11 12  1  0  0  0
 12 17  2  0  0  0
 12 13  1  0  0  0
 13 14  2  0  0  0
 13 27  1  0  0  0
 14 15  1  0  0  0
 14 20  1  0  0  0
 15 16  2  0  0  0
 15 19  1  0  0  0
 16 17  1  0  0  0
 16 18  1  0  0  0
 17 28  1  0  0  0
M  CHG  1  11  -1
M  END
> <i_i_glide_confnum>
15

> <i_i_glide_lignum>
1660

> <i_i_glide_posenum>
165

> <i_i_glide_rotatable_bonds>
3

> <i_m_Source_File_Index>
3769

> <b_m_subgroup_collapsed>
0

> <r_i_docking_score>
-5.46279

> <r_i_glide_ecoul>
-4.43597

> <r_i_glide_eff_state_penalty>
0

> <r_i_glide_einternal>
5.067

> <r_i_glide_emodel>
-44.008

> <r_i_glide_energy>
-34.8314

> <r_i_glide_erotb>
0.594142

> <r_i_glide_esite>
-0.144833

> <r_i_glide_evdw>
-30.3954

> <r_i_glide_gscore>
-5.46279

> <r_i_glide_hbond>
-0.0134029

> <r_i_glide_ligand_efficiency>
-0.273139

> <r_i_glide_ligand_efficiency_ln>
-1.36716

> <r_i_glide_ligand_efficiency_sa>
-0.741415

> <r_i_glide_lipo>
-1.90575

> <r_i_glide_metal>
0

> <r_i_glide_rewards>
-1.80778

> <s_i_glide_gridfile>
wee1_glide-grid

> <s_m_Source_File>
wee1_decoys_glide_SP.sdf

> <s_m_Source_Path>
/Users/zhangxujun/Desktop

> <s_m_entry_id>
4044

> <s_m_entry_name>
wee1_decoys_glide_SP.3769

> <s_m_subgroup_title>
wee1_decoys_glide_SP

> <s_m_subgroupid>
wee1_decoys_glide_SP


$$$$
