ZINC12401671_469
                    3D
 Schrodinger Suite 2024-2.
 58 62  0  0  1  0            999 V2000
    4.7869   53.7166   26.1766 C   0  0  0  0  0  0
    5.5884   54.7424   25.3557 C   0  0  0  0  0  0
    6.7066   55.3424   26.2115 C   0  0  0  0  0  0
    6.2588   54.1048   23.7806 S   0  0  0  0  0  0
    4.7706   53.7141   22.9206 C   0  0  0  0  0  0
    3.5916   54.2454   23.1434 N   0  0  0  0  0  0
    2.5869   53.6953   22.3634 N   0  0  0  0  0  0
    3.0322   52.7607   21.5552 C   0  0  0  0  0  0
    4.7475   52.4979   21.6813 S   0  0  0  0  0  0
    2.2392   51.9347   20.7641 N   0  0  0  0  0  0
    2.3053   52.0320   19.3570 C   0  0  0  0  0  0
    1.4581   51.2973   18.5647 C   0  0  0  0  0  0
    1.5100   51.4193   17.0749 C   0  0  0  0  0  0
    0.6261   51.0007   16.3283 O   0  0  0  0  0  0
    2.6732   52.2226   16.4878 C   0  0  0  0  0  0
    2.9764   53.4967   17.3026 C   0  0  0  0  0  0
    3.3239   53.0343   18.7454 C   0  0  0  0  0  0
    1.7542   54.4540   17.2846 C   0  0  0  0  0  0
    4.2345   54.1462   16.6885 C   0  0  0  0  0  0
    0.3762   50.3444   19.1783 C   0  0  2  0  0  0
    0.3012   48.9887   18.5221 C   0  0  0  0  0  0
    1.2698   47.9979   18.3358 C   0  0  0  0  0  0
    0.9219   46.8186   17.6724 C   0  0  0  0  0  0
   -0.3834   46.6314   17.2033 C   0  0  0  0  0  0
   -1.3472   47.6275   17.3880 C   0  0  0  0  0  0
   -0.9841   48.8024   18.0462 C   0  0  0  0  0  0
   -1.7446   49.9328   18.3116 N   0  0  0  0  0  0
   -1.0557   50.9035   18.9436 C   0  0  0  0  0  0
   -1.4848   52.0097   19.2796 O   0  0  0  0  0  0
    0.5573   50.2151   20.7012 C   0  0  0  0  0  0
    1.4277   50.9763   21.3951 C   0  0  0  0  0  0
    1.5849   50.8132   22.7618 N   0  0  0  0  0  0
   -0.2405   49.2517   21.4033 C   0  0  0  0  0  0
   -0.8966   48.4961   21.9842 N   0  0  0  0  0  0
    4.3642   54.1727   27.0725 H   0  0  0  0  0  0
    5.4254   52.8968   26.5001 H   0  0  0  0  0  0
    3.9536   53.2974   25.6156 H   0  0  0  0  0  0
    4.9122   55.5596   25.0998 H   0  0  0  0  0  0
    6.3306   55.6963   27.1721 H   0  0  0  0  0  0
    7.4791   54.6012   26.4188 H   0  0  0  0  0  0
    7.1576   56.1897   25.6953 H   0  0  0  0  0  0
    2.4683   52.4377   15.4389 H   0  0  0  0  0  0
    3.5348   51.5542   16.5031 H   0  0  0  0  0  0
    3.3734   53.9558   19.3272 H   0  0  0  0  0  0
    4.2988   52.5458   18.7973 H   0  0  0  0  0  0
    1.3936   54.6143   16.2684 H   0  0  0  0  0  0
    0.9142   54.0809   17.8722 H   0  0  0  0  0  0
    2.0160   55.4336   17.6840 H   0  0  0  0  0  0
    4.0552   54.4635   15.6605 H   0  0  0  0  0  0
    4.5368   55.0307   17.2494 H   0  0  0  0  0  0
    5.0842   53.4614   16.6775 H   0  0  0  0  0  0
    2.2849   48.1419   18.6816 H   0  0  0  0  0  0
    1.6696   46.0564   17.5105 H   0  0  0  0  0  0
   -0.6434   45.7209   16.6839 H   0  0  0  0  0  0
   -2.3487   47.4825   17.0094 H   0  0  0  0  0  0
   -2.7054   50.0487   18.0268 H   0  0  0  0  0  0
    1.0743   50.1019   23.2667 H   0  0  0  0  0  0
    2.2178   51.3977   23.2862 H   0  0  0  0  0  0
  1  2  1  0  0  0
  1 35  1  0  0  0
  1 36  1  0  0  0
  1 37  1  0  0  0
  2  3  1  0  0  0
  2  4  1  0  0  0
  2 38  1  0  0  0
  3 39  1  0  0  0
  3 40  1  0  0  0
  3 41  1  0  0  0
  4  5  1  0  0  0
  5  9  1  0  0  0
  5  6  2  0  0  0
  6  7  1  0  0  0
  7  8  2  0  0  0
  8  9  1  0  0  0
  8 10  1  0  0  0
 10 31  1  0  0  0
 10 11  1  0  0  0
 11 17  1  0  0  0
 11 12  2  0  0  0
 12 13  1  0  0  0
 12 20  1  0  0  0
 13 14  2  0  0  0
 13 15  1  0  0  0
 15 16  1  0  0  0
 15 42  1  0  0  0
 15 43  1  0  0  0
 16 17  1  0  0  0
 16 18  1  0  0  0
 16 19  1  0  0  0
 17 44  1  0  0  0
 17 45  1  0  0  0
 18 46  1  0  0  0
 18 47  1  0  0  0
 18 48  1  0  0  0
 19 49  1  0  0  0
 19 50  1  0  0  0
 19 51  1  0  0  0
 20 28  1  0  0  0
 20 21  1  0  0  0
 20 30  1  0  0  0
 21 26  2  0  0  0
 21 22  1  0  0  0
 22 23  2  0  0  0
 22 52  1  0  0  0
 23 24  1  0  0  0
 23 53  1  0  0  0
 24 25  2  0  0  0
 24 54  1  0  0  0
 25 26  1  0  0  0
 25 55  1  0  0  0
 26 27  1  0  0  0
 27 28  1  0  0  0
 27 56  1  0  0  0
 28 29  2  0  0  0
 30 31  2  0  0  0
 30 33  1  0  0  0
 31 32  1  0  0  0
 32 57  1  0  0  0
 32 58  1  0  0  0
 33 34  3  0  0  0
M  END
> <i_i_glide_confnum>
6

> <i_i_glide_lignum>
470

> <i_i_glide_posenum>
158

> <i_i_glide_rotatable_bonds>
4

> <i_m_Source_File_Index>
1950

> <b_m_subgroup_collapsed>
0

> <r_i_docking_score>
-3.5667

> <r_i_glide_ecoul>
-2.50516

> <r_i_glide_eff_state_penalty>
0

> <r_i_glide_einternal>
2.77546

> <r_i_glide_emodel>
-46.2207

> <r_i_glide_energy>
-39.0357

> <r_i_glide_erotb>
0.167846

> <r_i_glide_esite>
-0.0499867

> <r_i_glide_evdw>
-36.5306

> <r_i_glide_gscore>
-3.5667

> <r_i_glide_hbond>
0

> <r_i_glide_ligand_efficiency>
-0.104903

> <r_i_glide_ligand_efficiency_ln>
-0.787984

> <r_i_glide_ligand_efficiency_sa>
-0.339845

> <r_i_glide_lipo>
-1.34615

> <r_i_glide_metal>
0

> <r_i_glide_rewards>
-0.136102

> <s_i_glide_gridfile>
wee1_glide-grid

> <s_m_Source_File>
wee1_decoys_glide_SP.sdf

> <s_m_Source_Path>
/Users/zhangxujun/Desktop

> <s_m_entry_id>
2225

> <s_m_entry_name>
wee1_decoys_glide_SP.1950

> <s_m_subgroup_title>
wee1_decoys_glide_SP

> <s_m_subgroupid>
wee1_decoys_glide_SP


$$$$
