ZINC59960710_6025
                    3D
 Schrodinger Suite 2024-2.
 43 45  0  0  1  0            999 V2000
    3.9864   53.4067   17.6548 C   0  0  0  0  0  0
    3.0789   53.3137   16.6037 C   0  0  0  0  0  0
    2.5349   54.4658   16.0340 C   0  0  0  0  0  0
    2.9053   55.7360   16.5166 C   0  0  0  0  0  0
    3.8300   55.8166   17.5693 C   0  0  0  0  0  0
    4.3720   54.6555   18.1439 C   0  0  0  0  0  0
    5.2453   54.6593   19.2422 N   0  0  0  0  0  0
    6.0623   55.6584   19.6618 C   0  0  0  0  0  0
    6.2820   56.7016   19.0420 O   0  0  0  0  0  0
    6.7301   55.4008   20.9568 C   0  0  0  0  0  0
    7.9153   55.6967   21.1377 O   0  0  0  0  0  0
    5.9070   54.8966   21.9029 N   0  0  0  0  0  0
    6.3007   54.7047   23.1752 N   0  0  0  0  0  0
    5.3275   54.3936   23.9287 C   0  0  0  0  0  0
    5.5141   54.2261   25.3556 C   0  0  0  0  0  0
    6.6069   54.2884   26.2043 C   0  0  0  0  0  0
    6.1529   54.0122   27.4920 C   0  0  0  0  0  0
    4.7881   53.7860   27.3835 C   0  0  0  0  0  0
    4.4094   53.9381   26.0865 O   0  0  0  0  0  0
    3.7300   53.4196   28.3559 C   0  0  0  0  0  0
    2.3863   53.7048   28.1003 C   0  0  0  0  0  0
    1.4091   53.3591   29.0327 C   0  0  0  0  0  0
    1.7639   52.7431   30.2319 C   0  0  0  0  0  0
    3.1036   52.4515   30.4826 C   0  0  0  0  0  0
    4.0774   52.7690   29.5398 C   0  0  0  0  0  0
    3.5643   51.6967   31.9595 Cl  0  0  0  0  0  0
   -0.2398   53.6968   28.6943 Cl  0  0  0  0  0  0
    2.3105   57.0163   15.9200 C   0  0  0  0  0  0
    2.8054   58.1200   16.4808 F   0  0  0  0  0  0
    0.9874   57.0214   16.0999 F   0  0  0  0  0  0
    2.5660   57.0741   14.6133 F   0  0  0  0  0  0
    1.3984   54.2726   14.7441 Cl  0  0  0  0  0  0
    4.3874   52.4964   18.0800 H   0  0  0  0  0  0
    2.7953   52.3371   16.2374 H   0  0  0  0  0  0
    4.1038   56.7870   17.9568 H   0  0  0  0  0  0
    5.2598   53.7927   19.7586 H   0  0  0  0  0  0
    4.9292   54.7278   21.7141 H   0  0  0  0  0  0
    4.2981   54.2435   23.6071 H   0  0  0  0  0  0
    7.6163   54.4967   25.9012 H   0  0  0  0  0  0
    6.7461   53.9751   28.3938 H   0  0  0  0  0  0
    2.0985   54.1933   27.1806 H   0  0  0  0  0  0
    1.0033   52.4888   30.9579 H   0  0  0  0  0  0
    5.1045   52.4982   29.7202 H   0  0  0  0  0  0
  1  6  2  0  0  0
  1  2  1  0  0  0
  1 33  1  0  0  0
  2  3  2  0  0  0
  2 34  1  0  0  0
  3  4  1  0  0  0
  3 32  1  0  0  0
  4  5  2  0  0  0
  4 28  1  0  0  0
  5  6  1  0  0  0
  5 35  1  0  0  0
  6  7  1  0  0  0
  7  8  1  0  0  0
  7 36  1  0  0  0
  8  9  2  0  0  0
  8 10  1  0  0  0
 10 11  2  0  0  0
 10 12  1  0  0  0
 12 13  1  0  0  0
 12 37  1  0  0  0
 13 14  2  0  0  0
 14 15  1  0  0  0
 14 38  1  0  0  0
 15 19  1  0  0  0
 15 16  2  0  0  0
 16 17  1  0  0  0
 16 39  1  0  0  0
 17 18  2  0  0  0
 17 40  1  0  0  0
 18 19  1  0  0  0
 18 20  1  0  0  0
 20 25  2  0  0  0
 20 21  1  0  0  0
 21 22  2  0  0  0
 21 41  1  0  0  0
 22 23  1  0  0  0
 22 27  1  0  0  0
 23 24  2  0  0  0
 23 42  1  0  0  0
 24 25  1  0  0  0
 24 26  1  0  0  0
 25 43  1  0  0  0
 28 29  1  0  0  0
 28 30  1  0  0  0
 28 31  1  0  0  0
M  END
> <i_i_glide_confnum>
106

> <i_i_glide_lignum>
6026

> <i_i_glide_posenum>
296

> <i_i_glide_rotatable_bonds>
8

> <i_m_Source_File_Index>
5684

> <b_m_subgroup_collapsed>
0

> <r_i_docking_score>
-5.01

> <r_i_glide_ecoul>
-0.0644266

> <r_i_glide_eff_state_penalty>
0

> <r_i_glide_einternal>
7.66021

> <r_i_glide_emodel>
-60.3585

> <r_i_glide_energy>
-46.5004

> <r_i_glide_erotb>
0.561996

> <r_i_glide_esite>
-0.0338635

> <r_i_glide_evdw>
-46.436

> <r_i_glide_gscore>
-5.01

> <r_i_glide_hbond>
0

> <r_i_glide_ligand_efficiency>
-0.156562

> <r_i_glide_ligand_efficiency_ln>
-1.12188

> <r_i_glide_ligand_efficiency_sa>
-0.497055

> <r_i_glide_lipo>
-2.4102

> <r_i_glide_metal>
0

> <r_i_glide_rewards>
-0.796469

> <s_i_glide_gridfile>
wee1_glide-grid

> <s_m_Source_File>
wee1_decoys_glide_SP.sdf

> <s_m_Source_Path>
/Users/zhangxujun/Desktop

> <s_m_entry_id>
5959

> <s_m_entry_name>
wee1_decoys_glide_SP.5684

> <s_m_subgroup_title>
wee1_decoys_glide_SP

> <s_m_subgroupid>
wee1_decoys_glide_SP


$$$$
