ZINC43746539_5253
                    3D
 Schrodinger Suite 2024-2.
 76 81  0  0  1  0            999 V2000
    2.1621   54.7293   22.9481 C   0  0  0  0  0  0
    2.9198   53.4382   23.2504 C   0  0  1  0  0  0
    4.3958   53.7878   23.6040 C   0  0  0  0  0  0
    4.5441   54.4966   24.9584 C   0  0  0  0  0  0
    3.9011   53.7151   26.1096 C   0  0  0  0  0  0
    2.4586   53.2967   25.8019 C   0  0  0  0  0  0
    1.5044   53.4323   26.7394 C   0  0  0  0  0  0
    2.2243   52.6541   24.4099 C   0  0  1  0  0  0
    2.7044   51.6964   24.4817 H   0  0  0  0  0  0
    0.7517   52.2987   24.0379 C   0  0  0  0  0  0
    0.6101   51.5750   22.6633 C   0  0  1  0  0  0
   -0.4307   51.6505   22.3398 H   0  0  0  0  0  0
    1.4917   52.1475   21.5342 C   0  0  1  0  0  0
    1.0239   53.0077   21.0534 H   0  0  0  0  0  0
    2.9222   52.5156   22.0002 C   0  0  0  0  0  0
    1.5755   51.0737   20.5997 O   0  0  0  0  0  0
    1.4232   49.8805   21.2122 C   0  0  0  0  0  0
    1.5051   48.8133   20.6096 O   0  0  0  0  0  0
    1.0691   50.1224   22.6781 C   0  0  2  0  0  0
    2.0146   50.0398   23.2139 H   0  0  0  0  0  0
    0.1076   49.1001   23.3152 C   0  0  0  0  0  0
   -1.3554   49.0621   22.7768 N   0  3  1  0  0  0
   -1.5265   48.6435   21.3021 C   0  0  0  0  0  0
   -2.9744   48.1840   21.1805 C   0  0  0  0  0  0
   -3.4089   47.7195   22.5699 C   0  0  0  0  0  0
   -2.2584   48.0540   23.5495 C   0  0  2  0  0  0
   -1.6451   47.1467   23.5269 H   0  0  0  0  0  0
   -2.6180   48.3751   25.0563 C   0  0  0  0  0  0
   -2.8882   49.8986   25.2689 C   0  0  0  0  0  0
   -2.2553   50.6007   26.3099 C   0  0  0  0  0  0
   -2.4501   51.9673   26.4814 C   0  0  0  0  0  0
   -3.2965   52.6562   25.6215 C   0  0  0  0  0  0
   -3.9384   51.9899   24.5846 C   0  0  0  0  0  0
   -3.7300   50.6249   24.4073 C   0  0  0  0  0  0
   -3.7536   47.4525   25.5911 C   0  0  0  0  0  0
   -5.1067   47.7839   25.4142 C   0  0  0  0  0  0
   -6.1168   46.9515   25.8898 C   0  0  0  0  0  0
   -5.7889   45.7739   26.5543 C   0  0  0  0  0  0
   -4.4584   45.4223   26.7469 C   0  0  0  0  0  0
   -3.4511   46.2521   26.2642 C   0  0  0  0  0  0
   -1.3943   48.0186   25.6817 O   0  0  0  0  0  0
    1.1572   54.5806   22.5634 H   0  0  0  0  0  0
    2.0543   55.2967   23.8663 H   0  0  0  0  0  0
    2.7061   55.2966   22.1946 H   0  0  0  0  0  0
    4.8396   54.3960   22.8140 H   0  0  0  0  0  0
    5.0186   52.8968   23.6236 H   0  0  0  0  0  0
    5.6006   54.6645   25.1725 H   0  0  0  0  0  0
    4.0963   55.4794   24.9251 H   0  0  0  0  0  0
    4.5169   52.8529   26.3424 H   0  0  0  0  0  0
    3.9431   54.3223   27.0145 H   0  0  0  0  0  0
    0.4869   53.1159   26.5740 H   0  0  0  0  0  0
    1.7281   53.8649   27.7036 H   0  0  0  0  0  0
    0.3111   51.6759   24.8169 H   0  0  0  0  0  0
    0.1477   53.2054   23.9990 H   0  0  0  0  0  0
    3.4196   53.0418   21.1826 H   0  0  0  0  0  0
    3.5059   51.6192   22.2048 H   0  0  0  0  0  0
    0.5038   48.0966   23.2821 H   0  0  0  0  0  0
    0.0182   49.3807   24.3617 H   0  0  0  0  0  0
   -1.2628   49.4806   20.6543 H   0  0  0  0  0  0
   -0.8275   47.8211   21.1347 H   0  0  0  0  0  0
   -3.5988   49.0083   20.8309 H   0  0  0  0  0  0
   -3.0676   47.3835   20.4445 H   0  0  0  0  0  0
   -4.3310   48.2402   22.8102 H   0  0  0  0  0  0
   -3.6506   46.6553   22.5945 H   0  0  0  0  0  0
   -1.5979   50.0976   27.0032 H   0  0  0  0  0  0
   -1.9467   52.4865   27.2822 H   0  0  0  0  0  0
   -3.4579   53.7138   25.7616 H   0  0  0  0  0  0
   -4.5992   52.5287   23.9212 H   0  0  0  0  0  0
   -4.2427   50.1562   23.5876 H   0  0  0  0  0  0
   -5.4017   48.6911   24.9140 H   0  0  0  0  0  0
   -7.1531   47.2225   25.7504 H   0  0  0  0  0  0
   -6.5740   45.1328   26.9279 H   0  0  0  0  0  0
   -4.2014   44.5173   27.2812 H   0  0  0  0  0  0
   -2.4287   45.9513   26.4408 H   0  0  0  0  0  0
   -1.4961   48.0967   26.6514 H   0  0  0  0  0  0
   -1.7493   49.9851   22.9020 H   0  0  0  0  0  0
  1  2  1  0  0  0
  1 42  1  0  0  0
  1 43  1  0  0  0
  1 44  1  0  0  0
  2  8  1  0  0  0
  2 15  1  0  0  0
  2  3  1  0  0  0
  3  4  1  0  0  0
  3 45  1  0  0  0
  3 46  1  0  0  0
  4  5  1  0  0  0
  4 47  1  0  0  0
  4 48  1  0  0  0
  5  6  1  0  0  0
  5 49  1  0  0  0
  5 50  1  0  0  0
  6  7  2  0  0  0
  6  8  1  0  0  0
  7 51  1  0  0  0
  7 52  1  0  0  0
  8  9  1  0  0  0
  8 10  1  0  0  0
 10 11  1  0  0  0
 10 53  1  0  0  0
 10 54  1  0  0  0
 11 12  1  0  0  0
 11 19  1  0  0  0
 11 13  1  0  0  0
 13 14  1  0  0  0
 13 15  1  0  0  0
 13 16  1  0  0  0
 15 55  1  0  0  0
 15 56  1  0  0  0
 16 17  1  0  0  0
 17 18  2  0  0  0
 17 19  1  0  0  0
 19 20  1  0  0  0
 19 21  1  0  0  0
 21 22  1  0  0  0
 21 57  1  0  0  0
 21 58  1  0  0  0
 22 26  1  0  0  0
 22 23  1  0  0  0
 22 76  1  0  0  0
 23 24  1  0  0  0
 23 59  1  0  0  0
 23 60  1  0  0  0
 24 25  1  0  0  0
 24 61  1  0  0  0
 24 62  1  0  0  0
 25 26  1  0  0  0
 25 63  1  0  0  0
 25 64  1  0  0  0
 26 27  1  0  0  0
 26 28  1  0  0  0
 28 29  1  0  0  0
 28 35  1  0  0  0
 28 41  1  0  0  0
 29 34  2  0  0  0
 29 30  1  0  0  0
 30 31  2  0  0  0
 30 65  1  0  0  0
 31 32  1  0  0  0
 31 66  1  0  0  0
 32 33  2  0  0  0
 32 67  1  0  0  0
 33 34  1  0  0  0
 33 68  1  0  0  0
 34 69  1  0  0  0
 35 40  2  0  0  0
 35 36  1  0  0  0
 36 37  2  0  0  0
 36 70  1  0  0  0
 37 38  1  0  0  0
 37 71  1  0  0  0
 38 39  2  0  0  0
 38 72  1  0  0  0
 39 40  1  0  0  0
 39 73  1  0  0  0
 40 74  1  0  0  0
 41 75  1  0  0  0
M  CHG  1  22   1
M  END
> <i_i_glide_confnum>
34

> <i_i_glide_lignum>
5254

> <i_i_glide_posenum>
204

> <i_i_glide_rotatable_bonds>
6

> <i_m_Source_File_Index>
3150

> <b_m_subgroup_collapsed>
0

> <r_i_docking_score>
-3.57048

> <r_i_glide_ecoul>
-5.1462

> <r_i_glide_eff_state_penalty>
0

> <r_i_glide_einternal>
8.10966

> <r_i_glide_emodel>
-31.9012

> <r_i_glide_energy>
-28.6363

> <r_i_glide_erotb>
0.429058

> <r_i_glide_esite>
0

> <r_i_glide_evdw>
-23.4902

> <r_i_glide_gscore>
-3.57048

> <r_i_glide_hbond>
-0.16

> <r_i_glide_ligand_efficiency>
-0.0991799

> <r_i_glide_ligand_efficiency_ln>
-0.778981

> <r_i_glide_ligand_efficiency_sa>
-0.327485

> <r_i_glide_lipo>
-1.73256

> <r_i_glide_metal>
0

> <r_i_glide_rewards>
-0.160533

> <s_i_glide_gridfile>
wee1_glide-grid

> <s_m_Source_File>
wee1_decoys_glide_SP.sdf

> <s_m_Source_Path>
/Users/zhangxujun/Desktop

> <s_m_entry_id>
3425

> <s_m_entry_name>
wee1_decoys_glide_SP.3150

> <s_m_subgroup_title>
wee1_decoys_glide_SP

> <s_m_subgroupid>
wee1_decoys_glide_SP


$$$$
