ZINC32534144_1672
                    3D
 Schrodinger Suite 2024-2.
 35 37  0  0  1  0            999 V2000
    1.5044   55.6767   30.2935 C   0  0  0  0  0  0
    0.8464   54.3161   30.2142 C   0  0  0  0  0  0
    0.7045   53.4880   29.0881 C   0  0  0  0  0  0
   -0.0094   52.4101   29.5513 C   0  0  0  0  0  0
   -0.2032   52.5950   30.8817 N   0  0  0  0  0  0
   -0.7385   51.9933   31.5071 H   0  0  0  0  0  0
    0.3044   53.7671   31.2880 N   0  0  0  0  0  0
   -0.5240   51.3613   28.8358 O   0  0  0  0  0  0
   -0.3678   51.5027   27.4859 C   0  0  0  0  0  0
    0.3473   52.4688   26.8522 C   0  0  0  0  0  0
    1.1059   53.5754   27.6229 C   0  0  2  0  0  0
    0.7701   54.5517   27.2986 H   0  0  0  0  0  0
    2.6007   53.6833   27.3237 C   0  0  0  0  0  0
    3.5799   53.4436   28.2954 C   0  0  0  0  0  0
    4.9223   53.6590   27.9972 C   0  0  0  0  0  0
    5.2992   54.0967   26.7290 C   0  0  0  0  0  0
    4.3203   54.3030   25.7487 C   0  0  0  0  0  0
    2.9864   54.0967   26.0475 C   0  0  0  0  0  0
    6.6413   54.3089   26.5156 O   0  0  0  0  0  0
    7.0434   54.7463   25.2290 C   0  0  0  0  0  0
    0.3597   52.4966   25.4238 C   0  0  0  0  0  0
    0.3387   52.5368   24.2674 N   0  0  0  0  0  0
   -1.0690   50.4967   26.8817 N   0  0  0  0  0  0
    1.1043   56.3598   29.5447 H   0  0  0  0  0  0
    1.3761   56.1599   31.2636 H   0  0  0  0  0  0
    2.5745   55.6101   30.0994 H   0  0  0  0  0  0
    3.3109   53.1117   29.2866 H   0  0  0  0  0  0
    5.6770   53.4917   28.7515 H   0  0  0  0  0  0
    4.5663   54.6337   24.7518 H   0  0  0  0  0  0
    2.2511   54.2931   25.2817 H   0  0  0  0  0  0
    8.1042   54.8967   25.2780 H   0  0  0  0  0  0
    6.5924   55.7006   24.9512 H   0  0  0  0  0  0
    6.8437   53.9998   24.4583 H   0  0  0  0  0  0
   -1.0831   50.4106   25.8773 H   0  0  0  0  0  0
   -1.2956   49.6493   27.4175 H   0  0  0  0  0  0
  1  2  1  0  0  0
  1 24  1  0  0  0
  1 25  1  0  0  0
  1 26  1  0  0  0
  2  7  2  0  0  0
  2  3  1  0  0  0
  3 11  1  0  0  0
  3  4  2  0  0  0
  4  5  1  0  0  0
  4  8  1  0  0  0
  5  6  1  0  0  0
  5  7  1  0  0  0
  8  9  1  0  0  0
  9 10  2  0  0  0
  9 23  1  0  0  0
 10 11  1  0  0  0
 10 21  1  0  0  0
 11 12  1  0  0  0
 11 13  1  0  0  0
 13 18  2  0  0  0
 13 14  1  0  0  0
 14 15  2  0  0  0
 14 27  1  0  0  0
 15 16  1  0  0  0
 15 28  1  0  0  0
 16 17  2  0  0  0
 16 19  1  0  0  0
 17 18  1  0  0  0
 17 29  1  0  0  0
 18 30  1  0  0  0
 19 20  1  0  0  0
 20 31  1  0  0  0
 20 32  1  0  0  0
 20 33  1  0  0  0
 21 22  3  0  0  0
 23 34  1  0  0  0
 23 35  1  0  0  0
M  END
> <i_i_glide_confnum>
1

> <i_i_glide_lignum>
1673

> <i_i_glide_posenum>
119

> <i_i_glide_rotatable_bonds>
3

> <i_m_Source_File_Index>
5196

> <b_m_subgroup_collapsed>
0

> <r_i_docking_score>
-6.74038

> <r_i_glide_ecoul>
-6.45793

> <r_i_glide_eff_state_penalty>
0

> <r_i_glide_einternal>
6.39874

> <r_i_glide_emodel>
-47.3885

> <r_i_glide_energy>
-35.2524

> <r_i_glide_erotb>
0.227017

> <r_i_glide_esite>
-0.2

> <r_i_glide_evdw>
-28.7945

> <r_i_glide_gscore>
-6.74038

> <r_i_glide_hbond>
-0.304

> <r_i_glide_ligand_efficiency>
-0.320971

> <r_i_glide_ligand_efficiency_ln>
-1.66655

> <r_i_glide_ligand_efficiency_sa>
-0.885534

> <r_i_glide_lipo>
-2.47691

> <r_i_glide_metal>
0

> <r_i_glide_rewards>
-1.57808

> <s_i_glide_gridfile>
wee1_glide-grid

> <s_m_Source_File>
wee1_decoys_glide_SP.sdf

> <s_m_Source_Path>
/Users/zhangxujun/Desktop

> <s_m_entry_id>
5471

> <s_m_entry_name>
wee1_decoys_glide_SP.5196

> <s_m_subgroup_title>
wee1_decoys_glide_SP

> <s_m_subgroupid>
wee1_decoys_glide_SP


$$$$
