ZINC67101733_1462
                    3D
 Schrodinger Suite 2024-2.
 58 60  0  0  1  0            999 V2000
    6.0920   54.3182   28.0741 C   0  0  0  0  0  0
    5.0027   54.1927   27.0344 C   0  0  0  0  0  0
    4.9351   54.3739   25.6443 C   0  0  0  0  0  0
    3.5774   54.1741   25.3309 C   0  0  0  0  0  0
    2.9408   53.7492   26.4777 C   0  0  0  0  0  0
    3.8049   53.7719   27.5162 O   0  0  0  0  0  0
    5.9981   54.8970   24.8019 C   0  0  0  0  0  0
    6.8222   55.6618   25.3093 O   0  0  0  0  0  0
    6.0531   54.5427   23.4818 N   0  0  0  0  0  0
    7.1040   55.0975   22.6068 C   0  0  0  0  0  0
    6.4603   55.7017   21.3332 C   0  0  0  0  0  0
    5.5032   54.7553   20.7144 N   0  0  0  0  0  0
    4.4880   54.1916   21.6317 C   0  0  0  0  0  0
    5.2319   53.5200   22.8100 C   0  0  0  0  0  0
    5.6725   54.3538   19.4211 C   0  0  0  0  0  0
    6.7081   54.5941   18.7945 O   0  0  0  0  0  0
    4.6127   53.7253   18.8631 N   0  0  0  0  0  0
    4.8325   52.8968   17.7609 N   0  0  0  0  0  0
    4.4008   53.3003   16.5470 C   0  0  0  0  0  0
    3.8764   54.3940   16.3178 O   0  0  0  0  0  0
    4.6141   52.3138   15.3938 C   0  0  0  0  0  0
    6.1069   52.1765   15.0066 C   0  0  0  0  0  0
    6.3926   51.1770   13.8590 C   0  0  0  0  0  0
    5.8614   51.6558   12.4870 C   0  0  0  0  0  0
    6.1212   50.6071   11.3837 C   0  0  0  0  0  0
    7.6169   50.2341   11.2934 C   0  0  0  0  0  0
    8.2094   49.8394   12.6628 C   0  0  0  0  0  0
    7.9093   50.9062   13.7311 C   0  0  0  0  0  0
    6.9733   54.8465   27.7028 H   0  0  0  0  0  0
    5.7477   54.8703   28.9494 H   0  0  0  0  0  0
    6.4302   53.3399   28.4217 H   0  0  0  0  0  0
    3.1063   54.3077   24.3692 H   0  0  0  0  0  0
    1.9228   53.4636   26.7085 H   0  0  0  0  0  0
    7.7849   54.2882   22.3418 H   0  0  0  0  0  0
    7.6859   55.8745   23.1051 H   0  0  0  0  0  0
    7.2538   55.9975   20.6461 H   0  0  0  0  0  0
    5.9061   56.6011   21.6009 H   0  0  0  0  0  0
    3.8459   54.9921   22.0027 H   0  0  0  0  0  0
    3.8396   53.4578   21.1581 H   0  0  0  0  0  0
    4.5625   52.9777   23.4611 H   0  0  0  0  0  0
    5.8997   52.7467   22.4293 H   0  0  0  0  0  0
    3.7745   53.4813   19.3667 H   0  0  0  0  0  0
    5.0901   51.9365   17.9959 H   0  0  0  0  0  0
    4.0284   52.6558   14.5386 H   0  0  0  0  0  0
    4.2001   51.3462   15.6787 H   0  0  0  0  0  0
    6.6626   51.8483   15.8879 H   0  0  0  0  0  0
    6.5168   53.1528   14.7415 H   0  0  0  0  0  0
    5.9038   50.2255   14.0823 H   0  0  0  0  0  0
    6.3137   52.6118   12.2201 H   0  0  0  0  0  0
    4.7920   51.8641   12.5455 H   0  0  0  0  0  0
    5.7711   50.9863   10.4227 H   0  0  0  0  0  0
    5.5333   49.7098   11.5922 H   0  0  0  0  0  0
    8.1724   51.0856   10.8990 H   0  0  0  0  0  0
    7.7545   49.4242   10.5800 H   0  0  0  0  0  0
    9.2886   49.6969   12.5724 H   0  0  0  0  0  0
    7.7982   48.8801   12.9793 H   0  0  0  0  0  0
    8.3075   50.5804   14.6908 H   0  0  0  0  0  0
    8.4410   51.8336   13.5113 H   0  0  0  0  0  0
  1  2  1  0  0  0
  1 29  1  0  0  0
  1 30  1  0  0  0
  1 31  1  0  0  0
  2  6  1  0  0  0
  2  3  2  0  0  0
  3  4  1  0  0  0
  3  7  1  0  0  0
  4  5  2  0  0  0
  4 32  1  0  0  0
  5  6  1  0  0  0
  5 33  1  0  0  0
  7  8  2  0  0  0
  7  9  1  0  0  0
  9 14  1  0  0  0
  9 10  1  0  0  0
 10 11  1  0  0  0
 10 34  1  0  0  0
 10 35  1  0  0  0
 11 12  1  0  0  0
 11 36  1  0  0  0
 11 37  1  0  0  0
 12 13  1  0  0  0
 12 15  1  0  0  0
 13 14  1  0  0  0
 13 38  1  0  0  0
 13 39  1  0  0  0
 14 40  1  0  0  0
 14 41  1  0  0  0
 15 16  2  0  0  0
 15 17  1  0  0  0
 17 18  1  0  0  0
 17 42  1  0  0  0
 18 19  1  0  0  0
 18 43  1  0  0  0
 19 20  2  0  0  0
 19 21  1  0  0  0
 21 22  1  0  0  0
 21 44  1  0  0  0
 21 45  1  0  0  0
 22 23  1  0  0  0
 22 46  1  0  0  0
 22 47  1  0  0  0
 23 28  1  0  0  0
 23 24  1  0  0  0
 23 48  1  0  0  0
 24 25  1  0  0  0
 24 49  1  0  0  0
 24 50  1  0  0  0
 25 26  1  0  0  0
 25 51  1  0  0  0
 25 52  1  0  0  0
 26 27  1  0  0  0
 26 53  1  0  0  0
 26 54  1  0  0  0
 27 28  1  0  0  0
 27 55  1  0  0  0
 27 56  1  0  0  0
 28 57  1  0  0  0
 28 58  1  0  0  0
M  END
> <i_i_glide_confnum>
120

> <i_i_glide_lignum>
1463

> <i_i_glide_posenum>
148

> <i_i_glide_rotatable_bonds>
9

> <i_m_Source_File_Index>
4814

> <b_m_subgroup_collapsed>
0

> <r_i_docking_score>
-5.94213

> <r_i_glide_ecoul>
-6.49467

> <r_i_glide_eff_state_penalty>
0

> <r_i_glide_einternal>
8.91003

> <r_i_glide_emodel>
-54.2701

> <r_i_glide_energy>
-40.3902

> <r_i_glide_erotb>
1.02339

> <r_i_glide_esite>
-0.171744

> <r_i_glide_evdw>
-33.8955

> <r_i_glide_gscore>
-5.94213

> <r_i_glide_hbond>
-0.456

> <r_i_glide_ligand_efficiency>
-0.212219

> <r_i_glide_ligand_efficiency_ln>
-1.37162

> <r_i_glide_ligand_efficiency_sa>
-0.644422

> <r_i_glide_lipo>
-1.82366

> <r_i_glide_metal>
0

> <r_i_glide_rewards>
-1.84514

> <s_i_glide_gridfile>
wee1_glide-grid

> <s_m_Source_File>
wee1_decoys_glide_SP.sdf

> <s_m_Source_Path>
/Users/zhangxujun/Desktop

> <s_m_entry_id>
5089

> <s_m_entry_name>
wee1_decoys_glide_SP.4814

> <s_m_subgroup_title>
wee1_decoys_glide_SP

> <s_m_subgroupid>
wee1_decoys_glide_SP


$$$$
