ZINC20218672_6170
                    3D
 Schrodinger Suite 2024-2.
 37 40  0  0  1  0            999 V2000
    1.1045   56.0291   30.8206 C   0  0  0  0  0  0
    1.6433   56.5168   29.6482 C   0  0  0  0  0  0
    1.8290   55.6711   28.5679 C   0  0  0  0  0  0
    1.4384   54.3277   28.6087 C   0  0  0  0  0  0
    0.8483   53.8374   29.7973 C   0  0  0  0  0  0
    0.6885   54.7027   30.8815 C   0  0  0  0  0  0
    0.4310   52.3782   29.9339 C   0  0  0  0  0  0
    0.2371   51.6961   28.5747 C   0  0  0  0  0  0
    1.4949   51.9607   27.7316 N   0  3  0  0  0  0
    1.6101   53.4443   27.3576 C   0  0  2  0  0  0
    0.7071   53.5832   26.7646 H   0  0  0  0  0  0
    2.8777   53.6400   26.5063 C   0  0  0  0  0  0
    2.8758   53.7819   25.1598 C   0  0  0  0  0  0
    4.1011   54.0460   24.3804 C   0  0  0  0  0  0
    4.1699   54.0967   22.9786 C   0  0  0  0  0  0
    5.3922   54.3226   22.3442 C   0  0  0  0  0  0
    6.5496   54.5060   23.1008 C   0  0  0  0  0  0
    6.4937   54.4486   24.4931 C   0  0  0  0  0  0
    5.2766   54.2005   25.1279 C   0  0  0  0  0  0
    5.2902   54.0985   26.5120 O   0  0  0  0  0  0
    4.1740   53.7006   27.2346 C   0  0  0  0  0  0
    4.3735   53.4523   28.4229 O   0  0  0  0  0  0
    1.7813   53.7075   24.4833 O   0  5  0  0  0  0
    1.0505   56.6804   31.6817 H   0  0  0  0  0  0
    1.9048   57.5597   29.5838 H   0  0  0  0  0  0
    2.2932   56.0720   27.6835 H   0  0  0  0  0  0
    0.2666   54.3316   31.8052 H   0  0  0  0  0  0
   -0.4798   52.2857   30.5301 H   0  0  0  0  0  0
    1.2034   51.8514   30.4947 H   0  0  0  0  0  0
   -0.6243   52.0771   28.0207 H   0  0  0  0  0  0
    0.1310   50.6151   28.6596 H   0  0  0  0  0  0
    1.4576   51.4247   26.8768 H   0  0  0  0  0  0
    3.2798   53.9614   22.3788 H   0  0  0  0  0  0
    5.4376   54.3618   21.2650 H   0  0  0  0  0  0
    7.4913   54.6909   22.6068 H   0  0  0  0  0  0
    7.3960   54.5787   25.0714 H   0  0  0  0  0  0
    2.3331   51.6907   28.2268 H   0  0  0  0  0  0
  1  6  2  0  0  0
  1  2  1  0  0  0
  1 24  1  0  0  0
  2  3  2  0  0  0
  2 25  1  0  0  0
  3  4  1  0  0  0
  3 26  1  0  0  0
  4 10  1  0  0  0
  4  5  2  0  0  0
  5  6  1  0  0  0
  5  7  1  0  0  0
  6 27  1  0  0  0
  7  8  1  0  0  0
  7 28  1  0  0  0
  7 29  1  0  0  0
  8  9  1  0  0  0
  8 30  1  0  0  0
  8 31  1  0  0  0
  9 10  1  0  0  0
  9 32  1  0  0  0
  9 37  1  0  0  0
 10 11  1  0  0  0
 10 12  1  0  0  0
 12 21  1  0  0  0
 12 13  2  0  0  0
 13 14  1  0  0  0
 13 23  1  0  0  0
 14 19  2  0  0  0
 14 15  1  0  0  0
 15 16  2  0  0  0
 15 33  1  0  0  0
 16 17  1  0  0  0
 16 34  1  0  0  0
 17 18  2  0  0  0
 17 35  1  0  0  0
 18 19  1  0  0  0
 18 36  1  0  0  0
 19 20  1  0  0  0
 20 21  1  0  0  0
 21 22  2  0  0  0
M  CHG  2   9   1  23  -1
M  END
> <i_i_glide_confnum>
3

> <i_i_glide_lignum>
6171

> <i_i_glide_posenum>
11

> <i_i_glide_rotatable_bonds>
1

> <i_m_Source_File_Index>
1714

> <b_m_subgroup_collapsed>
0

> <r_i_docking_score>
-6.98002

> <r_i_glide_ecoul>
-1.25394

> <r_i_glide_eff_state_penalty>
0

> <r_i_glide_einternal>
1.2567

> <r_i_glide_emodel>
-50.9478

> <r_i_glide_energy>
-35.7539

> <r_i_glide_erotb>
0.212367

> <r_i_glide_esite>
0

> <r_i_glide_evdw>
-34.5

> <r_i_glide_gscore>
-6.98002

> <r_i_glide_hbond>
0

> <r_i_glide_ligand_efficiency>
-0.317274

> <r_i_glide_ligand_efficiency_ln>
-1.70617

> <r_i_glide_ligand_efficiency_sa>
-0.889013

> <r_i_glide_lipo>
-3.80343

> <r_i_glide_metal>
0

> <r_i_glide_rewards>
-1.47587

> <s_i_glide_gridfile>
wee1_glide-grid

> <s_m_Source_File>
wee1_decoys_glide_SP.sdf

> <s_m_Source_Path>
/Users/zhangxujun/Desktop

> <s_m_entry_id>
1989

> <s_m_entry_name>
wee1_decoys_glide_SP.1714

> <s_m_subgroup_title>
wee1_decoys_glide_SP

> <s_m_subgroupid>
wee1_decoys_glide_SP


$$$$
