ZINC08692066_5510
                    3D
 Schrodinger Suite 2024-2.
 69 73  0  0  1  0            999 V2000
    1.8914   52.0687   19.2022 C   0  0  0  0  0  0
    0.5316   51.8774   19.8940 C   0  0  0  0  0  0
   -0.6103   52.0928   19.3595 N   0  0  0  0  0  0
   -0.6444   52.5742   18.1017 N   0  0  0  0  0  0
   -1.7948   52.9814   17.5318 C   0  0  0  0  0  0
   -2.8995   52.9033   18.0817 O   0  0  0  0  0  0
   -1.6712   53.6116   16.1266 C   0  0  2  0  0  0
   -0.7608   53.2758   15.6258 H   0  0  0  0  0  0
   -1.5662   55.1381   16.2625 C   0  0  0  0  0  0
   -0.3790   55.7022   16.7476 C   0  0  0  0  0  0
   -0.2640   57.0809   16.8814 C   0  0  0  0  0  0
   -1.3313   57.9022   16.5336 C   0  0  0  0  0  0
   -2.5226   57.3539   16.0659 C   0  0  0  0  0  0
   -2.6417   55.9739   15.9303 C   0  0  0  0  0  0
   -2.8067   53.2670   15.3180 O   0  0  0  0  0  0
   -2.8213   51.9375   14.8055 C   0  0  0  0  0  0
    0.5739   51.3497   21.2744 C   0  0  0  0  0  0
    1.5840   50.4746   21.6975 C   0  0  0  0  0  0
    1.5983   49.9755   22.9978 C   0  0  0  0  0  0
    0.6038   50.3427   23.9043 C   0  0  0  0  0  0
   -0.4330   51.2163   23.5056 C   0  0  0  0  0  0
   -0.4197   51.7067   22.1999 C   0  0  0  0  0  0
   -1.4994   51.6193   24.5209 C   0  0  1  0  0  0
   -1.1217   52.5122   25.0241 H   0  0  0  0  0  0
   -2.9329   51.8839   24.1063 C   0  0  0  0  0  0
   -3.7659   51.4740   25.0866 C   0  0  0  0  0  0
   -3.0027   50.7689   26.2012 C   0  0  0  0  0  0
   -1.6880   50.4617   25.4878 C   0  0  2  0  0  0
   -1.8971   49.5504   24.9163 H   0  0  0  0  0  0
   -0.3578   50.1678   26.2380 C   0  0  1  0  0  0
   -0.4906   49.2959   26.8779 H   0  0  0  0  0  0
    0.6492   49.8029   25.2176 N   0  0  0  0  0  0
    0.0300   51.2967   27.2045 C   0  0  0  0  0  0
    0.9581   52.2845   26.8606 C   0  0  0  0  0  0
    1.2359   53.3179   27.7476 C   0  0  0  0  0  0
    0.5943   53.3791   28.9952 C   0  0  0  0  0  0
   -0.2928   52.3602   29.3544 C   0  0  0  0  0  0
   -0.5792   51.3395   28.4594 C   0  0  0  0  0  0
    0.8088   54.5168   29.9439 C   0  0  0  0  0  0
    0.3042   54.5732   31.0684 O   0  0  0  0  0  0
    1.5790   55.4954   29.4208 O   0  0  0  0  0  0
    1.8366   56.6887   30.1396 C   0  0  0  0  0  0
    2.6511   52.4139   19.9047 H   0  0  0  0  0  0
    2.2418   51.1244   18.7804 H   0  0  0  0  0  0
    1.8664   52.7839   18.3771 H   0  0  0  0  0  0
    0.2476   52.6759   17.6440 H   0  0  0  0  0  0
    0.4638   55.0769   17.0187 H   0  0  0  0  0  0
    0.6536   57.5182   17.2514 H   0  0  0  0  0  0
   -1.2309   58.9752   16.6293 H   0  0  0  0  0  0
   -3.3507   57.9962   15.8023 H   0  0  0  0  0  0
   -3.5725   55.5587   15.5635 H   0  0  0  0  0  0
   -3.7179   51.7925   14.2013 H   0  0  0  0  0  0
   -1.9561   51.7508   14.1659 H   0  0  0  0  0  0
   -2.8350   51.1922   15.6031 H   0  0  0  0  0  0
    2.3700   50.1618   21.0208 H   0  0  0  0  0  0
    2.3850   49.2978   23.2903 H   0  0  0  0  0  0
   -1.2095   52.3851   21.9023 H   0  0  0  0  0  0
   -3.2023   52.4309   23.2171 H   0  0  0  0  0  0
   -4.8367   51.5985   25.1069 H   0  0  0  0  0  0
   -3.4900   49.8473   26.5278 H   0  0  0  0  0  0
   -2.8855   51.4044   27.0797 H   0  0  0  0  0  0
    1.3445   49.1205   25.4967 H   0  0  0  0  0  0
    1.4465   52.2662   25.8952 H   0  0  0  0  0  0
    1.9390   54.0784   27.4359 H   0  0  0  0  0  0
   -0.7942   52.3590   30.3142 H   0  0  0  0  0  0
   -1.3003   50.5816   28.7365 H   0  0  0  0  0  0
    2.5283   57.2959   29.5585 H   0  0  0  0  0  0
    0.9252   57.2649   30.3035 H   0  0  0  0  0  0
    2.2912   56.4850   31.1071 H   0  0  0  0  0  0
  1  2  1  0  0  0
  1 43  1  0  0  0
  1 44  1  0  0  0
  1 45  1  0  0  0
  2  3  2  0  0  0
  2 17  1  0  0  0
  3  4  1  0  0  0
  4  5  1  0  0  0
  4 46  1  0  0  0
  5  6  2  0  0  0
  5  7  1  0  0  0
  7  8  1  0  0  0
  7  9  1  0  0  0
  7 15  1  0  0  0
  9 14  2  0  0  0
  9 10  1  0  0  0
 10 11  2  0  0  0
 10 47  1  0  0  0
 11 12  1  0  0  0
 11 48  1  0  0  0
 12 13  2  0  0  0
 12 49  1  0  0  0
 13 14  1  0  0  0
 13 50  1  0  0  0
 14 51  1  0  0  0
 15 16  1  0  0  0
 16 52  1  0  0  0
 16 53  1  0  0  0
 16 54  1  0  0  0
 17 22  2  0  0  0
 17 18  1  0  0  0
 18 19  2  0  0  0
 18 55  1  0  0  0
 19 20  1  0  0  0
 19 56  1  0  0  0
 20 32  1  0  0  0
 20 21  2  0  0  0
 21 22  1  0  0  0
 21 23  1  0  0  0
 22 57  1  0  0  0
 23 24  1  0  0  0
 23 28  1  0  0  0
 23 25  1  0  0  0
 25 26  2  0  0  0
 25 58  1  0  0  0
 26 27  1  0  0  0
 26 59  1  0  0  0
 27 28  1  0  0  0
 27 60  1  0  0  0
 27 61  1  0  0  0
 28 29  1  0  0  0
 28 30  1  0  0  0
 30 31  1  0  0  0
 30 32  1  0  0  0
 30 33  1  0  0  0
 32 62  1  0  0  0
 33 38  2  0  0  0
 33 34  1  0  0  0
 34 35  2  0  0  0
 34 63  1  0  0  0
 35 36  1  0  0  0
 35 64  1  0  0  0
 36 37  2  0  0  0
 36 39  1  0  0  0
 37 38  1  0  0  0
 37 65  1  0  0  0
 38 66  1  0  0  0
 39 40  2  0  0  0
 39 41  1  0  0  0
 41 42  1  0  0  0
 42 67  1  0  0  0
 42 68  1  0  0  0
 42 69  1  0  0  0
M  END
> <i_i_glide_confnum>
44

> <i_i_glide_lignum>
5511

> <i_i_glide_posenum>
93

> <i_i_glide_rotatable_bonds>
9

> <i_m_Source_File_Index>
3046

> <b_m_subgroup_collapsed>
0

> <r_i_docking_score>
-4.36523

> <r_i_glide_ecoul>
-7.76329

> <r_i_glide_eff_state_penalty>
0

> <r_i_glide_einternal>
5.72043

> <r_i_glide_emodel>
-56.6959

> <r_i_glide_energy>
-47.0663

> <r_i_glide_erotb>
0.473206

> <r_i_glide_esite>
-0.0707901

> <r_i_glide_evdw>
-39.303

> <r_i_glide_gscore>
-4.36523

> <r_i_glide_hbond>
-0.0612775

> <r_i_glide_ligand_efficiency>
-0.114874

> <r_i_glide_ligand_efficiency_ln>
-0.941271

> <r_i_glide_ligand_efficiency_sa>
-0.386205

> <r_i_glide_lipo>
-1.21422

> <r_i_glide_metal>
0

> <r_i_glide_rewards>
-0.362501

> <s_i_glide_gridfile>
wee1_glide-grid

> <s_m_Source_File>
wee1_decoys_glide_SP.sdf

> <s_m_Source_Path>
/Users/zhangxujun/Desktop

> <s_m_entry_id>
3321

> <s_m_entry_name>
wee1_decoys_glide_SP.3046

> <s_m_subgroup_title>
wee1_decoys_glide_SP

> <s_m_subgroupid>
wee1_decoys_glide_SP


$$$$
