ZINC57523957_851
                    3D
 Schrodinger Suite 2024-2.
 65 67  0  0  1  0            999 V2000
    2.6288   46.2586   15.7131 C   0  0  0  0  0  0
    1.4980   46.6499   16.6732 C   0  0  2  0  0  0
    0.6375   46.9330   16.0671 H   0  0  0  0  0  0
    1.8915   47.8500   17.5677 C   0  0  0  0  0  0
    0.9358   48.0270   18.6780 N   0  0  0  0  0  0
    0.5893   46.8064   19.4238 C   0  0  0  0  0  0
    0.0783   45.7378   18.4421 C   0  0  2  0  0  0
   -0.0419   44.8016   18.9886 H   0  0  0  0  0  0
    1.1043   45.5165   17.4641 O   0  0  0  0  0  0
   -1.2912   46.0606   17.8115 C   0  0  0  0  0  0
    0.0380   49.5333   18.8762 S   0  0  0  0  0  0
   -0.9043   49.3731   19.9908 O   0  0  0  0  0  0
   -0.4366   49.9537   17.5506 O   0  0  0  0  0  0
    1.2808   50.7020   19.4084 C   0  0  0  0  0  0
    1.8166   51.6194   18.5030 C   0  0  0  0  0  0
    2.7713   52.5351   18.9326 C   0  0  0  0  0  0
    3.2154   52.5131   20.2558 C   0  0  0  0  0  0
    2.6938   51.5726   21.1558 C   0  0  0  0  0  0
    1.7253   50.6690   20.7304 C   0  0  0  0  0  0
    4.1280   53.5063   20.6422 N   0  0  0  0  0  0
    5.1045   53.3869   21.5625 C   0  0  0  0  0  0
    5.4203   52.3144   22.0808 O   0  0  0  0  0  0
    5.8611   54.6806   21.9421 C   0  0  0  0  0  0
    6.3585   54.6961   23.3072 N   0  0  0  0  0  0
    5.5916   54.6230   24.4857 C   0  0  0  0  0  0
    6.2687   54.6540   25.7023 C   0  0  0  0  0  0
    5.5747   54.4949   26.8990 C   0  0  0  0  0  0
    4.1820   54.2945   26.9060 C   0  0  0  0  0  0
    3.5059   54.3184   25.6790 C   0  0  0  0  0  0
    4.1996   54.4934   24.4842 C   0  0  0  0  0  0
    3.3869   54.0146   28.2108 C   0  0  0  0  0  0
    4.3056   53.9599   29.4536 C   0  0  0  0  0  0
    2.6902   52.6342   28.1253 C   0  0  0  0  0  0
    2.3007   55.0919   28.4525 C   0  0  0  0  0  0
    2.9376   47.1086   15.1043 H   0  0  0  0  0  0
    3.5039   45.9118   16.2598 H   0  0  0  0  0  0
    2.3138   45.4622   15.0434 H   0  0  0  0  0  0
    1.9058   48.7710   16.9848 H   0  0  0  0  0  0
    2.8773   47.7176   18.0209 H   0  0  0  0  0  0
    1.5006   46.4968   19.9295 H   0  0  0  0  0  0
   -0.1590   47.0329   20.1852 H   0  0  0  0  0  0
   -2.0662   46.1233   18.5761 H   0  0  0  0  0  0
   -1.2886   47.0133   17.2819 H   0  0  0  0  0  0
   -1.5863   45.2872   17.1044 H   0  0  0  0  0  0
    1.4912   51.6348   17.4729 H   0  0  0  0  0  0
    3.1672   53.2544   18.2318 H   0  0  0  0  0  0
    3.0096   51.5541   22.1875 H   0  0  0  0  0  0
    1.3153   49.9521   21.4299 H   0  0  0  0  0  0
    4.0397   54.3852   20.1545 H   0  0  0  0  0  0
    5.2851   55.5678   21.6812 H   0  0  0  0  0  0
    6.7030   54.6921   21.2491 H   0  0  0  0  0  0
    7.2673   55.1203   23.4454 H   0  0  0  0  0  0
    7.3425   54.7573   25.7240 H   0  0  0  0  0  0
    6.1553   54.5025   27.8088 H   0  0  0  0  0  0
    2.4377   54.1754   25.6382 H   0  0  0  0  0  0
    3.6386   54.4937   23.5620 H   0  0  0  0  0  0
    3.7628   53.6824   30.3574 H   0  0  0  0  0  0
    4.7919   54.9184   29.6479 H   0  0  0  0  0  0
    5.0890   53.2154   29.2926 H   0  0  0  0  0  0
    2.0432   52.5422   27.2510 H   0  0  0  0  0  0
    3.4214   51.8294   28.0816 H   0  0  0  0  0  0
    2.0654   52.4444   28.9989 H   0  0  0  0  0  0
    1.5336   55.0765   27.6809 H   0  0  0  0  0  0
    1.7825   54.9299   29.3999 H   0  0  0  0  0  0
    2.7078   56.0983   28.4822 H   0  0  0  0  0  0
  1  2  1  0  0  0
  1 35  1  0  0  0
  1 36  1  0  0  0
  1 37  1  0  0  0
  2  3  1  0  0  0
  2  9  1  0  0  0
  2  4  1  0  0  0
  4  5  1  0  0  0
  4 38  1  0  0  0
  4 39  1  0  0  0
  5  6  1  0  0  0
  5 11  1  0  0  0
  6  7  1  0  0  0
  6 40  1  0  0  0
  6 41  1  0  0  0
  7  8  1  0  0  0
  7  9  1  0  0  0
  7 10  1  0  0  0
 10 42  1  0  0  0
 10 43  1  0  0  0
 10 44  1  0  0  0
 11 12  2  0  0  0
 11 13  2  0  0  0
 11 14  1  0  0  0
 14 19  2  0  0  0
 14 15  1  0  0  0
 15 16  2  0  0  0
 15 45  1  0  0  0
 16 17  1  0  0  0
 16 46  1  0  0  0
 17 18  2  0  0  0
 17 20  1  0  0  0
 18 19  1  0  0  0
 18 47  1  0  0  0
 19 48  1  0  0  0
 20 21  1  0  0  0
 20 49  1  0  0  0
 21 22  2  0  0  0
 21 23  1  0  0  0
 23 24  1  0  0  0
 23 50  1  0  0  0
 23 51  1  0  0  0
 24 25  1  0  0  0
 24 52  1  0  0  0
 25 30  2  0  0  0
 25 26  1  0  0  0
 26 27  2  0  0  0
 26 53  1  0  0  0
 27 28  1  0  0  0
 27 54  1  0  0  0
 28 29  2  0  0  0
 28 31  1  0  0  0
 29 30  1  0  0  0
 29 55  1  0  0  0
 30 56  1  0  0  0
 31 32  1  0  0  0
 31 33  1  0  0  0
 31 34  1  0  0  0
 32 57  1  0  0  0
 32 58  1  0  0  0
 32 59  1  0  0  0
 33 60  1  0  0  0
 33 61  1  0  0  0
 33 62  1  0  0  0
 34 63  1  0  0  0
 34 64  1  0  0  0
 34 65  1  0  0  0
M  END
> <i_i_glide_confnum>
185

> <i_i_glide_lignum>
852

> <i_i_glide_posenum>
83

> <i_i_glide_rotatable_bonds>
8

> <i_m_Source_File_Index>
4425

> <b_m_subgroup_collapsed>
0

> <r_i_docking_score>
-4.66601

> <r_i_glide_ecoul>
-2.84589

> <r_i_glide_eff_state_penalty>
0

> <r_i_glide_einternal>
5.79916

> <r_i_glide_emodel>
-52.4167

> <r_i_glide_energy>
-41.4112

> <r_i_glide_erotb>
0.66681

> <r_i_glide_esite>
-0.0399692

> <r_i_glide_evdw>
-38.5653

> <r_i_glide_gscore>
-4.66601

> <r_i_glide_hbond>
-0.0193316

> <r_i_glide_ligand_efficiency>
-0.145813

> <r_i_glide_ligand_efficiency_ln>
-1.04485

> <r_i_glide_ligand_efficiency_sa>
-0.462927

> <r_i_glide_lipo>
-2.63785

> <r_i_glide_metal>
0

> <r_i_glide_rewards>
-0.280517

> <s_i_glide_gridfile>
wee1_glide-grid

> <s_m_Source_File>
wee1_decoys_glide_SP.sdf

> <s_m_Source_Path>
/Users/zhangxujun/Desktop

> <s_m_entry_id>
4700

> <s_m_entry_name>
wee1_decoys_glide_SP.4425

> <s_m_subgroup_title>
wee1_decoys_glide_SP

> <s_m_subgroupid>
wee1_decoys_glide_SP


$$$$
