ZINC08659243_2536
                    3D
 Schrodinger Suite 2024-2.
 42 44  0  0  1  0            999 V2000
   -6.8036   46.4972   29.6007 C   0  0  0  0  0  0
   -7.0223   45.6992   28.4815 C   0  0  0  0  0  0
   -6.0374   45.5972   27.5021 C   0  0  0  0  0  0
   -4.8282   46.2969   27.6279 C   0  0  0  0  0  0
   -4.6158   47.0801   28.7768 C   0  0  0  0  0  0
   -5.6012   47.1819   29.7555 C   0  0  0  0  0  0
   -3.7968   46.2118   26.5203 C   0  0  0  0  0  0
   -3.8413   45.2968   25.6883 O   0  0  0  0  0  0
   -2.8958   47.2166   26.4817 N   0  0  0  0  0  0
   -1.9046   47.2002   25.5063 N   0  0  0  0  0  0
   -1.8968   48.2064   24.6060 C   0  0  0  0  0  0
   -2.7944   49.0491   24.5011 O   0  0  0  0  0  0
   -0.6828   48.2478   23.6682 C   0  0  0  0  0  0
   -0.9383   49.2698   22.1763 S   0  0  0  0  0  0
   -0.1158   50.7286   22.7229 C   0  0  0  0  0  0
   -0.7310   51.8573   22.9792 N   0  0  0  0  0  0
    0.2408   52.8055   23.2813 N   0  0  0  0  0  0
    1.4055   52.2445   23.0706 C   0  0  0  0  0  0
    1.2502   50.9115   22.7492 N   0  0  0  0  0  0
    2.2406   49.9753   22.4807 N   0  0  0  0  0  0
    2.7029   52.9683   23.1535 C   0  0  0  0  0  0
    3.5990   52.9083   22.0816 C   0  0  0  0  0  0
    4.8311   53.5476   22.1705 C   0  0  0  0  0  0
    5.1690   54.2373   23.3332 C   0  0  0  0  0  0
    4.2693   54.3212   24.3954 C   0  0  0  0  0  0
    3.0283   53.6973   24.3003 C   0  0  0  0  0  0
    6.7040   55.0168   23.4516 Cl  0  0  0  0  0  0
   -7.5696   46.5820   30.3582 H   0  0  0  0  0  0
   -7.9562   45.1678   28.3678 H   0  0  0  0  0  0
   -6.2320   44.9829   26.6337 H   0  0  0  0  0  0
   -3.6960   47.6310   28.9268 H   0  0  0  0  0  0
   -5.4317   47.7946   30.6289 H   0  0  0  0  0  0
   -2.5633   47.6818   27.3281 H   0  0  0  0  0  0
   -1.0698   46.7116   25.8017 H   0  0  0  0  0  0
    0.1975   48.5701   24.2252 H   0  0  0  0  0  0
   -0.4962   47.2338   23.3230 H   0  0  0  0  0  0
    2.3038   49.2428   23.1763 H   0  0  0  0  0  0
    2.2101   49.6395   21.5284 H   0  0  0  0  0  0
    3.3431   52.3664   21.1825 H   0  0  0  0  0  0
    5.5163   53.5031   21.3379 H   0  0  0  0  0  0
    4.5317   54.8674   25.2894 H   0  0  0  0  0  0
    2.3337   53.7531   25.1261 H   0  0  0  0  0  0
  1  6  2  0  0  0
  1  2  1  0  0  0
  1 28  1  0  0  0
  2  3  2  0  0  0
  2 29  1  0  0  0
  3  4  1  0  0  0
  3 30  1  0  0  0
  4  5  2  0  0  0
  4  7  1  0  0  0
  5  6  1  0  0  0
  5 31  1  0  0  0
  6 32  1  0  0  0
  7  8  2  0  0  0
  7  9  1  0  0  0
  9 10  1  0  0  0
  9 33  1  0  0  0
 10 11  1  0  0  0
 10 34  1  0  0  0
 11 12  2  0  0  0
 11 13  1  0  0  0
 13 14  1  0  0  0
 13 35  1  0  0  0
 13 36  1  0  0  0
 14 15  1  0  0  0
 15 19  1  0  0  0
 15 16  2  0  0  0
 16 17  1  0  0  0
 17 18  2  0  0  0
 18 19  1  0  0  0
 18 21  1  0  0  0
 19 20  1  0  0  0
 20 37  1  0  0  0
 20 38  1  0  0  0
 21 26  2  0  0  0
 21 22  1  0  0  0
 22 23  2  0  0  0
 22 39  1  0  0  0
 23 24  1  0  0  0
 23 40  1  0  0  0
 24 25  2  0  0  0
 24 27  1  0  0  0
 25 26  1  0  0  0
 25 41  1  0  0  0
 26 42  1  0  0  0
M  END
> <i_i_glide_confnum>
133

> <i_i_glide_lignum>
2537

> <i_i_glide_posenum>
254

> <i_i_glide_rotatable_bonds>
8

> <i_m_Source_File_Index>
3146

> <b_m_subgroup_collapsed>
0

> <r_i_docking_score>
-5.8882

> <r_i_glide_ecoul>
-13.7595

> <r_i_glide_eff_state_penalty>
0

> <r_i_glide_einternal>
2.13008

> <r_i_glide_emodel>
-60.0308

> <r_i_glide_energy>
-41.9775

> <r_i_glide_erotb>
0.846575

> <r_i_glide_esite>
-0.320274

> <r_i_glide_evdw>
-28.218

> <r_i_glide_gscore>
-5.8882

> <r_i_glide_hbond>
-0.657723

> <r_i_glide_ligand_efficiency>
-0.218081

> <r_i_glide_ligand_efficiency_ln>
-1.37068

> <r_i_glide_ligand_efficiency_sa>
-0.654244

> <r_i_glide_lipo>
-1.30573

> <r_i_glide_metal>
0

> <r_i_glide_rewards>
-0.976229

> <s_i_glide_gridfile>
wee1_glide-grid

> <s_m_Source_File>
wee1_decoys_glide_SP.sdf

> <s_m_Source_Path>
/Users/zhangxujun/Desktop

> <s_m_entry_id>
3421

> <s_m_entry_name>
wee1_decoys_glide_SP.3146

> <s_m_subgroup_title>
wee1_decoys_glide_SP

> <s_m_subgroupid>
wee1_decoys_glide_SP


$$$$
