ZINC15946859_1218
                    3D
 Schrodinger Suite 2024-2.
 63 66  0  0  1  0            999 V2000
    6.7270   53.0388   17.9354 C   0  0  0  0  0  0
    5.5755   53.7810   17.2215 C   0  0  2  0  0  0
    4.8108   53.0873   16.8611 H   0  0  0  0  0  0
    6.1402   54.6436   16.0639 C   0  0  0  0  0  0
    5.1391   55.6580   15.4832 C   0  0  0  0  0  0
    4.5477   56.5422   16.5876 C   0  0  0  0  0  0
    3.8628   55.6938   17.6634 C   0  0  0  0  0  0
    4.1790   53.9019   19.4163 C   0  0  0  0  0  0
    4.7995   54.2929   20.7684 C   0  0  0  0  0  0
    5.8870   54.8713   20.8105 O   0  0  0  0  0  0
    4.0566   53.9513   21.8394 N   0  0  0  0  0  0
    4.3666   54.0506   23.2003 C   0  0  0  0  0  0
    3.4944   53.7598   24.2748 C   0  0  0  0  0  0
    4.0953   54.0493   25.5348 C   0  0  0  0  0  0
    5.4505   54.3854   25.4145 C   0  0  0  0  0  0
    5.9576   54.4979   23.7707 S   0  0  0  0  0  0
    6.3993   54.6314   26.5747 C   0  0  0  0  0  0
    5.8609   53.8782   27.8059 C   0  0  0  0  0  0
    4.3899   54.2316   28.0750 C   0  0  0  0  0  0
    3.4310   53.8777   26.9107 C   0  0  0  0  0  0
    2.1193   53.3006   24.1331 C   0  0  0  0  0  0
    1.2290   53.6966   24.8816 O   0  0  0  0  0  0
    1.9139   52.3955   23.1516 N   0  0  0  0  0  0
    0.6864   51.7641   22.8946 C   0  0  0  0  0  0
    0.1038   51.9859   21.6423 C   0  0  0  0  0  0
   -1.1221   51.4031   21.3249 C   0  0  0  0  0  0
   -1.7620   50.5847   22.2535 C   0  0  0  0  0  0
   -1.1749   50.3413   23.4932 C   0  0  0  0  0  0
    0.0622   50.9166   23.8345 C   0  0  0  0  0  0
    0.7031   50.6771   25.0387 O   0  0  0  0  0  0
    0.1141   49.7992   25.9976 C   0  0  0  0  0  0
   -1.8511   51.6966   19.7899 Cl  0  0  0  0  0  0
    7.2496   52.3774   17.2441 H   0  0  0  0  0  0
    6.3823   52.4093   18.7509 H   0  0  0  0  0  0
    7.4600   53.7303   18.3536 H   0  0  0  0  0  0
    7.0185   55.1939   16.4132 H   0  0  0  0  0  0
    6.4899   53.9895   15.2624 H   0  0  0  0  0  0
    5.6332   56.2776   14.7311 H   0  0  0  0  0  0
    4.3382   55.1280   14.9642 H   0  0  0  0  0  0
    5.3287   57.1596   17.0403 H   0  0  0  0  0  0
    3.8265   57.2400   16.1549 H   0  0  0  0  0  0
    3.5111   56.3304   18.4739 H   0  0  0  0  0  0
    3.0280   55.1156   17.2637 H   0  0  0  0  0  0
    3.1076   54.0954   19.3831 H   0  0  0  0  0  0
    4.3156   52.8340   19.2369 H   0  0  0  0  0  0
    3.1176   53.6424   21.6389 H   0  0  0  0  0  0
    7.4110   54.2952   26.3458 H   0  0  0  0  0  0
    6.4705   55.6963   26.7901 H   0  0  0  0  0  0
    5.9597   52.8003   27.6590 H   0  0  0  0  0  0
    6.4673   54.1191   28.6792 H   0  0  0  0  0  0
    4.0478   53.7411   28.9868 H   0  0  0  0  0  0
    4.3202   55.2964   28.2821 H   0  0  0  0  0  0
    2.5383   54.4963   26.9937 H   0  0  0  0  0  0
    3.0926   52.8465   27.0181 H   0  0  0  0  0  0
    2.6955   52.1019   22.5899 H   0  0  0  0  0  0
    0.5907   52.6271   20.9201 H   0  0  0  0  0  0
   -2.7132   50.1328   22.0110 H   0  0  0  0  0  0
   -1.6970   49.6918   24.1810 H   0  0  0  0  0  0
    0.7527   49.7351   26.8780 H   0  0  0  0  0  0
   -0.8596   50.1586   26.3306 H   0  0  0  0  0  0
    0.0001   48.7893   25.6009 H   0  0  0  0  0  0
    4.8800   54.6940   18.2742 N   0  3  1  0  0  0
    5.6147   55.2483   18.6997 H   0  0  0  0  0  0
  1  2  1  0  0  0
  1 33  1  0  0  0
  1 34  1  0  0  0
  1 35  1  0  0  0
  2  3  1  0  0  0
  2  4  1  0  0  0
  2 62  1  0  0  0
  4  5  1  0  0  0
  4 36  1  0  0  0
  4 37  1  0  0  0
  5  6  1  0  0  0
  5 38  1  0  0  0
  5 39  1  0  0  0
  6  7  1  0  0  0
  6 40  1  0  0  0
  6 41  1  0  0  0
  7 42  1  0  0  0
  7 43  1  0  0  0
  7 62  1  0  0  0
  8  9  1  0  0  0
  8 44  1  0  0  0
  8 45  1  0  0  0
  8 62  1  0  0  0
  9 10  2  0  0  0
  9 11  1  0  0  0
 11 12  1  0  0  0
 11 46  1  0  0  0
 12 16  1  0  0  0
 12 13  2  0  0  0
 13 14  1  0  0  0
 13 21  1  0  0  0
 14 20  1  0  0  0
 14 15  2  0  0  0
 15 16  1  0  0  0
 15 17  1  0  0  0
 17 18  1  0  0  0
 17 47  1  0  0  0
 17 48  1  0  0  0
 18 19  1  0  0  0
 18 49  1  0  0  0
 18 50  1  0  0  0
 19 20  1  0  0  0
 19 51  1  0  0  0
 19 52  1  0  0  0
 20 53  1  0  0  0
 20 54  1  0  0  0
 21 22  2  0  0  0
 21 23  1  0  0  0
 23 24  1  0  0  0
 23 55  1  0  0  0
 24 29  2  0  0  0
 24 25  1  0  0  0
 25 26  2  0  0  0
 25 56  1  0  0  0
 26 27  1  0  0  0
 26 32  1  0  0  0
 27 28  2  0  0  0
 27 57  1  0  0  0
 28 29  1  0  0  0
 28 58  1  0  0  0
 29 30  1  0  0  0
 30 31  1  0  0  0
 31 59  1  0  0  0
 31 60  1  0  0  0
 31 61  1  0  0  0
 62 63  1  0  0  0
M  CHG  1  62   1
M  END
> <i_i_glide_confnum>
54

> <i_i_glide_lignum>
1219

> <i_i_glide_posenum>
389

> <i_i_glide_rotatable_bonds>
8

> <i_m_Source_File_Index>
5959

> <b_m_subgroup_collapsed>
0

> <r_i_docking_score>
-5.53585

> <r_i_glide_ecoul>
-5.81618

> <r_i_glide_eff_state_penalty>
0

> <r_i_glide_einternal>
5.37788

> <r_i_glide_emodel>
-61.7024

> <r_i_glide_energy>
-46.4769

> <r_i_glide_erotb>
0.623022

> <r_i_glide_esite>
0

> <r_i_glide_evdw>
-40.6607

> <r_i_glide_gscore>
-5.53585

> <r_i_glide_hbond>
0

> <r_i_glide_ligand_efficiency>
-0.172995

> <r_i_glide_ligand_efficiency_ln>
-1.23963

> <r_i_glide_ligand_efficiency_sa>
-0.549226

> <r_i_glide_lipo>
-2.60627

> <r_i_glide_metal>
0

> <r_i_glide_rewards>
-0.647134

> <s_i_glide_gridfile>
wee1_glide-grid

> <s_m_Source_File>
wee1_decoys_glide_SP.sdf

> <s_m_Source_Path>
/Users/zhangxujun/Desktop

> <s_m_entry_id>
6234

> <s_m_entry_name>
wee1_decoys_glide_SP.5959

> <s_m_subgroup_title>
wee1_decoys_glide_SP

> <s_m_subgroupid>
wee1_decoys_glide_SP


$$$$
