ZINC39673276_3076
                    3D
 Schrodinger Suite 2024-2.
 60 63  0  0  1  0            999 V2000
    6.0664   53.7064   28.1275 C   0  0  0  0  0  0
    6.2635   53.7145   26.7488 C   0  0  0  0  0  0
    5.2432   54.1003   25.8606 C   0  0  0  0  0  0
    4.0202   54.5087   26.4224 C   0  0  0  0  0  0
    3.8165   54.4963   27.8027 C   0  0  0  0  0  0
    4.8389   54.0931   28.6556 C   0  0  0  0  0  0
    2.1555   55.0878   28.5211 Br  0  0  0  0  0  0
    5.5419   54.0971   24.3643 C   0  0  0  0  0  0
    6.7159   54.2492   24.0202 O   0  0  0  0  0  0
    4.5796   53.8602   23.4257 N   0  0  0  0  0  0
    3.1448   53.6893   23.6327 C   0  0  0  0  0  0
    2.5738   53.3865   22.2269 C   0  0  1  0  0  0
    2.1136   54.3335   21.9643 H   0  0  0  0  0  0
    3.7687   53.0390   21.2824 C   0  0  0  0  0  0
    4.9347   53.7499   22.0071 C   0  0  0  0  0  0
    4.1105   51.5203   21.1248 C   0  0  0  0  0  0
    3.1427   50.7199   20.2130 C   0  0  0  0  0  0
    3.1044   51.3959   18.8358 N   0  3  0  0  0  0
    2.7280   52.8895   18.9080 C   0  0  0  0  0  0
    3.7343   53.5957   19.8304 C   0  0  0  0  0  0
    1.4069   52.3769   22.3466 C   0  0  0  0  0  0
    0.4463   52.4964   21.5872 O   0  0  0  0  0  0
    1.4960   51.3668   23.2350 N   0  0  0  0  0  0
    0.4599   50.3657   23.4899 C   0  0  0  0  0  0
   -0.6369   50.8639   24.4244 C   0  0  0  0  0  0
   -1.6865   51.6391   23.9230 C   0  0  0  0  0  0
   -2.7139   52.0517   24.7662 C   0  0  0  0  0  0
   -2.7184   51.6707   26.1069 C   0  0  0  0  0  0
   -1.6659   50.8971   26.6097 C   0  0  0  0  0  0
   -0.6344   50.4864   25.7698 C   0  0  0  0  0  0
   -3.7751   52.0955   26.8818 O   0  0  0  0  0  0
   -4.3997   51.1385   27.7379 C   0  0  0  0  0  0
   -3.6936   50.8965   28.8420 F   0  0  0  0  0  0
   -4.7210   50.0065   27.1077 F   0  0  0  0  0  0
    6.8690   53.4083   28.7862 H   0  0  0  0  0  0
    7.2253   53.3979   26.3736 H   0  0  0  0  0  0
    3.2124   54.8957   25.8328 H   0  0  0  0  0  0
    4.6882   54.0984   29.7240 H   0  0  0  0  0  0
    2.6827   54.6150   23.9739 H   0  0  0  0  0  0
    3.0292   52.8749   24.3480 H   0  0  0  0  0  0
    5.9026   53.3053   21.7798 H   0  0  0  0  0  0
    4.9809   54.7810   21.6503 H   0  0  0  0  0  0
    5.1056   51.4219   20.6892 H   0  0  0  0  0  0
    4.1919   51.0257   22.0817 H   0  0  0  0  0  0
    3.5032   49.7101   20.0141 H   0  0  0  0  0  0
    2.1116   50.6433   20.5495 H   0  0  0  0  0  0
    4.0362   51.2526   18.4302 H   0  0  0  0  0  0
    2.7643   53.2672   17.8850 H   0  0  0  0  0  0
    1.7013   52.9410   19.2747 H   0  0  0  0  0  0
    3.5076   54.6624   19.8460 H   0  0  0  0  0  0
    4.7246   53.5260   19.3748 H   0  0  0  0  0  0
    2.3024   51.3270   23.8384 H   0  0  0  0  0  0
    0.9327   49.4794   23.9176 H   0  0  0  0  0  0
    0.0049   50.0377   22.5523 H   0  0  0  0  0  0
   -1.7101   51.9211   22.8807 H   0  0  0  0  0  0
   -3.5227   52.6517   24.3769 H   0  0  0  0  0  0
   -1.6472   50.5841   27.6437 H   0  0  0  0  0  0
    0.1537   49.8651   26.1720 H   0  0  0  0  0  0
   -5.3429   51.5609   28.0842 H   0  0  0  0  0  0
    2.4766   50.8961   18.2204 H   0  0  0  0  0  0
  1  6  2  0  0  0
  1  2  1  0  0  0
  1 35  1  0  0  0
  2  3  2  0  0  0
  2 36  1  0  0  0
  3  4  1  0  0  0
  3  8  1  0  0  0
  4  5  2  0  0  0
  4 37  1  0  0  0
  5  6  1  0  0  0
  5  7  1  0  0  0
  6 38  1  0  0  0
  8  9  2  0  0  0
  8 10  1  0  0  0
 10 15  1  0  0  0
 10 11  1  0  0  0
 11 12  1  0  0  0
 11 39  1  0  0  0
 11 40  1  0  0  0
 12 13  1  0  0  0
 12 14  1  0  0  0
 12 21  1  0  0  0
 14 20  1  0  0  0
 14 15  1  0  0  0
 14 16  1  0  0  0
 15 41  1  0  0  0
 15 42  1  0  0  0
 16 17  1  0  0  0
 16 43  1  0  0  0
 16 44  1  0  0  0
 17 18  1  0  0  0
 17 45  1  0  0  0
 17 46  1  0  0  0
 18 19  1  0  0  0
 18 47  1  0  0  0
 18 60  1  0  0  0
 19 20  1  0  0  0
 19 48  1  0  0  0
 19 49  1  0  0  0
 20 50  1  0  0  0
 20 51  1  0  0  0
 21 22  2  0  0  0
 21 23  1  0  0  0
 23 24  1  0  0  0
 23 52  1  0  0  0
 24 25  1  0  0  0
 24 53  1  0  0  0
 24 54  1  0  0  0
 25 30  2  0  0  0
 25 26  1  0  0  0
 26 27  2  0  0  0
 26 55  1  0  0  0
 27 28  1  0  0  0
 27 56  1  0  0  0
 28 29  2  0  0  0
 28 31  1  0  0  0
 29 30  1  0  0  0
 29 57  1  0  0  0
 30 58  1  0  0  0
 31 32  1  0  0  0
 32 33  1  0  0  0
 32 34  1  0  0  0
 32 59  1  0  0  0
M  CHG  1  18   1
M  END
> <i_i_glide_confnum>
82

> <i_i_glide_lignum>
3077

> <i_i_glide_posenum>
21

> <i_i_glide_rotatable_bonds>
8

> <i_m_Source_File_Index>
5477

> <b_m_subgroup_collapsed>
0

> <r_i_docking_score>
-5.50862

> <r_i_glide_ecoul>
-4.41484

> <r_i_glide_eff_state_penalty>
0

> <r_i_glide_einternal>
6.09733

> <r_i_glide_emodel>
-57.1915

> <r_i_glide_energy>
-46.7427

> <r_i_glide_erotb>
0.525628

> <r_i_glide_esite>
-0.217486

> <r_i_glide_evdw>
-42.3279

> <r_i_glide_gscore>
-5.50862

> <r_i_glide_hbond>
-0.2

> <r_i_glide_ligand_efficiency>
-0.166928

> <r_i_glide_ligand_efficiency_ln>
-1.22509

> <r_i_glide_ligand_efficiency_sa>
-0.535427

> <r_i_glide_lipo>
-2.4867

> <r_i_glide_metal>
0

> <r_i_glide_rewards>
-0.351441

> <s_i_glide_gridfile>
wee1_glide-grid

> <s_m_Source_File>
wee1_decoys_glide_SP.sdf

> <s_m_Source_Path>
/Users/zhangxujun/Desktop

> <s_m_entry_id>
5752

> <s_m_entry_name>
wee1_decoys_glide_SP.5477

> <s_m_subgroup_title>
wee1_decoys_glide_SP

> <s_m_subgroupid>
wee1_decoys_glide_SP


$$$$
