ZINC58994039_3035
                    3D
 Schrodinger Suite 2024-2.
 49 51  0  0  1  0            999 V2000
    1.4055   50.3442   23.6598 C   0  0  0  0  0  0
    1.9045   51.4949   23.1801 C   0  0  0  0  0  0
    1.4172   52.8783   23.5611 C   0  0  0  0  0  0
    2.4366   53.6991   24.8169 S   0  0  0  0  0  0
    4.0406   54.0969   24.1372 C   0  0  0  0  0  0
    4.2222   54.0958   22.7478 C   0  0  0  0  0  0
    5.4711   54.3675   22.1933 C   0  0  0  0  0  0
    6.5497   54.6486   23.0234 C   0  0  0  0  0  0
    6.3863   54.6506   24.4062 C   0  0  0  0  0  0
    5.1357   54.3681   24.9869 C   0  0  0  0  0  0
    4.9141   54.3148   26.3842 N   0  0  0  0  0  0
    5.7880   54.3781   27.4112 C   0  0  0  0  0  0
    7.0074   54.4897   27.2815 O   0  0  0  0  0  0
    5.2177   54.2814   28.8355 C   0  0  0  0  0  0
    3.5052   54.8967   29.0844 S   0  0  0  0  0  0
    2.5133   53.4454   28.9663 C   0  0  0  0  0  0
    1.1876   53.5369   29.0000 N   0  0  0  0  0  0
    0.8123   52.2998   28.8112 C   0  0  0  0  0  0
    1.9040   51.5005   28.6901 N   0  0  0  0  0  0
    3.0093   52.2312   28.8150 N   0  0  0  0  0  0
   -0.4631   51.8188   28.6640 N   0  0  0  0  0  0
   -1.0341   51.6986   27.4001 N   0  0  0  0  0  0
   -2.0778   50.9864   27.2905 C   0  0  0  0  0  0
   -2.7413   50.7432   26.0037 C   0  0  0  0  0  0
   -3.9002   49.9561   25.9486 C   0  0  0  0  0  0
   -4.5332   49.7044   24.7295 C   0  0  0  0  0  0
   -4.0079   50.2263   23.5471 C   0  0  0  0  0  0
   -2.8528   51.0051   23.5838 C   0  0  0  0  0  0
   -2.2342   51.2659   24.8044 C   0  0  0  0  0  0
   -2.0952   51.6963   21.9785 Br  0  0  0  0  0  0
    0.5973   50.3355   24.3775 H   0  0  0  0  0  0
    1.8032   49.3912   23.3412 H   0  0  0  0  0  0
    2.7115   51.4566   22.4620 H   0  0  0  0  0  0
    1.3138   53.5095   22.6780 H   0  0  0  0  0  0
    0.4199   52.7956   23.9843 H   0  0  0  0  0  0
    3.4028   53.8895   22.0782 H   0  0  0  0  0  0
    5.5972   54.3646   21.1195 H   0  0  0  0  0  0
    7.5147   54.8711   22.5944 H   0  0  0  0  0  0
    7.2597   54.8779   24.9934 H   0  0  0  0  0  0
    3.9451   54.1780   26.6345 H   0  0  0  0  0  0
    5.3331   53.2618   29.1969 H   0  0  0  0  0  0
    5.8571   54.8970   29.4713 H   0  0  0  0  0  0
   -0.9005   51.2383   29.3681 H   0  0  0  0  0  0
   -2.5342   50.4970   28.1488 H   0  0  0  0  0  0
   -4.3112   49.5267   26.8511 H   0  0  0  0  0  0
   -5.4261   49.0970   24.7028 H   0  0  0  0  0  0
   -4.4932   50.0237   22.6034 H   0  0  0  0  0  0
   -1.3439   51.8734   24.8113 H   0  0  0  0  0  0
    1.8950   50.5090   28.5045 H   0  0  0  0  0  0
  1  2  2  0  0  0
  1 31  1  0  0  0
  1 32  1  0  0  0
  2  3  1  0  0  0
  2 33  1  0  0  0
  3  4  1  0  0  0
  3 34  1  0  0  0
  3 35  1  0  0  0
  4  5  1  0  0  0
  5 10  2  0  0  0
  5  6  1  0  0  0
  6  7  2  0  0  0
  6 36  1  0  0  0
  7  8  1  0  0  0
  7 37  1  0  0  0
  8  9  2  0  0  0
  8 38  1  0  0  0
  9 10  1  0  0  0
  9 39  1  0  0  0
 10 11  1  0  0  0
 11 12  1  0  0  0
 11 40  1  0  0  0
 12 13  2  0  0  0
 12 14  1  0  0  0
 14 15  1  0  0  0
 14 41  1  0  0  0
 14 42  1  0  0  0
 15 16  1  0  0  0
 16 20  2  0  0  0
 16 17  1  0  0  0
 17 18  2  0  0  0
 18 19  1  0  0  0
 18 21  1  0  0  0
 19 20  1  0  0  0
 19 49  1  0  0  0
 21 22  1  0  0  0
 21 43  1  0  0  0
 22 23  2  0  0  0
 23 24  1  0  0  0
 23 44  1  0  0  0
 24 29  2  0  0  0
 24 25  1  0  0  0
 25 26  2  0  0  0
 25 45  1  0  0  0
 26 27  1  0  0  0
 26 46  1  0  0  0
 27 28  2  0  0  0
 27 47  1  0  0  0
 28 29  1  0  0  0
 28 30  1  0  0  0
 29 48  1  0  0  0
M  END
> <i_i_glide_confnum>
75

> <i_i_glide_lignum>
3036

> <i_i_glide_posenum>
51

> <i_i_glide_rotatable_bonds>
11

> <i_m_Source_File_Index>
1423

> <b_m_subgroup_collapsed>
0

> <r_i_docking_score>
-5.9244

> <r_i_glide_ecoul>
-4.39246

> <r_i_glide_eff_state_penalty>
0

> <r_i_glide_einternal>
2.3619

> <r_i_glide_emodel>
-72.1659

> <r_i_glide_energy>
-53.5657

> <r_i_glide_erotb>
0.806461

> <r_i_glide_esite>
-0.143302

> <r_i_glide_evdw>
-49.1733

> <r_i_glide_gscore>
-5.9244

> <r_i_glide_hbond>
-0.0521744

> <r_i_glide_ligand_efficiency>
-0.19748

> <r_i_glide_ligand_efficiency_ln>
-1.34609

> <r_i_glide_ligand_efficiency_sa>
-0.613617

> <r_i_glide_lipo>
-2.49459

> <r_i_glide_metal>
0

> <r_i_glide_rewards>
-0.92327

> <s_i_glide_gridfile>
wee1_glide-grid

> <s_m_Source_File>
wee1_decoys_glide_SP.sdf

> <s_m_Source_Path>
/Users/zhangxujun/Desktop

> <s_m_entry_id>
1698

> <s_m_entry_name>
wee1_decoys_glide_SP.1423

> <s_m_subgroup_title>
wee1_decoys_glide_SP

> <s_m_subgroupid>
wee1_decoys_glide_SP


$$$$
