ZINC40177531_2265
                    3D
 Schrodinger Suite 2024-2.
 53 56  0  0  1  0            999 V2000
    5.0381   53.4501   21.2088 C   0  0  0  0  0  0
    5.4991   53.5534   22.5153 C   0  0  0  0  0  0
    6.4224   54.5409   22.8705 C   0  0  0  0  0  0
    6.9250   55.3888   21.8849 C   0  0  0  0  0  0
    6.4599   55.2966   20.5727 C   0  0  0  0  0  0
    5.5048   54.3272   20.2320 C   0  0  0  0  0  0
    5.0130   54.1432   18.9316 N   0  0  0  0  0  0
    5.2955   55.0529   17.8328 C   0  0  1  0  0  0
    6.3720   55.1251   17.6608 H   0  0  0  0  0  0
    4.7712   54.5212   16.4818 C   0  0  0  0  0  0
    4.9375   55.6042   15.4049 C   0  0  0  0  0  0
    4.6359   57.2188   16.3007 S   0  0  0  0  0  0
    3.2683   57.6867   16.0579 O   0  0  0  0  0  0
    5.7883   58.0953   16.0727 O   0  0  0  0  0  0
    4.7277   56.4708   18.0117 C   0  0  0  0  0  0
    6.8571   54.6980   24.1737 O   0  0  0  0  0  0
    5.9783   54.6081   25.2366 C   0  0  0  0  0  0
    4.6171   54.8900   25.1016 C   0  0  0  0  0  0
    3.7578   54.7275   26.1719 C   0  0  0  0  0  0
    4.2486   54.3392   27.4214 C   0  0  0  0  0  0
    5.6132   54.1012   27.5777 C   0  0  0  0  0  0
    6.4702   54.2325   26.4873 C   0  0  0  0  0  0
    3.4096   54.1781   28.5344 N   0  0  0  0  0  0
    1.9608   54.1716   28.3709 C   0  0  1  0  0  0
    1.6782   55.0876   27.8477 H   0  0  0  0  0  0
    1.4335   52.9028   27.6529 C   0  0  0  0  0  0
    1.4011   51.7252   28.6317 C   0  0  0  0  0  0
    0.9432   52.4979   30.2648 S   0  0  0  0  0  0
   -0.4955   52.3571   30.4816 O   0  0  0  0  0  0
    1.9247   52.0969   31.2783 O   0  0  0  0  0  0
    1.2774   54.2544   29.7325 C   0  0  0  0  0  0
    4.3099   52.6922   20.9598 H   0  0  0  0  0  0
    5.1102   52.8966   23.2736 H   0  0  0  0  0  0
    7.6748   56.1194   22.1481 H   0  0  0  0  0  0
    6.8697   55.9588   19.8262 H   0  0  0  0  0  0
    4.7169   53.2072   18.6856 H   0  0  0  0  0  0
    3.7169   54.2528   16.5780 H   0  0  0  0  0  0
    5.2908   53.6049   16.1956 H   0  0  0  0  0  0
    4.3172   55.5346   14.5131 H   0  0  0  0  0  0
    5.9806   55.6123   15.0889 H   0  0  0  0  0  0
    5.2109   57.1465   18.7120 H   0  0  0  0  0  0
    3.6976   56.3565   18.3461 H   0  0  0  0  0  0
    4.2059   55.2022   24.1542 H   0  0  0  0  0  0
    2.7076   54.8959   25.9987 H   0  0  0  0  0  0
    6.0144   53.8069   28.5370 H   0  0  0  0  0  0
    7.5157   54.0244   26.6160 H   0  0  0  0  0  0
    3.7769   53.6115   29.2849 H   0  0  0  0  0  0
    0.4352   53.1032   27.2617 H   0  0  0  0  0  0
    2.0364   52.6452   26.7805 H   0  0  0  0  0  0
    0.7301   50.8969   28.4047 H   0  0  0  0  0  0
    2.4120   51.3309   28.7306 H   0  0  0  0  0  0
    1.7385   54.8588   30.5077 H   0  0  0  0  0  0
    0.3047   54.7094   29.5659 H   0  0  0  0  0  0
  1  6  2  0  0  0
  1  2  1  0  0  0
  1 32  1  0  0  0
  2  3  2  0  0  0
  2 33  1  0  0  0
  3  4  1  0  0  0
  3 16  1  0  0  0
  4  5  2  0  0  0
  4 34  1  0  0  0
  5  6  1  0  0  0
  5 35  1  0  0  0
  6  7  1  0  0  0
  7  8  1  0  0  0
  7 36  1  0  0  0
  8  9  1  0  0  0
  8 15  1  0  0  0
  8 10  1  0  0  0
 10 11  1  0  0  0
 10 37  1  0  0  0
 10 38  1  0  0  0
 11 12  1  0  0  0
 11 39  1  0  0  0
 11 40  1  0  0  0
 12 13  2  0  0  0
 12 14  2  0  0  0
 12 15  1  0  0  0
 15 41  1  0  0  0
 15 42  1  0  0  0
 16 17  1  0  0  0
 17 22  2  0  0  0
 17 18  1  0  0  0
 18 19  2  0  0  0
 18 43  1  0  0  0
 19 20  1  0  0  0
 19 44  1  0  0  0
 20 21  2  0  0  0
 20 23  1  0  0  0
 21 22  1  0  0  0
 21 45  1  0  0  0
 22 46  1  0  0  0
 23 24  1  0  0  0
 23 47  1  0  0  0
 24 25  1  0  0  0
 24 31  1  0  0  0
 24 26  1  0  0  0
 26 27  1  0  0  0
 26 48  1  0  0  0
 26 49  1  0  0  0
 27 28  1  0  0  0
 27 50  1  0  0  0
 27 51  1  0  0  0
 28 29  2  0  0  0
 28 30  2  0  0  0
 28 31  1  0  0  0
 31 52  1  0  0  0
 31 53  1  0  0  0
M  END
> <i_i_glide_confnum>
248

> <i_i_glide_lignum>
2266

> <i_i_glide_posenum>
367

> <i_i_glide_rotatable_bonds>
6

> <i_m_Source_File_Index>
6080

> <b_m_subgroup_collapsed>
0

> <r_i_docking_score>
-5.66935

> <r_i_glide_ecoul>
1.85304

> <r_i_glide_eff_state_penalty>
0

> <r_i_glide_einternal>
2.00028

> <r_i_glide_emodel>
-58.7432

> <r_i_glide_energy>
-43.8384

> <r_i_glide_erotb>
0.627594

> <r_i_glide_esite>
-0.243389

> <r_i_glide_evdw>
-45.6914

> <r_i_glide_gscore>
-5.66935

> <r_i_glide_hbond>
0

> <r_i_glide_ligand_efficiency>
-0.195495

> <r_i_glide_ligand_efficiency_ln>
-1.29814

> <r_i_glide_ligand_efficiency_sa>
-0.600622

> <r_i_glide_lipo>
-3.61445

> <r_i_glide_metal>
0

> <r_i_glide_rewards>
-0.432495

> <s_i_glide_gridfile>
wee1_glide-grid

> <s_m_Source_File>
wee1_decoys_glide_SP.sdf

> <s_m_Source_Path>
/Users/zhangxujun/Desktop

> <s_m_entry_id>
6355

> <s_m_entry_name>
wee1_decoys_glide_SP.6080

> <s_m_subgroup_title>
wee1_decoys_glide_SP

> <s_m_subgroupid>
wee1_decoys_glide_SP


$$$$
