ZINC11812975_3047
                    3D
 Schrodinger Suite 2024-2.
 69 74  0  0  1  0            999 V2000
    3.1074   54.6008   28.3568 C   0  0  0  0  0  0
    1.8245   54.6582   28.9173 C   0  0  0  0  0  0
    1.5239   53.7459   29.9211 C   0  0  0  0  0  0
    2.4339   52.8213   30.3489 C   0  0  0  0  0  0
    3.7167   52.7493   29.8173 C   0  0  0  0  0  0
    4.0608   53.6628   28.8061 C   0  0  0  0  0  0
    5.4600   53.6330   28.1998 C   0  0  0  0  0  0
    5.4583   53.6995   26.7382 N   0  0  0  0  0  0
    6.0495   54.6545   25.9991 C   0  0  0  0  0  0
    6.7046   55.5825   26.4652 O   0  0  0  0  0  0
    5.8504   54.5150   24.5830 C   0  0  0  0  0  0
    4.8131   53.9228   23.8679 C   0  0  0  0  0  0
    5.1256   54.0964   22.4908 C   0  0  0  0  0  0
    4.5617   53.6791   21.2819 C   0  0  0  0  0  0
    5.1625   54.0613   20.0683 C   0  0  0  0  0  0
    6.2976   54.8951   20.0933 C   0  0  0  0  0  0
    6.8866   55.3253   21.2850 C   0  0  0  0  0  0
    6.2868   54.8965   22.4707 C   0  0  0  0  0  0
    6.7045   55.1751   23.7412 O   0  0  0  0  0  0
    4.6265   53.5675   18.7025 C   0  0  2  0  0  0
    4.1448   54.7767   17.8531 C   0  0  0  0  0  0
    3.4257   54.4251   16.5359 C   0  0  0  0  0  0
    2.8052   52.1612   17.4718 C   0  0  0  0  0  0
    3.4588   52.5406   18.8085 C   0  0  0  0  0  0
    1.4104   53.1710   15.5858 C   0  0  0  0  0  0
   -0.0808   53.5057   15.8381 C   0  0  2  0  0  0
   -0.5978   53.3129   14.8953 H   0  0  0  0  0  0
   -0.3156   54.9918   16.2091 C   0  0  0  0  0  0
   -1.8173   55.3537   16.2338 C   0  0  0  0  0  0
   -2.6142   54.2800   16.9665 C   0  0  0  0  0  0
   -2.1257   53.0650   17.2852 C   0  0  0  0  0  0
   -0.7309   52.5777   16.9048 C   0  0  0  0  0  0
    5.6391   52.8972   17.9729 O   0  0  0  0  0  0
    1.8980   52.0968   31.3639 O   0  0  0  0  0  0
    0.5550   52.4985   31.4623 C   0  0  0  0  0  0
    0.3854   53.6346   30.6533 O   0  0  0  0  0  0
    3.3688   55.2965   27.5745 H   0  0  0  0  0  0
    1.1061   55.3915   28.5807 H   0  0  0  0  0  0
    4.4308   52.0263   30.1820 H   0  0  0  0  0  0
    6.0307   54.4508   28.6488 H   0  0  0  0  0  0
    5.9787   52.7165   28.4811 H   0  0  0  0  0  0
    5.0663   52.9016   26.2594 H   0  0  0  0  0  0
    3.9716   53.3939   24.2909 H   0  0  0  0  0  0
    3.6866   53.0530   21.3208 H   0  0  0  0  0  0
    6.7616   55.1815   19.1596 H   0  0  0  0  0  0
    7.7804   55.9313   21.2963 H   0  0  0  0  0  0
    3.5161   55.4208   18.4703 H   0  0  0  0  0  0
    4.9959   55.4175   17.6225 H   0  0  0  0  0  0
    4.0822   53.9313   15.8160 H   0  0  0  0  0  0
    2.9916   55.3236   16.0935 H   0  0  0  0  0  0
    3.4988   51.6971   16.7664 H   0  0  0  0  0  0
    1.9630   51.4898   17.6426 H   0  0  0  0  0  0
    3.8097   51.6357   19.3070 H   0  0  0  0  0  0
    2.6790   52.9224   19.4675 H   0  0  0  0  0  0
    1.8052   53.7722   14.7636 H   0  0  0  0  0  0
    1.5599   52.1272   15.3014 H   0  0  0  0  0  0
    0.1645   55.2297   17.1601 H   0  0  0  0  0  0
    0.1854   55.6331   15.4822 H   0  0  0  0  0  0
   -2.2021   55.4576   15.2183 H   0  0  0  0  0  0
   -1.9542   56.3270   16.7059 H   0  0  0  0  0  0
   -3.6323   54.4981   17.2536 H   0  0  0  0  0  0
   -2.7738   52.3844   17.8194 H   0  0  0  0  0  0
   -0.8065   51.5642   16.5074 H   0  0  0  0  0  0
   -0.1322   52.5117   17.8121 H   0  0  0  0  0  0
    5.5113   51.9298   18.0817 H   0  0  0  0  0  0
   -0.0988   51.7009   31.1030 H   0  0  0  0  0  0
    0.3042   52.7331   32.4983 H   0  0  0  0  0  0
    2.2593   53.4640   16.8506 N   0  3  2  0  0  0
    1.6447   53.9104   17.5187 H   0  0  0  0  0  0
  1  6  2  0  0  0
  1  2  1  0  0  0
  1 37  1  0  0  0
  2  3  2  0  0  0
  2 38  1  0  0  0
  3 36  1  0  0  0
  3  4  1  0  0  0
  4  5  2  0  0  0
  4 34  1  0  0  0
  5  6  1  0  0  0
  5 39  1  0  0  0
  6  7  1  0  0  0
  7  8  1  0  0  0
  7 40  1  0  0  0
  7 41  1  0  0  0
  8  9  1  0  0  0
  8 42  1  0  0  0
  9 10  2  0  0  0
  9 11  1  0  0  0
 11 19  1  0  0  0
 11 12  2  0  0  0
 12 13  1  0  0  0
 12 43  1  0  0  0
 13 18  2  0  0  0
 13 14  1  0  0  0
 14 15  2  0  0  0
 14 44  1  0  0  0
 15 16  1  0  0  0
 15 20  1  0  0  0
 16 17  2  0  0  0
 16 45  1  0  0  0
 17 18  1  0  0  0
 17 46  1  0  0  0
 18 19  1  0  0  0
 20 24  1  0  0  0
 20 21  1  0  0  0
 20 33  1  0  0  0
 21 22  1  0  0  0
 21 47  1  0  0  0
 21 48  1  0  0  0
 22 49  1  0  0  0
 22 50  1  0  0  0
 22 68  1  0  0  0
 23 24  1  0  0  0
 23 51  1  0  0  0
 23 52  1  0  0  0
 23 68  1  0  0  0
 24 53  1  0  0  0
 24 54  1  0  0  0
 25 26  1  0  0  0
 25 55  1  0  0  0
 25 56  1  0  0  0
 25 68  1  0  0  0
 26 27  1  0  0  0
 26 32  1  0  0  0
 26 28  1  0  0  0
 28 29  1  0  0  0
 28 57  1  0  0  0
 28 58  1  0  0  0
 29 30  1  0  0  0
 29 59  1  0  0  0
 29 60  1  0  0  0
 30 31  2  0  0  0
 30 61  1  0  0  0
 31 32  1  0  0  0
 31 62  1  0  0  0
 32 63  1  0  0  0
 32 64  1  0  0  0
 33 65  1  0  0  0
 34 35  1  0  0  0
 35 36  1  0  0  0
 35 66  1  0  0  0
 35 67  1  0  0  0
 68 69  1  0  0  0
M  CHG  1  68   1
M  END
> <i_i_glide_confnum>
9

> <i_i_glide_lignum>
3048

> <i_i_glide_posenum>
341

> <i_i_glide_rotatable_bonds>
8

> <i_m_Source_File_Index>
2391

> <b_m_subgroup_collapsed>
0

> <r_i_docking_score>
-8.03854

> <r_i_glide_ecoul>
-12.9251

> <r_i_glide_eff_state_penalty>
0

> <r_i_glide_einternal>
9.60796

> <r_i_glide_emodel>
-85.7865

> <r_i_glide_energy>
-58.6539

> <r_i_glide_erotb>
0.509268

> <r_i_glide_esite>
-0.10733

> <r_i_glide_evdw>
-45.7288

> <r_i_glide_gscore>
-8.03854

> <r_i_glide_hbond>
-0.578414

> <r_i_glide_ligand_efficiency>
-0.223293

> <r_i_glide_ligand_efficiency_ln>
-1.75379

> <r_i_glide_ligand_efficiency_sa>
-0.737297

> <r_i_glide_lipo>
-3.01748

> <r_i_glide_metal>
0

> <r_i_glide_rewards>
-0.619382

> <s_i_glide_gridfile>
wee1_glide-grid

> <s_m_Source_File>
wee1_decoys_glide_SP.sdf

> <s_m_Source_Path>
/Users/zhangxujun/Desktop

> <s_m_entry_id>
2666

> <s_m_entry_name>
wee1_decoys_glide_SP.2391

> <s_m_subgroup_title>
wee1_decoys_glide_SP

> <s_m_subgroupid>
wee1_decoys_glide_SP


$$$$
