ZINC22510573_5894
                    3D
 Schrodinger Suite 2024-2.
 57 59  0  0  1  0            999 V2000
   10.6097   52.5356   16.6406 C   0  0  0  0  0  0
    9.3730   53.3010   17.0741 C   0  0  0  0  0  0
    8.1065   52.7442   16.8818 C   0  0  0  0  0  0
    6.9735   53.4320   17.3081 C   0  0  0  0  0  0
    7.1042   54.6783   17.9304 C   0  0  0  0  0  0
    8.3713   55.2345   18.1242 C   0  0  0  0  0  0
    9.5035   54.5457   17.6938 C   0  0  0  0  0  0
    5.6261   55.5467   18.4737 S   0  0  0  0  0  0
    4.7777   55.5901   17.2782 O   0  0  0  0  0  0
    6.0844   56.8356   19.0085 O   0  0  0  0  0  0
    5.1099   54.5262   19.5482 N   0  5  0  0  0  0
    5.3949   54.5581   20.8927 C   0  0  0  0  0  0
    6.4750   55.2657   21.4469 C   0  0  0  0  0  0
    6.7044   55.2966   22.8197 C   0  0  0  0  0  0
    5.8825   54.5959   23.7046 C   0  0  0  0  0  0
    4.8114   53.8710   23.1620 C   0  0  0  0  0  0
    4.5706   53.8486   21.7902 C   0  0  0  0  0  0
    3.2202   52.8957   21.2598 Cl  0  0  0  0  0  0
    6.1535   54.6475   25.1927 C   0  0  0  0  0  0
    7.1041   55.2930   25.6373 O   0  0  0  0  0  0
    5.2923   53.9514   25.9569 N   0  0  0  0  0  0
    5.2974   53.5893   27.3833 C   0  0  1  0  0  0
    5.7696   52.6061   27.4116 H   0  0  0  0  0  0
    6.1875   54.4925   28.2653 C   0  0  0  0  0  0
    3.8709   53.3459   27.9446 C   0  0  0  0  0  0
    3.6345   53.2537   29.3231 C   0  0  0  0  0  0
    2.3651   52.9610   29.8191 C   0  0  0  0  0  0
    1.2908   52.7258   28.9488 C   0  0  0  0  0  0
    1.5037   52.8007   27.5657 C   0  0  0  0  0  0
    2.7776   53.1413   27.0854 C   0  0  0  0  0  0
    0.4296   52.5071   26.7415 O   0  0  0  0  0  0
    0.6014   52.4973   25.3266 C   0  0  0  0  0  0
    0.0140   52.3992   29.3729 O   0  0  0  0  0  0
   -0.2874   52.3494   30.7612 C   0  0  0  0  0  0
   10.4597   51.4626   16.7650 H   0  0  0  0  0  0
   10.8409   52.7343   15.5941 H   0  0  0  0  0  0
   11.4720   52.8019   17.2540 H   0  0  0  0  0  0
    7.9969   51.7765   16.4144 H   0  0  0  0  0  0
    5.9940   52.9936   17.1678 H   0  0  0  0  0  0
    8.4832   56.1970   18.6047 H   0  0  0  0  0  0
   10.4815   54.9764   17.8565 H   0  0  0  0  0  0
    7.1707   55.8000   20.8225 H   0  0  0  0  0  0
    7.5330   55.8782   23.1890 H   0  0  0  0  0  0
    4.1345   53.3114   23.7894 H   0  0  0  0  0  0
    4.5958   53.4481   25.4313 H   0  0  0  0  0  0
    6.2545   54.1321   29.2816 H   0  0  0  0  0  0
    7.2215   54.4939   27.9257 H   0  0  0  0  0  0
    5.8483   55.5255   28.2792 H   0  0  0  0  0  0
    4.4300   53.3842   30.0376 H   0  0  0  0  0  0
    2.2384   52.8944   30.8881 H   0  0  0  0  0  0
    2.9282   53.1913   26.0194 H   0  0  0  0  0  0
   -0.3431   52.2292   24.8527 H   0  0  0  0  0  0
    0.8891   53.4775   24.9450 H   0  0  0  0  0  0
    1.3450   51.7592   25.0182 H   0  0  0  0  0  0
   -1.2950   51.9475   30.8810 H   0  0  0  0  0  0
   -0.2604   53.3438   31.2091 H   0  0  0  0  0  0
    0.3858   51.6968   31.3180 H   0  0  0  0  0  0
  1  2  1  0  0  0
  1 35  1  0  0  0
  1 36  1  0  0  0
  1 37  1  0  0  0
  2  7  2  0  0  0
  2  3  1  0  0  0
  3  4  2  0  0  0
  3 38  1  0  0  0
  4  5  1  0  0  0
  4 39  1  0  0  0
  5  6  2  0  0  0
  5  8  1  0  0  0
  6  7  1  0  0  0
  6 40  1  0  0  0
  7 41  1  0  0  0
  8  9  2  0  0  0
  8 10  2  0  0  0
  8 11  1  0  0  0
 11 12  1  0  0  0
 12 17  2  0  0  0
 12 13  1  0  0  0
 13 14  2  0  0  0
 13 42  1  0  0  0
 14 15  1  0  0  0
 14 43  1  0  0  0
 15 16  2  0  0  0
 15 19  1  0  0  0
 16 17  1  0  0  0
 16 44  1  0  0  0
 17 18  1  0  0  0
 19 20  2  0  0  0
 19 21  1  0  0  0
 21 22  1  0  0  0
 21 45  1  0  0  0
 22 23  1  0  0  0
 22 24  1  0  0  0
 22 25  1  0  0  0
 24 46  1  0  0  0
 24 47  1  0  0  0
 24 48  1  0  0  0
 25 30  2  0  0  0
 25 26  1  0  0  0
 26 27  2  0  0  0
 26 49  1  0  0  0
 27 28  1  0  0  0
 27 50  1  0  0  0
 28 29  2  0  0  0
 28 33  1  0  0  0
 29 30  1  0  0  0
 29 31  1  0  0  0
 30 51  1  0  0  0
 31 32  1  0  0  0
 32 52  1  0  0  0
 32 53  1  0  0  0
 32 54  1  0  0  0
 33 34  1  0  0  0
 34 55  1  0  0  0
 34 56  1  0  0  0
 34 57  1  0  0  0
M  CHG  1  11  -1
M  END
> <i_i_glide_confnum>
175

> <i_i_glide_lignum>
5895

> <i_i_glide_posenum>
168

> <i_i_glide_rotatable_bonds>
9

> <i_m_Source_File_Index>
818

> <b_m_subgroup_collapsed>
0

> <r_i_docking_score>
-5.69087

> <r_i_glide_ecoul>
-4.53621

> <r_i_glide_eff_state_penalty>
0

> <r_i_glide_einternal>
9.3486

> <r_i_glide_emodel>
-63.0061

> <r_i_glide_energy>
-51.1033

> <r_i_glide_erotb>
0.59773

> <r_i_glide_esite>
0

> <r_i_glide_evdw>
-46.5671

> <r_i_glide_gscore>
-5.69087

> <r_i_glide_hbond>
-0.32

> <r_i_glide_ligand_efficiency>
-0.172451

> <r_i_glide_ligand_efficiency_ln>
-1.26562

> <r_i_glide_ligand_efficiency_sa>
-0.553142

> <r_i_glide_lipo>
-3.01007

> <r_i_glide_metal>
0

> <r_i_glide_rewards>
0.0502466

> <s_i_glide_gridfile>
wee1_glide-grid

> <s_m_Source_File>
wee1_decoys_glide_SP.sdf

> <s_m_Source_Path>
/Users/zhangxujun/Desktop

> <s_m_entry_id>
1093

> <s_m_entry_name>
wee1_decoys_glide_SP.818

> <s_m_subgroup_title>
wee1_decoys_glide_SP

> <s_m_subgroupid>
wee1_decoys_glide_SP


$$$$
