ZINC20246662_3448
                    3D
 Schrodinger Suite 2024-2.
 42 44  0  0  1  0            999 V2000
    7.8657   55.9036   19.9060 C   0  0  0  0  0  0
    6.7329   55.9562   19.1055 C   0  0  0  0  0  0
    5.5256   55.4601   19.5864 C   0  0  0  0  0  0
    5.4378   54.8989   20.8656 C   0  0  0  0  0  0
    6.5750   54.8967   21.7215 C   0  0  0  0  0  0
    7.7844   55.3860   21.1956 C   0  0  0  0  0  0
    6.5695   54.3751   23.1518 C   0  0  0  0  0  0
    7.5044   53.6965   23.5758 O   0  0  0  0  0  0
    5.4913   54.7100   23.8864 N   0  0  0  0  0  0
    5.2030   54.4209   25.2279 C   0  0  0  0  0  0
    6.1808   54.2188   26.2130 C   0  0  0  0  0  0
    5.7976   53.9571   27.5279 C   0  0  0  0  0  0
    4.4440   53.8914   27.8534 C   0  0  0  0  0  0
    3.4707   54.0978   26.8792 C   0  0  0  0  0  0
    3.8505   54.3738   25.5695 C   0  0  0  0  0  0
    3.9039   53.5164   29.6410 Br  0  0  0  0  0  0
    4.1627   54.4038   21.1854 N   0  0  0  0  0  0
    3.8831   53.1623   21.6147 C   0  0  0  0  0  0
    4.7047   52.2471   21.6818 O   0  0  0  0  0  0
    2.5953   53.0979   22.0012 N   0  0  0  0  0  0
    1.9152   51.9988   22.5434 C   0  0  0  0  0  0
    2.2283   50.6724   22.2182 C   0  0  0  0  0  0
    1.5071   49.6340   22.7956 C   0  0  0  0  0  0
    0.4755   49.9136   23.6875 C   0  0  0  0  0  0
    0.1483   51.2313   24.0003 C   0  0  0  0  0  0
    0.8649   52.2762   23.4218 C   0  0  0  0  0  0
   -0.4953   48.4814   24.4805 Br  0  0  0  0  0  0
    8.8132   56.2676   19.5330 H   0  0  0  0  0  0
    6.7923   56.3616   18.1059 H   0  0  0  0  0  0
    4.6630   55.4828   18.9344 H   0  0  0  0  0  0
    8.6989   55.3741   21.7680 H   0  0  0  0  0  0
    4.7534   55.1712   23.3770 H   0  0  0  0  0  0
    7.2309   54.2651   25.9733 H   0  0  0  0  0  0
    6.5464   53.8011   28.2906 H   0  0  0  0  0  0
    2.4238   54.0446   27.1390 H   0  0  0  0  0  0
    3.0870   54.5297   24.8210 H   0  0  0  0  0  0
    3.3878   54.8705   20.7349 H   0  0  0  0  0  0
    2.0619   53.9526   21.9477 H   0  0  0  0  0  0
    3.0204   50.4358   21.5226 H   0  0  0  0  0  0
    1.7587   48.6124   22.5580 H   0  0  0  0  0  0
   -0.6545   51.4393   24.6930 H   0  0  0  0  0  0
    0.6083   53.2947   23.6724 H   0  0  0  0  0  0
  1  6  2  0  0  0
  1  2  1  0  0  0
  1 28  1  0  0  0
  2  3  2  0  0  0
  2 29  1  0  0  0
  3  4  1  0  0  0
  3 30  1  0  0  0
  4  5  2  0  0  0
  4 17  1  0  0  0
  5  6  1  0  0  0
  5  7  1  0  0  0
  6 31  1  0  0  0
  7  8  2  0  0  0
  7  9  1  0  0  0
  9 10  1  0  0  0
  9 32  1  0  0  0
 10 15  2  0  0  0
 10 11  1  0  0  0
 11 12  2  0  0  0
 11 33  1  0  0  0
 12 13  1  0  0  0
 12 34  1  0  0  0
 13 14  2  0  0  0
 13 16  1  0  0  0
 14 15  1  0  0  0
 14 35  1  0  0  0
 15 36  1  0  0  0
 17 18  1  0  0  0
 17 37  1  0  0  0
 18 19  2  0  0  0
 18 20  1  0  0  0
 20 21  1  0  0  0
 20 38  1  0  0  0
 21 26  2  0  0  0
 21 22  1  0  0  0
 22 23  2  0  0  0
 22 39  1  0  0  0
 23 24  1  0  0  0
 23 40  1  0  0  0
 24 25  2  0  0  0
 24 27  1  0  0  0
 25 26  1  0  0  0
 25 41  1  0  0  0
 26 42  1  0  0  0
M  END
> <i_i_glide_confnum>
42

> <i_i_glide_lignum>
3449

> <i_i_glide_posenum>
100

> <i_i_glide_rotatable_bonds>
7

> <i_m_Source_File_Index>
1549

> <b_m_subgroup_collapsed>
0

> <r_i_docking_score>
-6.28242

> <r_i_glide_ecoul>
-3.80986

> <r_i_glide_eff_state_penalty>
0

> <r_i_glide_einternal>
8.69606

> <r_i_glide_emodel>
-62.335

> <r_i_glide_energy>
-47.8059

> <r_i_glide_erotb>
0.510074

> <r_i_glide_esite>
-0.00132308

> <r_i_glide_evdw>
-43.9961

> <r_i_glide_gscore>
-6.28242

> <r_i_glide_hbond>
-0.318327

> <r_i_glide_ligand_efficiency>
-0.232682

> <r_i_glide_ligand_efficiency_ln>
-1.46244

> <r_i_glide_ligand_efficiency_sa>
-0.698046

> <r_i_glide_lipo>
-3.04237

> <r_i_glide_metal>
0

> <r_i_glide_rewards>
-0.659193

> <s_i_glide_gridfile>
wee1_glide-grid

> <s_m_Source_File>
wee1_decoys_glide_SP.sdf

> <s_m_Source_Path>
/Users/zhangxujun/Desktop

> <s_m_entry_id>
1824

> <s_m_entry_name>
wee1_decoys_glide_SP.1549

> <s_m_subgroup_title>
wee1_decoys_glide_SP

> <s_m_subgroupid>
wee1_decoys_glide_SP


$$$$
