ZINC24832981_5042
                    3D
 Schrodinger Suite 2024-2.
 62 66  0  0  1  0            999 V2000
    2.5213   51.8877   17.5525 C   0  0  0  0  0  0
    2.1284   51.8032   19.0150 C   0  0  0  0  0  0
    3.1023   51.5454   19.9809 C   0  0  0  0  0  0
    2.7569   51.4919   21.3289 C   0  0  0  0  0  0
    1.4352   51.7177   21.7202 C   0  0  0  0  0  0
    0.4366   51.9331   20.7545 C   0  0  0  0  0  0
    0.7991   51.9897   19.4045 C   0  0  0  0  0  0
   -1.0292   52.0958   21.1382 C   0  0  0  0  0  0
    1.1256   51.6985   23.0910 N   0  0  0  0  0  0
    1.2738   52.7102   24.0189 C   0  0  0  0  0  0
    0.8286   52.3283   25.1898 N   0  0  0  0  0  0
    0.3926   51.0156   25.0553 N   0  0  0  0  0  0
    0.5921   50.6520   23.8100 C   0  0  0  0  0  0
    0.2675   49.0548   23.1159 S   0  0  0  0  0  0
   -0.0798   48.0426   24.5895 C   0  0  0  0  0  0
   -1.4140   47.2968   24.5262 C   0  0  0  0  0  0
   -1.7682   46.7499   23.4778 O   0  0  0  0  0  0
   -2.0941   47.2670   25.6876 N   0  0  0  0  0  0
   -3.1579   46.5080   26.0124 C   0  0  0  0  0  0
   -3.7254   45.6967   25.2758 O   0  0  0  0  0  0
   -3.5186   46.7437   27.2815 N   0  0  0  0  0  0
   -4.5258   45.9904   28.0173 C   0  0  0  0  0  0
   -5.4931   46.7617   28.8850 C   0  0  0  0  0  0
   -5.9804   46.0977   27.6158 C   0  0  0  0  0  0
    1.8773   54.0783   23.7365 C   0  0  0  0  0  0
    3.4095   54.0962   23.7723 C   0  0  0  0  0  0
    4.1110   54.0988   22.5655 C   0  0  0  0  0  0
    5.4985   54.1223   22.5363 C   0  0  0  0  0  0
    6.2295   54.1675   23.7171 C   0  0  0  0  0  0
    5.5676   54.1757   24.9691 C   0  0  0  0  0  0
    4.1346   54.1297   25.0119 C   0  0  0  0  0  0
    3.5077   54.1236   26.2918 C   0  0  0  0  0  0
    4.2626   54.1608   27.4611 C   0  0  0  0  0  0
    5.6496   54.2126   27.4067 C   0  0  0  0  0  0
    6.3038   54.2205   26.1801 C   0  0  0  0  0  0
    2.7038   50.8926   17.1508 H   0  0  0  0  0  0
    1.7574   52.3808   16.9512 H   0  0  0  0  0  0
    3.4441   52.4581   17.4407 H   0  0  0  0  0  0
    4.1289   51.3878   19.6825 H   0  0  0  0  0  0
    3.5214   51.2945   22.0666 H   0  0  0  0  0  0
    0.0464   52.1722   18.6516 H   0  0  0  0  0  0
   -1.6244   52.4938   20.3165 H   0  0  0  0  0  0
   -1.4449   51.1340   21.4380 H   0  0  0  0  0  0
   -1.1381   52.7756   21.9824 H   0  0  0  0  0  0
    0.0027   48.6101   25.5148 H   0  0  0  0  0  0
    0.7043   47.2952   24.6521 H   0  0  0  0  0  0
   -1.7003   47.8083   26.4481 H   0  0  0  0  0  0
   -2.8550   47.2672   27.8515 H   0  0  0  0  0  0
   -4.1629   45.0215   28.3602 H   0  0  0  0  0  0
   -5.4069   47.8487   28.9158 H   0  0  0  0  0  0
   -5.7886   46.3541   29.8510 H   0  0  0  0  0  0
   -6.5986   45.2021   27.6792 H   0  0  0  0  0  0
   -6.2395   46.7163   26.7554 H   0  0  0  0  0  0
    1.5311   54.4511   22.7702 H   0  0  0  0  0  0
    1.5114   54.8169   24.4491 H   0  0  0  0  0  0
    3.5717   54.0924   21.6280 H   0  0  0  0  0  0
    6.0091   54.1251   21.5852 H   0  0  0  0  0  0
    7.3096   54.1980   23.6821 H   0  0  0  0  0  0
    2.4325   54.0886   26.3706 H   0  0  0  0  0  0
    3.7657   54.1536   28.4199 H   0  0  0  0  0  0
    6.2231   54.2466   28.3223 H   0  0  0  0  0  0
    7.3823   54.2487   26.1485 H   0  0  0  0  0  0
  1  2  1  0  0  0
  1 36  1  0  0  0
  1 37  1  0  0  0
  1 38  1  0  0  0
  2  7  2  0  0  0
  2  3  1  0  0  0
  3  4  2  0  0  0
  3 39  1  0  0  0
  4  5  1  0  0  0
  4 40  1  0  0  0
  5  6  2  0  0  0
  5  9  1  0  0  0
  6  7  1  0  0  0
  6  8  1  0  0  0
  7 41  1  0  0  0
  8 42  1  0  0  0
  8 43  1  0  0  0
  8 44  1  0  0  0
  9 13  1  0  0  0
  9 10  1  0  0  0
 10 11  2  0  0  0
 10 25  1  0  0  0
 11 12  1  0  0  0
 12 13  2  0  0  0
 13 14  1  0  0  0
 14 15  1  0  0  0
 15 16  1  0  0  0
 15 45  1  0  0  0
 15 46  1  0  0  0
 16 17  2  0  0  0
 16 18  1  0  0  0
 18 19  1  0  0  0
 18 47  1  0  0  0
 19 20  2  0  0  0
 19 21  1  0  0  0
 21 22  1  0  0  0
 21 48  1  0  0  0
 22 24  1  0  0  0
 22 23  1  0  0  0
 22 49  1  0  0  0
 23 24  1  0  0  0
 23 50  1  0  0  0
 23 51  1  0  0  0
 24 52  1  0  0  0
 24 53  1  0  0  0
 25 26  1  0  0  0
 25 54  1  0  0  0
 25 55  1  0  0  0
 26 31  2  0  0  0
 26 27  1  0  0  0
 27 28  2  0  0  0
 27 56  1  0  0  0
 28 29  1  0  0  0
 28 57  1  0  0  0
 29 30  2  0  0  0
 29 58  1  0  0  0
 30 35  1  0  0  0
 30 31  1  0  0  0
 31 32  1  0  0  0
 32 33  2  0  0  0
 32 59  1  0  0  0
 33 34  1  0  0  0
 33 60  1  0  0  0
 34 35  2  0  0  0
 34 61  1  0  0  0
 35 62  1  0  0  0
M  END
> <i_i_glide_confnum>
87

> <i_i_glide_lignum>
5043

> <i_i_glide_posenum>
295

> <i_i_glide_rotatable_bonds>
10

> <i_m_Source_File_Index>
3659

> <b_m_subgroup_collapsed>
0

> <r_i_docking_score>
-7.33093

> <r_i_glide_ecoul>
-9.88924

> <r_i_glide_eff_state_penalty>
0

> <r_i_glide_einternal>
5.12184

> <r_i_glide_emodel>
-83.0844

> <r_i_glide_energy>
-55.1217

> <r_i_glide_erotb>
0.775401

> <r_i_glide_esite>
-0.361248

> <r_i_glide_evdw>
-45.2324

> <r_i_glide_gscore>
-7.33093

> <r_i_glide_hbond>
-0.456

> <r_i_glide_ligand_efficiency>
-0.209455

> <r_i_glide_ligand_efficiency_ln>
-1.6093

> <r_i_glide_ligand_efficiency_sa>
-0.685142

> <r_i_glide_lipo>
-2.92805

> <r_i_glide_metal>
0

> <r_i_glide_rewards>
-0.616024

> <s_i_glide_gridfile>
wee1_glide-grid

> <s_m_Source_File>
wee1_decoys_glide_SP.sdf

> <s_m_Source_Path>
/Users/zhangxujun/Desktop

> <s_m_entry_id>
3934

> <s_m_entry_name>
wee1_decoys_glide_SP.3659

> <s_m_subgroup_title>
wee1_decoys_glide_SP

> <s_m_subgroupid>
wee1_decoys_glide_SP


$$$$
