ZINC10121225_2849
                    3D
 Schrodinger Suite 2024-2.
 64 66  0  0  1  0            999 V2000
    5.8240   53.4001   28.4135 C   0  0  0  0  0  0
    4.6729   52.6965   29.1596 C   0  0  0  0  0  0
    3.7476   53.6411   29.9742 C   0  0  1  0  0  0
    4.3042   53.8842   30.8799 H   0  0  0  0  0  0
    3.4091   55.0034   29.3318 C   0  0  0  0  0  0
    2.5812   52.9799   30.4820 O   0  0  0  0  0  0
    1.5036   52.6091   29.6965 C   0  0  0  0  0  0
    0.3734   52.1480   30.3688 C   0  0  0  0  0  0
   -0.7430   51.6968   29.6699 C   0  0  0  0  0  0
   -0.7535   51.7266   28.2776 C   0  0  0  0  0  0
    0.3506   52.2161   27.5643 C   0  0  0  0  0  0
    1.4755   52.6432   28.2955 C   0  0  0  0  0  0
    0.3257   52.2516   26.0470 C   0  0  0  0  0  0
   -0.6179   51.7617   25.4231 O   0  0  0  0  0  0
    1.3754   52.8959   25.4782 N   0  0  0  0  0  0
    1.9613   52.8301   24.2420 C   0  0  0  0  0  0
    1.5033   51.8064   22.9826 S   0  0  0  0  0  0
    3.0297   53.6868   24.2110 N   0  0  0  0  0  0
    4.0040   53.9726   23.2413 C   0  0  0  0  0  0
    3.7101   54.0968   21.8803 C   0  0  0  0  0  0
    4.6956   54.5009   20.9904 C   0  0  0  0  0  0
    5.9593   54.8411   21.4705 C   0  0  0  0  0  0
    6.2821   54.6652   22.8180 C   0  0  0  0  0  0
    5.2991   54.2296   23.7032 C   0  0  0  0  0  0
    7.1511   55.5625   20.3594 S   0  0  0  0  0  0
    6.7060   56.9338   20.0875 O   0  0  0  0  0  0
    8.4825   55.3032   20.9129 O   0  0  0  0  0  0
    6.9995   54.6475   18.8493 N   0  0  0  0  0  0
    8.0908   54.3918   18.0114 C   0  0  0  0  0  0
    9.1705   55.2741   17.8953 C   0  0  0  0  0  0
   10.2570   54.9559   17.0750 C   0  0  0  0  0  0
   10.2531   53.7591   16.3550 C   0  0  0  0  0  0
    9.1753   52.8769   16.4589 C   0  0  0  0  0  0
    8.0935   53.2024   17.2813 C   0  0  0  0  0  0
    9.1691   51.5808   15.6694 C   0  0  0  0  0  0
   11.4282   55.9132   16.9537 C   0  0  0  0  0  0
    6.5005   52.6730   27.9653 H   0  0  0  0  0  0
    6.4176   54.0329   29.0741 H   0  0  0  0  0  0
    5.4469   54.0282   27.6060 H   0  0  0  0  0  0
    4.1149   52.0972   28.4464 H   0  0  0  0  0  0
    5.1026   51.9688   29.8483 H   0  0  0  0  0  0
    4.3032   55.6206   29.2813 H   0  0  0  0  0  0
    3.0085   54.9328   28.3229 H   0  0  0  0  0  0
    2.6895   55.5527   29.9373 H   0  0  0  0  0  0
    0.3655   52.1069   31.4495 H   0  0  0  0  0  0
   -1.5890   51.2970   30.2125 H   0  0  0  0  0  0
   -1.6306   51.3565   27.7624 H   0  0  0  0  0  0
    2.3471   52.9878   27.7707 H   0  0  0  0  0  0
    1.9445   53.3613   26.1650 H   0  0  0  0  0  0
    3.2230   54.1555   25.0821 H   0  0  0  0  0  0
    2.7121   53.9366   21.5027 H   0  0  0  0  0  0
    4.4404   54.6371   19.9485 H   0  0  0  0  0  0
    7.2694   54.9096   23.1851 H   0  0  0  0  0  0
    5.5400   54.1316   24.7521 H   0  0  0  0  0  0
    6.2759   53.9467   18.8444 H   0  0  0  0  0  0
    9.1785   56.1999   18.4506 H   0  0  0  0  0  0
   11.0909   53.5096   15.7183 H   0  0  0  0  0  0
    7.2597   52.5171   17.3618 H   0  0  0  0  0  0
    9.6906   51.6987   14.7175 H   0  0  0  0  0  0
    9.6535   50.7823   16.2367 H   0  0  0  0  0  0
    8.1497   51.2755   15.4286 H   0  0  0  0  0  0
   11.8630   55.8722   15.9549 H   0  0  0  0  0  0
   11.1096   56.9430   17.1162 H   0  0  0  0  0  0
   12.2000   55.6640   17.6810 H   0  0  0  0  0  0
  1  2  1  0  0  0
  1 37  1  0  0  0
  1 38  1  0  0  0
  1 39  1  0  0  0
  2  3  1  0  0  0
  2 40  1  0  0  0
  2 41  1  0  0  0
  3  4  1  0  0  0
  3  5  1  0  0  0
  3  6  1  0  0  0
  5 42  1  0  0  0
  5 43  1  0  0  0
  5 44  1  0  0  0
  6  7  1  0  0  0
  7 12  2  0  0  0
  7  8  1  0  0  0
  8  9  2  0  0  0
  8 45  1  0  0  0
  9 10  1  0  0  0
  9 46  1  0  0  0
 10 11  2  0  0  0
 10 47  1  0  0  0
 11 12  1  0  0  0
 11 13  1  0  0  0
 12 48  1  0  0  0
 13 14  2  0  0  0
 13 15  1  0  0  0
 15 16  1  0  0  0
 15 49  1  0  0  0
 16 17  2  0  0  0
 16 18  1  0  0  0
 18 19  1  0  0  0
 18 50  1  0  0  0
 19 24  2  0  0  0
 19 20  1  0  0  0
 20 21  2  0  0  0
 20 51  1  0  0  0
 21 22  1  0  0  0
 21 52  1  0  0  0
 22 23  2  0  0  0
 22 25  1  0  0  0
 23 24  1  0  0  0
 23 53  1  0  0  0
 24 54  1  0  0  0
 25 26  2  0  0  0
 25 27  2  0  0  0
 25 28  1  0  0  0
 28 29  1  0  0  0
 28 55  1  0  0  0
 29 34  2  0  0  0
 29 30  1  0  0  0
 30 31  2  0  0  0
 30 56  1  0  0  0
 31 32  1  0  0  0
 31 36  1  0  0  0
 32 33  2  0  0  0
 32 57  1  0  0  0
 33 34  1  0  0  0
 33 35  1  0  0  0
 34 58  1  0  0  0
 35 59  1  0  0  0
 35 60  1  0  0  0
 35 61  1  0  0  0
 36 62  1  0  0  0
 36 63  1  0  0  0
 36 64  1  0  0  0
M  END
> <i_i_glide_confnum>
109

> <i_i_glide_lignum>
2850

> <i_i_glide_posenum>
265

> <i_i_glide_rotatable_bonds>
11

> <i_m_Source_File_Index>
3605

> <b_m_subgroup_collapsed>
0

> <r_i_docking_score>
-3.6587

> <r_i_glide_ecoul>
-5.16761

> <r_i_glide_eff_state_penalty>
0

> <r_i_glide_einternal>
9.20354

> <r_i_glide_emodel>
-55.5104

> <r_i_glide_energy>
-54.3325

> <r_i_glide_erotb>
0.782848

> <r_i_glide_esite>
-0.0571028

> <r_i_glide_evdw>
-49.1649

> <r_i_glide_gscore>
-3.6587

> <r_i_glide_hbond>
-0.287851

> <r_i_glide_ligand_efficiency>
-0.104534

> <r_i_glide_ligand_efficiency_ln>
-0.803165

> <r_i_glide_ligand_efficiency_sa>
-0.341938

> <r_i_glide_lipo>
-2.38978

> <r_i_glide_metal>
0

> <r_i_glide_rewards>
1.52657

> <s_i_glide_gridfile>
wee1_glide-grid

> <s_m_Source_File>
wee1_decoys_glide_SP.sdf

> <s_m_Source_Path>
/Users/zhangxujun/Desktop

> <s_m_entry_id>
3880

> <s_m_entry_name>
wee1_decoys_glide_SP.3605

> <s_m_subgroup_title>
wee1_decoys_glide_SP

> <s_m_subgroupid>
wee1_decoys_glide_SP


$$$$
