ZINC55188744_4810
                    3D
 Schrodinger Suite 2024-2.
 30 31  0  0  1  0            999 V2000
    6.2637   54.4965   28.0828 C   0  0  0  0  0  0
    5.3968   53.5317   27.2625 C   0  0  1  0  0  0
    5.8900   52.5591   27.3098 H   0  0  0  0  0  0
    4.0263   53.3342   27.9355 C   0  0  0  0  0  0
    3.9814   52.7349   29.2012 C   0  0  0  0  0  0
    2.7672   52.5069   29.8396 C   0  0  0  0  0  0
    1.5797   52.8504   29.2024 C   0  0  0  0  0  0
    1.6044   53.4396   27.9398 C   0  0  0  0  0  0
    2.8228   53.6877   27.3093 C   0  0  0  0  0  0
   -0.0807   52.5018   30.0662 Br  0  0  0  0  0  0
    5.3306   53.8303   25.8192 N   0  0  0  0  0  0
    6.1649   54.5515   25.0310 C   0  0  0  0  0  0
    7.1036   55.2253   25.4522 O   0  0  0  0  0  0
    5.9043   54.4986   23.6006 C   0  0  0  0  0  0
    6.6999   55.1191   22.6249 C   0  0  0  0  0  0
    5.9683   54.9039   21.0585 S   0  0  0  0  0  0
    4.7489   53.9435   21.8217 C   0  0  0  0  0  0
    4.8486   53.8481   23.1212 N   0  0  0  0  0  0
    3.7758   53.3505   21.0757 N   0  0  0  0  0  0
    6.2572   54.2673   29.1479 H   0  0  0  0  0  0
    7.3107   54.4637   27.7844 H   0  0  0  0  0  0
    5.9112   55.5218   27.9789 H   0  0  0  0  0  0
    4.8966   52.4342   29.6918 H   0  0  0  0  0  0
    2.7421   52.0594   30.8223 H   0  0  0  0  0  0
    0.6801   53.6971   27.4486 H   0  0  0  0  0  0
    2.8197   54.1479   26.3333 H   0  0  0  0  0  0
    4.6549   53.2729   25.3186 H   0  0  0  0  0  0
    7.6042   55.6964   22.7585 H   0  0  0  0  0  0
    3.0511   52.7888   21.4953 H   0  0  0  0  0  0
    3.6925   53.5193   20.0849 H   0  0  0  0  0  0
  1  2  1  0  0  0
  1 20  1  0  0  0
  1 21  1  0  0  0
  1 22  1  0  0  0
  2  3  1  0  0  0
  2  4  1  0  0  0
  2 11  1  0  0  0
  4  9  2  0  0  0
  4  5  1  0  0  0
  5  6  2  0  0  0
  5 23  1  0  0  0
  6  7  1  0  0  0
  6 24  1  0  0  0
  7  8  2  0  0  0
  7 10  1  0  0  0
  8  9  1  0  0  0
  8 25  1  0  0  0
  9 26  1  0  0  0
 11 12  1  0  0  0
 11 27  1  0  0  0
 12 13  2  0  0  0
 12 14  1  0  0  0
 14 18  1  0  0  0
 14 15  2  0  0  0
 15 16  1  0  0  0
 15 28  1  0  0  0
 16 17  1  0  0  0
 17 18  2  0  0  0
 17 19  1  0  0  0
 19 29  1  0  0  0
 19 30  1  0  0  0
M  END
> <i_i_glide_confnum>
10

> <i_i_glide_lignum>
4811

> <i_i_glide_posenum>
265

> <i_i_glide_rotatable_bonds>
4

> <i_m_Source_File_Index>
3304

> <b_m_subgroup_collapsed>
0

> <r_i_docking_score>
-6.10672

> <r_i_glide_ecoul>
-4.26219

> <r_i_glide_eff_state_penalty>
0

> <r_i_glide_einternal>
3.86491

> <r_i_glide_emodel>
-53.9924

> <r_i_glide_energy>
-40.5811

> <r_i_glide_erotb>
0.528639

> <r_i_glide_esite>
0

> <r_i_glide_evdw>
-36.3189

> <r_i_glide_gscore>
-6.10672

> <r_i_glide_hbond>
-0.32

> <r_i_glide_ligand_efficiency>
-0.339262

> <r_i_glide_ligand_efficiency_ln>
-1.5697

> <r_i_glide_ligand_efficiency_sa>
-0.889118

> <r_i_glide_lipo>
-2.22701

> <r_i_glide_metal>
0

> <r_i_glide_rewards>
-1.63307

> <s_i_glide_gridfile>
wee1_glide-grid

> <s_m_Source_File>
wee1_decoys_glide_SP.sdf

> <s_m_Source_Path>
/Users/zhangxujun/Desktop

> <s_m_entry_id>
3579

> <s_m_entry_name>
wee1_decoys_glide_SP.3304

> <s_m_subgroup_title>
wee1_decoys_glide_SP

> <s_m_subgroupid>
wee1_decoys_glide_SP


$$$$
