ZINC08831417_3604
                    3D
 Schrodinger Suite 2024-2.
 50 51  0  0  1  0            999 V2000
    6.7507   55.1419   25.1194 C   0  0  0  0  0  0
    5.3369   54.5954   25.2700 C   0  0  0  0  0  0
    4.5631   54.3965   24.1275 C   0  0  0  0  0  0
    3.2485   53.9559   24.2390 C   0  0  0  0  0  0
    2.7031   53.7170   25.4948 C   0  0  0  0  0  0
    3.4562   53.8971   26.6725 C   0  0  0  0  0  0
    4.7970   54.3300   26.5427 C   0  0  0  0  0  0
    5.6031   54.5339   27.6387 O   0  0  0  0  0  0
    6.3105   53.3797   28.0785 C   0  0  0  0  0  0
    2.8019   53.6819   28.0288 C   0  0  0  0  0  0
    3.2411   54.2375   29.0402 O   0  0  0  0  0  0
    1.7205   52.8593   27.9950 N   0  0  0  0  0  0
    0.7515   52.5247   28.9078 C   0  0  0  0  0  0
    0.7071   52.8967   30.5333 S   0  0  0  0  0  0
   -0.2992   51.8096   28.4079 N   0  0  0  0  0  0
   -0.5072   51.4460   27.0713 C   0  0  0  0  0  0
    0.3045   50.4831   26.4720 C   0  0  0  0  0  0
    0.1489   50.1841   25.1216 C   0  0  0  0  0  0
   -0.8240   50.8402   24.3658 C   0  0  0  0  0  0
   -1.6680   51.7793   24.9864 C   0  0  0  0  0  0
   -1.5121   52.0754   26.3373 C   0  0  0  0  0  0
   -0.8754   50.4890   23.0034 N   0  0  0  0  0  0
   -1.5209   51.0949   21.9846 C   0  0  0  0  0  0
   -2.2201   52.0998   22.0939 O   0  0  0  0  0  0
   -1.3239   50.4689   20.5875 C   0  0  0  0  0  0
   -2.6540   49.9240   20.0265 C   0  0  0  0  0  0
   -0.6783   51.4797   19.6134 C   0  0  0  0  0  0
    2.1824   53.6947   22.6840 Br  0  0  0  0  0  0
    6.9195   55.5862   24.1370 H   0  0  0  0  0  0
    6.9260   55.9274   25.8554 H   0  0  0  0  0  0
    7.4854   54.3556   25.2803 H   0  0  0  0  0  0
    4.9696   54.5929   23.1481 H   0  0  0  0  0  0
    1.6662   53.4103   25.5215 H   0  0  0  0  0  0
    6.9909   53.6648   28.8815 H   0  0  0  0  0  0
    5.6322   52.6171   28.4652 H   0  0  0  0  0  0
    6.9103   52.9368   27.2844 H   0  0  0  0  0  0
    1.5532   52.4638   27.0823 H   0  0  0  0  0  0
   -1.0365   51.5636   29.0544 H   0  0  0  0  0  0
    1.0706   49.9830   27.0437 H   0  0  0  0  0  0
    0.8040   49.4515   24.6721 H   0  0  0  0  0  0
   -2.4475   52.2921   24.4452 H   0  0  0  0  0  0
   -2.1499   52.8134   26.8034 H   0  0  0  0  0  0
   -0.3013   49.6962   22.7597 H   0  0  0  0  0  0
   -0.6361   49.6250   20.6704 H   0  0  0  0  0  0
   -3.0833   49.1630   20.6831 H   0  0  0  0  0  0
   -2.5087   49.4609   19.0488 H   0  0  0  0  0  0
   -3.3988   50.7119   19.9105 H   0  0  0  0  0  0
    0.2784   51.8481   19.9908 H   0  0  0  0  0  0
   -0.4849   51.0213   18.6412 H   0  0  0  0  0  0
   -1.3184   52.3474   19.4465 H   0  0  0  0  0  0
  1  2  1  0  0  0
  1 29  1  0  0  0
  1 30  1  0  0  0
  1 31  1  0  0  0
  2  7  2  0  0  0
  2  3  1  0  0  0
  3  4  2  0  0  0
  3 32  1  0  0  0
  4  5  1  0  0  0
  4 28  1  0  0  0
  5  6  2  0  0  0
  5 33  1  0  0  0
  6  7  1  0  0  0
  6 10  1  0  0  0
  7  8  1  0  0  0
  8  9  1  0  0  0
  9 34  1  0  0  0
  9 35  1  0  0  0
  9 36  1  0  0  0
 10 11  2  0  0  0
 10 12  1  0  0  0
 12 13  1  0  0  0
 12 37  1  0  0  0
 13 14  2  0  0  0
 13 15  1  0  0  0
 15 16  1  0  0  0
 15 38  1  0  0  0
 16 21  2  0  0  0
 16 17  1  0  0  0
 17 18  2  0  0  0
 17 39  1  0  0  0
 18 19  1  0  0  0
 18 40  1  0  0  0
 19 20  2  0  0  0
 19 22  1  0  0  0
 20 21  1  0  0  0
 20 41  1  0  0  0
 21 42  1  0  0  0
 22 23  1  0  0  0
 22 43  1  0  0  0
 23 24  2  0  0  0
 23 25  1  0  0  0
 25 26  1  0  0  0
 25 27  1  0  0  0
 25 44  1  0  0  0
 26 45  1  0  0  0
 26 46  1  0  0  0
 26 47  1  0  0  0
 27 48  1  0  0  0
 27 49  1  0  0  0
 27 50  1  0  0  0
M  END
> <i_i_glide_confnum>
55

> <i_i_glide_lignum>
3605

> <i_i_glide_posenum>
345

> <i_i_glide_rotatable_bonds>
9

> <i_m_Source_File_Index>
715

> <b_m_subgroup_collapsed>
0

> <r_i_docking_score>
-3.41094

> <r_i_glide_ecoul>
-3.29126

> <r_i_glide_eff_state_penalty>
0

> <r_i_glide_einternal>
6.37907

> <r_i_glide_emodel>
-50.4937

> <r_i_glide_energy>
-47.8026

> <r_i_glide_erotb>
0.654371

> <r_i_glide_esite>
-0.0426432

> <r_i_glide_evdw>
-44.5114

> <r_i_glide_gscore>
-3.41094

> <r_i_glide_hbond>
0

> <r_i_glide_ligand_efficiency>
-0.121819

> <r_i_glide_ligand_efficiency_ln>
-0.787345

> <r_i_glide_ligand_efficiency_sa>
-0.369915

> <r_i_glide_lipo>
-2.05712

> <r_i_glide_metal>
0

> <r_i_glide_rewards>
0.753707

> <s_i_glide_gridfile>
wee1_glide-grid

> <s_m_Source_File>
wee1_decoys_glide_SP.sdf

> <s_m_Source_Path>
/Users/zhangxujun/Desktop

> <s_m_entry_id>
990

> <s_m_entry_name>
wee1_decoys_glide_SP.715

> <s_m_subgroup_title>
wee1_decoys_glide_SP

> <s_m_subgroupid>
wee1_decoys_glide_SP


$$$$
