ZINC43751617_957
                    3D
 Schrodinger Suite 2024-2.
 55 58  0  0  1  0            999 V2000
    6.1871   54.7901   26.1800 C   0  0  0  0  0  0
    6.6880   54.8330   24.8819 C   0  0  0  0  0  0
    5.8696   54.4964   23.8071 C   0  0  0  0  0  0
    4.5430   54.1052   24.0310 C   0  0  0  0  0  0
    4.0425   54.0963   25.3383 C   0  0  0  0  0  0
    4.8643   54.4257   26.4123 C   0  0  0  0  0  0
    3.5735   53.8263   22.8782 C   0  0  0  0  0  0
    4.1161   53.0943   21.6353 C   0  0  0  0  0  0
    5.1025   52.3612   21.6814 O   0  0  0  0  0  0
    3.3934   53.2959   20.5251 N   0  0  0  0  0  0
    3.5680   52.7276   19.1850 C   0  0  1  0  0  0
    4.4676   52.1001   19.1697 H   0  0  0  0  0  0
    2.3973   51.7623   18.8144 C   0  0  0  0  0  0
    0.8029   52.5157   19.1042 Cl  0  0  0  0  0  0
    2.4604   51.2983   17.0923 Cl  0  0  0  0  0  0
    2.5071   50.2843   19.8136 Cl  0  0  0  0  0  0
    3.7483   53.8107   18.2054 N   0  0  0  0  0  0
    4.9843   54.2484   17.8368 C   0  0  0  0  0  0
    5.8875   53.4600   16.6806 S   0  0  0  0  0  0
    5.4209   55.3873   18.4467 N   0  0  0  0  0  0
    6.1353   55.3129   19.7347 C   0  0  0  0  0  0
    7.4015   56.2099   19.6667 C   0  0  2  0  0  0
    7.8594   56.2732   20.6548 H   0  0  0  0  0  0
    6.9996   57.6438   19.2970 C   0  0  0  0  0  0
    6.3480   57.6079   17.9143 C   0  0  2  0  0  0
    6.0257   58.6220   17.6617 H   0  0  0  0  0  0
    5.0861   56.7029   17.8734 C   0  0  0  0  0  0
    7.3842   57.1708   16.8690 C   0  0  0  0  0  0
    7.3697   57.6961   15.6224 C   0  0  0  0  0  0
    8.3449   57.2335   14.6607 C   0  0  0  0  0  0
    9.2403   56.2987   15.0367 C   0  0  0  0  0  0
    9.3053   55.7526   16.3863 C   0  0  0  0  0  0
   10.1978   54.9522   16.6752 O   0  0  0  0  0  0
    8.3452   56.2175   17.2673 N   0  0  0  0  0  0
    8.4550   55.6827   18.6568 C   0  0  0  0  0  0
    6.8207   55.0480   27.0172 H   0  0  0  0  0  0
    7.7069   55.1303   24.7045 H   0  0  0  0  0  0
    6.2703   54.5494   22.8057 H   0  0  0  0  0  0
    3.0136   53.8282   25.5278 H   0  0  0  0  0  0
    4.4770   54.4044   27.4205 H   0  0  0  0  0  0
    2.7366   53.2345   23.2504 H   0  0  0  0  0  0
    3.1497   54.7858   22.5764 H   0  0  0  0  0  0
    2.5832   53.9025   20.5988 H   0  0  0  0  0  0
    2.9495   54.3999   18.0189 H   0  0  0  0  0  0
    5.4724   55.6512   20.5308 H   0  0  0  0  0  0
    6.4179   54.2862   19.9747 H   0  0  0  0  0  0
    6.3039   58.0470   20.0309 H   0  0  0  0  0  0
    7.8650   58.3083   19.2806 H   0  0  0  0  0  0
    4.7166   56.6174   16.8489 H   0  0  0  0  0  0
    4.2841   57.1453   18.4629 H   0  0  0  0  0  0
    6.6286   58.4302   15.3375 H   0  0  0  0  0  0
    8.3376   57.6131   13.6484 H   0  0  0  0  0  0
    9.9604   55.9328   14.3227 H   0  0  0  0  0  0
    9.4570   55.8935   19.0368 H   0  0  0  0  0  0
    8.4312   54.5914   18.6282 H   0  0  0  0  0  0
  1  6  2  0  0  0
  1  2  1  0  0  0
  1 36  1  0  0  0
  2  3  2  0  0  0
  2 37  1  0  0  0
  3  4  1  0  0  0
  3 38  1  0  0  0
  4  5  2  0  0  0
  4  7  1  0  0  0
  5  6  1  0  0  0
  5 39  1  0  0  0
  6 40  1  0  0  0
  7  8  1  0  0  0
  7 41  1  0  0  0
  7 42  1  0  0  0
  8  9  2  0  0  0
  8 10  1  0  0  0
 10 11  1  0  0  0
 10 43  1  0  0  0
 11 12  1  0  0  0
 11 13  1  0  0  0
 11 17  1  0  0  0
 13 14  1  0  0  0
 13 15  1  0  0  0
 13 16  1  0  0  0
 17 18  1  0  0  0
 17 44  1  0  0  0
 18 19  2  0  0  0
 18 20  1  0  0  0
 20 27  1  0  0  0
 20 21  1  0  0  0
 21 22  1  0  0  0
 21 45  1  0  0  0
 21 46  1  0  0  0
 22 23  1  0  0  0
 22 35  1  0  0  0
 22 24  1  0  0  0
 24 25  1  0  0  0
 24 47  1  0  0  0
 24 48  1  0  0  0
 25 26  1  0  0  0
 25 27  1  0  0  0
 25 28  1  0  0  0
 27 49  1  0  0  0
 27 50  1  0  0  0
 28 34  1  0  0  0
 28 29  2  0  0  0
 29 30  1  0  0  0
 29 51  1  0  0  0
 30 31  2  0  0  0
 30 52  1  0  0  0
 31 32  1  0  0  0
 31 53  1  0  0  0
 32 33  2  0  0  0
 32 34  1  0  0  0
 34 35  1  0  0  0
 35 54  1  0  0  0
 35 55  1  0  0  0
M  END
> <i_i_glide_confnum>
18

> <i_i_glide_lignum>
958

> <i_i_glide_posenum>
235

> <i_i_glide_rotatable_bonds>
8

> <i_m_Source_File_Index>
442

> <b_m_subgroup_collapsed>
0

> <r_i_docking_score>
-4.69572

> <r_i_glide_ecoul>
-3.27007

> <r_i_glide_eff_state_penalty>
0

> <r_i_glide_einternal>
15.6372

> <r_i_glide_emodel>
-40.942

> <r_i_glide_energy>
-37.0012

> <r_i_glide_erotb>
0.388338

> <r_i_glide_esite>
-0.110969

> <r_i_glide_evdw>
-33.7312

> <r_i_glide_gscore>
-4.69572

> <r_i_glide_hbond>
-0.32

> <r_i_glide_ligand_efficiency>
-0.146741

> <r_i_glide_ligand_efficiency_ln>
-1.0515

> <r_i_glide_ligand_efficiency_sa>
-0.465875

> <r_i_glide_lipo>
-2.12987

> <r_i_glide_metal>
0

> <r_i_glide_rewards>
-0.346151

> <s_i_glide_gridfile>
wee1_glide-grid

> <s_m_Source_File>
wee1_decoys_glide_SP.sdf

> <s_m_Source_Path>
/Users/zhangxujun/Desktop

> <s_m_entry_id>
717

> <s_m_entry_name>
wee1_decoys_glide_SP.442

> <s_m_subgroup_title>
wee1_decoys_glide_SP

> <s_m_subgroupid>
wee1_decoys_glide_SP


$$$$
