ZINC39673281_641
                    3D
 Schrodinger Suite 2024-2.
 69 72  0  0  1  0            999 V2000
    3.5816   54.7359   16.4235 C   0  0  0  0  0  0
    2.5328   55.6034   16.1391 C   0  0  0  0  0  0
    2.6921   56.9833   16.3266 C   0  0  0  0  0  0
    3.9156   57.4782   16.7776 C   0  0  0  0  0  0
    4.9611   56.6097   17.0792 C   0  0  0  0  0  0
    4.7912   55.2327   16.9165 C   0  0  0  0  0  0
    5.9073   54.2639   17.3088 C   0  0  0  0  0  0
    5.5148   53.2967   18.3383 N   0  0  0  0  0  0
    5.1043   53.6228   19.5737 C   0  0  0  0  0  0
    5.1731   54.7721   20.0130 O   0  0  0  0  0  0
    4.6461   52.4536   20.4815 C   0  0  1  0  0  0
    5.0643   51.5320   20.0817 H   0  0  0  0  0  0
    5.0844   52.6718   21.9483 C   0  0  0  0  0  0
    3.9324   53.3256   22.5718 N   0  0  0  0  0  0
    2.7522   53.2960   21.7103 C   0  0  0  0  0  0
    3.0836   52.3408   20.5456 C   0  0  0  0  0  0
    2.2243   52.6717   19.2866 C   0  0  0  0  0  0
    2.4882   51.7039   18.1148 C   0  0  0  0  0  0
    2.2129   50.2529   18.5540 N   0  3  0  0  0  0
    2.8511   49.8482   19.9017 C   0  0  0  0  0  0
    2.5811   50.9291   20.9726 C   0  0  0  0  0  0
    3.9831   54.0961   23.6849 C   0  0  0  0  0  0
    2.9820   54.6702   24.1152 O   0  0  0  0  0  0
    5.3296   54.2355   24.4319 C   0  0  0  0  0  0
    5.2727   54.7942   25.8772 C   0  0  0  0  0  0
    4.8137   53.7894   26.9598 C   0  0  0  0  0  0
    5.1364   54.2410   28.3925 C   0  0  0  0  0  0
    4.2021   53.4376   29.3056 C   0  0  0  0  0  0
    3.0048   53.0220   28.4381 C   0  0  0  0  0  0
    3.2987   53.5402   27.0253 C   0  0  0  0  0  0
    1.7038   57.9126   16.0804 O   0  0  0  0  0  0
    0.3323   57.5259   16.1371 C   0  0  0  0  0  0
   -0.0417   56.8161   15.0715 F   0  0  0  0  0  0
    0.0046   56.8971   17.2693 F   0  0  0  0  0  0
    3.4501   53.6744   16.2798 H   0  0  0  0  0  0
    1.6045   55.1915   15.7760 H   0  0  0  0  0  0
    4.0460   58.5446   16.9076 H   0  0  0  0  0  0
    5.8908   57.0102   17.4550 H   0  0  0  0  0  0
    6.7977   54.8029   17.6347 H   0  0  0  0  0  0
    6.2055   53.7079   16.4192 H   0  0  0  0  0  0
    5.5105   52.3121   18.0815 H   0  0  0  0  0  0
    5.9992   53.2611   21.9940 H   0  0  0  0  0  0
    5.2638   51.6856   22.3720 H   0  0  0  0  0  0
    1.7878   53.1314   22.1968 H   0  0  0  0  0  0
    2.7045   54.3002   21.2966 H   0  0  0  0  0  0
    1.1611   52.6841   19.5338 H   0  0  0  0  0  0
    2.4332   53.6866   18.9377 H   0  0  0  0  0  0
    1.8369   51.8924   17.2612 H   0  0  0  0  0  0
    3.5157   51.6999   17.7679 H   0  0  0  0  0  0
    1.2150   50.0975   18.5919 H   0  0  0  0  0  0
    2.4288   48.8768   20.1654 H   0  0  0  0  0  0
    3.9032   49.7136   19.6812 H   0  0  0  0  0  0
    3.0644   50.6253   21.9029 H   0  0  0  0  0  0
    1.5151   50.9514   21.2142 H   0  0  0  0  0  0
    5.9153   54.9324   23.8294 H   0  0  0  0  0  0
    5.8789   53.2967   24.4324 H   0  0  0  0  0  0
    4.6642   55.6967   25.9156 H   0  0  0  0  0  0
    6.2802   55.1236   26.1365 H   0  0  0  0  0  0
    5.3039   52.8242   26.8280 H   0  0  0  0  0  0
    4.8834   55.2966   28.5031 H   0  0  0  0  0  0
    6.1940   54.1525   28.6394 H   0  0  0  0  0  0
    3.8973   54.0221   30.1742 H   0  0  0  0  0  0
    4.7110   52.5481   29.6789 H   0  0  0  0  0  0
    2.0668   53.4231   28.8230 H   0  0  0  0  0  0
    2.9079   51.9368   28.4272 H   0  0  0  0  0  0
    2.9317   52.8958   26.2270 H   0  0  0  0  0  0
    2.7741   54.4916   26.9104 H   0  0  0  0  0  0
   -0.2691   58.4356   16.1174 H   0  0  0  0  0  0
    2.5890   49.6459   17.8278 H   0  0  0  0  0  0
  1  6  2  0  0  0
  1  2  1  0  0  0
  1 35  1  0  0  0
  2  3  2  0  0  0
  2 36  1  0  0  0
  3  4  1  0  0  0
  3 31  1  0  0  0
  4  5  2  0  0  0
  4 37  1  0  0  0
  5  6  1  0  0  0
  5 38  1  0  0  0
  6  7  1  0  0  0
  7  8  1  0  0  0
  7 39  1  0  0  0
  7 40  1  0  0  0
  8  9  1  0  0  0
  8 41  1  0  0  0
  9 10  2  0  0  0
  9 11  1  0  0  0
 11 12  1  0  0  0
 11 16  1  0  0  0
 11 13  1  0  0  0
 13 14  1  0  0  0
 13 42  1  0  0  0
 13 43  1  0  0  0
 14 15  1  0  0  0
 14 22  1  0  0  0
 15 16  1  0  0  0
 15 44  1  0  0  0
 15 45  1  0  0  0
 16 21  1  0  0  0
 16 17  1  0  0  0
 17 18  1  0  0  0
 17 46  1  0  0  0
 17 47  1  0  0  0
 18 19  1  0  0  0
 18 48  1  0  0  0
 18 49  1  0  0  0
 19 20  1  0  0  0
 19 50  1  0  0  0
 19 69  1  0  0  0
 20 21  1  0  0  0
 20 51  1  0  0  0
 20 52  1  0  0  0
 21 53  1  0  0  0
 21 54  1  0  0  0
 22 23  2  0  0  0
 22 24  1  0  0  0
 24 25  1  0  0  0
 24 55  1  0  0  0
 24 56  1  0  0  0
 25 26  1  0  0  0
 25 57  1  0  0  0
 25 58  1  0  0  0
 26 30  1  0  0  0
 26 27  1  0  0  0
 26 59  1  0  0  0
 27 28  1  0  0  0
 27 60  1  0  0  0
 27 61  1  0  0  0
 28 29  1  0  0  0
 28 62  1  0  0  0
 28 63  1  0  0  0
 29 30  1  0  0  0
 29 64  1  0  0  0
 29 65  1  0  0  0
 30 66  1  0  0  0
 30 67  1  0  0  0
 31 32  1  0  0  0
 32 33  1  0  0  0
 32 34  1  0  0  0
 32 68  1  0  0  0
M  CHG  1  19   1
M  END
> <i_i_glide_confnum>
8

> <i_i_glide_lignum>
642

> <i_i_glide_posenum>
179

> <i_i_glide_rotatable_bonds>
10

> <i_m_Source_File_Index>
2271

> <b_m_subgroup_collapsed>
0

> <r_i_docking_score>
-4.87129

> <r_i_glide_ecoul>
-5.38078

> <r_i_glide_eff_state_penalty>
0

> <r_i_glide_einternal>
6.31257

> <r_i_glide_emodel>
-49.3777

> <r_i_glide_energy>
-37.7493

> <r_i_glide_erotb>
0.747291

> <r_i_glide_esite>
-0.220172

> <r_i_glide_evdw>
-32.3685

> <r_i_glide_gscore>
-4.87129

> <r_i_glide_hbond>
-0.340356

> <r_i_glide_ligand_efficiency>
-0.147615

> <r_i_glide_ligand_efficiency_ln>
-1.08335

> <r_i_glide_ligand_efficiency_sa>
-0.473479

> <r_i_glide_lipo>
-1.83499

> <r_i_glide_metal>
0

> <r_i_glide_rewards>
-0.797519

> <s_i_glide_gridfile>
wee1_glide-grid

> <s_m_Source_File>
wee1_decoys_glide_SP.sdf

> <s_m_Source_Path>
/Users/zhangxujun/Desktop

> <s_m_entry_id>
2546

> <s_m_entry_name>
wee1_decoys_glide_SP.2271

> <s_m_subgroup_title>
wee1_decoys_glide_SP

> <s_m_subgroupid>
wee1_decoys_glide_SP


$$$$
