ZINC64661442_3701
                    3D
 Schrodinger Suite 2024-2.
 51 54  0  0  1  0            999 V2000
   -0.1878   47.5948   19.6803 C   0  0  0  0  0  0
    0.7978   47.3242   18.6424 C   0  0  0  0  0  0
    1.8953   48.1064   18.4734 C   0  0  0  0  0  0
    2.1122   49.2104   19.3055 C   0  0  0  0  0  0
    3.0876   50.0824   19.2887 N   0  3  0  0  0  0
    2.9104   51.0593   20.3693 C   0  0  0  0  0  0
    1.6153   50.5950   21.0093 C   0  0  0  0  0  0
    1.2057   49.5080   20.3266 C   0  0  0  0  0  0
    0.0179   48.6543   20.4893 C   0  0  0  0  0  0
    0.9547   51.3359   22.1649 C   0  0  0  0  0  0
    1.0984   52.8713   22.1519 C   0  0  0  0  0  0
    2.4582   53.3122   22.4780 N   0  0  0  0  0  0
    2.8174   53.8554   23.6488 C   0  0  0  0  0  0
    2.0079   54.0943   24.5430 O   0  0  0  0  0  0
    4.2392   54.0975   23.7698 C   0  0  0  0  0  0
    4.8668   54.4354   24.9212 C   0  0  0  0  0  0
    6.3513   54.6631   25.1271 C   0  0  0  0  0  0
    6.7039   54.0960   26.7996 S   0  0  0  0  0  0
    4.9732   53.8852   27.2347 C   0  0  2  0  0  0
    4.7420   52.8191   27.1983 H   0  0  0  0  0  0
    4.2827   54.5834   26.1621 N   0  0  0  0  0  0
    4.5175   54.4970   28.8843 S   0  0  0  0  0  0
    2.6964   54.5284   28.8363 C   0  0  0  0  0  0
    2.1251   53.2079   29.3667 C   0  0  0  0  0  0
    2.4617   52.7896   30.4752 O   0  0  0  0  0  0
    1.1367   52.5341   28.5415 C   0  0  0  0  0  0
    1.1069   52.3929   27.1582 C   0  0  0  0  0  0
   -0.0140   51.7000   26.6956 C   0  0  0  0  0  0
   -0.8438   51.2967   27.7294 C   0  0  0  0  0  0
   -0.2250   51.7486   29.2825 S   0  0  0  0  0  0
   -1.0593   46.9662   19.7953 H   0  0  0  0  0  0
    0.6493   46.4810   17.9828 H   0  0  0  0  0  0
    2.5960   47.8707   17.6823 H   0  0  0  0  0  0
    2.8532   52.0468   19.9091 H   0  0  0  0  0  0
    3.7781   50.9952   21.0266 H   0  0  0  0  0  0
   -0.7152   48.8503   21.2586 H   0  0  0  0  0  0
    1.3337   50.9371   23.1073 H   0  0  0  0  0  0
   -0.1064   51.0868   22.1367 H   0  0  0  0  0  0
    0.3683   53.2957   22.8460 H   0  0  0  0  0  0
    0.8319   53.2654   21.1708 H   0  0  0  0  0  0
    3.1455   53.2681   21.7426 H   0  0  0  0  0  0
    6.5738   55.7283   25.0696 H   0  0  0  0  0  0
    4.8230   53.9839   22.8680 H   0  0  0  0  0  0
    6.9656   54.1239   24.4048 H   0  0  0  0  0  0
    3.2788   54.6404   26.2545 H   0  0  0  0  0  0
    2.3231   54.7612   27.8413 H   0  0  0  0  0  0
    2.3524   55.3260   29.4936 H   0  0  0  0  0  0
    1.8848   52.7610   26.5110 H   0  0  0  0  0  0
   -0.2020   51.4871   25.6536 H   0  0  0  0  0  0
   -1.7483   50.7057   27.6679 H   0  0  0  0  0  0
    3.8715   50.0947   18.6198 H   0  0  0  0  0  0
  1  9  2  0  0  0
  1  2  1  0  0  0
  1 31  1  0  0  0
  2  3  2  0  0  0
  2 32  1  0  0  0
  3  4  1  0  0  0
  3 33  1  0  0  0
  4  8  1  0  0  0
  4  5  2  0  0  0
  5  6  1  0  0  0
  5 51  1  0  0  0
  6  7  1  0  0  0
  6 34  1  0  0  0
  6 35  1  0  0  0
  7  8  2  0  0  0
  7 10  1  0  0  0
  8  9  1  0  0  0
  9 36  1  0  0  0
 10 11  1  0  0  0
 10 37  1  0  0  0
 10 38  1  0  0  0
 11 12  1  0  0  0
 11 39  1  0  0  0
 11 40  1  0  0  0
 12 41  1  0  0  0
 12 13  1  0  0  0
 13 14  2  0  0  0
 13 15  1  0  0  0
 15 43  1  0  0  0
 15 16  2  0  0  0
 16 17  1  0  0  0
 16 21  1  0  0  0
 17 18  1  0  0  0
 17 44  1  0  0  0
 17 42  1  0  0  0
 18 19  1  0  0  0
 19 20  1  0  0  0
 19 22  1  0  0  0
 19 21  1  0  0  0
 21 45  1  0  0  0
 22 23  1  0  0  0
 23 24  1  0  0  0
 23 46  1  0  0  0
 23 47  1  0  0  0
 24 25  2  0  0  0
 24 26  1  0  0  0
 26 30  1  0  0  0
 26 27  2  0  0  0
 27 28  1  0  0  0
 27 48  1  0  0  0
 28 29  2  0  0  0
 28 49  1  0  0  0
 29 30  1  0  0  0
 29 50  1  0  0  0
M  CHG  1   5   1
M  END
> <i_i_glide_confnum>
179

> <i_i_glide_lignum>
3702

> <i_i_glide_posenum>
288

> <i_i_glide_rotatable_bonds>
9

> <i_m_Source_File_Index>
2543

> <b_m_subgroup_collapsed>
0

> <r_i_docking_score>
-6.43188

> <r_i_glide_ecoul>
-6.82848

> <r_i_glide_eff_state_penalty>
0

> <r_i_glide_einternal>
10.04

> <r_i_glide_emodel>
-73.2942

> <r_i_glide_energy>
-53.8454

> <r_i_glide_erotb>
0.708253

> <r_i_glide_esite>
-0.1

> <r_i_glide_evdw>
-47.0169

> <r_i_glide_gscore>
-6.43188

> <r_i_glide_hbond>
-0.441138

> <r_i_glide_ligand_efficiency>
-0.221789

> <r_i_glide_ligand_efficiency_ln>
-1.47274

> <r_i_glide_ligand_efficiency_sa>
-0.681406

> <r_i_glide_lipo>
-2.3161

> <r_i_glide_metal>
0

> <r_i_glide_rewards>
-0.907774

> <s_i_glide_gridfile>
wee1_glide-grid

> <s_m_Source_File>
wee1_decoys_glide_SP.sdf

> <s_m_Source_Path>
/Users/zhangxujun/Desktop

> <s_m_entry_id>
2818

> <s_m_entry_name>
wee1_decoys_glide_SP.2543

> <s_m_subgroup_title>
wee1_decoys_glide_SP

> <s_m_subgroupid>
wee1_decoys_glide_SP


$$$$
