ZINC02875588_5175
                    3D
 Schrodinger Suite 2024-2.
 53 55  0  0  1  0            999 V2000
    6.5556   55.0299   23.0315 C   0  0  0  0  0  0
    5.8180   54.6788   24.3097 C   0  0  0  0  0  0
    4.4348   54.4927   24.3043 C   0  0  0  0  0  0
    3.7748   54.0977   25.4667 C   0  0  0  0  0  0
    4.4936   53.8630   26.6437 C   0  0  0  0  0  0
    5.8789   54.0983   26.6677 C   0  0  0  0  0  0
    6.5273   54.5024   25.4968 C   0  0  0  0  0  0
    6.7038   53.8965   27.9316 C   0  0  0  0  0  0
    3.8621   53.2655   27.7391 N   0  0  0  0  0  0
    2.6938   54.1169   28.7494 S   0  0  0  0  0  0
    2.3051   55.3611   28.0815 O   0  0  0  0  0  0
    3.2968   54.1209   30.0817 O   0  0  0  0  0  0
    1.2397   53.0557   28.7622 C   0  0  0  0  0  0
    0.8736   52.4961   27.5346 C   0  0  0  0  0  0
   -0.2028   51.6137   27.4307 C   0  0  0  0  0  0
   -0.9397   51.3008   28.5749 C   0  0  0  0  0  0
   -0.5985   51.8739   29.7982 C   0  0  0  0  0  0
    0.4797   52.7568   29.9099 C   0  0  0  0  0  0
    0.7557   53.3748   31.2703 C   0  0  0  0  0  0
   -0.5420   51.0272   26.0926 C   0  0  0  0  0  0
   -0.5712   51.7553   25.0984 O   0  0  0  0  0  0
   -0.7618   49.6975   26.0815 N   0  0  0  0  0  0
   -1.1311   48.9445   24.9580 C   0  0  0  0  0  0
   -2.2528   48.1223   25.1066 C   0  0  0  0  0  0
   -2.7217   47.3487   24.0391 C   0  0  0  0  0  0
   -2.0441   47.3958   22.8156 C   0  0  0  0  0  0
   -0.8964   48.1738   22.6765 C   0  0  0  0  0  0
   -0.4106   48.9245   23.7457 C   0  0  0  0  0  0
    1.0999   49.7470   23.5284 Cl  0  0  0  0  0  0
   -3.9572   46.4741   24.2288 C   0  0  0  0  0  0
   -3.8050   45.7031   25.3067 F   0  0  0  0  0  0
   -4.1670   45.6707   23.1844 F   0  0  0  0  0  0
   -5.0334   47.2440   24.3928 F   0  0  0  0  0  0
    7.5015   54.4863   22.9747 H   0  0  0  0  0  0
    5.9815   54.7521   22.1453 H   0  0  0  0  0  0
    6.7786   56.0967   22.9959 H   0  0  0  0  0  0
    3.8680   54.6368   23.3944 H   0  0  0  0  0  0
    2.7122   53.9275   25.4233 H   0  0  0  0  0  0
    7.5931   54.6496   25.4905 H   0  0  0  0  0  0
    7.6425   54.4496   27.8931 H   0  0  0  0  0  0
    6.1652   54.2655   28.8057 H   0  0  0  0  0  0
    6.9204   52.8398   28.0808 H   0  0  0  0  0  0
    4.5298   52.8351   28.3614 H   0  0  0  0  0  0
    1.4457   52.7304   26.6498 H   0  0  0  0  0  0
   -1.7816   50.6236   28.5276 H   0  0  0  0  0  0
   -1.1812   51.6157   30.6718 H   0  0  0  0  0  0
   -0.0964   53.2775   31.9473 H   0  0  0  0  0  0
    1.6190   52.8961   31.7339 H   0  0  0  0  0  0
    0.9520   54.4432   31.1734 H   0  0  0  0  0  0
   -0.8954   49.2390   26.9862 H   0  0  0  0  0  0
   -2.7759   48.0982   26.0546 H   0  0  0  0  0  0
   -2.3906   46.8200   21.9696 H   0  0  0  0  0  0
   -0.3650   48.1777   21.7363 H   0  0  0  0  0  0
  1  2  1  0  0  0
  1 34  1  0  0  0
  1 35  1  0  0  0
  1 36  1  0  0  0
  2  7  2  0  0  0
  2  3  1  0  0  0
  3  4  2  0  0  0
  3 37  1  0  0  0
  4  5  1  0  0  0
  4 38  1  0  0  0
  5  6  2  0  0  0
  5  9  1  0  0  0
  6  7  1  0  0  0
  6  8  1  0  0  0
  7 39  1  0  0  0
  8 40  1  0  0  0
  8 41  1  0  0  0
  8 42  1  0  0  0
  9 10  1  0  0  0
  9 43  1  0  0  0
 10 11  2  0  0  0
 10 12  2  0  0  0
 10 13  1  0  0  0
 13 18  2  0  0  0
 13 14  1  0  0  0
 14 15  2  0  0  0
 14 44  1  0  0  0
 15 16  1  0  0  0
 15 20  1  0  0  0
 16 17  2  0  0  0
 16 45  1  0  0  0
 17 18  1  0  0  0
 17 46  1  0  0  0
 18 19  1  0  0  0
 19 47  1  0  0  0
 19 48  1  0  0  0
 19 49  1  0  0  0
 20 21  2  0  0  0
 20 22  1  0  0  0
 22 23  1  0  0  0
 22 50  1  0  0  0
 23 28  2  0  0  0
 23 24  1  0  0  0
 24 25  2  0  0  0
 24 51  1  0  0  0
 25 26  1  0  0  0
 25 30  1  0  0  0
 26 27  2  0  0  0
 26 52  1  0  0  0
 27 28  1  0  0  0
 27 53  1  0  0  0
 28 29  1  0  0  0
 30 31  1  0  0  0
 30 32  1  0  0  0
 30 33  1  0  0  0
M  END
> <i_i_glide_confnum>
7

> <i_i_glide_lignum>
5176

> <i_i_glide_posenum>
266

> <i_i_glide_rotatable_bonds>
7

> <i_m_Source_File_Index>
1595

> <b_m_subgroup_collapsed>
0

> <r_i_docking_score>
-5.63142

> <r_i_glide_ecoul>
-9.73126

> <r_i_glide_eff_state_penalty>
0

> <r_i_glide_einternal>
17.5965

> <r_i_glide_emodel>
-60.4019

> <r_i_glide_energy>
-53.1536

> <r_i_glide_erotb>
0.495562

> <r_i_glide_esite>
-0.320929

> <r_i_glide_evdw>
-43.4223

> <r_i_glide_gscore>
-5.63142

> <r_i_glide_hbond>
-0.16

> <r_i_glide_ligand_efficiency>
-0.170649

> <r_i_glide_ligand_efficiency_ln>
-1.2524

> <r_i_glide_ligand_efficiency_sa>
-0.547363

> <r_i_glide_lipo>
-2.56197

> <r_i_glide_metal>
0

> <r_i_glide_rewards>
0.546725

> <s_i_glide_gridfile>
wee1_glide-grid

> <s_m_Source_File>
wee1_decoys_glide_SP.sdf

> <s_m_Source_Path>
/Users/zhangxujun/Desktop

> <s_m_entry_id>
1870

> <s_m_entry_name>
wee1_decoys_glide_SP.1595

> <s_m_subgroup_title>
wee1_decoys_glide_SP

> <s_m_subgroupid>
wee1_decoys_glide_SP


$$$$
