ZINC01118485_2262
                    3D
 Schrodinger Suite 2024-2.
 54 56  0  0  1  0            999 V2000
    4.9118   55.0641   25.3675 C   0  0  0  0  0  0
    3.5810   54.3827   25.1072 C   0  0  0  0  0  0
    3.0026   54.4469   23.8391 C   0  0  0  0  0  0
    1.8091   53.7804   23.5784 C   0  0  0  0  0  0
    1.1935   53.0453   24.5916 C   0  0  0  0  0  0
    1.7666   52.9796   25.8637 C   0  0  0  0  0  0
    2.9571   53.6569   26.1225 C   0  0  0  0  0  0
   -0.2852   52.1078   24.2193 S   0  0  0  0  0  0
   -1.0936   52.8966   23.2825 O   0  0  0  0  0  0
   -0.8468   51.6350   25.4896 O   0  0  0  0  0  0
    0.3021   50.6751   23.3400 N   0  0  0  0  0  0
    1.1165   49.6963   24.0502 C   0  0  0  0  0  0
   -0.1393   50.3574   22.0447 C   0  0  0  0  0  0
   -1.4397   49.8522   21.9272 C   0  0  0  0  0  0
   -1.9697   49.5227   20.6826 C   0  0  0  0  0  0
   -1.2005   49.6931   19.5365 C   0  0  0  0  0  0
    0.0909   50.2088   19.6339 C   0  0  0  0  0  0
    0.6405   50.5629   20.8785 C   0  0  0  0  0  0
    2.0328   51.1585   20.9229 C   0  0  0  0  0  0
    2.8516   50.7956   21.7672 O   0  0  0  0  0  0
    2.2780   52.0966   19.9830 N   0  0  0  0  0  0
    3.4483   52.8504   19.7988 C   0  0  0  0  0  0
    4.2821   53.2358   20.8541 C   0  0  0  0  0  0
    5.4055   54.0159   20.6042 C   0  0  0  0  0  0
    5.7289   54.3789   19.2886 C   0  0  0  0  0  0
    4.8884   54.0025   18.2402 C   0  0  0  0  0  0
    3.7399   53.2590   18.4969 C   0  0  0  0  0  0
    6.9094   55.0528   18.9325 N   0  0  0  0  0  0
    7.7213   55.7950   19.7087 C   0  0  0  0  0  0
    7.5037   56.0967   20.8824 O   0  0  0  0  0  0
    8.9861   56.2985   19.0272 C   0  0  0  0  0  0
    5.5321   55.0606   24.4696 H   0  0  0  0  0  0
    4.7625   56.0960   25.6817 H   0  0  0  0  0  0
    5.4793   54.5394   26.1374 H   0  0  0  0  0  0
    3.4835   54.9994   23.0451 H   0  0  0  0  0  0
    1.3823   53.8191   22.5864 H   0  0  0  0  0  0
    1.3032   52.3946   26.6461 H   0  0  0  0  0  0
    3.4064   53.5912   27.1022 H   0  0  0  0  0  0
    1.0937   48.7193   23.5628 H   0  0  0  0  0  0
    2.1568   50.0200   24.0810 H   0  0  0  0  0  0
    0.7719   49.5649   25.0770 H   0  0  0  0  0  0
   -2.0463   49.7138   22.8113 H   0  0  0  0  0  0
   -2.9732   49.1327   20.6096 H   0  0  0  0  0  0
   -1.6034   49.4304   18.5690 H   0  0  0  0  0  0
    0.6620   50.3228   18.7214 H   0  0  0  0  0  0
    1.5588   52.2439   19.2916 H   0  0  0  0  0  0
    4.0731   52.9387   21.8696 H   0  0  0  0  0  0
    6.0356   54.2777   21.4409 H   0  0  0  0  0  0
    5.1224   54.2696   17.2190 H   0  0  0  0  0  0
    3.1031   52.9699   17.6734 H   0  0  0  0  0  0
    7.1583   54.9875   17.9565 H   0  0  0  0  0  0
    8.7436   56.9124   18.1617 H   0  0  0  0  0  0
    9.5991   55.4603   18.6995 H   0  0  0  0  0  0
    9.5834   56.8966   19.7140 H   0  0  0  0  0  0
  1  2  1  0  0  0
  1 32  1  0  0  0
  1 33  1  0  0  0
  1 34  1  0  0  0
  2  7  2  0  0  0
  2  3  1  0  0  0
  3  4  2  0  0  0
  3 35  1  0  0  0
  4  5  1  0  0  0
  4 36  1  0  0  0
  5  6  2  0  0  0
  5  8  1  0  0  0
  6  7  1  0  0  0
  6 37  1  0  0  0
  7 38  1  0  0  0
  8  9  2  0  0  0
  8 10  2  0  0  0
  8 11  1  0  0  0
 11 12  1  0  0  0
 11 13  1  0  0  0
 12 39  1  0  0  0
 12 40  1  0  0  0
 12 41  1  0  0  0
 13 18  2  0  0  0
 13 14  1  0  0  0
 14 15  2  0  0  0
 14 42  1  0  0  0
 15 16  1  0  0  0
 15 43  1  0  0  0
 16 17  2  0  0  0
 16 44  1  0  0  0
 17 18  1  0  0  0
 17 45  1  0  0  0
 18 19  1  0  0  0
 19 20  2  0  0  0
 19 21  1  0  0  0
 21 22  1  0  0  0
 21 46  1  0  0  0
 22 27  2  0  0  0
 22 23  1  0  0  0
 23 24  2  0  0  0
 23 47  1  0  0  0
 24 25  1  0  0  0
 24 48  1  0  0  0
 25 26  2  0  0  0
 25 28  1  0  0  0
 26 27  1  0  0  0
 26 49  1  0  0  0
 27 50  1  0  0  0
 28 29  1  0  0  0
 28 51  1  0  0  0
 29 30  2  0  0  0
 29 31  1  0  0  0
 31 52  1  0  0  0
 31 53  1  0  0  0
 31 54  1  0  0  0
M  END
> <i_i_glide_confnum>
26

> <i_i_glide_lignum>
2263

> <i_i_glide_posenum>
391

> <i_i_glide_rotatable_bonds>
8

> <i_m_Source_File_Index>
457

> <b_m_subgroup_collapsed>
0

> <r_i_docking_score>
-4.05484

> <r_i_glide_ecoul>
-5.04273

> <r_i_glide_eff_state_penalty>
0

> <r_i_glide_einternal>
4.54456

> <r_i_glide_emodel>
-49.6506

> <r_i_glide_energy>
-41.3211

> <r_i_glide_erotb>
0.729265

> <r_i_glide_esite>
-0.0338203

> <r_i_glide_evdw>
-36.2784

> <r_i_glide_gscore>
-4.05484

> <r_i_glide_hbond>
-0.111049

> <r_i_glide_ligand_efficiency>
-0.130801

> <r_i_glide_ligand_efficiency_ln>
-0.91449

> <r_i_glide_ligand_efficiency_sa>
-0.410896

> <r_i_glide_lipo>
-1.59839

> <r_i_glide_metal>
0

> <r_i_glide_rewards>
-0.470515

> <s_i_glide_gridfile>
wee1_glide-grid

> <s_m_Source_File>
wee1_decoys_glide_SP.sdf

> <s_m_Source_Path>
/Users/zhangxujun/Desktop

> <s_m_entry_id>
732

> <s_m_entry_name>
wee1_decoys_glide_SP.457

> <s_m_subgroup_title>
wee1_decoys_glide_SP

> <s_m_subgroupid>
wee1_decoys_glide_SP


$$$$
