ZINC40127576_5815
                    3D
 Schrodinger Suite 2024-2.
 67 70  0  0  1  0            999 V2000
    0.0401   53.8374   30.8525 C   0  0  0  0  0  0
    1.3837   53.7656   30.1537 C   0  0  0  0  0  0
    2.0940   52.5633   30.1513 C   0  0  0  0  0  0
    3.3266   52.4860   29.5086 C   0  0  0  0  0  0
    3.8545   53.6073   28.8610 C   0  0  0  0  0  0
    3.1474   54.8160   28.8891 C   0  0  0  0  0  0
    1.9154   54.8959   29.5320 C   0  0  0  0  0  0
    5.1955   53.4722   28.1385 C   0  0  0  0  0  0
    5.5263   54.6353   27.3817 O   0  0  0  0  0  0
    5.3875   54.5163   26.0215 C   0  0  0  0  0  0
    4.1270   54.4976   25.4212 C   0  0  0  0  0  0
    4.0213   54.4240   24.0332 C   0  0  0  0  0  0
    5.1671   54.3047   23.2366 C   0  0  0  0  0  0
    6.4249   54.3516   23.8541 C   0  0  0  0  0  0
    6.5337   54.4637   25.2367 C   0  0  0  0  0  0
    5.1136   54.2864   21.7347 C   0  0  0  0  0  0
    5.9571   54.9467   21.1274 O   0  0  0  0  0  0
    4.2374   53.3755   20.9604 C   0  0  0  0  0  0
    3.2323   52.5504   21.3334 C   0  0  0  0  0  0
    2.7207   51.7611   20.2285 C   0  0  0  0  0  0
    1.8128   50.9279   20.1899 O   0  0  0  0  0  0
    3.5046   52.0970   19.2003 N   0  0  0  0  0  0
    4.4582   53.1501   19.4734 C   0  0  1  0  0  0
    5.4523   52.7285   19.3062 H   0  0  0  0  0  0
    4.3112   54.3608   18.5209 C   0  0  0  0  0  0
    5.4160   55.1605   18.2075 C   0  0  0  0  0  0
    5.3015   56.2227   17.3119 C   0  0  0  0  0  0
    4.0829   56.4887   16.6683 C   0  0  0  0  0  0
    2.9705   55.6853   16.9516 C   0  0  0  0  0  0
    3.1044   54.6242   17.8622 C   0  0  0  0  0  0
    1.7801   55.9977   16.3138 O   0  0  0  0  0  0
    0.6039   55.2602   16.6199 C   0  0  0  0  0  0
    3.8941   57.4974   15.7396 O   0  0  0  0  0  0
    4.9361   58.4150   15.4171 C   0  0  0  0  0  0
    4.6172   59.0976   14.0696 C   0  0  0  0  0  0
    4.7434   58.1152   12.8904 C   0  0  0  0  0  0
    3.2380   59.7814   14.0681 C   0  0  0  0  0  0
    2.7006   52.3355   22.4833 O   0  5  0  0  0  0
   -0.7162   53.3209   30.2581 H   0  0  0  0  0  0
    0.0872   53.3448   31.8260 H   0  0  0  0  0  0
   -0.2694   54.8691   31.0248 H   0  0  0  0  0  0
    1.6803   51.6971   30.6459 H   0  0  0  0  0  0
    3.8685   51.5498   29.4937 H   0  0  0  0  0  0
    3.5439   55.6967   28.4085 H   0  0  0  0  0  0
    1.3772   55.8337   29.5442 H   0  0  0  0  0  0
    5.1943   52.5647   27.5303 H   0  0  0  0  0  0
    5.9789   53.3366   28.8828 H   0  0  0  0  0  0
    3.2358   54.5679   26.0252 H   0  0  0  0  0  0
    3.0391   54.4822   23.5878 H   0  0  0  0  0  0
    7.3317   54.3104   23.2674 H   0  0  0  0  0  0
    7.5037   54.4977   25.7027 H   0  0  0  0  0  0
    3.5984   51.5172   18.3730 H   0  0  0  0  0  0
    6.3730   54.9650   18.6651 H   0  0  0  0  0  0
    6.1781   56.8189   17.1265 H   0  0  0  0  0  0
    2.2521   54.0043   18.0920 H   0  0  0  0  0  0
   -0.2290   55.6616   16.0449 H   0  0  0  0  0  0
    0.7095   54.2066   16.3563 H   0  0  0  0  0  0
    0.3479   55.3435   17.6784 H   0  0  0  0  0  0
    5.9055   57.9213   15.3274 H   0  0  0  0  0  0
    5.0267   59.1552   16.2137 H   0  0  0  0  0  0
    5.3654   59.8796   13.9258 H   0  0  0  0  0  0
    4.0240   57.2969   12.9778 H   0  0  0  0  0  0
    5.7397   57.6756   12.8452 H   0  0  0  0  0  0
    4.5632   58.6140   11.9384 H   0  0  0  0  0  0
    2.4316   59.0568   14.1862 H   0  0  0  0  0  0
    3.1497   60.4968   14.8813 H   0  0  0  0  0  0
    3.0643   60.3218   13.1390 H   0  0  0  0  0  0
  1  2  1  0  0  0
  1 39  1  0  0  0
  1 40  1  0  0  0
  1 41  1  0  0  0
  2  7  2  0  0  0
  2  3  1  0  0  0
  3  4  2  0  0  0
  3 42  1  0  0  0
  4  5  1  0  0  0
  4 43  1  0  0  0
  5  6  2  0  0  0
  5  8  1  0  0  0
  6  7  1  0  0  0
  6 44  1  0  0  0
  7 45  1  0  0  0
  8  9  1  0  0  0
  8 46  1  0  0  0
  8 47  1  0  0  0
  9 10  1  0  0  0
 10 15  2  0  0  0
 10 11  1  0  0  0
 11 12  2  0  0  0
 11 48  1  0  0  0
 12 13  1  0  0  0
 12 49  1  0  0  0
 13 14  2  0  0  0
 13 16  1  0  0  0
 14 15  1  0  0  0
 14 50  1  0  0  0
 15 51  1  0  0  0
 16 17  2  0  0  0
 16 18  1  0  0  0
 18 23  1  0  0  0
 18 19  2  0  0  0
 19 20  1  0  0  0
 19 38  1  0  0  0
 20 21  2  0  0  0
 20 22  1  0  0  0
 22 23  1  0  0  0
 22 52  1  0  0  0
 23 24  1  0  0  0
 23 25  1  0  0  0
 25 30  2  0  0  0
 25 26  1  0  0  0
 26 27  2  0  0  0
 26 53  1  0  0  0
 27 28  1  0  0  0
 27 54  1  0  0  0
 28 29  2  0  0  0
 28 33  1  0  0  0
 29 30  1  0  0  0
 29 31  1  0  0  0
 30 55  1  0  0  0
 31 32  1  0  0  0
 32 56  1  0  0  0
 32 57  1  0  0  0
 32 58  1  0  0  0
 33 34  1  0  0  0
 34 35  1  0  0  0
 34 59  1  0  0  0
 34 60  1  0  0  0
 35 36  1  0  0  0
 35 37  1  0  0  0
 35 61  1  0  0  0
 36 62  1  0  0  0
 36 63  1  0  0  0
 36 64  1  0  0  0
 37 65  1  0  0  0
 37 66  1  0  0  0
 37 67  1  0  0  0
M  CHG  1  38  -1
M  END
> <i_i_glide_confnum>
60

> <i_i_glide_lignum>
5816

> <i_i_glide_posenum>
322

> <i_i_glide_rotatable_bonds>
10

> <i_m_Source_File_Index>
3918

> <b_m_subgroup_collapsed>
0

> <r_i_docking_score>
-3.76518

> <r_i_glide_ecoul>
-0.946349

> <r_i_glide_eff_state_penalty>
0

> <r_i_glide_einternal>
8.74498

> <r_i_glide_emodel>
-49.714

> <r_i_glide_energy>
-47.4761

> <r_i_glide_erotb>
0.651988

> <r_i_glide_esite>
-0.108759

> <r_i_glide_evdw>
-46.5298

> <r_i_glide_gscore>
-3.76518

> <r_i_glide_hbond>
-0.0443389

> <r_i_glide_ligand_efficiency>
-0.101762

> <r_i_glide_ligand_efficiency_ln>
-0.81658

> <r_i_glide_ligand_efficiency_sa>
-0.339093

> <r_i_glide_lipo>
-3.28167

> <r_i_glide_metal>
0

> <r_i_glide_rewards>
1.48604

> <s_i_glide_gridfile>
wee1_glide-grid

> <s_m_Source_File>
wee1_decoys_glide_SP.sdf

> <s_m_Source_Path>
/Users/zhangxujun/Desktop

> <s_m_entry_id>
4193

> <s_m_entry_name>
wee1_decoys_glide_SP.3918

> <s_m_subgroup_title>
wee1_decoys_glide_SP

> <s_m_subgroupid>
wee1_decoys_glide_SP


$$$$
