ZINC36221439_1734
                    3D
 Schrodinger Suite 2024-2.
 34 36  0  0  1  0            999 V2000
    6.4887   54.7508   25.2862 C   0  0  0  0  0  0
    6.0751   54.4974   26.5876 C   0  0  0  0  0  0
    4.7656   54.0918   26.8286 C   0  0  0  0  0  0
    3.8318   53.9337   25.7850 C   0  0  0  0  0  0
    4.2720   54.1889   24.4567 C   0  0  0  0  0  0
    5.5944   54.5894   24.2365 C   0  0  0  0  0  0
    3.3516   54.0032   23.2557 C   0  0  0  0  0  0
    1.8903   54.0589   23.6915 C   0  0  0  0  0  0
    1.6835   53.1157   24.8826 C   0  0  0  0  0  0
    2.5001   53.5210   26.0432 N   0  0  0  0  0  0
    1.9144   53.3786   27.3058 C   0  0  0  0  0  0
    1.1584   52.2410   27.6392 C   0  0  0  0  0  0
    0.6080   52.1011   28.9160 C   0  0  0  0  0  0
    0.8196   53.1137   29.8520 C   0  0  0  0  0  0
    1.5358   54.2337   29.5534 N   0  0  0  0  0  0
    2.0569   54.3518   28.3064 C   0  0  0  0  0  0
    0.3044   52.9942   31.1509 N   0  0  0  0  0  0
    0.2989   54.0960   32.0822 N   0  0  0  0  0  0
    7.5042   55.0533   25.0781 H   0  0  0  0  0  0
    6.7678   54.6002   27.4114 H   0  0  0  0  0  0
    4.5053   53.8692   27.8507 H   0  0  0  0  0  0
    5.9388   54.7753   23.2283 H   0  0  0  0  0  0
    3.5443   54.7517   22.4863 H   0  0  0  0  0  0
    3.5602   53.0319   22.8046 H   0  0  0  0  0  0
    1.2423   53.7715   22.8629 H   0  0  0  0  0  0
    1.6018   55.0731   23.9669 H   0  0  0  0  0  0
    1.9772   52.0991   24.6090 H   0  0  0  0  0  0
    0.6216   53.0831   25.1334 H   0  0  0  0  0  0
    1.0125   51.4480   26.9195 H   0  0  0  0  0  0
    0.0351   51.2197   29.1705 H   0  0  0  0  0  0
    2.6027   55.2645   28.1123 H   0  0  0  0  0  0
   -0.2845   52.2243   31.4713 H   0  0  0  0  0  0
    1.2499   54.3086   32.3461 H   0  0  0  0  0  0
   -0.1377   54.8885   31.6351 H   0  0  0  0  0  0
  1  6  2  0  0  0
  1  2  1  0  0  0
  1 19  1  0  0  0
  2  3  2  0  0  0
  2 20  1  0  0  0
  3  4  1  0  0  0
  3 21  1  0  0  0
  4 10  1  0  0  0
  4  5  2  0  0  0
  5  6  1  0  0  0
  5  7  1  0  0  0
  6 22  1  0  0  0
  7  8  1  0  0  0
  7 23  1  0  0  0
  7 24  1  0  0  0
  8  9  1  0  0  0
  8 25  1  0  0  0
  8 26  1  0  0  0
  9 10  1  0  0  0
  9 27  1  0  0  0
  9 28  1  0  0  0
 10 11  1  0  0  0
 11 16  2  0  0  0
 11 12  1  0  0  0
 12 13  2  0  0  0
 12 29  1  0  0  0
 13 14  1  0  0  0
 13 30  1  0  0  0
 14 15  2  0  0  0
 14 17  1  0  0  0
 15 16  1  0  0  0
 16 31  1  0  0  0
 17 18  1  0  0  0
 17 32  1  0  0  0
 18 33  1  0  0  0
 18 34  1  0  0  0
M  END
> <i_i_glide_confnum>
2

> <i_i_glide_lignum>
1735

> <i_i_glide_posenum>
34

> <i_i_glide_rotatable_bonds>
2

> <i_m_Source_File_Index>
3716

> <b_m_subgroup_collapsed>
0

> <r_i_docking_score>
-6.91491

> <r_i_glide_ecoul>
-0.700751

> <r_i_glide_eff_state_penalty>
0

> <r_i_glide_einternal>
0.604658

> <r_i_glide_emodel>
-48.1352

> <r_i_glide_energy>
-34.2114

> <r_i_glide_erotb>
0.299598

> <r_i_glide_esite>
-0.0748578

> <r_i_glide_evdw>
-33.5107

> <r_i_glide_gscore>
-6.91491

> <r_i_glide_hbond>
-0.0827605

> <r_i_glide_ligand_efficiency>
-0.384162

> <r_i_glide_ligand_efficiency_ln>
-1.77744

> <r_i_glide_ligand_efficiency_sa>
-1.00679

> <r_i_glide_lipo>
-3.18439

> <r_i_glide_metal>
0

> <r_i_glide_rewards>
-2.09186

> <s_i_glide_gridfile>
wee1_glide-grid

> <s_m_Source_File>
wee1_decoys_glide_SP.sdf

> <s_m_Source_Path>
/Users/zhangxujun/Desktop

> <s_m_entry_id>
3991

> <s_m_entry_name>
wee1_decoys_glide_SP.3716

> <s_m_subgroup_title>
wee1_decoys_glide_SP

> <s_m_subgroupid>
wee1_decoys_glide_SP


$$$$
