ZINC03047125_713
                    3D
 Schrodinger Suite 2024-2.
 46 49  0  0  1  0            999 V2000
    6.4231   54.4644   25.7915 C   0  0  0  0  0  0
    6.0924   54.3554   27.1397 C   0  0  0  0  0  0
    4.7678   54.1272   27.5069 C   0  0  0  0  0  0
    3.7784   53.9996   26.5357 C   0  0  0  0  0  0
    4.1112   54.1005   25.1864 C   0  0  0  0  0  0
    5.4388   54.3367   24.8020 C   0  0  0  0  0  0
    5.8071   54.4946   23.3808 C   0  0  0  0  0  0
    6.7046   55.3430   23.0320 N   0  0  0  0  0  0
    7.1695   55.4161   21.7577 C   0  0  0  0  0  0
    6.5137   55.0407   20.6396 C   0  0  0  0  0  0
    5.1297   54.5031   20.6894 C   0  0  2  0  0  0
    4.3911   55.2948   20.7385 H   0  0  0  0  0  0
    4.8888   53.4681   22.1753 S   0  0  0  0  0  0
    4.9918   53.7967   19.3636 C   0  0  0  0  0  0
    4.0499   53.0774   19.0336 O   0  0  0  0  0  0
    6.0811   54.1549   18.6395 N   0  0  0  0  0  0
    6.9793   54.9480   19.2898 C   0  0  0  0  0  0
    8.0334   55.3922   18.8374 O   0  0  0  0  0  0
    6.3253   53.6628   17.2722 C   0  0  0  0  0  0
    7.4352   52.5883   17.2386 C   0  0  0  0  0  0
    7.7962   52.1608   15.8848 N   0  0  0  0  0  0
    8.8961   51.2959   15.6086 C   0  0  0  0  0  0
    9.0815   50.7543   14.3261 C   0  0  0  0  0  0
   10.1681   49.9115   14.0835 C   0  0  0  0  0  0
   11.0730   49.6147   15.1111 C   0  0  0  0  0  0
   10.8382   50.1502   16.3853 C   0  0  0  0  0  0
   12.2717   48.7065   14.8344 C   0  0  0  0  0  0
   11.9074   47.6708   14.0823 F   0  0  0  0  0  0
   12.8043   48.2308   15.9622 F   0  0  0  0  0  0
   13.2032   49.4022   14.1858 F   0  0  0  0  0  0
    7.9900   51.1004   13.0287 Cl  0  0  0  0  0  0
    4.3490   54.0161   29.1786 Cl  0  0  0  0  0  0
    7.4509   54.6400   25.5107 H   0  0  0  0  0  0
    6.8557   54.4546   27.8972 H   0  0  0  0  0  0
    2.7524   53.8226   26.8246 H   0  0  0  0  0  0
    3.3230   54.0105   24.4505 H   0  0  0  0  0  0
    8.1890   55.7749   21.6765 H   0  0  0  0  0  0
    6.5991   54.5074   16.6369 H   0  0  0  0  0  0
    5.4075   53.2469   16.8462 H   0  0  0  0  0  0
    7.1189   51.6962   17.7805 H   0  0  0  0  0  0
    8.3462   52.9679   17.6998 H   0  0  0  0  0  0
    7.1633   52.3914   15.1317 H   0  0  0  0  0  0
   10.3045   49.4974   13.0958 H   0  0  0  0  0  0
   11.4644   49.9759   17.2527 H   0  0  0  0  0  0
    9.7761   50.9587   16.5805 N   0  3  0  0  0  0
    9.6320   51.3362   17.5071 H   0  0  0  0  0  0
  1  6  2  0  0  0
  1  2  1  0  0  0
  1 33  1  0  0  0
  2  3  2  0  0  0
  2 34  1  0  0  0
  3  4  1  0  0  0
  3 32  1  0  0  0
  4  5  2  0  0  0
  4 35  1  0  0  0
  5  6  1  0  0  0
  5 36  1  0  0  0
  6  7  1  0  0  0
  7 13  1  0  0  0
  7  8  2  0  0  0
  8  9  1  0  0  0
  9 10  2  0  0  0
  9 37  1  0  0  0
 10 17  1  0  0  0
 10 11  1  0  0  0
 11 12  1  0  0  0
 11 13  1  0  0  0
 11 14  1  0  0  0
 14 15  2  0  0  0
 14 16  1  0  0  0
 16 17  1  0  0  0
 16 19  1  0  0  0
 17 18  2  0  0  0
 19 20  1  0  0  0
 19 38  1  0  0  0
 19 39  1  0  0  0
 20 21  1  0  0  0
 20 40  1  0  0  0
 20 41  1  0  0  0
 21 22  1  0  0  0
 21 42  1  0  0  0
 22 23  2  0  0  0
 22 45  1  0  0  0
 23 24  1  0  0  0
 23 31  1  0  0  0
 24 25  2  0  0  0
 24 43  1  0  0  0
 25 26  1  0  0  0
 25 27  1  0  0  0
 26 44  1  0  0  0
 26 45  2  0  0  0
 27 28  1  0  0  0
 27 29  1  0  0  0
 27 30  1  0  0  0
 45 46  1  0  0  0
M  CHG  1  45   1
M  END
> <i_i_glide_confnum>
36

> <i_i_glide_lignum>
714

> <i_i_glide_posenum>
44

> <i_i_glide_rotatable_bonds>
6

> <i_m_Source_File_Index>
1229

> <b_m_subgroup_collapsed>
0

> <r_i_docking_score>
-5.64583

> <r_i_glide_ecoul>
-2.78415

> <r_i_glide_eff_state_penalty>
0

> <r_i_glide_einternal>
5.44167

> <r_i_glide_emodel>
-62.2081

> <r_i_glide_energy>
-44.8579

> <r_i_glide_erotb>
0.404886

> <r_i_glide_esite>
-0.190081

> <r_i_glide_evdw>
-42.0738

> <r_i_glide_gscore>
-5.64583

> <r_i_glide_hbond>
0

> <r_i_glide_ligand_efficiency>
-0.176432

> <r_i_glide_ligand_efficiency_ln>
-1.26425

> <r_i_glide_ligand_efficiency_sa>
-0.560137

> <r_i_glide_lipo>
-2.76503

> <r_i_glide_metal>
0

> <r_i_glide_rewards>
-0.574286

> <s_i_glide_gridfile>
wee1_glide-grid

> <s_m_Source_File>
wee1_decoys_glide_SP.sdf

> <s_m_Source_Path>
/Users/zhangxujun/Desktop

> <s_m_entry_id>
1504

> <s_m_entry_name>
wee1_decoys_glide_SP.1229

> <s_m_subgroup_title>
wee1_decoys_glide_SP

> <s_m_subgroupid>
wee1_decoys_glide_SP


$$$$
