ZINC38547701_5103
                    3D
 Schrodinger Suite 2024-2.
 62 65  0  0  1  0            999 V2000
    2.4506   52.0958   18.8728 C   0  0  0  0  0  0
    2.2450   51.6763   20.3162 C   0  0  0  0  0  0
    2.3528   50.3456   20.7310 C   0  0  0  0  0  0
    2.1979   50.0400   22.0866 C   0  0  0  0  0  0
    1.9435   51.0687   22.9972 C   0  0  0  0  0  0
    1.8522   52.4001   22.5589 C   0  0  0  0  0  0
    1.9900   52.6339   21.2350 N   0  3  0  0  0  0
    1.6389   53.5371   23.4070 N   0  0  0  0  0  0
    1.3336   53.5493   24.8629 C   0  0  1  0  0  0
    0.7104   54.4439   24.8814 H   0  0  0  0  0  0
    0.3480   52.4189   25.2586 C   0  0  0  0  0  0
    0.7041   51.4883   26.2404 C   0  0  0  0  0  0
   -0.1035   50.3985   26.5126 C   0  0  0  0  0  0
   -1.2792   50.2014   25.8065 C   0  0  0  0  0  0
   -1.6873   51.1202   24.8320 C   0  0  0  0  0  0
   -0.8893   52.2616   24.5928 C   0  0  0  0  0  0
   -1.2660   53.2317   23.6842 O   0  0  0  0  0  0
   -2.6165   53.6964   23.7386 C   0  0  0  0  0  0
   -2.8380   50.9485   24.0778 O   0  0  0  0  0  0
   -3.6788   49.8263   24.3175 C   0  0  0  0  0  0
    2.5352   53.8313   25.8335 C   0  0  0  0  0  0
    2.3870   54.0900   27.2424 C   0  0  0  0  0  0
    3.6009   54.1686   27.9355 C   0  0  0  0  0  0
    4.9356   54.0962   26.8579 S   0  0  0  0  0  0
    3.8923   54.0070   25.4649 C   0  0  0  0  0  0
    4.4080   54.0968   24.1685 N   0  0  0  0  0  0
    5.6542   54.4636   23.7768 C   0  0  0  0  0  0
    6.6016   54.7376   24.5159 O   0  0  0  0  0  0
    5.7858   54.5812   22.3497 C   0  0  0  0  0  0
    5.1691   53.9280   21.2858 C   0  0  0  0  0  0
    5.6784   54.4911   20.1123 C   0  0  0  0  0  0
    6.6421   55.4037   20.5065 C   0  0  0  0  0  0
    6.7244   55.4390   21.8601 O   0  0  0  0  0  0
    3.8618   54.3315   29.4195 C   0  0  0  0  0  0
    1.0697   54.1978   27.9989 C   0  0  0  0  0  0
    2.5456   51.2249   18.2165 H   0  0  0  0  0  0
    1.6140   52.7004   18.5178 H   0  0  0  0  0  0
    3.3674   52.6779   18.7786 H   0  0  0  0  0  0
    2.5737   49.5607   20.0167 H   0  0  0  0  0  0
    2.2923   49.0193   22.4303 H   0  0  0  0  0  0
    1.8708   50.8085   24.0408 H   0  0  0  0  0  0
    1.6323   54.4448   22.9627 H   0  0  0  0  0  0
    1.6129   51.5891   26.8103 H   0  0  0  0  0  0
    0.1797   49.6956   27.2792 H   0  0  0  0  0  0
   -1.8540   49.3205   26.0478 H   0  0  0  0  0  0
   -2.6422   54.7798   23.6814 H   0  0  0  0  0  0
   -3.1756   53.2962   22.8931 H   0  0  0  0  0  0
   -3.1391   53.4302   24.6595 H   0  0  0  0  0  0
   -4.5404   49.8757   23.6524 H   0  0  0  0  0  0
   -3.1614   48.8882   24.1153 H   0  0  0  0  0  0
   -4.0560   49.8142   25.3409 H   0  0  0  0  0  0
    3.7404   53.9370   23.4334 H   0  0  0  0  0  0
    4.4446   53.1360   21.3508 H   0  0  0  0  0  0
    5.4083   54.2280   19.0994 H   0  0  0  0  0  0
    7.3257   56.0404   19.9659 H   0  0  0  0  0  0
    3.0185   54.7928   29.9368 H   0  0  0  0  0  0
    4.0556   53.3688   29.8964 H   0  0  0  0  0  0
    4.7312   54.9653   29.6123 H   0  0  0  0  0  0
    0.2355   53.6650   27.5586 H   0  0  0  0  0  0
    1.1444   53.7831   29.0061 H   0  0  0  0  0  0
    0.7667   55.2392   28.1060 H   0  0  0  0  0  0
    1.8983   53.5861   20.9000 H   0  0  0  0  0  0
  1  2  1  0  0  0
  1 36  1  0  0  0
  1 37  1  0  0  0
  1 38  1  0  0  0
  2  7  2  0  0  0
  2  3  1  0  0  0
  3  4  2  0  0  0
  3 39  1  0  0  0
  4  5  1  0  0  0
  4 40  1  0  0  0
  5  6  2  0  0  0
  5 41  1  0  0  0
  6  7  1  0  0  0
  6  8  1  0  0  0
  7 62  1  0  0  0
  8  9  1  0  0  0
  8 42  1  0  0  0
  9 10  1  0  0  0
  9 11  1  0  0  0
  9 21  1  0  0  0
 11 16  2  0  0  0
 11 12  1  0  0  0
 12 13  2  0  0  0
 12 43  1  0  0  0
 13 14  1  0  0  0
 13 44  1  0  0  0
 14 15  2  0  0  0
 14 45  1  0  0  0
 15 16  1  0  0  0
 15 19  1  0  0  0
 16 17  1  0  0  0
 17 18  1  0  0  0
 18 46  1  0  0  0
 18 47  1  0  0  0
 18 48  1  0  0  0
 19 20  1  0  0  0
 20 49  1  0  0  0
 20 50  1  0  0  0
 20 51  1  0  0  0
 21 25  2  0  0  0
 21 22  1  0  0  0
 22 23  2  0  0  0
 22 35  1  0  0  0
 23 24  1  0  0  0
 23 34  1  0  0  0
 24 25  1  0  0  0
 25 26  1  0  0  0
 26 27  1  0  0  0
 26 52  1  0  0  0
 27 28  2  0  0  0
 27 29  1  0  0  0
 29 33  1  0  0  0
 29 30  2  0  0  0
 30 31  1  0  0  0
 30 53  1  0  0  0
 31 32  2  0  0  0
 31 54  1  0  0  0
 32 33  1  0  0  0
 32 55  1  0  0  0
 34 56  1  0  0  0
 34 57  1  0  0  0
 34 58  1  0  0  0
 35 59  1  0  0  0
 35 60  1  0  0  0
 35 61  1  0  0  0
M  CHG  1   7   1
M  END
> <i_i_glide_confnum>
76

> <i_i_glide_lignum>
5104

> <i_i_glide_posenum>
20

> <i_i_glide_rotatable_bonds>
9

> <i_m_Source_File_Index>
258

> <b_m_subgroup_collapsed>
0

> <r_i_docking_score>
-5.65721

> <r_i_glide_ecoul>
-6.11036

> <r_i_glide_eff_state_penalty>
0

> <r_i_glide_einternal>
15.0581

> <r_i_glide_emodel>
-56.3841

> <r_i_glide_energy>
-48.0684

> <r_i_glide_erotb>
0.619354

> <r_i_glide_esite>
-0.0226028

> <r_i_glide_evdw>
-41.9581

> <r_i_glide_gscore>
-5.65721

> <r_i_glide_hbond>
0

> <r_i_glide_ligand_efficiency>
-0.166389

> <r_i_glide_ligand_efficiency_ln>
-1.24984

> <r_i_glide_ligand_efficiency_sa>
-0.539034

> <r_i_glide_lipo>
-2.7338

> <r_i_glide_metal>
0

> <r_i_glide_rewards>
-0.505711

> <s_i_glide_gridfile>
wee1_glide-grid

> <s_m_Source_File>
wee1_decoys_glide_SP.sdf

> <s_m_Source_Path>
/Users/zhangxujun/Desktop

> <s_m_entry_id>
533

> <s_m_entry_name>
wee1_decoys_glide_SP.258

> <s_m_subgroup_title>
wee1_decoys_glide_SP

> <s_m_subgroupid>
wee1_decoys_glide_SP


$$$$
