ZINC39688450_1300
                    3D
 Schrodinger Suite 2024-2.
 66 69  0  0  1  0            999 V2000
    1.9496   49.6327   20.1174 C   0  0  0  0  0  0
    2.6515   50.8425   20.7680 C   0  0  1  0  0  0
    3.6549   50.4991   21.0250 H   0  0  0  0  0  0
    2.8385   52.0252   19.7753 C   0  0  0  0  0  0
    3.9511   53.0231   20.1180 C   0  0  0  0  0  0
    4.8473   53.4124   19.1179 C   0  0  0  0  0  0
    5.8372   54.3549   19.3889 C   0  0  0  0  0  0
    5.9441   54.8965   20.6676 C   0  0  0  0  0  0
    5.0742   54.4970   21.6773 C   0  0  0  0  0  0
    4.0684   53.5773   21.3992 C   0  0  0  0  0  0
    6.9020   55.8129   20.9345 F   0  0  0  0  0  0
    2.0349   51.2215   22.0480 N   0  0  0  0  0  0
    0.7942   51.7110   22.2595 C   0  0  0  0  0  0
   -0.0358   51.8310   21.3580 O   0  0  0  0  0  0
    0.3852   52.1580   23.6900 C   0  0  2  0  0  0
   -0.1654   53.0929   23.5640 H   0  0  0  0  0  0
    1.6173   52.5058   24.5557 C   0  0  0  0  0  0
    1.1040   52.4077   25.9245 N   0  0  0  0  0  0
   -0.2100   51.7571   25.9420 C   0  0  0  0  0  0
   -0.3930   51.1236   24.5398 C   0  0  0  0  0  0
    0.2075   49.6867   24.4353 C   0  0  0  0  0  0
   -0.3643   48.7263   25.4917 C   0  0  0  0  0  0
   -1.9111   48.7281   25.4274 N   0  3  0  0  0  0
   -2.6075   50.1036   25.2532 C   0  0  0  0  0  0
   -1.8790   50.9307   24.1645 C   0  0  0  0  0  0
    1.7611   52.9984   26.9616 C   0  0  0  0  0  0
    2.8670   53.5186   26.7911 O   0  0  0  0  0  0
    1.1146   53.0937   28.3356 C   0  0  0  0  0  0
    0.4901   51.9835   28.9262 C   0  0  0  0  0  0
   -0.1356   52.0968   30.1633 C   0  0  0  0  0  0
   -0.0673   53.2724   30.8859 C   0  0  0  0  0  0
    0.5943   54.3663   30.3504 C   0  0  0  0  0  0
    1.1740   54.3005   29.0702 C   0  0  0  0  0  0
    1.8009   55.3870   28.4950 O   0  0  0  0  0  0
    1.7827   56.6339   29.1643 C   0  0  0  0  0  0
    2.4325   49.3676   19.1744 H   0  0  0  0  0  0
    2.0044   48.7489   20.7528 H   0  0  0  0  0  0
    0.9065   49.8412   19.8821 H   0  0  0  0  0  0
    1.9066   52.5769   19.6500 H   0  0  0  0  0  0
    3.0661   51.6054   18.7922 H   0  0  0  0  0  0
    4.7800   52.9882   18.1252 H   0  0  0  0  0  0
    6.5243   54.6603   18.6137 H   0  0  0  0  0  0
    5.1745   54.8975   22.6744 H   0  0  0  0  0  0
    3.3802   53.3203   22.1856 H   0  0  0  0  0  0
    2.6335   51.1188   22.8506 H   0  0  0  0  0  0
    2.3804   51.7358   24.4711 H   0  0  0  0  0  0
    2.0072   53.4933   24.2950 H   0  0  0  0  0  0
   -0.9501   52.5504   26.0631 H   0  0  0  0  0  0
   -0.4106   51.0455   26.7341 H   0  0  0  0  0  0
    0.1091   49.2712   23.4309 H   0  0  0  0  0  0
    1.2817   49.7168   24.6206 H   0  0  0  0  0  0
   -0.0578   47.6964   25.2910 H   0  0  0  0  0  0
   -0.0928   48.9756   26.5169 H   0  0  0  0  0  0
   -2.1954   48.1259   24.6685 H   0  0  0  0  0  0
   -3.6445   49.8862   24.9921 H   0  0  0  0  0  0
   -2.5926   50.5737   26.2376 H   0  0  0  0  0  0
   -2.3635   51.9083   24.1281 H   0  0  0  0  0  0
   -1.9977   50.5127   23.1631 H   0  0  0  0  0  0
    0.5002   51.0100   28.4631 H   0  0  0  0  0  0
   -0.6530   51.2574   30.5987 H   0  0  0  0  0  0
   -0.5002   53.3089   31.8745 H   0  0  0  0  0  0
    0.6328   55.2631   30.9499 H   0  0  0  0  0  0
    2.2832   57.3435   28.5189 H   0  0  0  0  0  0
    0.7617   56.9740   29.3245 H   0  0  0  0  0  0
    2.3045   56.6089   30.1205 H   0  0  0  0  0  0
   -2.2406   48.2973   26.2873 H   0  0  0  0  0  0
  1  2  1  0  0  0
  1 36  1  0  0  0
  1 37  1  0  0  0
  1 38  1  0  0  0
  2  3  1  0  0  0
  2  4  1  0  0  0
  2 12  1  0  0  0
  4  5  1  0  0  0
  4 39  1  0  0  0
  4 40  1  0  0  0
  5 10  2  0  0  0
  5  6  1  0  0  0
  6  7  2  0  0  0
  6 41  1  0  0  0
  7  8  1  0  0  0
  7 42  1  0  0  0
  8  9  2  0  0  0
  8 11  1  0  0  0
  9 10  1  0  0  0
  9 43  1  0  0  0
 10 44  1  0  0  0
 12 13  1  0  0  0
 12 45  1  0  0  0
 13 14  2  0  0  0
 13 15  1  0  0  0
 15 16  1  0  0  0
 15 20  1  0  0  0
 15 17  1  0  0  0
 17 18  1  0  0  0
 17 46  1  0  0  0
 17 47  1  0  0  0
 18 19  1  0  0  0
 18 26  1  0  0  0
 19 20  1  0  0  0
 19 48  1  0  0  0
 19 49  1  0  0  0
 20 25  1  0  0  0
 20 21  1  0  0  0
 21 22  1  0  0  0
 21 50  1  0  0  0
 21 51  1  0  0  0
 22 23  1  0  0  0
 22 52  1  0  0  0
 22 53  1  0  0  0
 23 24  1  0  0  0
 23 54  1  0  0  0
 23 66  1  0  0  0
 24 25  1  0  0  0
 24 55  1  0  0  0
 24 56  1  0  0  0
 25 57  1  0  0  0
 25 58  1  0  0  0
 26 27  2  0  0  0
 26 28  1  0  0  0
 28 33  2  0  0  0
 28 29  1  0  0  0
 29 30  2  0  0  0
 29 59  1  0  0  0
 30 31  1  0  0  0
 30 60  1  0  0  0
 31 32  2  0  0  0
 31 61  1  0  0  0
 32 33  1  0  0  0
 32 62  1  0  0  0
 33 34  1  0  0  0
 34 35  1  0  0  0
 35 63  1  0  0  0
 35 64  1  0  0  0
 35 65  1  0  0  0
M  CHG  1  23   1
M  END
> <i_i_glide_confnum>
198

> <i_i_glide_lignum>
1301

> <i_i_glide_posenum>
109

> <i_i_glide_rotatable_bonds>
8

> <i_m_Source_File_Index>
5603

> <b_m_subgroup_collapsed>
0

> <r_i_docking_score>
-5.2276

> <r_i_glide_ecoul>
-5.46931

> <r_i_glide_eff_state_penalty>
0

> <r_i_glide_einternal>
6.37993

> <r_i_glide_emodel>
-61.2355

> <r_i_glide_energy>
-46.3608

> <r_i_glide_erotb>
0.583154

> <r_i_glide_esite>
-0.1

> <r_i_glide_evdw>
-40.8915

> <r_i_glide_gscore>
-5.2276

> <r_i_glide_hbond>
-0.0696273

> <r_i_glide_ligand_efficiency>
-0.158412

> <r_i_glide_ligand_efficiency_ln>
-1.16259

> <r_i_glide_ligand_efficiency_sa>
-0.508113

> <r_i_glide_lipo>
-1.72278

> <r_i_glide_metal>
0

> <r_i_glide_rewards>
-1.05337

> <s_i_glide_gridfile>
wee1_glide-grid

> <s_m_Source_File>
wee1_decoys_glide_SP.sdf

> <s_m_Source_Path>
/Users/zhangxujun/Desktop

> <s_m_entry_id>
5878

> <s_m_entry_name>
wee1_decoys_glide_SP.5603

> <s_m_subgroup_title>
wee1_decoys_glide_SP

> <s_m_subgroupid>
wee1_decoys_glide_SP


$$$$
