ZINC14740944_113
                    3D
 Schrodinger Suite 2024-2.
 66 70  0  0  1  0            999 V2000
    1.4665   56.0768   30.4817 C   0  0  0  0  0  0
    1.8388   55.1160   29.4544 N   0  0  0  0  0  0
    1.1601   54.0015   29.0547 C   0  0  0  0  0  0
    1.8127   53.5644   27.9008 C   0  0  0  0  0  0
    2.9322   54.4245   27.7588 C   0  0  0  0  0  0
    2.9548   55.2967   28.7476 N   0  0  0  0  0  0
    4.0075   54.3583   26.7739 C   0  0  0  0  0  0
    5.1675   54.4967   27.1756 O   0  0  0  0  0  0
    3.7188   54.1985   25.4448 N   0  0  0  0  0  0
    2.3969   54.4457   24.8375 C   0  0  0  0  0  0
    2.1415   53.2743   23.8718 C   0  0  0  0  0  0
    3.1776   53.2967   22.7653 C   0  0  0  0  0  0
    2.8655   52.8966   21.4621 C   0  0  0  0  0  0
    3.8241   52.9351   20.4543 C   0  0  0  0  0  0
    5.1044   53.3906   20.7430 C   0  0  0  0  0  0
    5.4284   53.7833   22.0413 C   0  0  0  0  0  0
    4.4814   53.7353   23.0677 C   0  0  0  0  0  0
    4.8498   54.2013   24.4832 C   0  0  0  0  0  0
    1.3467   52.3322   27.1461 C   0  0  0  0  0  0
    0.3344   51.5461   27.9947 C   0  0  1  0  0  0
    0.9018   50.9770   28.7354 H   0  0  0  0  0  0
   -0.7183   52.3817   28.7344 C   0  0  0  0  0  0
   -0.0957   53.4211   29.6936 C   0  0  0  0  0  0
   -1.2711   50.9251   25.9441 C   0  0  0  0  0  0
   -2.6206   50.1678   26.0172 C   0  0  0  0  0  0
   -3.4280   50.4976   27.3145 C   0  0  0  0  0  0
   -4.9265   50.1340   27.3226 C   0  0  0  0  0  0
   -5.6456   50.6028   26.0532 C   0  0  0  0  0  0
   -4.9747   50.0031   24.8128 C   0  0  0  0  0  0
   -3.4739   50.3531   24.7252 C   0  0  0  0  0  0
   -2.4864   48.7535   26.0817 O   0  0  0  0  0  0
    1.1043   55.5553   31.3669 H   0  0  0  0  0  0
    2.3044   56.7161   30.7515 H   0  0  0  0  0  0
    0.6783   56.7169   30.0920 H   0  0  0  0  0  0
    1.5982   54.4963   25.5696 H   0  0  0  0  0  0
    2.3732   55.3825   24.2819 H   0  0  0  0  0  0
    1.1431   53.3688   23.4429 H   0  0  0  0  0  0
    2.1722   52.3145   24.3876 H   0  0  0  0  0  0
    1.8678   52.5593   21.2229 H   0  0  0  0  0  0
    3.5737   52.6232   19.4501 H   0  0  0  0  0  0
    5.8460   53.4339   19.9584 H   0  0  0  0  0  0
    6.4276   54.1355   22.2524 H   0  0  0  0  0  0
    5.6713   53.5892   24.8602 H   0  0  0  0  0  0
    5.2442   55.2166   24.4216 H   0  0  0  0  0  0
    0.8744   52.6289   26.2145 H   0  0  0  0  0  0
    2.1868   51.7002   26.8817 H   0  0  0  0  0  0
   -1.4431   51.7469   29.2477 H   0  0  0  0  0  0
   -1.2956   52.8967   27.9726 H   0  0  0  0  0  0
    0.1699   52.9219   30.6272 H   0  0  0  0  0  0
   -0.8172   54.1938   29.9523 H   0  0  0  0  0  0
   -1.3991   52.0060   25.9817 H   0  0  0  0  0  0
   -0.7068   50.6758   25.0442 H   0  0  0  0  0  0
   -2.9403   50.0967   28.2040 H   0  0  0  0  0  0
   -3.3657   51.5756   27.4678 H   0  0  0  0  0  0
   -5.0306   49.0516   27.4190 H   0  0  0  0  0  0
   -5.4075   50.5593   28.2046 H   0  0  0  0  0  0
   -6.6954   50.3074   26.0887 H   0  0  0  0  0  0
   -5.6337   51.6924   25.9958 H   0  0  0  0  0  0
   -5.0863   48.9175   24.8335 H   0  0  0  0  0  0
   -5.4881   50.3398   23.9110 H   0  0  0  0  0  0
   -3.4065   51.4033   24.4374 H   0  0  0  0  0  0
   -3.0138   49.8309   23.8836 H   0  0  0  0  0  0
   -2.1957   48.4967   26.9871 H   0  0  0  0  0  0
   -0.3501   50.4967   27.1070 N   0  3  0  0  0  0
    0.3644   49.8984   26.7152 H   0  0  0  0  0  0
   -0.8956   49.8747   27.7050 H   0  0  0  0  0  0
  1  2  1  0  0  0
  1 32  1  0  0  0
  1 33  1  0  0  0
  1 34  1  0  0  0
  2  6  1  0  0  0
  2  3  1  0  0  0
  3 23  1  0  0  0
  3  4  2  0  0  0
  4  5  1  0  0  0
  4 19  1  0  0  0
  5  6  2  0  0  0
  5  7  1  0  0  0
  7  8  2  0  0  0
  7  9  1  0  0  0
  9 18  1  0  0  0
  9 10  1  0  0  0
 10 11  1  0  0  0
 10 35  1  0  0  0
 10 36  1  0  0  0
 11 12  1  0  0  0
 11 37  1  0  0  0
 11 38  1  0  0  0
 12 17  2  0  0  0
 12 13  1  0  0  0
 13 14  2  0  0  0
 13 39  1  0  0  0
 14 15  1  0  0  0
 14 40  1  0  0  0
 15 16  2  0  0  0
 15 41  1  0  0  0
 16 17  1  0  0  0
 16 42  1  0  0  0
 17 18  1  0  0  0
 18 43  1  0  0  0
 18 44  1  0  0  0
 19 20  1  0  0  0
 19 45  1  0  0  0
 19 46  1  0  0  0
 20 21  1  0  0  0
 20 22  1  0  0  0
 20 64  1  0  0  0
 22 23  1  0  0  0
 22 47  1  0  0  0
 22 48  1  0  0  0
 23 49  1  0  0  0
 23 50  1  0  0  0
 24 25  1  0  0  0
 24 51  1  0  0  0
 24 52  1  0  0  0
 24 64  1  0  0  0
 25 30  1  0  0  0
 25 26  1  0  0  0
 25 31  1  0  0  0
 26 27  1  0  0  0
 26 53  1  0  0  0
 26 54  1  0  0  0
 27 28  1  0  0  0
 27 55  1  0  0  0
 27 56  1  0  0  0
 28 29  1  0  0  0
 28 57  1  0  0  0
 28 58  1  0  0  0
 29 30  1  0  0  0
 29 59  1  0  0  0
 29 60  1  0  0  0
 30 61  1  0  0  0
 30 62  1  0  0  0
 31 63  1  0  0  0
 64 65  1  0  0  0
 64 66  1  0  0  0
M  CHG  1  64   1
M  END
> <i_i_glide_confnum>
544

> <i_i_glide_lignum>
114

> <i_i_glide_posenum>
116

> <i_i_glide_rotatable_bonds>
6

> <i_m_Source_File_Index>
3202

> <b_m_subgroup_collapsed>
0

> <r_i_docking_score>
-6.65887

> <r_i_glide_ecoul>
-8.61599

> <r_i_glide_eff_state_penalty>
0

> <r_i_glide_einternal>
11.9636

> <r_i_glide_emodel>
-52.9253

> <r_i_glide_energy>
-41.3498

> <r_i_glide_erotb>
0.552375

> <r_i_glide_esite>
-0.1

> <r_i_glide_evdw>
-32.7338

> <r_i_glide_gscore>
-6.65887

> <r_i_glide_hbond>
-0.36

> <r_i_glide_ligand_efficiency>
-0.214802

> <r_i_glide_ligand_efficiency_ln>
-1.50178

> <r_i_glide_ligand_efficiency_sa>
-0.674775

> <r_i_glide_lipo>
-2.31818

> <r_i_glide_metal>
0

> <r_i_glide_rewards>
-1.50398

> <s_i_glide_gridfile>
wee1_glide-grid

> <s_m_Source_File>
wee1_decoys_glide_SP.sdf

> <s_m_Source_Path>
/Users/zhangxujun/Desktop

> <s_m_entry_id>
3477

> <s_m_entry_name>
wee1_decoys_glide_SP.3202

> <s_m_subgroup_title>
wee1_decoys_glide_SP

> <s_m_subgroupid>
wee1_decoys_glide_SP


$$$$
