ZINC00691897_4516
                    3D
 Schrodinger Suite 2024-2.
 69 72  0  0  1  0            999 V2000
    0.4876   52.0802   30.0313 C   0  0  0  0  0  0
    1.6393   52.2619   29.0210 C   0  0  0  0  0  0
    2.7937   53.2360   29.4316 C   0  0  0  0  0  0
    3.5108   52.6563   30.6810 C   0  0  0  0  0  0
    2.1724   54.6102   29.8038 C   0  0  0  0  0  0
    3.8527   53.3773   28.2595 C   0  0  2  0  0  0
    4.4116   52.4400   28.2094 H   0  0  0  0  0  0
    4.9031   54.4928   28.5044 C   0  0  0  0  0  0
    6.0562   54.4190   27.4937 C   0  0  0  0  0  0
    5.5430   54.4269   26.0555 C   0  0  0  0  0  0
    4.2323   53.9914   25.7702 C   0  0  0  0  0  0
    3.8489   53.8884   24.4341 C   0  0  0  0  0  0
    4.7510   54.2386   23.4174 C   0  0  0  0  0  0
    4.6228   54.1973   21.9974 C   0  0  0  0  0  0
    5.7370   54.6915   21.3182 C   0  0  0  0  0  0
    6.9553   55.2935   22.4473 S   0  0  0  0  0  0
    6.0053   54.7570   23.8233 C   0  0  0  0  0  0
    6.4047   54.8704   25.0919 N   0  0  0  0  0  0
    5.9044   54.8580   19.8842 C   0  0  0  0  0  0
    4.9448   54.8116   19.1142 O   0  0  0  0  0  0
    7.1784   54.9245   19.4574 N   0  0  0  0  0  0
    7.5729   54.8092   18.0525 C   0  0  0  0  0  0
    7.4169   56.0982   17.2192 C   0  0  0  0  0  0
    8.3007   57.2577   17.6569 C   0  0  0  0  0  0
    7.7275   58.4776   18.0240 C   0  0  0  0  0  0
    8.5377   59.5490   18.3859 C   0  0  0  0  0  0
    9.9281   59.4164   18.3864 C   0  0  0  0  0  0
   10.5231   58.2015   18.0247 C   0  0  0  0  0  0
    9.6939   57.1252   17.6566 C   0  0  0  0  0  0
   11.9073   58.1374   18.0441 O   0  0  0  0  0  0
   12.5626   56.9876   17.5241 C   0  0  0  0  0  0
   10.6914   60.4967   18.7607 O   0  0  0  0  0  0
   11.2953   61.1882   17.6729 C   0  0  0  0  0  0
    3.5048   53.6979   21.3847 N   0  0  0  0  0  0
    3.2219   53.6618   26.8684 C   0  0  0  0  0  0
   -0.2003   51.3045   29.6878 H   0  0  0  0  0  0
   -0.1008   52.9896   30.1480 H   0  0  0  0  0  0
    0.8300   51.7840   31.0227 H   0  0  0  0  0  0
    2.0610   51.2799   28.7948 H   0  0  0  0  0  0
    1.1666   52.6002   28.0985 H   0  0  0  0  0  0
    4.3024   53.3044   31.0489 H   0  0  0  0  0  0
    2.8377   52.4968   31.5203 H   0  0  0  0  0  0
    3.9732   51.6941   30.4564 H   0  0  0  0  0  0
    2.9242   55.3458   30.0816 H   0  0  0  0  0  0
    1.5964   55.0314   28.9784 H   0  0  0  0  0  0
    1.5035   54.5404   30.6583 H   0  0  0  0  0  0
    4.4092   55.4567   28.4826 H   0  0  0  0  0  0
    5.3353   54.4258   29.4997 H   0  0  0  0  0  0
    6.7534   55.2399   27.6607 H   0  0  0  0  0  0
    6.6211   53.5002   27.6566 H   0  0  0  0  0  0
    2.8618   53.5351   24.1808 H   0  0  0  0  0  0
    7.9150   55.0729   20.1303 H   0  0  0  0  0  0
    8.6304   54.5461   18.0915 H   0  0  0  0  0  0
    7.0928   53.9614   17.5591 H   0  0  0  0  0  0
    7.6413   55.8778   16.1748 H   0  0  0  0  0  0
    6.3673   56.3966   17.2170 H   0  0  0  0  0  0
    6.6529   58.6106   18.0136 H   0  0  0  0  0  0
    8.0700   60.4894   18.6484 H   0  0  0  0  0  0
   10.1256   56.1817   17.3607 H   0  0  0  0  0  0
   13.6403   57.1279   17.5918 H   0  0  0  0  0  0
   12.3148   56.0834   18.0778 H   0  0  0  0  0  0
   12.3184   56.8342   16.4721 H   0  0  0  0  0  0
   11.8940   62.0122   18.0583 H   0  0  0  0  0  0
   11.9585   60.5476   17.0903 H   0  0  0  0  0  0
   10.5417   61.6063   17.0039 H   0  0  0  0  0  0
    3.4011   53.7765   20.3792 H   0  0  0  0  0  0
    2.6974   53.3713   21.8908 H   0  0  0  0  0  0
    2.6387   52.8008   26.5420 H   0  0  0  0  0  0
    2.5206   54.4921   26.9419 H   0  0  0  0  0  0
  1  2  1  0  0  0
  1 36  1  0  0  0
  1 37  1  0  0  0
  1 38  1  0  0  0
  2  3  1  0  0  0
  2 39  1  0  0  0
  2 40  1  0  0  0
  3  4  1  0  0  0
  3  5  1  0  0  0
  3  6  1  0  0  0
  4 41  1  0  0  0
  4 42  1  0  0  0
  4 43  1  0  0  0
  5 44  1  0  0  0
  5 45  1  0  0  0
  5 46  1  0  0  0
  6  7  1  0  0  0
  6 35  1  0  0  0
  6  8  1  0  0  0
  8  9  1  0  0  0
  8 47  1  0  0  0
  8 48  1  0  0  0
  9 10  1  0  0  0
  9 49  1  0  0  0
  9 50  1  0  0  0
 10 18  2  0  0  0
 10 11  1  0  0  0
 11 12  2  0  0  0
 11 35  1  0  0  0
 12 13  1  0  0  0
 12 51  1  0  0  0
 13 17  2  0  0  0
 13 14  1  0  0  0
 14 15  2  0  0  0
 14 34  1  0  0  0
 15 16  1  0  0  0
 15 19  1  0  0  0
 16 17  1  0  0  0
 17 18  1  0  0  0
 19 20  2  0  0  0
 19 21  1  0  0  0
 21 22  1  0  0  0
 21 52  1  0  0  0
 22 23  1  0  0  0
 22 53  1  0  0  0
 22 54  1  0  0  0
 23 24  1  0  0  0
 23 55  1  0  0  0
 23 56  1  0  0  0
 24 29  2  0  0  0
 24 25  1  0  0  0
 25 26  2  0  0  0
 25 57  1  0  0  0
 26 27  1  0  0  0
 26 58  1  0  0  0
 27 28  2  0  0  0
 27 32  1  0  0  0
 28 29  1  0  0  0
 28 30  1  0  0  0
 29 59  1  0  0  0
 30 31  1  0  0  0
 31 60  1  0  0  0
 31 61  1  0  0  0
 31 62  1  0  0  0
 32 33  1  0  0  0
 33 63  1  0  0  0
 33 64  1  0  0  0
 33 65  1  0  0  0
 34 66  1  0  0  0
 34 67  1  0  0  0
 35 68  1  0  0  0
 35 69  1  0  0  0
M  END
> <i_i_glide_confnum>
91

> <i_i_glide_lignum>
4517

> <i_i_glide_posenum>
313

> <i_i_glide_rotatable_bonds>
9

> <i_m_Source_File_Index>
4067

> <b_m_subgroup_collapsed>
0

> <r_i_docking_score>
-5.53856

> <r_i_glide_ecoul>
-3.02094

> <r_i_glide_eff_state_penalty>
0

> <r_i_glide_einternal>
12.6216

> <r_i_glide_emodel>
-54.8169

> <r_i_glide_energy>
-44.4084

> <r_i_glide_erotb>
0.524713

> <r_i_glide_esite>
-0.00641417

> <r_i_glide_evdw>
-41.3875

> <r_i_glide_gscore>
-5.53856

> <r_i_glide_hbond>
-0.124259

> <r_i_glide_ligand_efficiency>
-0.162899

> <r_i_glide_ligand_efficiency_ln>
-1.22362

> <r_i_glide_ligand_efficiency_sa>
-0.527729

> <r_i_glide_lipo>
-3.07676

> <r_i_glide_metal>
0

> <r_i_glide_rewards>
-0.333322

> <s_i_glide_gridfile>
wee1_glide-grid

> <s_m_Source_File>
wee1_decoys_glide_SP.sdf

> <s_m_Source_Path>
/Users/zhangxujun/Desktop

> <s_m_entry_id>
4342

> <s_m_entry_name>
wee1_decoys_glide_SP.4067

> <s_m_subgroup_title>
wee1_decoys_glide_SP

> <s_m_subgroupid>
wee1_decoys_glide_SP


$$$$
