ZINC22288946_684
                    3D
 Schrodinger Suite 2024-2.
 46 49  0  0  1  0            999 V2000
    0.7923   51.0569   22.4372 C   0  0  0  0  0  0
   -0.0071   50.3911   23.3602 C   0  0  0  0  0  0
   -0.6685   49.2211   22.9879 C   0  0  0  0  0  0
   -0.5504   48.7315   21.6850 C   0  0  0  0  0  0
    0.2517   49.4019   20.7615 C   0  0  0  0  0  0
    0.9359   50.5622   21.1359 C   0  0  0  0  0  0
    1.8414   51.2539   20.1690 C   0  0  0  0  0  0
    2.0667   51.1773   18.8029 C   0  0  0  0  0  0
    3.1046   52.0684   18.5161 C   0  0  0  0  0  0
    3.5048   52.6574   19.7093 C   0  0  0  0  0  0
    2.7094   52.1583   20.6879 O   0  0  0  0  0  0
    4.5962   53.5804   20.0340 C   0  0  0  0  0  0
    5.0709   54.0709   21.2137 C   0  0  0  0  0  0
    6.2264   54.8968   21.4455 C   0  0  0  0  0  0
    6.4112   55.0249   22.6924 N   0  0  0  0  0  0
    5.4065   54.4305   23.3511 N   0  0  0  0  0  0
    4.5096   53.8588   22.5264 C   0  0  0  0  0  0
    3.4697   53.2966   22.8622 O   0  0  0  0  0  0
    5.3582   54.4894   24.7724 C   0  0  0  0  0  0
    6.5445   54.5079   25.5235 C   0  0  0  0  0  0
    6.4952   54.5042   26.9171 C   0  0  0  0  0  0
    5.2611   54.4967   27.5636 C   0  0  0  0  0  0
    4.0788   54.4962   26.8361 C   0  0  0  0  0  0
    4.1257   54.4970   25.4497 C   0  0  0  0  0  0
    5.1744   54.5191   29.2817 Cl  0  0  0  0  0  0
    7.1339   55.5327   20.3821 C   0  0  0  0  0  0
    7.2175   54.7803   19.2855 F   0  0  0  0  0  0
    6.6468   56.7283   20.0514 F   0  0  0  0  0  0
    8.3653   55.6969   20.8679 F   0  0  0  0  0  0
   -1.6476   48.3451   24.2057 S   0  0  0  0  0  0
   -2.8745   49.1247   24.3916 O   0  0  0  0  0  0
   -1.6956   46.9299   23.8195 O   0  0  0  0  0  0
   -0.7301   48.4562   25.6817 N   0  0  0  0  0  0
    1.3090   51.9535   22.7448 H   0  0  0  0  0  0
   -0.0966   50.7755   24.3664 H   0  0  0  0  0  0
   -1.0632   47.8263   21.3929 H   0  0  0  0  0  0
    0.3567   49.0060   19.7618 H   0  0  0  0  0  0
    1.5658   50.5332   18.0954 H   0  0  0  0  0  0
    3.5579   52.2212   17.5472 H   0  0  0  0  0  0
    5.1086   53.8611   19.1279 H   0  0  0  0  0  0
    7.5043   54.4966   25.0272 H   0  0  0  0  0  0
    7.4059   54.5064   27.4986 H   0  0  0  0  0  0
    3.1256   54.5015   27.3444 H   0  0  0  0  0  0
    3.1862   54.5108   24.9181 H   0  0  0  0  0  0
   -1.2953   48.5390   26.5464 H   0  0  0  0  0  0
   -0.0824   47.6710   25.8166 H   0  0  0  0  0  0
  1  6  2  0  0  0
  1  2  1  0  0  0
  1 34  1  0  0  0
  2  3  2  0  0  0
  2 35  1  0  0  0
  3  4  1  0  0  0
  3 30  1  0  0  0
  4  5  2  0  0  0
  4 36  1  0  0  0
  5  6  1  0  0  0
  5 37  1  0  0  0
  6  7  1  0  0  0
  7 11  1  0  0  0
  7  8  2  0  0  0
  8  9  1  0  0  0
  8 38  1  0  0  0
  9 10  2  0  0  0
  9 39  1  0  0  0
 10 11  1  0  0  0
 10 12  1  0  0  0
 12 13  2  0  0  0
 12 40  1  0  0  0
 13 17  1  0  0  0
 13 14  1  0  0  0
 14 15  2  0  0  0
 14 26  1  0  0  0
 15 16  1  0  0  0
 16 17  1  0  0  0
 16 19  1  0  0  0
 17 18  2  0  0  0
 19 24  2  0  0  0
 19 20  1  0  0  0
 20 21  2  0  0  0
 20 41  1  0  0  0
 21 22  1  0  0  0
 21 42  1  0  0  0
 22 23  2  0  0  0
 22 25  1  0  0  0
 23 24  1  0  0  0
 23 43  1  0  0  0
 24 44  1  0  0  0
 26 27  1  0  0  0
 26 28  1  0  0  0
 26 29  1  0  0  0
 30 31  2  0  0  0
 30 32  2  0  0  0
 30 33  1  0  0  0
 33 45  1  0  0  0
 33 46  1  0  0  0
M  END
> <i_i_glide_confnum>
12

> <i_i_glide_lignum>
685

> <i_i_glide_posenum>
233

> <i_i_glide_rotatable_bonds>
5

> <i_m_Source_File_Index>
3028

> <b_m_subgroup_collapsed>
0

> <r_i_docking_score>
-6.57954

> <r_i_glide_ecoul>
-6.81196

> <r_i_glide_eff_state_penalty>
0

> <r_i_glide_einternal>
2.34513

> <r_i_glide_emodel>
-66.3722

> <r_i_glide_energy>
-48.8971

> <r_i_glide_erotb>
0.248762

> <r_i_glide_esite>
-0.213962

> <r_i_glide_evdw>
-42.0852

> <r_i_glide_gscore>
-6.57954

> <r_i_glide_hbond>
-0.455244

> <r_i_glide_ligand_efficiency>
-0.19938

> <r_i_glide_ligand_efficiency_ln>
-1.46326

> <r_i_glide_ligand_efficiency_sa>
-0.639518

> <r_i_glide_lipo>
-2.10459

> <r_i_glide_metal>
0

> <r_i_glide_rewards>
-0.928453

> <s_i_glide_gridfile>
wee1_glide-grid

> <s_m_Source_File>
wee1_decoys_glide_SP.sdf

> <s_m_Source_Path>
/Users/zhangxujun/Desktop

> <s_m_entry_id>
3303

> <s_m_entry_name>
wee1_decoys_glide_SP.3028

> <s_m_subgroup_title>
wee1_decoys_glide_SP

> <s_m_subgroupid>
wee1_decoys_glide_SP


$$$$
