ZINC16154818_2811
                    3D
 Schrodinger Suite 2024-2.
 54 57  0  0  1  0            999 V2000
    6.5228   54.8936   25.5216 C   0  0  0  0  0  0
    6.5907   54.6095   26.8826 C   0  0  0  0  0  0
    5.4859   54.0964   27.5564 C   0  0  0  0  0  0
    4.2747   53.8527   26.8617 C   0  0  0  0  0  0
    3.1429   53.2963   27.5061 C   0  0  0  0  0  0
    1.9752   53.0208   26.7889 C   0  0  0  0  0  0
    1.9038   53.3448   25.4336 C   0  0  0  0  0  0
    2.9919   53.9092   24.7739 C   0  0  0  0  0  0
    4.2009   54.1543   25.4680 C   0  0  0  0  0  0
    5.3442   54.6759   24.8143 C   0  0  0  0  0  0
    0.6076   52.1905   27.6128 S   0  0  0  0  0  0
    1.0048   51.9908   29.0113 O   0  0  0  0  0  0
   -0.6330   52.8967   27.2818 O   0  0  0  0  0  0
    0.5210   50.5650   26.9047 N   0  0  0  0  0  0
   -0.2786   50.1573   25.8272 C   0  0  0  0  0  0
   -0.4979   48.7873   25.6799 C   0  0  0  0  0  0
   -1.2753   48.2869   24.6377 C   0  0  0  0  0  0
   -1.8368   49.1621   23.7131 C   0  0  0  0  0  0
   -1.6160   50.5364   23.8391 C   0  0  0  0  0  0
   -0.8611   51.0305   24.9059 C   0  0  0  0  0  0
   -2.2753   51.6971   22.6434 S   0  0  0  0  0  0
   -3.0452   50.8966   21.6844 O   0  0  0  0  0  0
   -3.0718   52.5835   23.4977 O   0  0  0  0  0  0
   -0.7669   52.4012   22.0565 N   0  0  0  0  0  0
    0.1644   51.7013   21.5549 C   0  0  0  0  0  0
    0.1992   50.1958   21.2511 C   0  0  0  0  0  0
    0.8666   49.7468   19.9326 C   0  0  0  0  0  0
    2.3975   49.6968   19.9751 C   0  0  0  0  0  0
    3.1041   51.0571   20.0812 C   0  0  0  0  0  0
    2.7052   51.9363   21.2742 C   0  0  0  0  0  0
    1.3200   52.3885   21.2380 N   0  0  0  0  0  0
    7.3868   55.2801   24.9999 H   0  0  0  0  0  0
    7.5044   54.7847   27.4307 H   0  0  0  0  0  0
    5.5534   53.8729   28.6116 H   0  0  0  0  0  0
    3.2137   53.0498   28.5555 H   0  0  0  0  0  0
    1.0079   53.1592   24.8672 H   0  0  0  0  0  0
    2.9245   54.1445   23.7216 H   0  0  0  0  0  0
    5.2995   54.8954   23.7575 H   0  0  0  0  0  0
    0.9083   49.8301   27.4762 H   0  0  0  0  0  0
   -0.0955   48.0974   26.4056 H   0  0  0  0  0  0
   -1.4449   47.2240   24.5581 H   0  0  0  0  0  0
   -2.4344   48.7711   22.9024 H   0  0  0  0  0  0
   -0.7491   52.0961   24.9957 H   0  0  0  0  0  0
    0.6329   49.6620   22.0975 H   0  0  0  0  0  0
   -0.8229   49.8308   21.1829 H   0  0  0  0  0  0
    0.5041   48.7470   19.6858 H   0  0  0  0  0  0
    0.5393   50.3795   19.1052 H   0  0  0  0  0  0
    2.7591   49.1964   19.0739 H   0  0  0  0  0  0
    2.7050   49.0596   20.8052 H   0  0  0  0  0  0
    2.9434   51.6156   19.1579 H   0  0  0  0  0  0
    4.1809   50.8902   20.1194 H   0  0  0  0  0  0
    3.3823   52.7861   21.3649 H   0  0  0  0  0  0
    2.8128   51.3545   22.1911 H   0  0  0  0  0  0
    1.2284   53.3951   21.2707 H   0  0  0  0  0  0
  1 10  2  0  0  0
  1  2  1  0  0  0
  1 32  1  0  0  0
  2  3  2  0  0  0
  2 33  1  0  0  0
  3  4  1  0  0  0
  3 34  1  0  0  0
  4  9  2  0  0  0
  4  5  1  0  0  0
  5  6  2  0  0  0
  5 35  1  0  0  0
  6  7  1  0  0  0
  6 11  1  0  0  0
  7  8  2  0  0  0
  7 36  1  0  0  0
  8  9  1  0  0  0
  8 37  1  0  0  0
  9 10  1  0  0  0
 10 38  1  0  0  0
 11 12  2  0  0  0
 11 13  2  0  0  0
 11 14  1  0  0  0
 14 15  1  0  0  0
 14 39  1  0  0  0
 15 20  2  0  0  0
 15 16  1  0  0  0
 16 17  2  0  0  0
 16 40  1  0  0  0
 17 18  1  0  0  0
 17 41  1  0  0  0
 18 19  2  0  0  0
 18 42  1  0  0  0
 19 20  1  0  0  0
 19 21  1  0  0  0
 20 43  1  0  0  0
 21 22  2  0  0  0
 21 23  2  0  0  0
 21 24  1  0  0  0
 24 25  2  0  0  0
 25 31  1  0  0  0
 25 26  1  0  0  0
 26 27  1  0  0  0
 26 44  1  0  0  0
 26 45  1  0  0  0
 27 28  1  0  0  0
 27 46  1  0  0  0
 27 47  1  0  0  0
 28 29  1  0  0  0
 28 48  1  0  0  0
 28 49  1  0  0  0
 29 30  1  0  0  0
 29 50  1  0  0  0
 29 51  1  0  0  0
 30 31  1  0  0  0
 30 52  1  0  0  0
 30 53  1  0  0  0
 31 54  1  0  0  0
M  END
> <i_i_glide_confnum>
32

> <i_i_glide_lignum>
2812

> <i_i_glide_posenum>
250

> <i_i_glide_rotatable_bonds>
5

> <i_m_Source_File_Index>
2155

> <b_m_subgroup_collapsed>
0

> <r_i_docking_score>
-4.58421

> <r_i_glide_ecoul>
-6.70773

> <r_i_glide_eff_state_penalty>
0

> <r_i_glide_einternal>
2.38152

> <r_i_glide_emodel>
-54.491

> <r_i_glide_energy>
-45.5813

> <r_i_glide_erotb>
0.480157

> <r_i_glide_esite>
-0.0770766

> <r_i_glide_evdw>
-38.8735

> <r_i_glide_gscore>
-4.58421

> <r_i_glide_hbond>
-0.192351

> <r_i_glide_ligand_efficiency>
-0.147878

> <r_i_glide_ligand_efficiency_ln>
-1.03388

> <r_i_glide_ligand_efficiency_sa>
-0.46454

> <r_i_glide_lipo>
-2.50749

> <r_i_glide_metal>
0

> <r_i_glide_rewards>
0.66239

> <s_i_glide_gridfile>
wee1_glide-grid

> <s_m_Source_File>
wee1_decoys_glide_SP.sdf

> <s_m_Source_Path>
/Users/zhangxujun/Desktop

> <s_m_entry_id>
2430

> <s_m_entry_name>
wee1_decoys_glide_SP.2155

> <s_m_subgroup_title>
wee1_decoys_glide_SP

> <s_m_subgroupid>
wee1_decoys_glide_SP


$$$$
