ZINC36219030_5508
                    3D
 Schrodinger Suite 2024-2.
 67 70  0  0  1  0            999 V2000
    6.8870   54.0524   27.8401 C   0  0  0  0  0  0
    5.6690   54.0848   26.9385 C   0  0  0  0  0  0
    5.8007   54.4964   25.6101 C   0  0  0  0  0  0
    4.6869   54.4961   24.7722 C   0  0  0  0  0  0
    3.4424   54.0966   25.2625 C   0  0  0  0  0  0
    3.3060   53.7158   26.5986 C   0  0  0  0  0  0
    4.4198   53.7067   27.4357 C   0  0  0  0  0  0
    2.2324   54.1067   24.3399 C   0  0  0  0  0  0
    1.8750   52.7919   23.8081 N   0  0  0  0  0  0
    1.0723   51.7989   24.5046 C   0  0  2  0  0  0
    1.4219   51.6558   25.5243 H   0  0  0  0  0  0
    1.3344   50.5359   23.6576 C   0  0  2  0  0  0
    2.1659   49.9781   24.0844 H   0  0  0  0  0  0
    1.8484   51.0657   22.4470 O   0  0  0  0  0  0
    2.3043   52.3325   22.5645 C   0  0  0  0  0  0
    2.9470   52.8959   21.6822 O   0  0  0  0  0  0
    0.2041   49.5108   23.4808 C   0  0  0  0  0  0
   -0.3725   49.2961   22.2221 C   0  0  0  0  0  0
   -1.4664   48.4457   22.0908 C   0  0  0  0  0  0
   -2.0031   47.8192   23.2125 C   0  0  0  0  0  0
   -1.4348   48.0072   24.4865 C   0  0  0  0  0  0
   -0.3098   48.8333   24.5983 C   0  0  0  0  0  0
   -1.9641   47.4587   25.6817 N   0  0  0  0  0  0
   -2.9018   46.4975   25.8123 C   0  0  0  0  0  0
   -3.3794   45.8671   24.8689 O   0  0  0  0  0  0
   -3.3405   46.1590   27.2476 C   0  0  0  0  0  0
   -4.7544   45.5318   27.4247 C   0  0  0  0  0  0
   -5.8916   46.5074   27.0625 C   0  0  0  0  0  0
   -4.9538   44.1620   26.7386 C   0  0  0  0  0  0
   -0.4255   52.2088   24.5749 C   0  0  0  0  0  0
   -0.9285   52.8970   23.6821 O   0  0  0  0  0  0
   -1.1034   51.7309   25.6427 N   0  0  0  0  0  0
   -2.4592   51.8859   25.9765 C   0  0  0  0  0  0
   -2.9835   50.9626   26.8881 C   0  0  0  0  0  0
   -4.3197   51.0389   27.2840 C   0  0  0  0  0  0
   -5.1430   52.0478   26.7813 C   0  0  0  0  0  0
   -4.6276   52.9779   25.8785 C   0  0  0  0  0  0
   -3.2956   52.8966   25.4753 C   0  0  0  0  0  0
   -5.4166   53.9690   25.4041 F   0  0  0  0  0  0
    6.6081   54.0796   28.8927 H   0  0  0  0  0  0
    7.4916   53.1648   27.6513 H   0  0  0  0  0  0
    7.5093   54.9281   27.6658 H   0  0  0  0  0  0
    6.7633   54.7901   25.2191 H   0  0  0  0  0  0
    4.7978   54.8018   23.7415 H   0  0  0  0  0  0
    2.3433   53.4199   26.9885 H   0  0  0  0  0  0
    4.3145   53.3915   28.4617 H   0  0  0  0  0  0
    2.4217   54.8030   23.5200 H   0  0  0  0  0  0
    1.3704   54.5011   24.8805 H   0  0  0  0  0  0
    0.0045   49.8012   21.3484 H   0  0  0  0  0  0
   -1.9162   48.2975   21.1202 H   0  0  0  0  0  0
   -2.8820   47.2192   23.0536 H   0  0  0  0  0  0
    0.1347   48.9964   25.5724 H   0  0  0  0  0  0
   -1.5888   47.8148   26.5591 H   0  0  0  0  0  0
   -2.5882   45.4896   27.6616 H   0  0  0  0  0  0
   -3.2958   47.0707   27.8414 H   0  0  0  0  0  0
   -4.8432   45.3417   28.4913 H   0  0  0  0  0  0
   -5.8866   46.7544   25.9999 H   0  0  0  0  0  0
   -6.8677   46.0779   27.2914 H   0  0  0  0  0  0
   -5.8091   47.4395   27.6204 H   0  0  0  0  0  0
   -5.1230   44.2608   25.6672 H   0  0  0  0  0  0
   -4.0955   43.5051   26.8817 H   0  0  0  0  0  0
   -5.8279   43.6496   27.1389 H   0  0  0  0  0  0
   -0.5977   51.1000   26.2451 H   0  0  0  0  0  0
   -2.3662   50.1684   27.2845 H   0  0  0  0  0  0
   -4.7174   50.3118   27.9805 H   0  0  0  0  0  0
   -6.1771   52.1093   27.0895 H   0  0  0  0  0  0
   -2.9352   53.6342   24.7765 H   0  0  0  0  0  0
  1  2  1  0  0  0
  1 40  1  0  0  0
  1 41  1  0  0  0
  1 42  1  0  0  0
  2  7  2  0  0  0
  2  3  1  0  0  0
  3  4  2  0  0  0
  3 43  1  0  0  0
  4  5  1  0  0  0
  4 44  1  0  0  0
  5  6  2  0  0  0
  5  8  1  0  0  0
  6  7  1  0  0  0
  6 45  1  0  0  0
  7 46  1  0  0  0
  8  9  1  0  0  0
  8 47  1  0  0  0
  8 48  1  0  0  0
  9 15  1  0  0  0
  9 10  1  0  0  0
 10 11  1  0  0  0
 10 12  1  0  0  0
 10 30  1  0  0  0
 12 13  1  0  0  0
 12 14  1  0  0  0
 12 17  1  0  0  0
 14 15  1  0  0  0
 15 16  2  0  0  0
 17 22  2  0  0  0
 17 18  1  0  0  0
 18 19  2  0  0  0
 18 49  1  0  0  0
 19 20  1  0  0  0
 19 50  1  0  0  0
 20 21  2  0  0  0
 20 51  1  0  0  0
 21 22  1  0  0  0
 21 23  1  0  0  0
 22 52  1  0  0  0
 23 24  1  0  0  0
 23 53  1  0  0  0
 24 25  2  0  0  0
 24 26  1  0  0  0
 26 27  1  0  0  0
 26 54  1  0  0  0
 26 55  1  0  0  0
 27 28  1  0  0  0
 27 29  1  0  0  0
 27 56  1  0  0  0
 28 57  1  0  0  0
 28 58  1  0  0  0
 28 59  1  0  0  0
 29 60  1  0  0  0
 29 61  1  0  0  0
 29 62  1  0  0  0
 30 31  2  0  0  0
 30 32  1  0  0  0
 32 33  1  0  0  0
 32 63  1  0  0  0
 33 38  2  0  0  0
 33 34  1  0  0  0
 34 35  2  0  0  0
 34 64  1  0  0  0
 35 36  1  0  0  0
 35 65  1  0  0  0
 36 37  2  0  0  0
 36 66  1  0  0  0
 37 38  1  0  0  0
 37 39  1  0  0  0
 38 67  1  0  0  0
M  END
> <i_i_glide_confnum>
252

> <i_i_glide_lignum>
5509

> <i_i_glide_posenum>
314

> <i_i_glide_rotatable_bonds>
10

> <i_m_Source_File_Index>
2347

> <b_m_subgroup_collapsed>
0

> <r_i_docking_score>
-6.23265

> <r_i_glide_ecoul>
-8.45138

> <r_i_glide_eff_state_penalty>
0

> <r_i_glide_einternal>
2.95241

> <r_i_glide_emodel>
-75.0602

> <r_i_glide_energy>
-53.1781

> <r_i_glide_erotb>
0.725487

> <r_i_glide_esite>
-0.214369

> <r_i_glide_evdw>
-44.7268

> <r_i_glide_gscore>
-6.23265

> <r_i_glide_hbond>
-0.284682

> <r_i_glide_ligand_efficiency>
-0.16845

> <r_i_glide_ligand_efficiency_ln>
-1.35172

> <r_i_glide_ligand_efficiency_sa>
-0.561313

> <r_i_glide_lipo>
-2.37002

> <r_i_glide_metal>
0

> <r_i_glide_rewards>
-0.585018

> <s_i_glide_gridfile>
wee1_glide-grid

> <s_m_Source_File>
wee1_decoys_glide_SP.sdf

> <s_m_Source_Path>
/Users/zhangxujun/Desktop

> <s_m_entry_id>
2622

> <s_m_entry_name>
wee1_decoys_glide_SP.2347

> <s_m_subgroup_title>
wee1_decoys_glide_SP

> <s_m_subgroupid>
wee1_decoys_glide_SP


$$$$
