ZINC63007526_1771
                    3D
 Schrodinger Suite 2024-2.
 39 40  0  0  1  0            999 V2000
    5.7448   53.4912   27.7127 C   0  0  0  0  0  0
    4.2463   53.5530   28.0969 C   0  0  1  0  0  0
    4.1056   52.6715   28.7248 H   0  0  0  0  0  0
    3.9488   54.8094   28.9429 C   0  0  0  0  0  0
    2.5494   54.7460   29.5646 C   0  0  0  0  0  0
    1.4972   54.5267   28.4673 C   0  0  0  0  0  0
    1.8169   53.3384   27.5185 C   0  0  1  0  0  0
    1.1034   53.4322   26.7039 H   0  0  0  0  0  0
    3.2165   53.4683   27.0130 N   0  0  0  0  0  0
    3.4398   54.0972   25.8154 C   0  0  0  0  0  0
    4.2264   55.0450   25.7203 O   0  0  0  0  0  0
    2.8575   53.5278   24.5207 C   0  0  0  0  0  0
    1.9031   52.4974   24.4681 C   0  0  0  0  0  0
    1.5041   51.9314   23.2577 C   0  0  0  0  0  0
    2.0869   52.3363   22.0525 C   0  0  0  0  0  0
    3.0595   53.3436   22.0866 C   0  0  0  0  0  0
    3.4053   53.9467   23.2945 C   0  0  0  0  0  0
    3.6964   53.7313   20.9571 F   0  0  0  0  0  0
    1.7283   51.6793   20.8650 N   0  0  0  0  0  0
    1.2232   52.4922   19.7842 N   0  0  0  0  0  0
    0.5721   50.9477   23.2714 F   0  0  0  0  0  0
    1.5172   51.9722   28.1681 C   0  0  0  0  0  0
    6.3678   53.3610   28.5991 H   0  0  0  0  0  0
    5.9429   52.6618   27.0374 H   0  0  0  0  0  0
    6.0934   54.4088   27.2388 H   0  0  0  0  0  0
    3.9950   55.6953   28.3171 H   0  0  0  0  0  0
    4.7303   54.9391   29.6902 H   0  0  0  0  0  0
    2.3287   55.6538   30.1301 H   0  0  0  0  0  0
    2.5017   53.9206   30.2775 H   0  0  0  0  0  0
    1.4300   55.4377   27.8730 H   0  0  0  0  0  0
    0.5075   54.4039   28.9088 H   0  0  0  0  0  0
    1.4651   52.0631   25.3486 H   0  0  0  0  0  0
    4.1724   54.7055   23.2669 H   0  0  0  0  0  0
    1.0299   50.9662   21.0364 H   0  0  0  0  0  0
    1.2293   53.4664   20.0825 H   0  0  0  0  0  0
    1.8772   52.4032   19.0169 H   0  0  0  0  0  0
    0.4613   51.8925   28.4345 H   0  0  0  0  0  0
    1.7651   51.1429   27.5058 H   0  0  0  0  0  0
    2.0737   51.8265   29.0947 H   0  0  0  0  0  0
  1  2  1  0  0  0
  1 23  1  0  0  0
  1 24  1  0  0  0
  1 25  1  0  0  0
  2  3  1  0  0  0
  2  9  1  0  0  0
  2  4  1  0  0  0
  4  5  1  0  0  0
  4 26  1  0  0  0
  4 27  1  0  0  0
  5  6  1  0  0  0
  5 28  1  0  0  0
  5 29  1  0  0  0
  6  7  1  0  0  0
  6 30  1  0  0  0
  6 31  1  0  0  0
  7  8  1  0  0  0
  7  9  1  0  0  0
  7 22  1  0  0  0
  9 10  1  0  0  0
 10 11  2  0  0  0
 10 12  1  0  0  0
 12 17  2  0  0  0
 12 13  1  0  0  0
 13 14  2  0  0  0
 13 32  1  0  0  0
 14 15  1  0  0  0
 14 21  1  0  0  0
 15 16  2  0  0  0
 15 19  1  0  0  0
 16 17  1  0  0  0
 16 18  1  0  0  0
 17 33  1  0  0  0
 19 20  1  0  0  0
 19 34  1  0  0  0
 20 35  1  0  0  0
 20 36  1  0  0  0
 22 37  1  0  0  0
 22 38  1  0  0  0
 22 39  1  0  0  0
M  END
> <i_i_glide_confnum>
1

> <i_i_glide_lignum>
1772

> <i_i_glide_posenum>
384

> <i_i_glide_rotatable_bonds>
3

> <i_m_Source_File_Index>
4162

> <b_m_subgroup_collapsed>
0

> <r_i_docking_score>
-4.68879

> <r_i_glide_ecoul>
-2.69712

> <r_i_glide_eff_state_penalty>
0

> <r_i_glide_einternal>
10.2994

> <r_i_glide_emodel>
-30.0441

> <r_i_glide_energy>
-30.4688

> <r_i_glide_erotb>
0.451196

> <r_i_glide_esite>
-0.0223661

> <r_i_glide_evdw>
-27.7717

> <r_i_glide_gscore>
-4.68879

> <r_i_glide_hbond>
-0.32

> <r_i_glide_ligand_efficiency>
-0.234439

> <r_i_glide_ligand_efficiency_ln>
-1.17345

> <r_i_glide_ligand_efficiency_sa>
-0.636366

> <r_i_glide_lipo>
-2.41335

> <r_i_glide_metal>
0

> <r_i_glide_rewards>
-0.591111

> <s_i_glide_gridfile>
wee1_glide-grid

> <s_m_Source_File>
wee1_decoys_glide_SP.sdf

> <s_m_Source_Path>
/Users/zhangxujun/Desktop

> <s_m_entry_id>
4437

> <s_m_entry_name>
wee1_decoys_glide_SP.4162

> <s_m_subgroup_title>
wee1_decoys_glide_SP

> <s_m_subgroupid>
wee1_decoys_glide_SP


$$$$
