ZINC39690580_1303
                    3D
 Schrodinger Suite 2024-2.
 63 66  0  0  1  0            999 V2000
    3.5078   52.6848   29.3744 C   0  0  0  0  0  0
    2.8054   53.7528   28.4971 C   0  0  2  0  0  0
    3.0587   54.7590   28.8402 H   0  0  0  0  0  0
    1.2576   53.6419   28.5882 C   0  0  0  0  0  0
    0.6867   54.2899   29.4682 O   0  0  0  0  0  0
    0.5625   52.8797   27.6971 N   0  0  0  0  0  0
    1.1703   51.8725   26.8426 C   0  0  0  0  0  0
    0.0699   50.8156   26.7253 C   0  0  1  0  0  0
    0.1228   50.1494   27.5869 H   0  0  0  0  0  0
   -1.2648   51.6091   26.7526 C   0  0  0  0  0  0
   -0.8970   52.7951   27.6727 C   0  0  0  0  0  0
   -2.4117   50.7124   27.2984 C   0  0  0  0  0  0
   -3.8283   51.3099   27.2758 C   0  0  0  0  0  0
   -4.1362   51.8745   25.8762 N   0  3  0  0  0  0
   -3.0744   52.8760   25.3887 C   0  0  0  0  0  0
   -1.7190   52.1435   25.3509 C   0  0  0  0  0  0
    0.3015   49.9945   25.4416 C   0  0  0  0  0  0
    0.8186   50.4871   24.4374 O   0  0  0  0  0  0
   -0.1011   48.7229   25.5111 N   0  0  0  0  0  0
   -0.0887   47.7968   24.3929 C   0  0  0  0  0  0
   -1.4593   47.6582   23.7425 C   0  0  0  0  0  0
   -1.6824   48.2417   22.4889 C   0  0  0  0  0  0
   -2.9231   48.1197   21.8640 C   0  0  0  0  0  0
   -3.9527   47.4163   22.4856 C   0  0  0  0  0  0
   -3.7391   46.8282   23.7320 C   0  0  0  0  0  0
   -2.4971   46.9401   24.3618 C   0  0  0  0  0  0
   -2.2589   46.0968   26.0577 Br  0  0  0  0  0  0
    3.1529   53.6859   27.1108 O   0  0  0  0  0  0
    4.3684   54.0969   26.6164 C   0  0  0  0  0  0
    5.4641   54.4983   27.3934 C   0  0  0  0  0  0
    6.6434   54.8908   26.7695 C   0  0  0  0  0  0
    6.7178   54.8952   25.3773 C   0  0  0  0  0  0
    5.6377   54.4969   24.6013 C   0  0  0  0  0  0
    4.4635   54.0977   25.2266 C   0  0  0  0  0  0
    3.2129   52.7818   30.4188 H   0  0  0  0  0  0
    3.2525   51.6731   29.0585 H   0  0  0  0  0  0
    4.5926   52.7609   29.3421 H   0  0  0  0  0  0
    1.3425   52.3512   25.8768 H   0  0  0  0  0  0
    2.0684   51.4257   27.2668 H   0  0  0  0  0  0
   -1.2234   52.5393   28.6828 H   0  0  0  0  0  0
   -1.3610   53.6985   27.2861 H   0  0  0  0  0  0
   -2.4318   49.7557   26.7701 H   0  0  0  0  0  0
   -2.1757   50.4673   28.3323 H   0  0  0  0  0  0
   -4.5872   50.5514   27.4800 H   0  0  0  0  0  0
   -3.9471   52.1109   27.9986 H   0  0  0  0  0  0
   -4.1832   51.1040   25.2202 H   0  0  0  0  0  0
   -3.3938   53.2105   24.4018 H   0  0  0  0  0  0
   -3.1169   53.7139   26.0833 H   0  0  0  0  0  0
   -0.9527   52.8022   24.9372 H   0  0  0  0  0  0
   -1.8096   51.3289   24.6299 H   0  0  0  0  0  0
   -0.4839   48.3725   26.3846 H   0  0  0  0  0  0
    0.6541   48.0971   23.6505 H   0  0  0  0  0  0
    0.2354   46.8346   24.7688 H   0  0  0  0  0  0
   -0.8971   48.7964   21.9972 H   0  0  0  0  0  0
   -3.0893   48.5769   20.8988 H   0  0  0  0  0  0
   -4.9158   47.3239   22.0042 H   0  0  0  0  0  0
   -4.5383   46.2845   24.2133 H   0  0  0  0  0  0
    5.4176   54.5320   28.4700 H   0  0  0  0  0  0
    7.4924   55.1951   27.3664 H   0  0  0  0  0  0
    7.6236   55.2033   24.8811 H   0  0  0  0  0  0
    5.7091   54.4953   23.5226 H   0  0  0  0  0  0
    3.6185   53.7881   24.6311 H   0  0  0  0  0  0
   -5.0504   52.3064   25.8763 H   0  0  0  0  0  0
  1  2  1  0  0  0
  1 35  1  0  0  0
  1 36  1  0  0  0
  1 37  1  0  0  0
  2  3  1  0  0  0
  2  4  1  0  0  0
  2 28  1  0  0  0
  4  5  2  0  0  0
  4  6  1  0  0  0
  6 11  1  0  0  0
  6  7  1  0  0  0
  7  8  1  0  0  0
  7 38  1  0  0  0
  7 39  1  0  0  0
  8  9  1  0  0  0
  8 10  1  0  0  0
  8 17  1  0  0  0
 10 16  1  0  0  0
 10 11  1  0  0  0
 10 12  1  0  0  0
 11 40  1  0  0  0
 11 41  1  0  0  0
 12 13  1  0  0  0
 12 42  1  0  0  0
 12 43  1  0  0  0
 13 14  1  0  0  0
 13 44  1  0  0  0
 13 45  1  0  0  0
 14 15  1  0  0  0
 14 46  1  0  0  0
 14 63  1  0  0  0
 15 16  1  0  0  0
 15 47  1  0  0  0
 15 48  1  0  0  0
 16 49  1  0  0  0
 16 50  1  0  0  0
 17 18  2  0  0  0
 17 19  1  0  0  0
 19 20  1  0  0  0
 19 51  1  0  0  0
 20 21  1  0  0  0
 20 52  1  0  0  0
 20 53  1  0  0  0
 21 26  2  0  0  0
 21 22  1  0  0  0
 22 23  2  0  0  0
 22 54  1  0  0  0
 23 24  1  0  0  0
 23 55  1  0  0  0
 24 25  2  0  0  0
 24 56  1  0  0  0
 25 26  1  0  0  0
 25 57  1  0  0  0
 26 27  1  0  0  0
 28 29  1  0  0  0
 29 34  2  0  0  0
 29 30  1  0  0  0
 30 31  2  0  0  0
 30 58  1  0  0  0
 31 32  1  0  0  0
 31 59  1  0  0  0
 32 33  2  0  0  0
 32 60  1  0  0  0
 33 34  1  0  0  0
 33 61  1  0  0  0
 34 62  1  0  0  0
M  CHG  1  14   1
M  END
> <i_i_glide_confnum>
198

> <i_i_glide_lignum>
1304

> <i_i_glide_posenum>
127

> <i_i_glide_rotatable_bonds>
8

> <i_m_Source_File_Index>
678

> <b_m_subgroup_collapsed>
0

> <r_i_docking_score>
-4.53598

> <r_i_glide_ecoul>
-1.14738

> <r_i_glide_eff_state_penalty>
0

> <r_i_glide_einternal>
6.73557

> <r_i_glide_emodel>
-49.9333

> <r_i_glide_energy>
-40.1895

> <r_i_glide_erotb>
0.48743

> <r_i_glide_esite>
-0.120526

> <r_i_glide_evdw>
-39.0422

> <r_i_glide_gscore>
-4.53598

> <r_i_glide_hbond>
-0.0897737

> <r_i_glide_ligand_efficiency>
-0.141749

> <r_i_glide_ligand_efficiency_ln>
-1.01573

> <r_i_glide_ligand_efficiency_sa>
-0.450026

> <r_i_glide_lipo>
-2.20803

> <r_i_glide_metal>
0

> <r_i_glide_rewards>
-0.480861

> <s_i_glide_gridfile>
wee1_glide-grid

> <s_m_Source_File>
wee1_decoys_glide_SP.sdf

> <s_m_Source_Path>
/Users/zhangxujun/Desktop

> <s_m_entry_id>
953

> <s_m_entry_name>
wee1_decoys_glide_SP.678

> <s_m_subgroup_title>
wee1_decoys_glide_SP

> <s_m_subgroupid>
wee1_decoys_glide_SP


$$$$
