ZINC60248432_4411
                    3D
 Schrodinger Suite 2024-2.
 59 61  0  0  1  0            999 V2000
    1.8764   53.6031   23.3245 C   0  0  0  0  0  0
    3.3624   53.8706   23.5338 C   0  0  0  0  0  0
    3.8274   54.1036   24.8286 C   0  0  0  0  0  0
    5.1786   54.4033   25.0742 C   0  0  0  0  0  0
    6.0593   54.4979   23.9894 C   0  0  0  0  0  0
    5.6088   54.2707   22.6942 C   0  0  0  0  0  0
    4.2740   53.9363   22.4659 C   0  0  0  0  0  0
    3.9043   53.7129   21.1427 N   0  0  0  0  0  0
    3.5296   52.5261   20.6323 C   0  0  0  0  0  0
    3.4010   51.4848   21.2832 O   0  0  0  0  0  0
    3.2786   52.4758   19.1122 C   0  0  1  0  0  0
    3.9044   51.6967   18.6970 H   0  0  0  0  0  0
    1.8170   52.1308   18.7880 C   0  0  0  0  0  0
    1.6028   52.7273   17.4136 C   0  0  0  0  0  0
    2.3974   54.0206   17.5103 C   0  0  0  0  0  0
    3.5755   53.6956   18.3180 N   0  0  0  0  0  0
    4.8273   54.2422   18.2287 C   0  0  0  0  0  0
    5.7993   53.6970   18.7611 O   0  0  0  0  0  0
    5.0723   55.5512   17.4951 C   0  0  0  0  0  0
    4.0871   56.5398   17.3437 C   0  0  0  0  0  0
    4.3599   57.7360   16.6864 C   0  0  0  0  0  0
    5.6392   57.9939   16.2003 C   0  0  0  0  0  0
    6.6412   57.0386   16.3602 C   0  0  0  0  0  0
    6.3589   55.8302   16.9995 C   0  0  0  0  0  0
    8.2324   57.3499   15.7694 Cl  0  0  0  0  0  0
    3.1044   58.8974   16.4818 Cl  0  0  0  0  0  0
    5.6862   54.6383   26.4711 C   0  0  0  0  0  0
    6.7064   55.2964   26.6677 O   0  0  0  0  0  0
    4.9632   54.0888   27.4587 N   0  0  0  0  0  0
    5.2235   54.2617   28.8814 C   0  0  0  0  0  0
    4.0103   53.8837   29.7642 C   0  0  0  0  0  0
    2.7721   54.7581   29.4766 C   0  0  0  0  0  0
    3.6681   52.3819   29.6801 C   0  0  0  0  0  0
    1.6986   52.5459   23.1259 H   0  0  0  0  0  0
    1.2824   53.9063   24.1870 H   0  0  0  0  0  0
    1.5043   54.1763   22.4751 H   0  0  0  0  0  0
    3.1180   54.0570   25.6432 H   0  0  0  0  0  0
    7.1035   54.7403   24.1396 H   0  0  0  0  0  0
    6.3041   54.3419   21.8702 H   0  0  0  0  0  0
    4.0572   54.4705   20.4937 H   0  0  0  0  0  0
    1.6274   51.0566   18.8107 H   0  0  0  0  0  0
    1.1426   52.6022   19.5048 H   0  0  0  0  0  0
    2.0406   52.0756   16.6552 H   0  0  0  0  0  0
    0.5518   52.8792   17.1668 H   0  0  0  0  0  0
    2.6329   54.4096   16.5181 H   0  0  0  0  0  0
    1.8056   54.7487   18.0651 H   0  0  0  0  0  0
    3.0996   56.4256   17.7538 H   0  0  0  0  0  0
    5.8490   58.9350   15.7104 H   0  0  0  0  0  0
    7.1563   55.1059   17.1090 H   0  0  0  0  0  0
    4.2358   53.4364   27.2085 H   0  0  0  0  0  0
    5.5061   55.2967   29.0840 H   0  0  0  0  0  0
    6.0888   53.6467   29.1317 H   0  0  0  0  0  0
    4.3044   54.0821   30.7957 H   0  0  0  0  0  0
    2.4017   54.6103   28.4615 H   0  0  0  0  0  0
    2.9996   55.8182   29.5890 H   0  0  0  0  0  0
    1.9514   54.5308   30.1576 H   0  0  0  0  0  0
    3.3291   52.0999   28.6829 H   0  0  0  0  0  0
    4.5364   51.7658   29.9204 H   0  0  0  0  0  0
    2.8784   52.1141   30.3840 H   0  0  0  0  0  0
  1  2  1  0  0  0
  1 34  1  0  0  0
  1 35  1  0  0  0
  1 36  1  0  0  0
  2  7  2  0  0  0
  2  3  1  0  0  0
  3  4  2  0  0  0
  3 37  1  0  0  0
  4  5  1  0  0  0
  4 27  1  0  0  0
  5  6  2  0  0  0
  5 38  1  0  0  0
  6  7  1  0  0  0
  6 39  1  0  0  0
  7  8  1  0  0  0
  8  9  1  0  0  0
  8 40  1  0  0  0
  9 10  2  0  0  0
  9 11  1  0  0  0
 11 12  1  0  0  0
 11 16  1  0  0  0
 11 13  1  0  0  0
 13 14  1  0  0  0
 13 41  1  0  0  0
 13 42  1  0  0  0
 14 15  1  0  0  0
 14 43  1  0  0  0
 14 44  1  0  0  0
 15 16  1  0  0  0
 15 45  1  0  0  0
 15 46  1  0  0  0
 16 17  1  0  0  0
 17 18  2  0  0  0
 17 19  1  0  0  0
 19 24  2  0  0  0
 19 20  1  0  0  0
 20 21  2  0  0  0
 20 47  1  0  0  0
 21 22  1  0  0  0
 21 26  1  0  0  0
 22 23  2  0  0  0
 22 48  1  0  0  0
 23 24  1  0  0  0
 23 25  1  0  0  0
 24 49  1  0  0  0
 27 28  2  0  0  0
 27 29  1  0  0  0
 29 30  1  0  0  0
 29 50  1  0  0  0
 30 31  1  0  0  0
 30 51  1  0  0  0
 30 52  1  0  0  0
 31 32  1  0  0  0
 31 33  1  0  0  0
 31 53  1  0  0  0
 32 54  1  0  0  0
 32 55  1  0  0  0
 32 56  1  0  0  0
 33 57  1  0  0  0
 33 58  1  0  0  0
 33 59  1  0  0  0
M  END
> <i_i_glide_confnum>
49

> <i_i_glide_lignum>
4412

> <i_i_glide_posenum>
252

> <i_i_glide_rotatable_bonds>
9

> <i_m_Source_File_Index>
5949

> <b_m_subgroup_collapsed>
0

> <r_i_docking_score>
-5.33974

> <r_i_glide_ecoul>
-3.97285

> <r_i_glide_eff_state_penalty>
0

> <r_i_glide_einternal>
11.525

> <r_i_glide_emodel>
-58.3731

> <r_i_glide_energy>
-47.7252

> <r_i_glide_erotb>
0.713787

> <r_i_glide_esite>
-0.0305049

> <r_i_glide_evdw>
-43.7524

> <r_i_glide_gscore>
-5.33974

> <r_i_glide_hbond>
-0.315319

> <r_i_glide_ligand_efficiency>
-0.166867

> <r_i_glide_ligand_efficiency_ln>
-1.19571

> <r_i_glide_ligand_efficiency_sa>
-0.52977

> <r_i_glide_lipo>
-2.28041

> <r_i_glide_metal>
0

> <r_i_glide_rewards>
-0.643749

> <s_i_glide_gridfile>
wee1_glide-grid

> <s_m_Source_File>
wee1_decoys_glide_SP.sdf

> <s_m_Source_Path>
/Users/zhangxujun/Desktop

> <s_m_entry_id>
6224

> <s_m_entry_name>
wee1_decoys_glide_SP.5949

> <s_m_subgroup_title>
wee1_decoys_glide_SP

> <s_m_subgroupid>
wee1_decoys_glide_SP


$$$$
