ZINC20792348_2758
                    3D
 Schrodinger Suite 2024-2.
 44 46  0  0  1  0            999 V2000
    0.3443   51.8351   20.0890 C   0  0  0  0  0  0
   -0.0469   52.0969   21.4036 C   0  0  0  0  0  0
    0.8845   52.0913   22.4534 C   0  0  0  0  0  0
    2.2202   51.8017   22.1303 C   0  0  0  0  0  0
    2.6223   51.5668   20.8202 C   0  0  0  0  0  0
    1.6823   51.5777   19.7941 C   0  0  0  0  0  0
    4.2920   51.2926   20.4843 Cl  0  0  0  0  0  0
    0.4342   52.3777   23.9170 C   0  0  2  0  0  0
   -0.1514   53.2986   23.8435 H   0  0  0  0  0  0
    1.6190   52.7305   24.8801 C   0  0  1  0  0  0
    2.3046   51.8896   24.8690 H   0  0  0  0  0  0
    2.3892   54.0166   24.4637 C   0  0  0  0  0  0
    3.5053   54.1953   25.4164 N   0  0  0  0  0  0
    3.2163   54.3390   26.8549 C   0  0  0  0  0  0
    1.9442   53.5693   27.2010 C   0  0  0  0  0  0
    1.1929   52.8288   26.3486 C   0  0  0  0  0  0
    0.0516   52.0500   26.8281 C   0  0  0  0  0  0
   -0.7244   51.3148   26.0019 C   0  0  0  0  0  0
   -0.5372   51.2674   24.4741 C   0  0  0  0  0  0
   -0.0606   49.9171   24.1135 C   0  0  0  0  0  0
    0.3044   48.8607   23.8252 N   0  0  0  0  0  0
   -1.8641   51.4455   23.8470 C   0  0  0  0  0  0
   -2.9031   51.5884   23.3569 N   0  0  0  0  0  0
   -1.7287   50.4967   26.4814 N   0  0  0  0  0  0
   -0.2408   52.0457   28.2338 C   0  0  0  0  0  0
   -0.4698   52.0964   29.3666 N   0  0  0  0  0  0
    4.8336   54.4117   25.0011 C   0  0  0  0  0  0
    5.7838   54.6532   25.7497 O   0  0  0  0  0  0
    4.9652   54.3103   23.6527 O   0  0  0  0  0  0
    6.2069   54.5129   22.9906 C   0  0  0  0  0  0
    5.9699   54.4960   21.6805 F   0  0  0  0  0  0
    7.0749   53.5501   23.2848 F   0  0  0  0  0  0
    6.7384   55.6955   23.2968 F   0  0  0  0  0  0
   -0.3842   51.8513   19.2939 H   0  0  0  0  0  0
   -1.0820   52.3259   21.5903 H   0  0  0  0  0  0
    2.9943   51.7723   22.8751 H   0  0  0  0  0  0
    1.9908   51.3903   18.7746 H   0  0  0  0  0  0
    1.7483   54.8966   24.4814 H   0  0  0  0  0  0
    2.7239   53.9397   23.4316 H   0  0  0  0  0  0
    4.0366   53.9583   27.4659 H   0  0  0  0  0  0
    3.1041   55.3880   27.1208 H   0  0  0  0  0  0
    1.6530   53.6105   28.2408 H   0  0  0  0  0  0
   -2.2885   49.9310   25.8581 H   0  0  0  0  0  0
   -1.7269   50.1971   27.4509 H   0  0  0  0  0  0
  1  6  2  0  0  0
  1  2  1  0  0  0
  1 34  1  0  0  0
  2  3  2  0  0  0
  2 35  1  0  0  0
  3  4  1  0  0  0
  3  8  1  0  0  0
  4  5  2  0  0  0
  4 36  1  0  0  0
  5  6  1  0  0  0
  5  7  1  0  0  0
  6 37  1  0  0  0
  8  9  1  0  0  0
  8 19  1  0  0  0
  8 10  1  0  0  0
 10 11  1  0  0  0
 10 16  1  0  0  0
 10 12  1  0  0  0
 12 13  1  0  0  0
 12 38  1  0  0  0
 12 39  1  0  0  0
 13 14  1  0  0  0
 13 27  1  0  0  0
 14 15  1  0  0  0
 14 40  1  0  0  0
 14 41  1  0  0  0
 15 16  2  0  0  0
 15 42  1  0  0  0
 16 17  1  0  0  0
 17 18  2  0  0  0
 17 25  1  0  0  0
 18 19  1  0  0  0
 18 24  1  0  0  0
 19 20  1  0  0  0
 19 22  1  0  0  0
 20 21  3  0  0  0
 22 23  3  0  0  0
 24 43  1  0  0  0
 24 44  1  0  0  0
 25 26  3  0  0  0
 27 28  2  0  0  0
 27 29  1  0  0  0
 29 30  1  0  0  0
 30 31  1  0  0  0
 30 32  1  0  0  0
 30 33  1  0  0  0
M  END
> <i_i_glide_confnum>
3

> <i_i_glide_lignum>
2759

> <i_i_glide_posenum>
321

> <i_i_glide_rotatable_bonds>
7

> <i_m_Source_File_Index>
1374

> <b_m_subgroup_collapsed>
0

> <r_i_docking_score>
-4.94227

> <r_i_glide_ecoul>
-1.7239

> <r_i_glide_eff_state_penalty>
0

> <r_i_glide_einternal>
9.12574

> <r_i_glide_emodel>
-46.5937

> <r_i_glide_energy>
-39.664

> <r_i_glide_erotb>
0.29963

> <r_i_glide_esite>
-0.110298

> <r_i_glide_evdw>
-37.9401

> <r_i_glide_gscore>
-4.94227

> <r_i_glide_hbond>
-0.0988887

> <r_i_glide_ligand_efficiency>
-0.159428

> <r_i_glide_ligand_efficiency_ln>
-1.11463

> <r_i_glide_ligand_efficiency_sa>
-0.500824

> <r_i_glide_lipo>
-1.4991

> <r_i_glide_metal>
0

> <r_i_glide_rewards>
-1.37803

> <s_i_glide_gridfile>
wee1_glide-grid

> <s_m_Source_File>
wee1_decoys_glide_SP.sdf

> <s_m_Source_Path>
/Users/zhangxujun/Desktop

> <s_m_entry_id>
1649

> <s_m_entry_name>
wee1_decoys_glide_SP.1374

> <s_m_subgroup_title>
wee1_decoys_glide_SP

> <s_m_subgroupid>
wee1_decoys_glide_SP


$$$$
