ZINC59218814_1148
                    3D
 Schrodinger Suite 2024-2.
 70 74  0  0  1  0            999 V2000
   -1.7099   51.4103   24.4654 C   0  0  0  0  0  0
   -0.3562   52.0860   24.5719 C   0  0  0  0  0  0
    0.2588   52.2208   25.8168 C   0  0  0  0  0  0
    1.5065   52.8321   25.9145 C   0  0  0  0  0  0
    2.1649   53.2982   24.7689 C   0  0  0  0  0  0
    1.5331   53.1605   23.5240 C   0  0  0  0  0  0
    0.2831   52.5547   23.4247 C   0  0  0  0  0  0
    3.5452   53.8888   24.8815 C   0  0  0  0  0  0
    4.2154   54.2313   26.0611 C   0  0  0  0  0  0
    5.8335   54.7566   25.7065 S   0  0  0  0  0  0
    5.4846   54.5213   24.0276 C   0  0  0  0  0  0
    4.2691   54.0961   23.7906 N   0  0  0  0  0  0
    6.7043   54.8943   22.8094 S   0  0  0  0  0  0
    5.6903   54.9665   21.2880 C   0  0  0  0  0  0
    6.2148   55.9741   20.2614 C   0  0  0  0  0  0
    6.7045   57.0405   20.6354 O   0  0  0  0  0  0
    6.0842   55.6352   18.9648 N   0  0  0  0  0  0
    6.5624   56.4238   17.9072 C   0  0  0  0  0  0
    5.9492   57.6576   17.6502 C   0  0  0  0  0  0
    6.4388   58.4967   16.6540 C   0  0  0  0  0  0
    7.5447   58.1081   15.9033 C   0  0  0  0  0  0
    8.1400   56.8691   16.1322 C   0  0  0  0  0  0
    7.6423   55.9922   17.1064 C   0  0  0  0  0  0
    8.2529   54.7499   17.2482 N   0  0  0  0  0  0
    7.5123   53.4910   17.4206 C   0  0  0  0  0  0
    8.0994   52.2862   16.6587 C   0  0  0  0  0  0
    9.6267   52.1590   16.8815 N   0  3  0  0  0  0
   10.3395   53.5150   16.6462 C   0  0  0  0  0  0
    9.6909   54.6098   17.5046 C   0  0  0  0  0  0
   10.1960   50.9716   16.0477 C   0  0  0  0  0  0
   10.2439   51.2848   14.5236 C   0  0  0  0  0  0
   10.8819   50.1550   13.7035 C   0  0  0  0  0  0
   12.2613   49.7439   14.2588 C   0  0  0  0  0  0
   12.2041   49.4057   15.7644 C   0  0  0  0  0  0
   11.5767   50.5445   16.5981 C   0  0  0  0  0  0
   -1.8006   50.8626   23.5255 H   0  0  0  0  0  0
   -2.5111   52.1474   24.5182 H   0  0  0  0  0  0
   -1.8493   50.6801   25.2643 H   0  0  0  0  0  0
   -0.2269   51.8476   26.7098 H   0  0  0  0  0  0
    1.9652   52.9135   26.8866 H   0  0  0  0  0  0
    2.0088   53.5129   22.6197 H   0  0  0  0  0  0
   -0.1826   52.4505   22.4548 H   0  0  0  0  0  0
    3.8732   54.1666   27.0839 H   0  0  0  0  0  0
    5.6161   53.9670   20.8629 H   0  0  0  0  0  0
    4.6796   55.2944   21.5314 H   0  0  0  0  0  0
    5.6696   54.7486   18.7247 H   0  0  0  0  0  0
    5.1063   57.9815   18.2393 H   0  0  0  0  0  0
    5.9677   59.4558   16.4786 H   0  0  0  0  0  0
    7.9294   58.7625   15.1341 H   0  0  0  0  0  0
    8.9833   56.5785   15.5228 H   0  0  0  0  0  0
    7.5647   53.2986   18.4870 H   0  0  0  0  0  0
    6.4538   53.6108   17.1740 H   0  0  0  0  0  0
    7.9125   52.3804   15.5903 H   0  0  0  0  0  0
    7.6651   51.3595   17.0377 H   0  0  0  0  0  0
   10.2752   53.7759   15.5902 H   0  0  0  0  0  0
   11.3773   53.3837   16.9495 H   0  0  0  0  0  0
   10.2090   55.5616   17.3725 H   0  0  0  0  0  0
    9.7866   54.3667   18.5652 H   0  0  0  0  0  0
    9.5378   50.1112   16.1879 H   0  0  0  0  0  0
    9.2636   51.5470   14.1270 H   0  0  0  0  0  0
   10.8560   52.1691   14.3466 H   0  0  0  0  0  0
   10.2207   49.2869   13.6778 H   0  0  0  0  0  0
   10.9811   50.4970   12.6729 H   0  0  0  0  0  0
   12.6437   48.8945   13.6905 H   0  0  0  0  0  0
   12.9727   50.5552   14.0929 H   0  0  0  0  0  0
   11.6166   48.4964   15.9087 H   0  0  0  0  0  0
   13.2058   49.1822   16.1346 H   0  0  0  0  0  0
   12.2628   51.3916   16.5722 H   0  0  0  0  0  0
   11.5080   50.2833   17.6560 H   0  0  0  0  0  0
    9.7622   51.9330   17.8611 H   0  0  0  0  0  0
  1  2  1  0  0  0
  1 36  1  0  0  0
  1 37  1  0  0  0
  1 38  1  0  0  0
  2  7  2  0  0  0
  2  3  1  0  0  0
  3  4  2  0  0  0
  3 39  1  0  0  0
  4  5  1  0  0  0
  4 40  1  0  0  0
  5  6  2  0  0  0
  5  8  1  0  0  0
  6  7  1  0  0  0
  6 41  1  0  0  0
  7 42  1  0  0  0
  8 12  1  0  0  0
  8  9  2  0  0  0
  9 10  1  0  0  0
  9 43  1  0  0  0
 10 11  1  0  0  0
 11 12  2  0  0  0
 11 13  1  0  0  0
 13 14  1  0  0  0
 14 15  1  0  0  0
 14 44  1  0  0  0
 14 45  1  0  0  0
 15 16  2  0  0  0
 15 17  1  0  0  0
 17 18  1  0  0  0
 17 46  1  0  0  0
 18 23  2  0  0  0
 18 19  1  0  0  0
 19 20  2  0  0  0
 19 47  1  0  0  0
 20 21  1  0  0  0
 20 48  1  0  0  0
 21 22  2  0  0  0
 21 49  1  0  0  0
 22 23  1  0  0  0
 22 50  1  0  0  0
 23 24  1  0  0  0
 24 29  1  0  0  0
 24 25  1  0  0  0
 25 26  1  0  0  0
 25 51  1  0  0  0
 25 52  1  0  0  0
 26 27  1  0  0  0
 26 53  1  0  0  0
 26 54  1  0  0  0
 27 28  1  0  0  0
 27 30  1  0  0  0
 27 70  1  0  0  0
 28 29  1  0  0  0
 28 55  1  0  0  0
 28 56  1  0  0  0
 29 57  1  0  0  0
 29 58  1  0  0  0
 30 35  1  0  0  0
 30 31  1  0  0  0
 30 59  1  0  0  0
 31 32  1  0  0  0
 31 60  1  0  0  0
 31 61  1  0  0  0
 32 33  1  0  0  0
 32 62  1  0  0  0
 32 63  1  0  0  0
 33 34  1  0  0  0
 33 64  1  0  0  0
 33 65  1  0  0  0
 34 35  1  0  0  0
 34 66  1  0  0  0
 34 67  1  0  0  0
 35 68  1  0  0  0
 35 69  1  0  0  0
M  CHG  1  27   1
M  END
> <i_i_glide_confnum>
295

> <i_i_glide_lignum>
1149

> <i_i_glide_posenum>
328

> <i_i_glide_rotatable_bonds>
8

> <i_m_Source_File_Index>
3231

> <b_m_subgroup_collapsed>
0

> <r_i_docking_score>
-5.91774

> <r_i_glide_ecoul>
-9.16347

> <r_i_glide_eff_state_penalty>
0

> <r_i_glide_einternal>
7.23143

> <r_i_glide_emodel>
-67.4379

> <r_i_glide_energy>
-49.8871

> <r_i_glide_erotb>
0.63519

> <r_i_glide_esite>
-0.0109144

> <r_i_glide_evdw>
-40.7237

> <r_i_glide_gscore>
-5.91774

> <r_i_glide_hbond>
-0.32

> <r_i_glide_ligand_efficiency>
-0.169078

> <r_i_glide_ligand_efficiency_ln>
-1.29907

> <r_i_glide_ligand_efficiency_sa>
-0.553066

> <r_i_glide_lipo>
-2.55396

> <r_i_glide_metal>
0

> <r_i_glide_rewards>
-0.25735

> <s_i_glide_gridfile>
wee1_glide-grid

> <s_m_Source_File>
wee1_decoys_glide_SP.sdf

> <s_m_Source_Path>
/Users/zhangxujun/Desktop

> <s_m_entry_id>
3506

> <s_m_entry_name>
wee1_decoys_glide_SP.3231

> <s_m_subgroup_title>
wee1_decoys_glide_SP

> <s_m_subgroupid>
wee1_decoys_glide_SP


$$$$
