ZINC06038236_4310
                    3D
 Schrodinger Suite 2024-2.
 57 60  0  0  1  0            999 V2000
    0.1966   53.3532   31.5564 C   0  0  0  0  0  0
    1.1040   53.4921   30.3524 C   0  0  0  0  0  0
    1.3167   52.3965   29.5165 C   0  0  0  0  0  0
    2.1614   52.5114   28.4172 C   0  0  0  0  0  0
    2.8052   53.7222   28.1486 C   0  0  0  0  0  0
    2.5820   54.8225   28.9851 C   0  0  0  0  0  0
    1.7199   54.7123   30.0743 C   0  0  0  0  0  0
    3.6823   53.8094   26.9680 C   0  0  0  0  0  0
    4.7221   54.6622   26.8119 C   0  0  0  0  0  0
    5.5156   54.7978   25.6081 C   0  0  0  0  0  0
    6.6696   55.2252   25.6592 O   0  0  0  0  0  0
    4.8565   54.4474   24.4823 N   0  0  0  0  0  0
    5.2454   54.4956   23.1464 C   0  0  0  0  0  0
    4.5203   53.9474   22.0677 C   0  0  0  0  0  0
    5.1332   54.2435   20.8129 C   0  0  0  0  0  0
    6.3142   54.9865   20.9699 C   0  0  0  0  0  0
    6.7051   55.2769   22.6239 S   0  0  0  0  0  0
    7.2310   55.4445   19.8450 C   0  0  0  0  0  0
    6.4461   55.4250   18.5197 C   0  0  0  0  0  0
    5.7091   54.0923   18.3325 C   0  0  0  0  0  0
    4.6287   53.8513   19.4113 C   0  0  0  0  0  0
    3.2382   53.2860   22.2484 C   0  0  0  0  0  0
    2.4687   53.6172   23.1543 O   0  0  0  0  0  0
    2.9971   52.2679   21.3995 N   0  0  0  0  0  0
    1.8016   51.4267   21.2924 C   0  0  1  0  0  0
    1.9821   50.6442   20.5501 H   0  0  0  0  0  0
    1.4385   50.6938   22.6134 C   0  0  0  0  0  0
    0.0536   50.0457   22.4632 C   0  0  0  0  0  0
   -0.9208   51.2353   21.3881 S   0  0  0  0  0  0
   -1.4767   50.4943   20.2488 O   0  0  0  0  0  0
   -1.7869   52.0966   22.2041 O   0  0  0  0  0  0
    0.5678   52.2245   20.8417 C   0  0  0  0  0  0
   -0.7046   52.8054   31.2817 H   0  0  0  0  0  0
    0.6954   52.7906   32.3477 H   0  0  0  0  0  0
   -0.1143   54.3223   31.9485 H   0  0  0  0  0  0
    0.8216   51.4550   29.7070 H   0  0  0  0  0  0
    2.3104   51.6531   27.7772 H   0  0  0  0  0  0
    3.0563   55.7714   28.7890 H   0  0  0  0  0  0
    1.5413   55.5754   30.7010 H   0  0  0  0  0  0
    3.4124   53.1383   26.1631 H   0  0  0  0  0  0
    5.0317   55.2998   27.6249 H   0  0  0  0  0  0
    3.9245   54.0755   24.6051 H   0  0  0  0  0  0
    7.6278   56.4433   20.0319 H   0  0  0  0  0  0
    8.0923   54.7788   19.7679 H   0  0  0  0  0  0
    5.7306   56.2484   18.4962 H   0  0  0  0  0  0
    7.1293   55.5954   17.6862 H   0  0  0  0  0  0
    5.2508   54.0496   17.3432 H   0  0  0  0  0  0
    6.4297   53.2730   18.3565 H   0  0  0  0  0  0
    4.3471   52.8016   19.3426 H   0  0  0  0  0  0
    3.7342   54.4295   19.1739 H   0  0  0  0  0  0
    3.7288   52.0520   20.7408 H   0  0  0  0  0  0
    2.2042   49.9621   22.8774 H   0  0  0  0  0  0
    1.4156   51.3888   23.4525 H   0  0  0  0  0  0
    0.1678   49.1265   21.8886 H   0  0  0  0  0  0
   -0.4951   49.8096   23.3743 H   0  0  0  0  0  0
    0.5234   53.0929   21.4959 H   0  0  0  0  0  0
    0.5150   52.6189   19.8265 H   0  0  0  0  0  0
  1  2  1  0  0  0
  1 33  1  0  0  0
  1 34  1  0  0  0
  1 35  1  0  0  0
  2  7  2  0  0  0
  2  3  1  0  0  0
  3  4  2  0  0  0
  3 36  1  0  0  0
  4  5  1  0  0  0
  4 37  1  0  0  0
  5  6  2  0  0  0
  5  8  1  0  0  0
  6  7  1  0  0  0
  6 38  1  0  0  0
  7 39  1  0  0  0
  8  9  2  0  0  0
  8 40  1  0  0  0
  9 10  1  0  0  0
  9 41  1  0  0  0
 10 11  2  0  0  0
 10 12  1  0  0  0
 12 13  1  0  0  0
 12 42  1  0  0  0
 13 17  1  0  0  0
 13 14  2  0  0  0
 14 15  1  0  0  0
 14 22  1  0  0  0
 15 21  1  0  0  0
 15 16  2  0  0  0
 16 17  1  0  0  0
 16 18  1  0  0  0
 18 19  1  0  0  0
 18 43  1  0  0  0
 18 44  1  0  0  0
 19 20  1  0  0  0
 19 45  1  0  0  0
 19 46  1  0  0  0
 20 21  1  0  0  0
 20 47  1  0  0  0
 20 48  1  0  0  0
 21 49  1  0  0  0
 21 50  1  0  0  0
 22 23  2  0  0  0
 22 24  1  0  0  0
 24 25  1  0  0  0
 24 51  1  0  0  0
 25 26  1  0  0  0
 25 32  1  0  0  0
 25 27  1  0  0  0
 27 28  1  0  0  0
 27 52  1  0  0  0
 27 53  1  0  0  0
 28 29  1  0  0  0
 28 54  1  0  0  0
 28 55  1  0  0  0
 29 30  2  0  0  0
 29 31  2  0  0  0
 29 32  1  0  0  0
 32 56  1  0  0  0
 32 57  1  0  0  0
M  END
> <i_i_glide_confnum>
17

> <i_i_glide_lignum>
4311

> <i_i_glide_posenum>
290

> <i_i_glide_rotatable_bonds>
7

> <i_m_Source_File_Index>
4677

> <b_m_subgroup_collapsed>
0

> <r_i_docking_score>
-6.18939

> <r_i_glide_ecoul>
-5.9905

> <r_i_glide_eff_state_penalty>
0

> <r_i_glide_einternal>
9.04271

> <r_i_glide_emodel>
-68.2491

> <r_i_glide_energy>
-51.9183

> <r_i_glide_erotb>
0.669479

> <r_i_glide_esite>
-0.0144052

> <r_i_glide_evdw>
-45.9277

> <r_i_glide_gscore>
-6.18939

> <r_i_glide_hbond>
-0.269347

> <r_i_glide_ligand_efficiency>
-0.199658

> <r_i_glide_ligand_efficiency_ln>
-1.3959

> <r_i_glide_ligand_efficiency_sa>
-0.627201

> <r_i_glide_lipo>
-2.48087

> <r_i_glide_metal>
0

> <r_i_glide_rewards>
-0.899279

> <s_i_glide_gridfile>
wee1_glide-grid

> <s_m_Source_File>
wee1_decoys_glide_SP.sdf

> <s_m_Source_Path>
/Users/zhangxujun/Desktop

> <s_m_entry_id>
4952

> <s_m_entry_name>
wee1_decoys_glide_SP.4677

> <s_m_subgroup_title>
wee1_decoys_glide_SP

> <s_m_subgroupid>
wee1_decoys_glide_SP


$$$$
