ZINC63062011_4712
                    3D
 Schrodinger Suite 2024-2.
 31 32  0  0  1  0            999 V2000
    6.6224   54.1788   23.9364 C   0  0  0  0  0  0
    5.4857   54.2756   24.9407 C   0  0  0  0  0  0
    5.7671   54.2964   26.3127 C   0  0  0  0  0  0
    4.7296   54.3904   27.2402 C   0  0  0  0  0  0
    3.4085   54.4362   26.8048 C   0  0  0  0  0  0
    3.1234   54.4198   25.4409 C   0  0  0  0  0  0
    4.1540   54.3482   24.5013 C   0  0  0  0  0  0
    3.8658   54.4217   23.1578 O   0  0  0  0  0  0
    3.4387   53.2951   22.4977 C   0  0  0  0  0  0
    2.3047   52.5705   22.8773 C   0  0  0  0  0  0
    1.9454   51.4519   22.1274 C   0  0  0  0  0  0
    2.6974   51.0622   21.0038 C   0  0  0  0  0  0
    3.8134   51.8684   20.6993 C   0  0  0  0  0  0
    4.1817   52.9613   21.4152 N   0  0  0  0  0  0
    2.3031   49.8759   20.2001 C   0  0  0  0  0  0
    1.6427   48.9382   20.7641 N   0  0  0  0  0  0
    1.3423   47.8483   19.9195 O   0  0  0  0  0  0
    2.7044   49.9878   18.8817 N   0  0  0  0  0  0
    5.1044   54.4971   29.1015 Br  0  0  0  0  0  0
    7.5930   54.0922   24.4229 H   0  0  0  0  0  0
    6.4858   53.3046   23.2978 H   0  0  0  0  0  0
    6.6332   55.0571   23.2903 H   0  0  0  0  0  0
    6.7868   54.2503   26.6658 H   0  0  0  0  0  0
    2.6052   54.5107   27.5227 H   0  0  0  0  0  0
    2.0994   54.4966   25.1114 H   0  0  0  0  0  0
    1.7068   52.8555   23.7267 H   0  0  0  0  0  0
    1.0694   50.8926   22.4258 H   0  0  0  0  0  0
    4.4493   51.6638   19.8493 H   0  0  0  0  0  0
    1.7786   48.0956   19.1024 H   0  0  0  0  0  0
    2.4840   49.3034   18.1746 H   0  0  0  0  0  0
    3.5593   50.4972   18.6642 H   0  0  0  0  0  0
  1  2  1  0  0  0
  1 20  1  0  0  0
  1 21  1  0  0  0
  1 22  1  0  0  0
  2  7  2  0  0  0
  2  3  1  0  0  0
  3  4  2  0  0  0
  3 23  1  0  0  0
  4  5  1  0  0  0
  4 19  1  0  0  0
  5  6  2  0  0  0
  5 24  1  0  0  0
  6  7  1  0  0  0
  6 25  1  0  0  0
  7  8  1  0  0  0
  8  9  1  0  0  0
  9 14  2  0  0  0
  9 10  1  0  0  0
 10 11  2  0  0  0
 10 26  1  0  0  0
 11 12  1  0  0  0
 11 27  1  0  0  0
 12 13  2  0  0  0
 12 15  1  0  0  0
 13 14  1  0  0  0
 13 28  1  0  0  0
 15 16  2  0  0  0
 15 18  1  0  0  0
 16 17  1  0  0  0
 17 29  1  0  0  0
 18 30  1  0  0  0
 18 31  1  0  0  0
M  END
> <i_i_glide_confnum>
15

> <i_i_glide_lignum>
4713

> <i_i_glide_posenum>
348

> <i_i_glide_rotatable_bonds>
4

> <i_m_Source_File_Index>
5521

> <b_m_subgroup_collapsed>
0

> <r_i_docking_score>
-5.1649

> <r_i_glide_ecoul>
-4.74224

> <r_i_glide_eff_state_penalty>
0

> <r_i_glide_einternal>
5.87699

> <r_i_glide_emodel>
-42.0295

> <r_i_glide_energy>
-32.0102

> <r_i_glide_erotb>
0.720583

> <r_i_glide_esite>
-0.156876

> <r_i_glide_evdw>
-27.268

> <r_i_glide_gscore>
-5.1649

> <r_i_glide_hbond>
-0.152887

> <r_i_glide_ligand_efficiency>
-0.271837

> <r_i_glide_ligand_efficiency_ln>
-1.30941

> <r_i_glide_ligand_efficiency_sa>
-0.72537

> <r_i_glide_lipo>
-2.18842

> <r_i_glide_metal>
0

> <r_i_glide_rewards>
-1.31256

> <s_i_glide_gridfile>
wee1_glide-grid

> <s_m_Source_File>
wee1_decoys_glide_SP.sdf

> <s_m_Source_Path>
/Users/zhangxujun/Desktop

> <s_m_entry_id>
5796

> <s_m_entry_name>
wee1_decoys_glide_SP.5521

> <s_m_subgroup_title>
wee1_decoys_glide_SP

> <s_m_subgroupid>
wee1_decoys_glide_SP


$$$$
