ZINC22645317_4575
                    3D
 Schrodinger Suite 2024-2.
 42 44  0  0  1  0            999 V2000
    6.3094   54.4747   24.1259 C   0  0  0  0  0  0
    5.1962   54.2885   23.2885 C   0  0  0  0  0  0
    3.9183   54.0966   23.8605 C   0  0  0  0  0  0
    3.7489   54.0439   25.2495 C   0  0  0  0  0  0
    4.8752   54.2203   26.0441 C   0  0  0  0  0  0
    6.1095   54.4354   25.4997 C   0  0  0  0  0  0
    7.0368   54.4967   26.4884 O   0  0  0  0  0  0
    6.3077   54.4988   27.6847 C   0  0  0  0  0  0
    4.9872   54.1359   27.3943 O   0  0  0  0  0  0
    2.2029   53.6968   25.9361 Cl  0  0  0  0  0  0
    5.4167   54.2474   21.8314 C   0  0  0  0  0  0
    4.5499   53.7611   20.9180 C   0  0  0  0  0  0
    4.8580   53.7176   19.5097 C   0  0  0  0  0  0
    5.9037   54.1733   19.0382 O   0  0  0  0  0  0
    3.9038   53.0862   18.7935 N   0  0  0  0  0  0
    4.0532   52.8967   17.4143 N   0  0  0  0  0  0
    3.8355   53.8536   16.4650 C   0  0  0  0  0  0
    4.0551   53.3992   14.8760 S   0  0  0  0  0  0
    3.4647   55.0971   16.9062 N   0  0  0  0  0  0
    3.2016   56.2630   16.0542 C   0  0  0  0  0  0
    1.7186   56.6442   16.0503 C   0  0  0  0  0  0
    1.6998   58.1178   15.6389 C   0  0  0  0  0  0
    3.0484   58.7027   16.0893 C   0  0  0  0  0  0
    3.8947   57.5226   16.5857 C   0  0  0  0  0  0
    7.3018   54.6058   23.7172 H   0  0  0  0  0  0
    3.0496   53.9528   23.2358 H   0  0  0  0  0  0
    6.3042   55.5143   28.0817 H   0  0  0  0  0  0
    6.7501   53.8197   28.4154 H   0  0  0  0  0  0
    6.3658   54.6461   21.4951 H   0  0  0  0  0  0
    3.5902   53.3619   21.2143 H   0  0  0  0  0  0
    2.9948   52.8183   19.1407 H   0  0  0  0  0  0
    4.5933   52.0618   17.2106 H   0  0  0  0  0  0
    3.3762   55.2370   17.9020 H   0  0  0  0  0  0
    3.5163   56.1393   15.0163 H   0  0  0  0  0  0
    1.1320   56.0030   15.3908 H   0  0  0  0  0  0
    1.2890   56.5282   17.0477 H   0  0  0  0  0  0
    1.6020   58.2022   14.5554 H   0  0  0  0  0  0
    0.8560   58.6486   16.0813 H   0  0  0  0  0  0
    3.5420   59.2161   15.2625 H   0  0  0  0  0  0
    2.9169   59.4423   16.8810 H   0  0  0  0  0  0
    3.9079   57.5207   17.6778 H   0  0  0  0  0  0
    4.9392   57.5781   16.2758 H   0  0  0  0  0  0
  1  6  2  0  0  0
  1  2  1  0  0  0
  1 25  1  0  0  0
  2  3  2  0  0  0
  2 11  1  0  0  0
  3  4  1  0  0  0
  3 26  1  0  0  0
  4  5  2  0  0  0
  4 10  1  0  0  0
  5  9  1  0  0  0
  5  6  1  0  0  0
  6  7  1  0  0  0
  7  8  1  0  0  0
  8  9  1  0  0  0
  8 27  1  0  0  0
  8 28  1  0  0  0
 11 12  2  0  0  0
 11 29  1  0  0  0
 12 13  1  0  0  0
 12 30  1  0  0  0
 13 14  2  0  0  0
 13 15  1  0  0  0
 15 16  1  0  0  0
 15 31  1  0  0  0
 16 17  1  0  0  0
 16 32  1  0  0  0
 17 18  2  0  0  0
 17 19  1  0  0  0
 19 20  1  0  0  0
 19 33  1  0  0  0
 20 24  1  0  0  0
 20 21  1  0  0  0
 20 34  1  0  0  0
 21 22  1  0  0  0
 21 35  1  0  0  0
 21 36  1  0  0  0
 22 23  1  0  0  0
 22 37  1  0  0  0
 22 38  1  0  0  0
 23 24  1  0  0  0
 23 39  1  0  0  0
 23 40  1  0  0  0
 24 41  1  0  0  0
 24 42  1  0  0  0
M  END
> <i_i_glide_confnum>
5

> <i_i_glide_lignum>
4576

> <i_i_glide_posenum>
303

> <i_i_glide_rotatable_bonds>
7

> <i_m_Source_File_Index>
4895

> <b_m_subgroup_collapsed>
0

> <r_i_docking_score>
-5.7711

> <r_i_glide_ecoul>
-5.05569

> <r_i_glide_eff_state_penalty>
0

> <r_i_glide_einternal>
1.04255

> <r_i_glide_emodel>
-54.6568

> <r_i_glide_energy>
-36.9903

> <r_i_glide_erotb>
0.711797

> <r_i_glide_esite>
-0.154273

> <r_i_glide_evdw>
-31.9346

> <r_i_glide_gscore>
-5.7711

> <r_i_glide_hbond>
-0.38312

> <r_i_glide_ligand_efficiency>
-0.240462

> <r_i_glide_ligand_efficiency_ln>
-1.38129

> <r_i_glide_ligand_efficiency_sa>
-0.693613

> <r_i_glide_lipo>
-2.03184

> <r_i_glide_metal>
0

> <r_i_glide_rewards>
-1.55858

> <s_i_glide_gridfile>
wee1_glide-grid

> <s_m_Source_File>
wee1_decoys_glide_SP.sdf

> <s_m_Source_Path>
/Users/zhangxujun/Desktop

> <s_m_entry_id>
5170

> <s_m_entry_name>
wee1_decoys_glide_SP.4895

> <s_m_subgroup_title>
wee1_decoys_glide_SP

> <s_m_subgroupid>
wee1_decoys_glide_SP


$$$$
