ZINC02207905_3406
                    3D
 Schrodinger Suite 2024-2.
 64 68  0  0  1  0            999 V2000
    4.3679   54.1829   18.8195 C   0  0  0  0  0  0
    5.6579   54.7976   19.3574 C   0  0  0  0  0  0
    6.5932   55.2415   18.4151 C   0  0  0  0  0  0
    7.8230   55.7572   18.8154 C   0  0  0  0  0  0
    8.1250   55.8478   20.1681 C   0  0  0  0  0  0
    7.1951   55.4366   21.1195 C   0  0  0  0  0  0
    5.9536   54.8956   20.7428 C   0  0  0  0  0  0
    5.0932   54.4097   21.8367 C   0  0  0  0  0  0
    3.8372   54.2172   21.7473 N   0  0  0  0  0  0
    3.1107   53.7460   22.8452 N   0  0  0  0  0  0
    1.8779   53.0945   22.6870 C   0  0  0  0  0  0
    1.3273   52.6874   23.9051 C   0  0  0  0  0  0
    2.3039   53.0853   24.8703 C   0  0  0  0  0  0
    3.3486   53.7810   24.2198 C   0  0  0  0  0  0
    4.3705   54.3269   24.8935 N   0  0  0  0  0  0
    4.4224   54.1469   26.2414 C   0  0  0  0  0  0
    5.4872   54.6797   27.0007 C   0  0  0  0  0  0
    5.5137   54.4788   28.3801 C   0  0  0  0  0  0
    4.5289   53.7305   29.0155 C   0  0  0  0  0  0
    3.4863   53.1722   28.2898 C   0  0  0  0  0  0
    3.4027   53.4027   26.9012 C   0  0  0  0  0  0
    2.3607   52.9023   26.1902 N   0  0  0  0  0  0
    0.0555   52.0118   24.0782 C   0  0  0  0  0  0
   -0.6885   51.7384   23.1350 O   0  0  0  0  0  0
   -0.2364   51.7394   25.3599 N   0  0  0  0  0  0
   -1.4304   51.0736   25.8688 C   0  0  1  0  0  0
   -2.2835   51.3763   25.2541 H   0  0  0  0  0  0
   -1.3041   49.5427   25.7574 C   0  0  0  0  0  0
   -1.7370   51.5466   27.3113 C   0  0  0  0  0  0
   -0.6189   51.2977   28.3610 C   0  0  0  0  0  0
   -0.1356   52.5291   29.1188 C   0  0  0  0  0  0
    0.3024   53.6556   28.4283 C   0  0  0  0  0  0
    0.7793   54.7675   29.1108 C   0  0  0  0  0  0
    0.7629   54.7733   30.4984 C   0  0  0  0  0  0
    0.3162   53.6602   31.2069 C   0  0  0  0  0  0
   -0.1072   52.5293   30.5146 C   0  0  0  0  0  0
    1.3525   52.8965   21.4350 N   0  0  0  0  0  0
    4.3819   54.0590   17.7357 H   0  0  0  0  0  0
    4.2117   53.1920   19.2471 H   0  0  0  0  0  0
    3.5054   54.7988   19.0803 H   0  0  0  0  0  0
    6.3803   55.1669   17.3584 H   0  0  0  0  0  0
    8.5429   56.0752   18.0752 H   0  0  0  0  0  0
    9.0865   56.2320   20.4802 H   0  0  0  0  0  0
    7.4753   55.5143   22.1610 H   0  0  0  0  0  0
    5.6405   54.1985   22.7514 H   0  0  0  0  0  0
    6.2642   55.2499   26.5134 H   0  0  0  0  0  0
    6.3040   54.8958   28.9741 H   0  0  0  0  0  0
    4.5763   53.5715   30.0818 H   0  0  0  0  0  0
    2.7332   52.5773   28.7862 H   0  0  0  0  0  0
    0.4413   52.0073   26.0554 H   0  0  0  0  0  0
   -2.2166   49.0563   26.1002 H   0  0  0  0  0  0
   -1.1333   49.2197   24.7288 H   0  0  0  0  0  0
   -0.4991   49.1602   26.3904 H   0  0  0  0  0  0
   -2.6522   51.0609   27.6511 H   0  0  0  0  0  0
   -1.9869   52.6051   27.2776 H   0  0  0  0  0  0
    0.2522   50.8218   27.9125 H   0  0  0  0  0  0
   -1.0066   50.5823   29.0810 H   0  0  0  0  0  0
    0.2838   53.6816   27.3531 H   0  0  0  0  0  0
    1.1317   55.6338   28.5653 H   0  0  0  0  0  0
    1.0955   55.6501   31.0361 H   0  0  0  0  0  0
    0.2909   53.6622   32.2889 H   0  0  0  0  0  0
   -0.4658   51.6786   31.0772 H   0  0  0  0  0  0
    0.5151   52.3405   21.3263 H   0  0  0  0  0  0
    1.6062   53.5079   20.6633 H   0  0  0  0  0  0
  1  2  1  0  0  0
  1 38  1  0  0  0
  1 39  1  0  0  0
  1 40  1  0  0  0
  2  7  2  0  0  0
  2  3  1  0  0  0
  3  4  2  0  0  0
  3 41  1  0  0  0
  4  5  1  0  0  0
  4 42  1  0  0  0
  5  6  2  0  0  0
  5 43  1  0  0  0
  6  7  1  0  0  0
  6 44  1  0  0  0
  7  8  1  0  0  0
  8  9  2  0  0  0
  8 45  1  0  0  0
  9 10  1  0  0  0
 10 14  1  0  0  0
 10 11  1  0  0  0
 11 12  2  0  0  0
 11 37  1  0  0  0
 12 13  1  0  0  0
 12 23  1  0  0  0
 13 22  2  0  0  0
 13 14  1  0  0  0
 14 15  2  0  0  0
 15 16  1  0  0  0
 16 21  2  0  0  0
 16 17  1  0  0  0
 17 18  2  0  0  0
 17 46  1  0  0  0
 18 19  1  0  0  0
 18 47  1  0  0  0
 19 20  2  0  0  0
 19 48  1  0  0  0
 20 21  1  0  0  0
 20 49  1  0  0  0
 21 22  1  0  0  0
 23 24  2  0  0  0
 23 25  1  0  0  0
 25 26  1  0  0  0
 25 50  1  0  0  0
 26 27  1  0  0  0
 26 28  1  0  0  0
 26 29  1  0  0  0
 28 51  1  0  0  0
 28 52  1  0  0  0
 28 53  1  0  0  0
 29 30  1  0  0  0
 29 54  1  0  0  0
 29 55  1  0  0  0
 30 31  1  0  0  0
 30 56  1  0  0  0
 30 57  1  0  0  0
 31 36  2  0  0  0
 31 32  1  0  0  0
 32 33  2  0  0  0
 32 58  1  0  0  0
 33 34  1  0  0  0
 33 59  1  0  0  0
 34 35  2  0  0  0
 34 60  1  0  0  0
 35 36  1  0  0  0
 35 61  1  0  0  0
 36 62  1  0  0  0
 37 63  1  0  0  0
 37 64  1  0  0  0
M  END
> <i_i_glide_confnum>
186

> <i_i_glide_lignum>
3407

> <i_i_glide_posenum>
261

> <i_i_glide_rotatable_bonds>
8

> <i_m_Source_File_Index>
5877

> <b_m_subgroup_collapsed>
0

> <r_i_docking_score>
-6.84591

> <r_i_glide_ecoul>
-5.20366

> <r_i_glide_eff_state_penalty>
0

> <r_i_glide_einternal>
8.89565

> <r_i_glide_emodel>
-68.1579

> <r_i_glide_energy>
-48.8685

> <r_i_glide_erotb>
0.62414

> <r_i_glide_esite>
-0.027254

> <r_i_glide_evdw>
-43.6649

> <r_i_glide_gscore>
-6.84591

> <r_i_glide_hbond>
-0.253764

> <r_i_glide_ligand_efficiency>
-0.190164

> <r_i_glide_ligand_efficiency_ln>
-1.49359

> <r_i_glide_ligand_efficiency_sa>
-0.627908

> <r_i_glide_lipo>
-3.17988

> <r_i_glide_metal>
0

> <r_i_glide_rewards>
-1.04535

> <s_i_glide_gridfile>
wee1_glide-grid

> <s_m_Source_File>
wee1_decoys_glide_SP.sdf

> <s_m_Source_Path>
/Users/zhangxujun/Desktop

> <s_m_entry_id>
6152

> <s_m_entry_name>
wee1_decoys_glide_SP.5877

> <s_m_subgroup_title>
wee1_decoys_glide_SP

> <s_m_subgroupid>
wee1_decoys_glide_SP


$$$$
