ZINC39608935_631
                    3D
 Schrodinger Suite 2024-2.
 76 80  0  0  1  0            999 V2000
   -4.4115   45.1586   26.4762 C   0  0  0  0  0  0
   -3.0789   45.9068   26.6261 C   0  0  0  0  0  0
   -2.9457   47.0751   25.6623 C   0  0  0  0  0  0
   -2.4646   46.8733   24.3669 C   0  0  0  0  0  0
   -2.3008   47.9544   23.5080 C   0  0  0  0  0  0
   -2.5760   49.2564   23.9463 C   0  0  0  0  0  0
   -3.0997   49.4439   25.2322 C   0  0  0  0  0  0
   -3.2909   48.3591   26.0815 C   0  0  0  0  0  0
   -2.3927   50.4554   23.0459 C   0  0  0  0  0  0
   -3.2940   51.2966   22.9980 O   0  0  0  0  0  0
   -1.2472   50.5956   22.3275 N   0  0  0  0  0  0
   -1.0526   51.7727   21.4733 C   0  0  0  0  0  0
    0.4553   51.7873   21.1671 C   0  0  2  0  0  0
    0.6527   52.1779   20.1706 H   0  0  0  0  0  0
    0.8547   50.2794   21.2352 C   0  0  0  0  0  0
   -0.0224   49.7773   22.4052 C   0  0  0  0  0  0
    2.3620   49.9282   21.4081 C   0  0  0  0  0  0
    3.1804   50.4628   20.2098 C   0  0  0  0  0  0
    2.7033   49.7143   18.9479 N   0  3  0  0  0  0
    1.1905   49.8832   18.6869 C   0  0  0  0  0  0
    0.4272   49.4668   19.9664 C   0  0  0  0  0  0
    1.2642   52.6275   22.1959 C   0  0  0  0  0  0
    0.9123   52.7397   23.3697 O   0  0  0  0  0  0
    2.3038   53.2965   21.6818 N   0  0  0  0  0  0
    3.2545   54.1685   22.3586 C   0  0  2  0  0  0
    2.6900   55.0079   22.7567 H   0  0  0  0  0  0
    4.2642   54.6800   21.3265 C   0  0  0  0  0  0
    5.3553   53.6338   21.2536 C   0  0  0  0  0  0
    5.3741   52.9692   22.6343 C   0  0  0  0  0  0
    4.1139   53.4502   23.4120 C   0  0  1  0  0  0
    3.5044   52.6759   23.8723 H   0  0  0  0  0  0
    4.4941   54.3968   24.4147 O   0  0  0  0  0  0
    3.5044   54.6439   25.4206 C   0  0  0  0  0  0
    3.8035   53.9218   26.7254 C   0  0  0  0  0  0
    5.1044   53.8930   27.2327 C   0  0  0  0  0  0
    5.3547   53.3113   28.4734 C   0  0  0  0  0  0
    4.3038   52.7549   29.2000 C   0  0  0  0  0  0
    3.0046   52.7731   28.6969 C   0  0  0  0  0  0
    2.7549   53.3582   27.4587 C   0  0  0  0  0  0
   -4.4661   44.3133   27.1635 H   0  0  0  0  0  0
   -4.5502   44.7766   25.4659 H   0  0  0  0  0  0
   -5.2537   45.8149   26.6967 H   0  0  0  0  0  0
   -2.9673   46.2684   27.6507 H   0  0  0  0  0  0
   -2.2356   45.2339   26.4823 H   0  0  0  0  0  0
   -2.2106   45.8841   24.0213 H   0  0  0  0  0  0
   -1.9701   47.7650   22.4974 H   0  0  0  0  0  0
   -3.3478   50.4343   25.5863 H   0  0  0  0  0  0
   -3.6589   48.5244   27.0845 H   0  0  0  0  0  0
   -1.5891   51.6450   20.5331 H   0  0  0  0  0  0
   -1.3606   52.7152   21.9277 H   0  0  0  0  0  0
    0.4748   50.0094   23.3500 H   0  0  0  0  0  0
   -0.1315   48.6954   22.3966 H   0  0  0  0  0  0
    2.7556   50.3624   22.3274 H   0  0  0  0  0  0
    2.5102   48.8541   21.5366 H   0  0  0  0  0  0
    3.0360   51.5184   19.9887 H   0  0  0  0  0  0
    4.2506   50.2927   20.2996 H   0  0  0  0  0  0
    3.2607   49.9964   18.1411 H   0  0  0  0  0  0
    1.0364   50.9219   18.3909 H   0  0  0  0  0  0
    0.9604   49.2427   17.8338 H   0  0  0  0  0  0
    0.5525   48.3938   20.1352 H   0  0  0  0  0  0
   -0.6399   49.5900   19.7765 H   0  0  0  0  0  0
    2.2999   53.4151   20.6778 H   0  0  0  0  0  0
    3.8287   54.8963   20.3507 H   0  0  0  0  0  0
    4.7117   55.6042   21.6810 H   0  0  0  0  0  0
    6.3043   54.0971   20.9914 H   0  0  0  0  0  0
    5.1252   52.9008   20.4793 H   0  0  0  0  0  0
    6.2796   53.2785   23.1601 H   0  0  0  0  0  0
    5.4173   51.8903   22.4817 H   0  0  0  0  0  0
    3.5299   55.6972   25.6754 H   0  0  0  0  0  0
    2.4888   54.4368   25.0744 H   0  0  0  0  0  0
    5.9162   54.3357   26.6742 H   0  0  0  0  0  0
    6.3598   53.2975   28.8685 H   0  0  0  0  0  0
    4.5000   52.2985   30.1588 H   0  0  0  0  0  0
    2.1920   52.3376   29.2606 H   0  0  0  0  0  0
    1.7446   53.3836   27.0761 H   0  0  0  0  0  0
    2.9133   48.7310   19.0548 H   0  0  0  0  0  0
  1  2  1  0  0  0
  1 40  1  0  0  0
  1 41  1  0  0  0
  1 42  1  0  0  0
  2  3  1  0  0  0
  2 43  1  0  0  0
  2 44  1  0  0  0
  3  8  2  0  0  0
  3  4  1  0  0  0
  4  5  2  0  0  0
  4 45  1  0  0  0
  5  6  1  0  0  0
  5 46  1  0  0  0
  6  7  2  0  0  0
  6  9  1  0  0  0
  7  8  1  0  0  0
  7 47  1  0  0  0
  8 48  1  0  0  0
  9 10  2  0  0  0
  9 11  1  0  0  0
 11 16  1  0  0  0
 11 12  1  0  0  0
 12 13  1  0  0  0
 12 49  1  0  0  0
 12 50  1  0  0  0
 13 14  1  0  0  0
 13 15  1  0  0  0
 13 22  1  0  0  0
 15 21  1  0  0  0
 15 16  1  0  0  0
 15 17  1  0  0  0
 16 51  1  0  0  0
 16 52  1  0  0  0
 17 18  1  0  0  0
 17 53  1  0  0  0
 17 54  1  0  0  0
 18 19  1  0  0  0
 18 55  1  0  0  0
 18 56  1  0  0  0
 19 20  1  0  0  0
 19 57  1  0  0  0
 19 76  1  0  0  0
 20 21  1  0  0  0
 20 58  1  0  0  0
 20 59  1  0  0  0
 21 60  1  0  0  0
 21 61  1  0  0  0
 22 23  2  0  0  0
 22 24  1  0  0  0
 24 25  1  0  0  0
 24 62  1  0  0  0
 25 26  1  0  0  0
 25 30  1  0  0  0
 25 27  1  0  0  0
 27 28  1  0  0  0
 27 63  1  0  0  0
 27 64  1  0  0  0
 28 29  1  0  0  0
 28 65  1  0  0  0
 28 66  1  0  0  0
 29 30  1  0  0  0
 29 67  1  0  0  0
 29 68  1  0  0  0
 30 31  1  0  0  0
 30 32  1  0  0  0
 32 33  1  0  0  0
 33 34  1  0  0  0
 33 69  1  0  0  0
 33 70  1  0  0  0
 34 39  2  0  0  0
 34 35  1  0  0  0
 35 36  2  0  0  0
 35 71  1  0  0  0
 36 37  1  0  0  0
 36 72  1  0  0  0
 37 38  2  0  0  0
 37 73  1  0  0  0
 38 39  1  0  0  0
 38 74  1  0  0  0
 39 75  1  0  0  0
M  CHG  1  19   1
M  END
> <i_i_glide_confnum>
420

> <i_i_glide_lignum>
632

> <i_i_glide_posenum>
345

> <i_i_glide_rotatable_bonds>
9

> <i_m_Source_File_Index>
1537

> <b_m_subgroup_collapsed>
0

> <r_i_docking_score>
-3.99076

> <r_i_glide_ecoul>
-2.28364

> <r_i_glide_eff_state_penalty>
0

> <r_i_glide_einternal>
4.08337

> <r_i_glide_emodel>
-41.6482

> <r_i_glide_energy>
-33.3362

> <r_i_glide_erotb>
0.676305

> <r_i_glide_esite>
-0.111458

> <r_i_glide_evdw>
-31.0526

> <r_i_glide_gscore>
-3.99076

> <r_i_glide_hbond>
-0.298293

> <r_i_glide_ligand_efficiency>
-0.110855

> <r_i_glide_ligand_efficiency_ln>
-0.870677

> <r_i_glide_ligand_efficiency_sa>
-0.366034

> <r_i_glide_lipo>
-2.21969

> <r_i_glide_metal>
0

> <r_i_glide_rewards>
-0.142451

> <s_i_glide_gridfile>
wee1_glide-grid

> <s_m_Source_File>
wee1_decoys_glide_SP.sdf

> <s_m_Source_Path>
/Users/zhangxujun/Desktop

> <s_m_entry_id>
1812

> <s_m_entry_name>
wee1_decoys_glide_SP.1537

> <s_m_subgroup_title>
wee1_decoys_glide_SP

> <s_m_subgroupid>
wee1_decoys_glide_SP


$$$$
