ZINC04153187_3854
                    3D
 Schrodinger Suite 2024-2.
 45 48  0  0  1  0            999 V2000
    3.6311   54.3144   29.9991 C   0  0  0  0  0  0
    2.9561   52.9329   29.8155 C   0  0  0  0  0  0
    4.0917   51.8920   29.7081 C   0  0  0  0  0  0
    2.1423   52.6189   31.1025 C   0  0  0  0  0  0
    2.0115   52.9289   28.5508 C   0  0  2  0  0  0
    1.2055   53.6322   28.7767 H   0  0  0  0  0  0
    1.3637   51.5425   28.2553 C   0  0  0  0  0  0
    0.2601   51.6058   27.1819 C   0  0  0  0  0  0
    0.8076   52.3101   25.9439 C   0  0  0  0  0  0
    1.9221   53.1623   26.0237 C   0  0  0  0  0  0
    2.3834   53.8066   24.4808 S   0  0  0  0  0  0
    1.1433   52.8956   23.7167 C   0  0  0  0  0  0
    0.3717   52.1484   24.6111 C   0  0  0  0  0  0
   -0.7055   51.3628   24.0152 C   0  0  0  0  0  0
   -0.8967   51.1988   22.7688 N   0  0  0  0  0  0
    0.0334   51.8591   21.8358 C   0  0  1  0  0  0
   -0.5956   52.3827   21.1135 H   0  0  0  0  0  0
    0.9539   52.8960   22.3542 N   0  0  0  0  0  0
    0.7972   50.7974   21.0514 C   0  0  0  0  0  0
    0.6898   49.4141   20.9301 C   0  0  0  0  0  0
    1.7859   48.9708   20.1894 C   0  0  0  0  0  0
    2.5405   50.0960   19.9150 C   0  0  0  0  0  0
    1.9506   51.1964   20.4452 O   0  0  0  0  0  0
   -1.6317   50.7169   24.7878 O   0  0  0  0  0  0
    2.7420   53.4428   27.2722 C   0  0  0  0  0  0
    4.2689   54.3290   30.8810 H   0  0  0  0  0  0
    2.8991   55.1166   30.0826 H   0  0  0  0  0  0
    4.2894   54.5608   29.1692 H   0  0  0  0  0  0
    3.6886   50.8970   29.5684 H   0  0  0  0  0  0
    4.7672   52.0948   28.8779 H   0  0  0  0  0  0
    4.7034   51.8543   30.6073 H   0  0  0  0  0  0
    1.5779   51.6950   31.0397 H   0  0  0  0  0  0
    2.7863   52.5005   31.9752 H   0  0  0  0  0  0
    1.4168   53.4076   31.3133 H   0  0  0  0  0  0
    2.1233   50.8060   27.9934 H   0  0  0  0  0  0
    0.8959   51.1345   29.1472 H   0  0  0  0  0  0
   -0.0711   50.5905   26.9635 H   0  0  0  0  0  0
   -0.6133   52.1385   27.5620 H   0  0  0  0  0  0
    1.7137   53.0809   21.7136 H   0  0  0  0  0  0
   -0.0966   48.8089   21.3555 H   0  0  0  0  0  0
    2.0177   47.9533   19.9078 H   0  0  0  0  0  0
    3.4769   50.2598   19.4007 H   0  0  0  0  0  0
   -1.2012   50.3255   25.5480 H   0  0  0  0  0  0
    2.9256   54.5140   27.3465 H   0  0  0  0  0  0
    3.7029   52.9447   27.1546 H   0  0  0  0  0  0
  1  2  1  0  0  0
  1 26  1  0  0  0
  1 27  1  0  0  0
  1 28  1  0  0  0
  2  3  1  0  0  0
  2  4  1  0  0  0
  2  5  1  0  0  0
  3 29  1  0  0  0
  3 30  1  0  0  0
  3 31  1  0  0  0
  4 32  1  0  0  0
  4 33  1  0  0  0
  4 34  1  0  0  0
  5  6  1  0  0  0
  5 25  1  0  0  0
  5  7  1  0  0  0
  7  8  1  0  0  0
  7 35  1  0  0  0
  7 36  1  0  0  0
  8  9  1  0  0  0
  8 37  1  0  0  0
  8 38  1  0  0  0
  9 13  1  0  0  0
  9 10  2  0  0  0
 10 11  1  0  0  0
 10 25  1  0  0  0
 11 12  1  0  0  0
 12 18  1  0  0  0
 12 13  2  0  0  0
 13 14  1  0  0  0
 14 15  2  0  0  0
 14 24  1  0  0  0
 15 16  1  0  0  0
 16 17  1  0  0  0
 16 18  1  0  0  0
 16 19  1  0  0  0
 18 39  1  0  0  0
 19 23  1  0  0  0
 19 20  2  0  0  0
 20 21  1  0  0  0
 20 40  1  0  0  0
 21 22  2  0  0  0
 21 41  1  0  0  0
 22 23  1  0  0  0
 22 42  1  0  0  0
 24 43  1  0  0  0
 25 44  1  0  0  0
 25 45  1  0  0  0
M  END
> <i_i_glide_confnum>
4

> <i_i_glide_lignum>
3855

> <i_i_glide_posenum>
69

> <i_i_glide_rotatable_bonds>
3

> <i_m_Source_File_Index>
5195

> <b_m_subgroup_collapsed>
0

> <r_i_docking_score>
-4.39584

> <r_i_glide_ecoul>
-2.35628

> <r_i_glide_eff_state_penalty>
0

> <r_i_glide_einternal>
4.92747

> <r_i_glide_emodel>
-37.098

> <r_i_glide_energy>
-30.5138

> <r_i_glide_erotb>
0.172246

> <r_i_glide_esite>
0

> <r_i_glide_evdw>
-28.1575

> <r_i_glide_gscore>
-4.39584

> <r_i_glide_hbond>
0

> <r_i_glide_ligand_efficiency>
-0.191123

> <r_i_glide_ligand_efficiency_ln>
-1.06295

> <r_i_glide_ligand_efficiency_sa>
-0.543529

> <r_i_glide_lipo>
-1.60671

> <r_i_glide_metal>
0

> <r_i_glide_rewards>
-1.20006

> <s_i_glide_gridfile>
wee1_glide-grid

> <s_m_Source_File>
wee1_decoys_glide_SP.sdf

> <s_m_Source_Path>
/Users/zhangxujun/Desktop

> <s_m_entry_id>
5470

> <s_m_entry_name>
wee1_decoys_glide_SP.5195

> <s_m_subgroup_title>
wee1_decoys_glide_SP

> <s_m_subgroupid>
wee1_decoys_glide_SP


$$$$
