ZINC67426703_1362
                    3D
 Schrodinger Suite 2024-2.
 54 56  0  0  1  0            999 V2000
    7.0612   53.9148   27.1419 C   0  0  0  0  0  0
    5.7522   54.5173   26.6090 C   0  0  1  0  0  0
    5.7429   55.5780   26.8748 H   0  0  0  0  0  0
    5.6243   54.5031   25.0733 C   0  0  0  0  0  0
    6.7041   54.9094   24.2896 C   0  0  0  0  0  0
    6.6291   54.8966   22.9009 C   0  0  0  0  0  0
    5.4549   54.4962   22.2522 C   0  0  0  0  0  0
    4.3650   54.0982   23.0391 C   0  0  0  0  0  0
    4.4470   54.1014   24.4273 C   0  0  0  0  0  0
    5.3811   54.4749   20.8606 N   0  0  0  0  0  0
    4.4231   53.6398   20.1159 C   0  0  0  0  0  0
    5.0683   52.8967   18.9401 C   0  0  0  0  0  0
    5.7273   53.9110   17.9894 N   0  3  0  0  0  0
    6.7696   54.7512   18.7546 C   0  0  0  0  0  0
    6.0999   55.4157   19.9788 C   0  0  0  0  0  0
    6.3787   53.1605   16.8075 C   0  0  0  0  0  0
    4.6269   53.8886   27.2803 N   0  0  0  0  0  0
    4.2124   54.1450   28.5383 C   0  0  0  0  0  0
    4.8077   54.8967   29.3068 O   0  0  0  0  0  0
    2.9748   53.4437   28.9420 C   0  0  0  0  0  0
    2.7952   53.1095   30.1148 O   0  0  0  0  0  0
    2.1073   53.2575   27.9155 N   0  0  0  0  0  0
    0.8734   52.6116   27.9008 C   0  0  0  0  0  0
    0.3471   52.2840   26.6468 C   0  0  0  0  0  0
   -0.8791   51.6260   26.5497 C   0  0  0  0  0  0
   -1.5811   51.2969   27.7078 C   0  0  0  0  0  0
   -1.0541   51.6334   28.9534 C   0  0  0  0  0  0
    0.1567   52.2945   29.0573 C   0  0  0  0  0  0
   -1.6957   51.2966   30.0818 F   0  0  0  0  0  0
    7.9045   54.4970   26.8178 H   0  0  0  0  0  0
    7.0999   53.9031   28.2332 H   0  0  0  0  0  0
    7.2024   52.8964   26.7934 H   0  0  0  0  0  0
    7.6188   55.2398   24.7503 H   0  0  0  0  0  0
    7.5058   55.1914   22.3438 H   0  0  0  0  0  0
    3.4283   53.8059   22.5881 H   0  0  0  0  0  0
    3.5737   53.7963   24.9823 H   0  0  0  0  0  0
    3.9348   52.9047   20.7531 H   0  0  0  0  0  0
    3.6386   54.3106   19.7607 H   0  0  0  0  0  0
    4.3041   52.3794   18.3563 H   0  0  0  0  0  0
    5.8288   52.1889   19.2802 H   0  0  0  0  0  0
    7.1116   55.5105   18.0487 H   0  0  0  0  0  0
    7.5986   54.0969   19.0313 H   0  0  0  0  0  0
    5.3323   56.1095   19.6323 H   0  0  0  0  0  0
    6.8190   56.0312   20.5169 H   0  0  0  0  0  0
    7.1353   52.4788   17.2034 H   0  0  0  0  0  0
    5.5891   52.6025   16.2985 H   0  0  0  0  0  0
    6.8197   53.9032   16.1408 H   0  0  0  0  0  0
    4.1581   53.1707   26.7505 H   0  0  0  0  0  0
    2.3898   53.6237   27.0221 H   0  0  0  0  0  0
    0.8849   52.5228   25.7404 H   0  0  0  0  0  0
   -1.2781   51.3536   25.5845 H   0  0  0  0  0  0
   -2.5113   50.7504   27.6517 H   0  0  0  0  0  0
    0.5079   52.5352   30.0475 H   0  0  0  0  0  0
    5.0027   54.5274   17.6462 H   0  0  0  0  0  0
  1  2  1  0  0  0
  1 30  1  0  0  0
  1 31  1  0  0  0
  1 32  1  0  0  0
  2  3  1  0  0  0
  2  4  1  0  0  0
  2 17  1  0  0  0
  4  9  2  0  0  0
  4  5  1  0  0  0
  5  6  2  0  0  0
  5 33  1  0  0  0
  6  7  1  0  0  0
  6 34  1  0  0  0
  7  8  2  0  0  0
  7 10  1  0  0  0
  8  9  1  0  0  0
  8 35  1  0  0  0
  9 36  1  0  0  0
 10 15  1  0  0  0
 10 11  1  0  0  0
 11 12  1  0  0  0
 11 37  1  0  0  0
 11 38  1  0  0  0
 12 13  1  0  0  0
 12 39  1  0  0  0
 12 40  1  0  0  0
 13 14  1  0  0  0
 13 16  1  0  0  0
 13 54  1  0  0  0
 14 15  1  0  0  0
 14 41  1  0  0  0
 14 42  1  0  0  0
 15 43  1  0  0  0
 15 44  1  0  0  0
 16 45  1  0  0  0
 16 46  1  0  0  0
 16 47  1  0  0  0
 17 18  1  0  0  0
 17 48  1  0  0  0
 18 19  2  0  0  0
 18 20  1  0  0  0
 20 21  2  0  0  0
 20 22  1  0  0  0
 22 23  1  0  0  0
 22 49  1  0  0  0
 23 28  2  0  0  0
 23 24  1  0  0  0
 24 25  2  0  0  0
 24 50  1  0  0  0
 25 26  1  0  0  0
 25 51  1  0  0  0
 26 27  2  0  0  0
 26 52  1  0  0  0
 27 28  1  0  0  0
 27 29  1  0  0  0
 28 53  1  0  0  0
M  CHG  1  13   1
M  END
> <i_i_glide_confnum>
51

> <i_i_glide_lignum>
1363

> <i_i_glide_posenum>
50

> <i_i_glide_rotatable_bonds>
7

> <i_m_Source_File_Index>
4274

> <b_m_subgroup_collapsed>
0

> <r_i_docking_score>
-6.17123

> <r_i_glide_ecoul>
-4.46185

> <r_i_glide_eff_state_penalty>
0

> <r_i_glide_einternal>
2.93275

> <r_i_glide_emodel>
-63.4919

> <r_i_glide_energy>
-45.2599

> <r_i_glide_erotb>
0.785587

> <r_i_glide_esite>
-0.125614

> <r_i_glide_evdw>
-40.798

> <r_i_glide_gscore>
-6.17123

> <r_i_glide_hbond>
-0.200817

> <r_i_glide_ligand_efficiency>
-0.220401

> <r_i_glide_ligand_efficiency_ln>
-1.4245

> <r_i_glide_ligand_efficiency_sa>
-0.669267

> <r_i_glide_lipo>
-2.30251

> <r_i_glide_metal>
0

> <r_i_glide_rewards>
-1.61869

> <s_i_glide_gridfile>
wee1_glide-grid

> <s_m_Source_File>
wee1_decoys_glide_SP.sdf

> <s_m_Source_Path>
/Users/zhangxujun/Desktop

> <s_m_entry_id>
4549

> <s_m_entry_name>
wee1_decoys_glide_SP.4274

> <s_m_subgroup_title>
wee1_decoys_glide_SP

> <s_m_subgroupid>
wee1_decoys_glide_SP


$$$$
