ZINC12468861_802
                    3D
 Schrodinger Suite 2024-2.
 52 56  0  0  1  0            999 V2000
    0.7044   51.8008   32.6514 C   0  0  0  0  0  0
    2.0004   51.8437   32.0667 O   0  0  0  0  0  0
    2.1171   52.4331   30.8265 C   0  0  0  0  0  0
    1.0876   53.1590   30.2109 C   0  0  0  0  0  0
    1.2564   53.6503   28.9274 C   0  0  0  0  0  0
    2.4466   53.4148   28.2384 C   0  0  0  0  0  0
    3.4919   52.7270   28.8647 C   0  0  0  0  0  0
    3.3278   52.2500   30.1601 C   0  0  0  0  0  0
    2.5400   53.8978   26.7981 C   0  0  2  0  0  0
    2.1394   54.8967   26.8817 H   0  0  0  0  0  0
    1.6249   53.0622   25.8707 C   0  0  0  0  0  0
    1.6292   53.4970   24.3873 C   0  0  1  0  0  0
    1.1048   54.4506   24.3125 H   0  0  0  0  0  0
    3.0263   53.7591   24.0216 N   0  0  0  0  0  0
    4.0495   54.0964   24.8876 C   0  0  0  0  0  0
    5.1363   54.3587   24.0838 C   0  0  0  0  0  0
    4.6944   54.2183   22.7581 C   0  0  0  0  0  0
    3.4166   53.8914   22.7431 N   0  0  0  0  0  0
    5.5051   54.4967   21.5952 C   0  0  0  0  0  0
    6.5753   55.0971   21.7151 O   0  0  0  0  0  0
    4.9857   54.0509   20.4297 N   0  0  0  0  0  0
    5.5269   54.1035   19.1326 C   0  0  0  0  0  0
    4.6711   53.6942   18.0915 C   0  0  0  0  0  0
    5.1093   53.6663   16.7605 C   0  0  0  0  0  0
    6.4151   54.0654   16.5046 C   0  0  0  0  0  0
    7.2532   54.4657   17.5044 C   0  0  0  0  0  0
    6.8501   54.4968   18.8339 C   0  0  0  0  0  0
    8.4731   54.7551   16.9820 O   0  0  0  0  0  0
    8.3121   54.7089   15.5890 C   0  0  0  0  0  0
    7.0797   54.0930   15.3201 O   0  0  0  0  0  0
    3.8964   54.0451   26.2571 N   0  0  0  0  0  0
    0.8891   52.4863   23.4696 C   0  0  0  0  0  0
   -0.3612   52.2959   23.8933 F   0  0  0  0  0  0
    0.8086   52.8966   22.2047 F   0  0  0  0  0  0
    1.4887   51.2950   23.4673 F   0  0  0  0  0  0
    0.7044   51.2386   33.5835 H   0  0  0  0  0  0
    0.3376   52.8031   32.8829 H   0  0  0  0  0  0
    0.0105   51.3007   31.9745 H   0  0  0  0  0  0
    0.1409   53.3304   30.7000 H   0  0  0  0  0  0
    0.4454   54.1876   28.4583 H   0  0  0  0  0  0
    4.4195   52.5328   28.3449 H   0  0  0  0  0  0
    4.1280   51.7012   30.6350 H   0  0  0  0  0  0
    0.5996   53.0678   26.2399 H   0  0  0  0  0  0
    1.9042   52.0164   25.9413 H   0  0  0  0  0  0
    6.1293   54.6333   24.4084 H   0  0  0  0  0  0
    4.0752   53.6208   20.4932 H   0  0  0  0  0  0
    3.6612   53.3745   18.3076 H   0  0  0  0  0  0
    4.4531   53.3310   15.9714 H   0  0  0  0  0  0
    7.5578   54.7963   19.5898 H   0  0  0  0  0  0
    8.2976   55.7275   15.1962 H   0  0  0  0  0  0
    9.1252   54.1433   15.1319 H   0  0  0  0  0  0
    4.4623   54.6508   26.8329 H   0  0  0  0  0  0
  1  2  1  0  0  0
  1 36  1  0  0  0
  1 37  1  0  0  0
  1 38  1  0  0  0
  2  3  1  0  0  0
  3  8  2  0  0  0
  3  4  1  0  0  0
  4  5  2  0  0  0
  4 39  1  0  0  0
  5  6  1  0  0  0
  5 40  1  0  0  0
  6  7  2  0  0  0
  6  9  1  0  0  0
  7  8  1  0  0  0
  7 41  1  0  0  0
  8 42  1  0  0  0
  9 10  1  0  0  0
  9 31  1  0  0  0
  9 11  1  0  0  0
 11 12  1  0  0  0
 11 43  1  0  0  0
 11 44  1  0  0  0
 12 13  1  0  0  0
 12 14  1  0  0  0
 12 32  1  0  0  0
 14 18  1  0  0  0
 14 15  1  0  0  0
 15 16  2  0  0  0
 15 31  1  0  0  0
 16 17  1  0  0  0
 16 45  1  0  0  0
 17 18  2  0  0  0
 17 19  1  0  0  0
 19 20  2  0  0  0
 19 21  1  0  0  0
 21 22  1  0  0  0
 21 46  1  0  0  0
 22 27  2  0  0  0
 22 23  1  0  0  0
 23 24  2  0  0  0
 23 47  1  0  0  0
 24 25  1  0  0  0
 24 48  1  0  0  0
 25 30  1  0  0  0
 25 26  2  0  0  0
 26 27  1  0  0  0
 26 28  1  0  0  0
 27 49  1  0  0  0
 28 29  1  0  0  0
 29 30  1  0  0  0
 29 50  1  0  0  0
 29 51  1  0  0  0
 31 52  1  0  0  0
 32 33  1  0  0  0
 32 34  1  0  0  0
 32 35  1  0  0  0
M  END
> <i_i_glide_confnum>
11

> <i_i_glide_lignum>
803

> <i_i_glide_posenum>
378

> <i_i_glide_rotatable_bonds>
6

> <i_m_Source_File_Index>
4701

> <b_m_subgroup_collapsed>
0

> <r_i_docking_score>
-5.25824

> <r_i_glide_ecoul>
-2.32125

> <r_i_glide_eff_state_penalty>
0

> <r_i_glide_einternal>
7.34357

> <r_i_glide_emodel>
-48.8005

> <r_i_glide_energy>
-37.7486

> <r_i_glide_erotb>
0.379824

> <r_i_glide_esite>
0

> <r_i_glide_evdw>
-35.4274

> <r_i_glide_gscore>
-5.25824

> <r_i_glide_hbond>
-0.0915221

> <r_i_glide_ligand_efficiency>
-0.159341

> <r_i_glide_ligand_efficiency_ln>
-1.1694

> <r_i_glide_ligand_efficiency_sa>
-0.51109

> <r_i_glide_lipo>
-2.31028

> <r_i_glide_metal>
0

> <r_i_glide_rewards>
-1.1167

> <s_i_glide_gridfile>
wee1_glide-grid

> <s_m_Source_File>
wee1_decoys_glide_SP.sdf

> <s_m_Source_Path>
/Users/zhangxujun/Desktop

> <s_m_entry_id>
4976

> <s_m_entry_name>
wee1_decoys_glide_SP.4701

> <s_m_subgroup_title>
wee1_decoys_glide_SP

> <s_m_subgroupid>
wee1_decoys_glide_SP


$$$$
