ZINC33273023_3386
                    3D
 Schrodinger Suite 2024-2.
 62 65  0  0  1  0            999 V2000
    1.4805   53.1315   30.2692 C   0  0  0  0  0  0
    2.7883   53.6678   30.0821 O   0  0  0  0  0  0
    3.2797   53.8169   28.8003 C   0  0  0  0  0  0
    2.5568   53.5133   27.6380 C   0  0  0  0  0  0
    3.1325   53.7015   26.3849 C   0  0  0  0  0  0
    4.4353   54.1906   26.2714 C   0  0  0  0  0  0
    5.1627   54.4912   27.4335 C   0  0  0  0  0  0
    4.5801   54.3057   28.6844 C   0  0  0  0  0  0
    4.9105   54.3622   24.9571 N   0  0  0  0  0  0
    6.1333   54.7292   24.5134 C   0  0  0  0  0  0
    7.1035   54.9682   25.2341 O   0  0  0  0  0  0
    6.2268   54.8960   23.0775 C   0  0  0  0  0  0
    7.1031   55.6093   22.4112 N   0  0  0  0  0  0
    6.9189   55.6016   21.0366 N   0  0  0  0  0  0
    5.9262   54.8401   20.6455 C   0  0  0  0  0  0
    5.1058   54.0870   21.9888 S   0  0  0  0  0  0
    5.5814   54.6469   19.1779 C   0  0  0  0  0  0
    5.2136   53.1984   18.7530 C   0  0  0  0  0  0
    4.8016   53.0955   17.2609 C   0  0  0  0  0  0
    3.7427   54.0846   16.9930 N   0  0  0  0  0  0
    4.2630   55.4620   17.1123 C   0  0  0  0  0  0
    4.6136   55.7108   18.5987 C   0  0  0  0  0  0
    2.4416   53.7706   17.2594 C   0  0  0  0  0  0
    2.1044   52.6715   17.7017 O   0  0  0  0  0  0
    1.5606   54.7265   16.8825 N   0  0  0  0  0  0
    0.1494   54.7471   16.9186 C   0  0  0  0  0  0
   -0.6451   53.6442   17.2795 C   0  0  0  0  0  0
   -2.0444   53.7306   17.2800 C   0  0  0  0  0  0
   -2.6395   54.9241   16.8857 C   0  0  0  0  0  0
   -1.8686   56.0315   16.5470 C   0  0  0  0  0  0
   -0.4663   55.9622   16.5700 C   0  0  0  0  0  0
    0.3508   57.0390   16.2653 O   0  0  0  0  0  0
   -0.2319   58.3079   15.9879 C   0  0  0  0  0  0
   -2.8972   52.7094   17.6513 O   0  0  0  0  0  0
   -2.3506   51.4548   18.0449 C   0  0  0  0  0  0
    1.2662   53.0572   31.3356 H   0  0  0  0  0  0
    1.3932   52.1283   29.8482 H   0  0  0  0  0  0
    0.7176   53.7729   29.8251 H   0  0  0  0  0  0
    1.5484   53.1326   27.6863 H   0  0  0  0  0  0
    2.5539   53.4621   25.5042 H   0  0  0  0  0  0
    6.1676   54.8805   27.4034 H   0  0  0  0  0  0
    5.1432   54.5499   29.5729 H   0  0  0  0  0  0
    4.2263   54.1810   24.2393 H   0  0  0  0  0  0
    6.4768   54.8265   18.5782 H   0  0  0  0  0  0
    6.0517   52.5121   18.8955 H   0  0  0  0  0  0
    4.3661   52.8324   19.3347 H   0  0  0  0  0  0
    5.6480   53.3403   16.6181 H   0  0  0  0  0  0
    4.5068   52.0973   16.9348 H   0  0  0  0  0  0
    5.1644   55.5165   16.5000 H   0  0  0  0  0  0
    3.6089   56.2103   16.6631 H   0  0  0  0  0  0
    3.6735   55.6961   19.1502 H   0  0  0  0  0  0
    5.0565   56.7061   18.6630 H   0  0  0  0  0  0
    1.9596   55.5842   16.5333 H   0  0  0  0  0  0
   -0.1904   52.7114   17.5597 H   0  0  0  0  0  0
   -3.7169   54.9948   16.8576 H   0  0  0  0  0  0
   -2.3807   56.9381   16.2645 H   0  0  0  0  0  0
    0.5602   59.0428   15.8443 H   0  0  0  0  0  0
   -0.8252   58.2800   15.0728 H   0  0  0  0  0  0
   -0.8608   58.6546   16.8097 H   0  0  0  0  0  0
   -3.1629   50.7699   18.2907 H   0  0  0  0  0  0
   -1.7696   50.9996   17.2402 H   0  0  0  0  0  0
   -1.7205   51.5515   18.9312 H   0  0  0  0  0  0
  1  2  1  0  0  0
  1 36  1  0  0  0
  1 37  1  0  0  0
  1 38  1  0  0  0
  2  3  1  0  0  0
  3  8  2  0  0  0
  3  4  1  0  0  0
  4  5  2  0  0  0
  4 39  1  0  0  0
  5  6  1  0  0  0
  5 40  1  0  0  0
  6  7  2  0  0  0
  6  9  1  0  0  0
  7  8  1  0  0  0
  7 41  1  0  0  0
  8 42  1  0  0  0
  9 10  1  0  0  0
  9 43  1  0  0  0
 10 11  2  0  0  0
 10 12  1  0  0  0
 12 16  1  0  0  0
 12 13  2  0  0  0
 13 14  1  0  0  0
 14 15  2  0  0  0
 15 16  1  0  0  0
 15 17  1  0  0  0
 17 22  1  0  0  0
 17 18  1  0  0  0
 17 44  1  0  0  0
 18 19  1  0  0  0
 18 45  1  0  0  0
 18 46  1  0  0  0
 19 20  1  0  0  0
 19 47  1  0  0  0
 19 48  1  0  0  0
 20 21  1  0  0  0
 20 23  1  0  0  0
 21 22  1  0  0  0
 21 49  1  0  0  0
 21 50  1  0  0  0
 22 51  1  0  0  0
 22 52  1  0  0  0
 23 24  2  0  0  0
 23 25  1  0  0  0
 25 26  1  0  0  0
 25 53  1  0  0  0
 26 31  2  0  0  0
 26 27  1  0  0  0
 27 28  2  0  0  0
 27 54  1  0  0  0
 28 29  1  0  0  0
 28 34  1  0  0  0
 29 30  2  0  0  0
 29 55  1  0  0  0
 30 31  1  0  0  0
 30 56  1  0  0  0
 31 32  1  0  0  0
 32 33  1  0  0  0
 33 57  1  0  0  0
 33 58  1  0  0  0
 33 59  1  0  0  0
 34 35  1  0  0  0
 35 60  1  0  0  0
 35 61  1  0  0  0
 35 62  1  0  0  0
M  END
> <i_i_glide_confnum>
187

> <i_i_glide_lignum>
3387

> <i_i_glide_posenum>
349

> <i_i_glide_rotatable_bonds>
10

> <i_m_Source_File_Index>
4259

> <b_m_subgroup_collapsed>
0

> <r_i_docking_score>
-5.86923

> <r_i_glide_ecoul>
-5.28082

> <r_i_glide_eff_state_penalty>
0

> <r_i_glide_einternal>
10.1334

> <r_i_glide_emodel>
-64.4062

> <r_i_glide_energy>
-51.786

> <r_i_glide_erotb>
0.576799

> <r_i_glide_esite>
-0.0213164

> <r_i_glide_evdw>
-46.5052

> <r_i_glide_gscore>
-5.86923

> <r_i_glide_hbond>
-0.608

> <r_i_glide_ligand_efficiency>
-0.167692

> <r_i_glide_ligand_efficiency_ln>
-1.28843

> <r_i_glide_ligand_efficiency_sa>
-0.548532

> <r_i_glide_lipo>
-2.23275

> <r_i_glide_metal>
0

> <r_i_glide_rewards>
-0.466574

> <s_i_glide_gridfile>
wee1_glide-grid

> <s_m_Source_File>
wee1_decoys_glide_SP.sdf

> <s_m_Source_Path>
/Users/zhangxujun/Desktop

> <s_m_entry_id>
4534

> <s_m_entry_name>
wee1_decoys_glide_SP.4259

> <s_m_subgroup_title>
wee1_decoys_glide_SP

> <s_m_subgroupid>
wee1_decoys_glide_SP


$$$$
