ZINC13430036_3309
                    3D
 Schrodinger Suite 2024-2.
 56 59  0  0  1  0            999 V2000
   -1.2407   57.3926   17.2851 C   0  0  0  0  0  0
   -0.7489   56.0926   16.6426 C   0  0  1  0  0  0
   -1.1665   56.0544   15.6364 H   0  0  0  0  0  0
    0.7968   56.0110   16.5800 C   0  0  0  0  0  0
    1.1949   54.6730   16.0742 N   0  0  0  0  0  0
    0.6303   53.5720   16.8967 C   0  0  0  0  0  0
   -0.9088   53.6883   16.9368 C   0  0  1  0  0  0
   -1.2895   52.9771   17.6715 H   0  0  0  0  0  0
   -1.2558   54.9957   17.4120 O   0  0  0  0  0  0
   -1.5969   53.3472   15.6000 C   0  0  0  0  0  0
    2.8873   54.4721   15.5701 S   0  0  0  0  0  0
    3.2782   55.6648   14.8093 O   0  0  0  0  0  0
    3.0245   53.1343   14.9825 O   0  0  0  0  0  0
    3.8291   54.4697   17.0956 C   0  0  0  0  0  0
    4.4635   55.6324   17.5384 C   0  0  0  0  0  0
    5.0808   55.6512   18.7864 C   0  0  0  0  0  0
    5.0164   54.5246   19.6149 C   0  0  0  0  0  0
    4.4556   53.3353   19.1259 C   0  0  0  0  0  0
    3.8717   53.3057   17.8647 C   0  0  0  0  0  0
    5.4575   54.6337   21.0505 C   0  0  0  0  0  0
    6.4736   55.2608   21.3572 O   0  0  0  0  0  0
    4.5859   54.0746   21.9152 N   0  0  0  0  0  0
    4.5472   54.0936   23.3228 C   0  0  0  0  0  0
    5.7233   54.2380   24.0792 C   0  0  0  0  0  0
    5.6648   54.2289   25.4683 C   0  0  0  0  0  0
    4.4331   54.0942   26.1196 C   0  0  0  0  0  0
    3.2648   53.9671   25.3837 C   0  0  0  0  0  0
    3.2943   53.9245   23.9810 C   0  0  0  0  0  0
    1.9947   53.6704   23.2543 C   0  0  0  0  0  0
    2.0521   53.2299   22.0837 O   0  0  0  0  0  0
    4.3197   54.1030   27.4945 O   0  0  0  0  0  0
    5.5257   53.7295   28.1634 C   0  0  0  0  0  0
    6.7200   54.4974   27.5560 C   0  0  0  0  0  0
    6.8618   54.2491   26.1563 O   0  0  0  0  0  0
   -0.8491   58.2651   16.7619 H   0  0  0  0  0  0
   -2.3303   57.4498   17.2584 H   0  0  0  0  0  0
   -0.9252   57.4618   18.3269 H   0  0  0  0  0  0
    1.1359   56.0929   17.6141 H   0  0  0  0  0  0
    1.1996   56.7936   15.9383 H   0  0  0  0  0  0
    0.9407   52.6004   16.5105 H   0  0  0  0  0  0
    0.9555   53.7310   17.9255 H   0  0  0  0  0  0
   -1.4266   52.3026   15.3347 H   0  0  0  0  0  0
   -2.6752   53.4990   15.6625 H   0  0  0  0  0  0
   -1.2195   53.9489   14.7748 H   0  0  0  0  0  0
    4.4468   56.5306   16.9388 H   0  0  0  0  0  0
    5.5207   56.5734   19.1419 H   0  0  0  0  0  0
    4.4226   52.4345   19.7251 H   0  0  0  0  0  0
    3.4134   52.3898   17.5149 H   0  0  0  0  0  0
    3.7228   53.7063   21.5189 H   0  0  0  0  0  0
    6.6928   54.3175   23.6087 H   0  0  0  0  0  0
    2.3319   53.8523   25.9177 H   0  0  0  0  0  0
    5.4330   53.9427   29.2279 H   0  0  0  0  0  0
    5.6922   52.6566   28.0509 H   0  0  0  0  0  0
    6.5542   55.5674   27.6807 H   0  0  0  0  0  0
    7.6432   54.2389   28.0744 H   0  0  0  0  0  0
    0.9238   53.8839   23.8663 O   0  5  0  0  0  0
  1  2  1  0  0  0
  1 35  1  0  0  0
  1 36  1  0  0  0
  1 37  1  0  0  0
  2  3  1  0  0  0
  2  9  1  0  0  0
  2  4  1  0  0  0
  4  5  1  0  0  0
  4 38  1  0  0  0
  4 39  1  0  0  0
  5  6  1  0  0  0
  5 11  1  0  0  0
  6  7  1  0  0  0
  6 40  1  0  0  0
  6 41  1  0  0  0
  7  8  1  0  0  0
  7  9  1  0  0  0
  7 10  1  0  0  0
 10 42  1  0  0  0
 10 43  1  0  0  0
 10 44  1  0  0  0
 11 12  2  0  0  0
 11 13  2  0  0  0
 11 14  1  0  0  0
 14 19  2  0  0  0
 14 15  1  0  0  0
 15 16  2  0  0  0
 15 45  1  0  0  0
 16 17  1  0  0  0
 16 46  1  0  0  0
 17 18  2  0  0  0
 17 20  1  0  0  0
 18 19  1  0  0  0
 18 47  1  0  0  0
 19 48  1  0  0  0
 20 21  2  0  0  0
 20 22  1  0  0  0
 22 23  1  0  0  0
 22 49  1  0  0  0
 23 28  2  0  0  0
 23 24  1  0  0  0
 24 25  2  0  0  0
 24 50  1  0  0  0
 25 34  1  0  0  0
 25 26  1  0  0  0
 26 27  2  0  0  0
 26 31  1  0  0  0
 27 28  1  0  0  0
 27 51  1  0  0  0
 28 29  1  0  0  0
 29 30  2  0  0  0
 29 56  1  0  0  0
 31 32  1  0  0  0
 32 33  1  0  0  0
 32 52  1  0  0  0
 32 53  1  0  0  0
 33 34  1  0  0  0
 33 54  1  0  0  0
 33 55  1  0  0  0
M  CHG  1  56  -1
M  END
> <i_i_glide_confnum>
909

> <i_i_glide_lignum>
3310

> <i_i_glide_posenum>
196

> <i_i_glide_rotatable_bonds>
6

> <i_m_Source_File_Index>
1783

> <b_m_subgroup_collapsed>
0

> <r_i_docking_score>
-5.35653

> <r_i_glide_ecoul>
-3.22688

> <r_i_glide_eff_state_penalty>
0

> <r_i_glide_einternal>
2.83089

> <r_i_glide_emodel>
-60.351

> <r_i_glide_energy>
-45.6169

> <r_i_glide_erotb>
0.447664

> <r_i_glide_esite>
-0.00675545

> <r_i_glide_evdw>
-42.39

> <r_i_glide_gscore>
-5.35653

> <r_i_glide_hbond>
-0.0807081

> <r_i_glide_ligand_efficiency>
-0.162319

> <r_i_glide_ligand_efficiency_ln>
-1.19126

> <r_i_glide_ligand_efficiency_sa>
-0.520644

> <r_i_glide_lipo>
-2.41939

> <r_i_glide_metal>
0

> <r_i_glide_rewards>
-0.693802

> <s_i_glide_gridfile>
wee1_glide-grid

> <s_m_Source_File>
wee1_decoys_glide_SP.sdf

> <s_m_Source_Path>
/Users/zhangxujun/Desktop

> <s_m_entry_id>
2058

> <s_m_entry_name>
wee1_decoys_glide_SP.1783

> <s_m_subgroup_title>
wee1_decoys_glide_SP

> <s_m_subgroupid>
wee1_decoys_glide_SP


$$$$
