ZINC15229954_2963
                    3D
 Schrodinger Suite 2024-2.
 53 55  0  0  1  0            999 V2000
    4.8058   53.1130   19.7732 C   0  0  0  0  0  0
    3.5889   52.2818   20.1272 C   0  0  0  0  0  0
    3.6838   51.2977   21.1136 C   0  0  0  0  0  0
    2.5753   50.5175   21.4255 C   0  0  0  0  0  0
    1.3690   50.7296   20.7532 C   0  0  0  0  0  0
    1.2788   51.7022   19.7584 C   0  0  0  0  0  0
    2.3886   52.4801   19.4473 C   0  0  0  0  0  0
   -0.0628   49.7398   21.1605 S   0  0  0  0  0  0
    0.2206   48.3923   20.6586 O   0  0  0  0  0  0
   -1.2514   50.4761   20.7127 O   0  0  0  0  0  0
   -0.1048   49.6429   22.9208 N   0  0  0  0  0  0
   -0.8193   50.6365   23.7525 C   0  0  1  0  0  0
   -1.5422   51.1389   23.1069 H   0  0  0  0  0  0
   -1.6409   49.8884   24.8420 C   0  0  0  0  0  0
   -2.6399   50.7638   25.6154 C   0  0  0  0  0  0
   -3.1749   51.7250   25.0520 O   0  0  0  0  0  0
   -2.8957   50.3905   26.8866 N   0  0  0  0  0  0
   -3.8702   50.9679   27.6242 N   0  0  0  0  0  0
   -3.9697   50.4735   28.7942 C   0  0  0  0  0  0
   -4.9970   50.8781   29.7637 C   0  0  0  0  0  0
   -6.0820   51.6953   29.4086 C   0  0  0  0  0  0
   -7.0274   52.0742   30.3599 C   0  0  0  0  0  0
   -6.8964   51.6352   31.6754 C   0  0  0  0  0  0
   -5.8366   50.8117   32.0389 C   0  0  0  0  0  0
   -4.8916   50.4342   31.0871 C   0  0  0  0  0  0
   -8.1577   52.1847   32.9922 Br  0  0  0  0  0  0
    0.1487   51.7272   24.2286 C   0  0  0  0  0  0
    0.5847   52.6909   23.3129 C   0  0  0  0  0  0
    1.4985   53.6699   23.6913 C   0  0  0  0  0  0
    1.9663   53.6969   25.0003 C   0  0  0  0  0  0
    1.5087   52.7743   25.9365 C   0  0  0  0  0  0
    0.6147   51.7810   25.5490 C   0  0  0  0  0  0
    5.6978   52.4839   19.7409 H   0  0  0  0  0  0
    4.7098   53.5625   18.7799 H   0  0  0  0  0  0
    4.9648   53.9048   20.5104 H   0  0  0  0  0  0
    4.6160   51.1401   21.6367 H   0  0  0  0  0  0
    2.6516   49.7557   22.1876 H   0  0  0  0  0  0
    0.3525   51.8652   19.2284 H   0  0  0  0  0  0
    2.3113   53.2382   18.6811 H   0  0  0  0  0  0
    0.2663   48.8035   23.3753 H   0  0  0  0  0  0
   -0.9790   49.3595   25.5295 H   0  0  0  0  0  0
   -2.2398   49.1155   24.3600 H   0  0  0  0  0  0
   -2.4088   49.6180   27.3319 H   0  0  0  0  0  0
   -3.2959   49.7006   29.1637 H   0  0  0  0  0  0
   -6.1979   52.0451   28.3928 H   0  0  0  0  0  0
   -7.8558   52.7085   30.0799 H   0  0  0  0  0  0
   -5.7255   50.4831   33.0618 H   0  0  0  0  0  0
   -4.0597   49.8110   31.3960 H   0  0  0  0  0  0
    0.2217   52.6833   22.2972 H   0  0  0  0  0  0
    1.8434   54.3993   22.9713 H   0  0  0  0  0  0
    2.6806   54.4509   25.2992 H   0  0  0  0  0  0
    1.8680   52.8084   26.9542 H   0  0  0  0  0  0
    0.3007   51.0580   26.2873 H   0  0  0  0  0  0
  1  2  1  0  0  0
  1 33  1  0  0  0
  1 34  1  0  0  0
  1 35  1  0  0  0
  2  7  2  0  0  0
  2  3  1  0  0  0
  3  4  2  0  0  0
  3 36  1  0  0  0
  4  5  1  0  0  0
  4 37  1  0  0  0
  5  6  2  0  0  0
  5  8  1  0  0  0
  6  7  1  0  0  0
  6 38  1  0  0  0
  7 39  1  0  0  0
  8  9  2  0  0  0
  8 10  2  0  0  0
  8 11  1  0  0  0
 11 12  1  0  0  0
 11 40  1  0  0  0
 12 13  1  0  0  0
 12 14  1  0  0  0
 12 27  1  0  0  0
 14 15  1  0  0  0
 14 41  1  0  0  0
 14 42  1  0  0  0
 15 16  2  0  0  0
 15 17  1  0  0  0
 17 18  1  0  0  0
 17 43  1  0  0  0
 18 19  2  0  0  0
 19 20  1  0  0  0
 19 44  1  0  0  0
 20 25  2  0  0  0
 20 21  1  0  0  0
 21 22  2  0  0  0
 21 45  1  0  0  0
 22 23  1  0  0  0
 22 46  1  0  0  0
 23 24  2  0  0  0
 23 26  1  0  0  0
 24 25  1  0  0  0
 24 47  1  0  0  0
 25 48  1  0  0  0
 27 32  2  0  0  0
 27 28  1  0  0  0
 28 29  2  0  0  0
 28 49  1  0  0  0
 29 30  1  0  0  0
 29 50  1  0  0  0
 30 31  2  0  0  0
 30 51  1  0  0  0
 31 32  1  0  0  0
 31 52  1  0  0  0
 32 53  1  0  0  0
M  END
> <i_i_glide_confnum>
77

> <i_i_glide_lignum>
2964

> <i_i_glide_posenum>
324

> <i_i_glide_rotatable_bonds>
9

> <i_m_Source_File_Index>
2589

> <b_m_subgroup_collapsed>
0

> <r_i_docking_score>
-3.03971

> <r_i_glide_ecoul>
-6.13783

> <r_i_glide_eff_state_penalty>
0

> <r_i_glide_einternal>
9.27527

> <r_i_glide_emodel>
-42.5501

> <r_i_glide_energy>
-39.574

> <r_i_glide_erotb>
0.57081

> <r_i_glide_esite>
-0.220736

> <r_i_glide_evdw>
-33.4362

> <r_i_glide_gscore>
-3.03971

> <r_i_glide_hbond>
-0.16

> <r_i_glide_ligand_efficiency>
-0.0980553

> <r_i_glide_ligand_efficiency_ln>
-0.685548

> <r_i_glide_ligand_efficiency_sa>
-0.308029

> <r_i_glide_lipo>
-1.20103

> <r_i_glide_metal>
0

> <r_i_glide_rewards>
0.563724

> <s_i_glide_gridfile>
wee1_glide-grid

> <s_m_Source_File>
wee1_decoys_glide_SP.sdf

> <s_m_Source_Path>
/Users/zhangxujun/Desktop

> <s_m_entry_id>
2864

> <s_m_entry_name>
wee1_decoys_glide_SP.2589

> <s_m_subgroup_title>
wee1_decoys_glide_SP

> <s_m_subgroupid>
wee1_decoys_glide_SP


$$$$
