ZINC22989472_4151
                    3D
 Schrodinger Suite 2024-2.
 53 55  0  0  1  0            999 V2000
    0.3041   48.4877   24.7164 C   0  0  0  0  0  0
    0.7250   49.7618   23.9549 C   0  0  1  0  0  0
    1.8131   49.8498   23.9451 H   0  0  0  0  0  0
    0.2122   49.6965   22.5031 C   0  0  0  0  0  0
    0.4630   50.9716   21.6415 C   0  0  1  0  0  0
    0.7744   52.2734   22.4666 C   0  0  0  0  0  0
    0.3658   52.3677   23.9787 C   0  0  0  0  0  0
    0.1192   50.9897   24.6631 C   0  0  0  0  0  0
    1.4824   53.0985   24.7681 C   0  0  0  0  0  0
   -0.9513   53.1726   24.0328 C   0  0  0  0  0  0
    1.5966   50.6753   20.6473 C   0  0  0  0  0  0
    2.7824   50.4921   20.9349 O   0  0  0  0  0  0
    1.0383   50.6985   19.4131 N   0  0  0  0  0  0
   -0.2989   50.9208   19.4218 C   0  0  0  0  0  0
   -1.1070   50.6823   18.5277 O   0  0  0  0  0  0
   -0.5943   51.1932   20.6933 N   0  0  0  0  0  0
    1.8278   50.7428   18.1613 C   0  0  0  0  0  0
    2.2899   52.1834   17.8950 C   0  0  0  0  0  0
    1.5364   52.9637   17.3099 O   0  0  0  0  0  0
    3.5044   52.4967   18.3790 N   0  0  0  0  0  0
    4.1277   53.7512   18.4030 C   0  0  0  0  0  0
    3.9552   54.7277   17.4143 C   0  0  0  0  0  0
    4.6485   55.9335   17.5005 C   0  0  0  0  0  0
    5.5129   56.1810   18.5676 C   0  0  0  0  0  0
    5.6784   55.2157   19.5799 C   0  0  0  0  0  0
    4.9883   54.0003   19.4719 C   0  0  0  0  0  0
    6.5725   55.4641   20.7980 C   0  0  0  0  0  0
    6.3045   54.6189   21.7964 F   0  0  0  0  0  0
    6.3930   56.6899   21.2793 F   0  0  0  0  0  0
    7.8516   55.3258   20.4513 F   0  0  0  0  0  0
    6.4502   57.8447   18.5819 Br  0  0  0  0  0  0
   -0.7802   48.3767   24.7718 H   0  0  0  0  0  0
    0.6991   47.5937   24.2375 H   0  0  0  0  0  0
    0.6840   48.4969   25.7397 H   0  0  0  0  0  0
   -0.8708   49.5975   22.6089 H   0  0  0  0  0  0
    0.4351   48.7626   21.9820 H   0  0  0  0  0  0
    1.8601   52.2072   22.5653 H   0  0  0  0  0  0
    0.7025   53.2074   21.9058 H   0  0  0  0  0  0
    0.2936   51.0142   25.7409 H   0  0  0  0  0  0
   -0.9513   50.7753   24.6095 H   0  0  0  0  0  0
    1.1868   53.2842   25.8012 H   0  0  0  0  0  0
    2.4047   52.5169   24.7963 H   0  0  0  0  0  0
    1.7178   54.0675   24.3242 H   0  0  0  0  0  0
   -1.3428   53.2313   25.0492 H   0  0  0  0  0  0
   -0.8060   54.1929   23.6827 H   0  0  0  0  0  0
   -1.7274   52.7219   23.4114 H   0  0  0  0  0  0
   -1.4337   51.6829   20.9599 H   0  0  0  0  0  0
    1.2774   50.3626   17.2997 H   0  0  0  0  0  0
    2.7050   50.0960   18.2442 H   0  0  0  0  0  0
    4.0412   51.7359   18.7811 H   0  0  0  0  0  0
    3.3063   54.5543   16.5685 H   0  0  0  0  0  0
    4.5215   56.6791   16.7288 H   0  0  0  0  0  0
    5.1082   53.2393   20.2307 H   0  0  0  0  0  0
  1  2  1  0  0  0
  1 32  1  0  0  0
  1 33  1  0  0  0
  1 34  1  0  0  0
  2  3  1  0  0  0
  2  8  1  0  0  0
  2  4  1  0  0  0
  4  5  1  0  0  0
  4 35  1  0  0  0
  4 36  1  0  0  0
  5 16  1  0  0  0
  5  6  1  0  0  0
  5 11  1  0  0  0
  6  7  1  0  0  0
  6 37  1  0  0  0
  6 38  1  0  0  0
  7  8  1  0  0  0
  7  9  1  0  0  0
  7 10  1  0  0  0
  8 39  1  0  0  0
  8 40  1  0  0  0
  9 41  1  0  0  0
  9 42  1  0  0  0
  9 43  1  0  0  0
 10 44  1  0  0  0
 10 45  1  0  0  0
 10 46  1  0  0  0
 11 12  2  0  0  0
 11 13  1  0  0  0
 13 14  1  0  0  0
 13 17  1  0  0  0
 14 15  2  0  0  0
 14 16  1  0  0  0
 16 47  1  0  0  0
 17 18  1  0  0  0
 17 48  1  0  0  0
 17 49  1  0  0  0
 18 19  2  0  0  0
 18 20  1  0  0  0
 20 21  1  0  0  0
 20 50  1  0  0  0
 21 26  2  0  0  0
 21 22  1  0  0  0
 22 23  2  0  0  0
 22 51  1  0  0  0
 23 24  1  0  0  0
 23 52  1  0  0  0
 24 25  2  0  0  0
 24 31  1  0  0  0
 25 26  1  0  0  0
 25 27  1  0  0  0
 26 53  1  0  0  0
 27 28  1  0  0  0
 27 29  1  0  0  0
 27 30  1  0  0  0
M  END
> <i_i_glide_confnum>
69

> <i_i_glide_lignum>
4152

> <i_i_glide_posenum>
116

> <i_i_glide_rotatable_bonds>
5

> <i_m_Source_File_Index>
1651

> <b_m_subgroup_collapsed>
0

> <r_i_docking_score>
-3.25872

> <r_i_glide_ecoul>
-3.08456

> <r_i_glide_eff_state_penalty>
0

> <r_i_glide_einternal>
4.27426

> <r_i_glide_emodel>
-36.6308

> <r_i_glide_energy>
-31.3738

> <r_i_glide_erotb>
0.338586

> <r_i_glide_esite>
-0.183879

> <r_i_glide_evdw>
-28.2893

> <r_i_glide_gscore>
-3.25872

> <r_i_glide_hbond>
-0.119731

> <r_i_glide_ligand_efficiency>
-0.108624

> <r_i_glide_ligand_efficiency_ln>
-0.740417

> <r_i_glide_ligand_efficiency_sa>
-0.33752

> <r_i_glide_lipo>
-0.97402

> <r_i_glide_metal>
0

> <r_i_glide_rewards>
-0.44253

> <s_i_glide_gridfile>
wee1_glide-grid

> <s_m_Source_File>
wee1_decoys_glide_SP.sdf

> <s_m_Source_Path>
/Users/zhangxujun/Desktop

> <s_m_entry_id>
1926

> <s_m_entry_name>
wee1_decoys_glide_SP.1651

> <s_m_subgroup_title>
wee1_decoys_glide_SP

> <s_m_subgroupid>
wee1_decoys_glide_SP


$$$$
