ZINC21014344_3765
                    3D
 Schrodinger Suite 2024-2.
 39 41  0  0  1  0            999 V2000
    1.4387   52.0440   24.0411 C   0  0  0  0  0  0
    1.6868   53.4164   24.7141 C   0  0  2  0  0  0
    0.7243   53.7733   25.0777 H   0  0  0  0  0  0
    2.1767   54.4303   23.6657 C   0  0  0  0  0  0
    3.5942   54.0969   23.2213 C   0  0  0  0  0  0
    4.4797   54.1012   24.4485 C   0  0  0  0  0  0
    5.8108   54.5099   24.3252 C   0  0  0  0  0  0
    6.6488   54.5780   25.4284 C   0  0  0  0  0  0
    6.1601   54.2469   26.6859 C   0  0  0  0  0  0
    4.8377   53.8302   26.8276 C   0  0  0  0  0  0
    3.9739   53.7207   25.7199 C   0  0  0  0  0  0
    2.6111   53.2973   25.8812 N   0  0  0  0  0  0
    1.8788   53.0290   27.5198 S   0  0  0  0  0  0
    2.7540   52.1466   28.2998 O   0  0  0  0  0  0
    1.5032   54.3522   28.0326 O   0  0  0  0  0  0
    0.3837   52.0970   27.2411 C   0  0  0  0  0  0
   -0.8507   52.7322   27.2982 C   0  0  0  0  0  0
   -2.0012   52.0695   26.8811 C   0  0  0  0  0  0
   -1.9079   50.7489   26.4583 C   0  0  0  0  0  0
   -0.6786   50.0967   26.4525 C   0  0  0  0  0  0
    0.4651   50.7556   26.8816 C   0  0  0  0  0  0
   -3.0527   50.0556   26.0818 N   0  0  0  0  0  0
    1.1801   52.1518   22.9867 H   0  0  0  0  0  0
    2.3042   51.3871   24.0828 H   0  0  0  0  0  0
    0.5957   51.5203   24.4784 H   0  0  0  0  0  0
    1.5054   54.4559   22.8053 H   0  0  0  0  0  0
    2.1303   55.4338   24.0817 H   0  0  0  0  0  0
    3.9347   54.8208   22.4799 H   0  0  0  0  0  0
    3.6296   53.1184   22.7412 H   0  0  0  0  0  0
    6.2014   54.7884   23.3566 H   0  0  0  0  0  0
    7.6690   54.8969   25.2910 H   0  0  0  0  0  0
    6.8006   54.3125   27.5537 H   0  0  0  0  0  0
    4.5164   53.6030   27.8290 H   0  0  0  0  0  0
   -0.8962   53.7405   27.6812 H   0  0  0  0  0  0
   -2.9564   52.5710   26.9033 H   0  0  0  0  0  0
   -0.6119   49.0590   26.1586 H   0  0  0  0  0  0
    1.4086   50.2335   26.8831 H   0  0  0  0  0  0
   -3.9344   50.4895   26.3059 H   0  0  0  0  0  0
   -2.9805   49.0518   26.1787 H   0  0  0  0  0  0
  1  2  1  0  0  0
  1 23  1  0  0  0
  1 24  1  0  0  0
  1 25  1  0  0  0
  2  3  1  0  0  0
  2 12  1  0  0  0
  2  4  1  0  0  0
  4  5  1  0  0  0
  4 26  1  0  0  0
  4 27  1  0  0  0
  5  6  1  0  0  0
  5 28  1  0  0  0
  5 29  1  0  0  0
  6 11  2  0  0  0
  6  7  1  0  0  0
  7  8  2  0  0  0
  7 30  1  0  0  0
  8  9  1  0  0  0
  8 31  1  0  0  0
  9 10  2  0  0  0
  9 32  1  0  0  0
 10 11  1  0  0  0
 10 33  1  0  0  0
 11 12  1  0  0  0
 12 13  1  0  0  0
 13 14  2  0  0  0
 13 15  2  0  0  0
 13 16  1  0  0  0
 16 21  2  0  0  0
 16 17  1  0  0  0
 17 18  2  0  0  0
 17 34  1  0  0  0
 18 19  1  0  0  0
 18 35  1  0  0  0
 19 20  2  0  0  0
 19 22  1  0  0  0
 20 21  1  0  0  0
 20 36  1  0  0  0
 21 37  1  0  0  0
 22 38  1  0  0  0
 22 39  1  0  0  0
M  END
> <i_i_glide_confnum>
35

> <i_i_glide_lignum>
3766

> <i_i_glide_posenum>
373

> <i_i_glide_rotatable_bonds>
2

> <i_m_Source_File_Index>
5000

> <b_m_subgroup_collapsed>
0

> <r_i_docking_score>
-3.25482

> <r_i_glide_ecoul>
-0.92949

> <r_i_glide_eff_state_penalty>
0

> <r_i_glide_einternal>
6.37804

> <r_i_glide_emodel>
-23.5299

> <r_i_glide_energy>
-27.3746

> <r_i_glide_erotb>
0.402694

> <r_i_glide_esite>
-0.0588103

> <r_i_glide_evdw>
-26.4451

> <r_i_glide_gscore>
-3.25482

> <r_i_glide_hbond>
0

> <r_i_glide_ligand_efficiency>
-0.154991

> <r_i_glide_ligand_efficiency_ln>
-0.804748

> <r_i_glide_ligand_efficiency_sa>
-0.42761

> <r_i_glide_lipo>
-2.387

> <r_i_glide_metal>
0

> <r_i_glide_rewards>
0.249975

> <s_i_glide_gridfile>
wee1_glide-grid

> <s_m_Source_File>
wee1_decoys_glide_SP.sdf

> <s_m_Source_Path>
/Users/zhangxujun/Desktop

> <s_m_entry_id>
5275

> <s_m_entry_name>
wee1_decoys_glide_SP.5000

> <s_m_subgroup_title>
wee1_decoys_glide_SP

> <s_m_subgroupid>
wee1_decoys_glide_SP


$$$$
