ZINC01129483_4964
                    3D
 Schrodinger Suite 2024-2.
 62 65  0  0  1  0            999 V2000
   -5.3638   47.9807   23.6335 C   0  0  0  0  0  0
   -4.3513   46.8692   24.0055 C   0  0  0  0  0  0
   -4.8776   45.5600   23.3595 C   0  0  0  0  0  0
   -2.9768   47.2130   23.3946 C   0  0  0  0  0  0
   -4.2239   46.7075   25.5357 C   0  0  0  0  0  0
   -4.4549   47.6447   26.5806 C   0  0  0  0  0  0
   -4.1795   46.9222   27.7251 C   0  0  0  0  0  0
   -3.7236   45.6977   27.3593 N   0  0  0  0  0  0
   -3.3676   44.9774   27.9864 H   0  0  0  0  0  0
   -3.7455   45.5682   26.0299 N   0  0  0  0  0  0
   -4.2883   47.3196   29.0317 O   0  0  0  0  0  0
   -4.7846   48.5840   29.1706 C   0  0  0  0  0  0
   -5.0850   49.4562   28.1738 C   0  0  0  0  0  0
   -4.8381   49.1357   26.6841 C   0  0  1  0  0  0
   -5.7730   49.3008   26.1493 H   0  0  0  0  0  0
   -3.8144   50.0896   26.0428 C   0  0  0  0  0  0
   -4.2257   51.3045   25.4888 C   0  0  0  0  0  0
   -3.3092   52.1715   24.8708 C   0  0  0  0  0  0
   -1.9599   51.7924   24.7913 C   0  0  0  0  0  0
   -1.5186   50.5914   25.3745 C   0  0  0  0  0  0
   -2.4585   49.7655   26.0024 C   0  0  0  0  0  0
   -0.1704   50.2855   25.2902 O   0  0  0  0  0  0
    0.3021   49.0389   25.7974 C   0  0  0  0  0  0
   -1.0629   52.6447   24.1782 O   0  0  0  0  0  0
   -0.4575   52.1626   22.9757 C   0  0  0  0  0  0
    0.9729   52.6772   22.8234 C   0  0  0  0  0  0
    1.7672   52.1658   21.7906 C   0  0  0  0  0  0
    3.0742   52.6174   21.6229 C   0  0  0  0  0  0
    3.5865   53.5817   22.4853 C   0  0  0  0  0  0
    2.8051   54.0985   23.5147 C   0  0  0  0  0  0
    1.4994   53.6492   23.6823 C   0  0  0  0  0  0
    4.8571   54.0150   22.3297 F   0  0  0  0  0  0
   -3.6619   53.3909   24.3177 O   0  0  0  0  0  0
   -4.9751   53.8970   24.5264 C   0  0  0  0  0  0
   -5.6300   50.7358   28.5020 C   0  0  0  0  0  0
   -6.0958   51.7556   28.7918 N   0  0  0  0  0  0
   -4.8953   48.8267   30.5080 N   0  0  0  0  0  0
   -5.5769   47.9944   22.5631 H   0  0  0  0  0  0
   -4.9937   48.9729   23.8842 H   0  0  0  0  0  0
   -6.3171   47.8453   24.1488 H   0  0  0  0  0  0
   -4.1776   44.7349   23.4847 H   0  0  0  0  0  0
   -5.8247   45.2500   23.8083 H   0  0  0  0  0  0
   -5.0467   45.6754   22.2874 H   0  0  0  0  0  0
   -2.2320   46.4570   23.6349 H   0  0  0  0  0  0
   -3.0273   47.2954   22.3097 H   0  0  0  0  0  0
   -2.5966   48.1589   23.7744 H   0  0  0  0  0  0
   -5.2736   51.5585   25.5471 H   0  0  0  0  0  0
   -2.1390   48.8511   26.4793 H   0  0  0  0  0  0
    1.3594   48.9162   25.5605 H   0  0  0  0  0  0
    0.2086   48.9981   26.8809 H   0  0  0  0  0  0
   -0.2249   48.1898   25.3595 H   0  0  0  0  0  0
   -0.4372   51.0732   22.9168 H   0  0  0  0  0  0
   -1.0528   52.5080   22.1311 H   0  0  0  0  0  0
    1.3753   51.4197   21.1158 H   0  0  0  0  0  0
    3.6885   52.2246   20.8255 H   0  0  0  0  0  0
    3.2117   54.8464   24.1781 H   0  0  0  0  0  0
    0.8990   54.0600   24.4810 H   0  0  0  0  0  0
   -5.0599   54.8802   24.0595 H   0  0  0  0  0  0
   -5.7350   53.2525   24.0819 H   0  0  0  0  0  0
   -5.1879   54.0195   25.5884 H   0  0  0  0  0  0
   -5.2452   49.7177   30.8224 H   0  0  0  0  0  0
   -4.2110   48.3844   31.1077 H   0  0  0  0  0  0
  1  2  1  0  0  0
  1 38  1  0  0  0
  1 39  1  0  0  0
  1 40  1  0  0  0
  2  3  1  0  0  0
  2  4  1  0  0  0
  2  5  1  0  0  0
  3 41  1  0  0  0
  3 42  1  0  0  0
  3 43  1  0  0  0
  4 44  1  0  0  0
  4 45  1  0  0  0
  4 46  1  0  0  0
  5 10  2  0  0  0
  5  6  1  0  0  0
  6 14  1  0  0  0
  6  7  2  0  0  0
  7  8  1  0  0  0
  7 11  1  0  0  0
  8  9  1  0  0  0
  8 10  1  0  0  0
 11 12  1  0  0  0
 12 13  2  0  0  0
 12 37  1  0  0  0
 13 14  1  0  0  0
 13 35  1  0  0  0
 14 15  1  0  0  0
 14 16  1  0  0  0
 16 21  2  0  0  0
 16 17  1  0  0  0
 17 18  2  0  0  0
 17 47  1  0  0  0
 18 19  1  0  0  0
 18 33  1  0  0  0
 19 20  2  0  0  0
 19 24  1  0  0  0
 20 21  1  0  0  0
 20 22  1  0  0  0
 21 48  1  0  0  0
 22 23  1  0  0  0
 23 49  1  0  0  0
 23 50  1  0  0  0
 23 51  1  0  0  0
 24 25  1  0  0  0
 25 26  1  0  0  0
 25 52  1  0  0  0
 25 53  1  0  0  0
 26 31  2  0  0  0
 26 27  1  0  0  0
 27 28  2  0  0  0
 27 54  1  0  0  0
 28 29  1  0  0  0
 28 55  1  0  0  0
 29 30  2  0  0  0
 29 32  1  0  0  0
 30 31  1  0  0  0
 30 56  1  0  0  0
 31 57  1  0  0  0
 33 34  1  0  0  0
 34 58  1  0  0  0
 34 59  1  0  0  0
 34 60  1  0  0  0
 35 36  3  0  0  0
 37 61  1  0  0  0
 37 62  1  0  0  0
M  END
> <i_i_glide_confnum>
23

> <i_i_glide_lignum>
4965

> <i_i_glide_posenum>
317

> <i_i_glide_rotatable_bonds>
8

> <i_m_Source_File_Index>
5930

> <b_m_subgroup_collapsed>
0

> <r_i_docking_score>
-4.13329

> <r_i_glide_ecoul>
-6.80928

> <r_i_glide_eff_state_penalty>
0

> <r_i_glide_einternal>
3.18831

> <r_i_glide_emodel>
-48.4083

> <r_i_glide_energy>
-38.7581

> <r_i_glide_erotb>
0.35401

> <r_i_glide_esite>
-0.174648

> <r_i_glide_evdw>
-31.9488

> <r_i_glide_gscore>
-4.13329

> <r_i_glide_hbond>
-0.32

> <r_i_glide_ligand_efficiency>
-0.118094

> <r_i_glide_ligand_efficiency_ln>
-0.907348

> <r_i_glide_ligand_efficiency_sa>
-0.386293

> <r_i_glide_lipo>
-0.950381

> <r_i_glide_metal>
0

> <r_i_glide_rewards>
-0.423435

> <s_i_glide_gridfile>
wee1_glide-grid

> <s_m_Source_File>
wee1_decoys_glide_SP.sdf

> <s_m_Source_Path>
/Users/zhangxujun/Desktop

> <s_m_entry_id>
6205

> <s_m_entry_name>
wee1_decoys_glide_SP.5930

> <s_m_subgroup_title>
wee1_decoys_glide_SP

> <s_m_subgroupid>
wee1_decoys_glide_SP


$$$$
