ZINC40323012_1197
                    3D
 Schrodinger Suite 2024-2.
 52 55  0  0  1  0            999 V2000
   -4.8215   51.6966   27.2845 C   0  0  0  0  0  0
   -3.5502   51.2969   27.6976 C   0  0  0  0  0  0
   -2.6374   51.9170   26.8515 C   0  0  0  0  0  0
   -3.3043   52.6914   25.9548 O   0  0  0  0  0  0
   -4.6296   52.5550   26.2145 C   0  0  0  0  0  0
   -1.1281   51.8529   26.7065 C   0  0  1  0  0  0
   -0.7953   52.3354   25.7855 H   0  0  0  0  0  0
   -0.3726   52.4020   27.9478 C   0  0  0  0  0  0
    1.0191   52.8156   27.6901 N   0  0  0  0  0  0
    2.0297   52.6264   28.5616 C   0  0  0  0  0  0
    1.8875   52.0976   29.6659 O   0  0  0  0  0  0
    3.3424   53.0295   28.1196 C   0  0  0  0  0  0
    4.5625   52.8971   28.7703 C   0  0  0  0  0  0
    5.5498   53.3483   27.8964 C   0  0  0  0  0  0
    4.8984   53.7367   26.7370 C   0  0  0  0  0  0
    3.5499   53.5856   26.8883 O   0  0  0  0  0  0
    5.5815   54.4051   25.1857 S   0  0  0  0  0  0
    5.5047   55.8626   25.2819 O   0  0  0  0  0  0
    6.8743   53.7345   25.0002 O   0  0  0  0  0  0
    4.5097   53.9149   23.8347 C   0  0  0  0  0  0
    5.0720   53.3777   22.6732 C   0  0  0  0  0  0
    4.2462   52.9461   21.6381 C   0  0  0  0  0  0
    2.8634   53.0686   21.7648 C   0  0  0  0  0  0
    2.3027   53.6450   22.9026 C   0  0  0  0  0  0
    3.1266   54.0765   23.9369 C   0  0  0  0  0  0
    1.7250   52.4623   20.3665 Br  0  0  0  0  0  0
   -0.7712   50.3611   26.4814 N   0  3  0  0  0  0
   -1.5566   49.6462   25.3631 C   0  0  0  0  0  0
   -0.7381   48.3891   25.1383 C   0  0  0  0  0  0
    0.7039   48.8617   25.2398 C   0  0  0  0  0  0
    0.7037   50.1114   26.1189 C   0  0  0  0  0  0
   -5.7640   51.3886   27.7141 H   0  0  0  0  0  0
   -3.3149   50.6087   28.4990 H   0  0  0  0  0  0
   -5.3004   53.1077   25.5729 H   0  0  0  0  0  0
   -0.8808   53.2855   28.3291 H   0  0  0  0  0  0
   -0.4272   51.6634   28.7531 H   0  0  0  0  0  0
    1.1886   53.4150   26.8956 H   0  0  0  0  0  0
    4.7040   52.4877   29.7580 H   0  0  0  0  0  0
    6.6162   53.3718   28.0707 H   0  0  0  0  0  0
    6.1417   53.2738   22.5847 H   0  0  0  0  0  0
    4.6711   52.5134   20.7436 H   0  0  0  0  0  0
    1.2314   53.7528   22.9819 H   0  0  0  0  0  0
    2.6877   54.5151   24.8181 H   0  0  0  0  0  0
   -2.5755   49.4625   25.7069 H   0  0  0  0  0  0
   -1.5784   50.3163   24.5010 H   0  0  0  0  0  0
   -0.9571   47.6712   25.9312 H   0  0  0  0  0  0
   -0.9552   47.9115   24.1819 H   0  0  0  0  0  0
    1.1091   49.0931   24.2532 H   0  0  0  0  0  0
    1.3354   48.0963   25.6822 H   0  0  0  0  0  0
    1.0681   50.9784   25.5637 H   0  0  0  0  0  0
    1.2359   50.0017   27.0642 H   0  0  0  0  0  0
   -0.9882   49.8402   27.3334 H   0  0  0  0  0  0
  1  5  2  0  0  0
  1  2  1  0  0  0
  1 32  1  0  0  0
  2  3  2  0  0  0
  2 33  1  0  0  0
  3  4  1  0  0  0
  3  6  1  0  0  0
  4  5  1  0  0  0
  5 34  1  0  0  0
  6  7  1  0  0  0
  6  8  1  0  0  0
  6 27  1  0  0  0
  8  9  1  0  0  0
  8 35  1  0  0  0
  8 36  1  0  0  0
  9 10  1  0  0  0
  9 37  1  0  0  0
 10 11  2  0  0  0
 10 12  1  0  0  0
 12 16  1  0  0  0
 12 13  2  0  0  0
 13 14  1  0  0  0
 13 38  1  0  0  0
 14 15  2  0  0  0
 14 39  1  0  0  0
 15 16  1  0  0  0
 15 17  1  0  0  0
 17 18  2  0  0  0
 17 19  2  0  0  0
 17 20  1  0  0  0
 20 25  2  0  0  0
 20 21  1  0  0  0
 21 22  2  0  0  0
 21 40  1  0  0  0
 22 23  1  0  0  0
 22 41  1  0  0  0
 23 24  2  0  0  0
 23 26  1  0  0  0
 24 25  1  0  0  0
 24 42  1  0  0  0
 25 43  1  0  0  0
 27 31  1  0  0  0
 27 28  1  0  0  0
 27 52  1  0  0  0
 28 29  1  0  0  0
 28 44  1  0  0  0
 28 45  1  0  0  0
 29 30  1  0  0  0
 29 46  1  0  0  0
 29 47  1  0  0  0
 30 31  1  0  0  0
 30 48  1  0  0  0
 30 49  1  0  0  0
 31 50  1  0  0  0
 31 51  1  0  0  0
M  CHG  1  27   1
M  END
> <i_i_glide_confnum>
265

> <i_i_glide_lignum>
1198

> <i_i_glide_posenum>
79

> <i_i_glide_rotatable_bonds>
8

> <i_m_Source_File_Index>
4220

> <b_m_subgroup_collapsed>
0

> <r_i_docking_score>
-4.99228

> <r_i_glide_ecoul>
-4.7526

> <r_i_glide_eff_state_penalty>
0

> <r_i_glide_einternal>
11.3693

> <r_i_glide_emodel>
-55.9498

> <r_i_glide_energy>
-43.645

> <r_i_glide_erotb>
0.667008

> <r_i_glide_esite>
-0.0923572

> <r_i_glide_evdw>
-38.8924

> <r_i_glide_gscore>
-4.99228

> <r_i_glide_hbond>
-0.212976

> <r_i_glide_ligand_efficiency>
-0.166409

> <r_i_glide_ligand_efficiency_ln>
-1.1343

> <r_i_glide_ligand_efficiency_sa>
-0.517072

> <r_i_glide_lipo>
-2.03111

> <r_i_glide_metal>
0

> <r_i_glide_rewards>
-0.665339

> <s_i_glide_gridfile>
wee1_glide-grid

> <s_m_Source_File>
wee1_decoys_glide_SP.sdf

> <s_m_Source_Path>
/Users/zhangxujun/Desktop

> <s_m_entry_id>
4495

> <s_m_entry_name>
wee1_decoys_glide_SP.4220

> <s_m_subgroup_title>
wee1_decoys_glide_SP

> <s_m_subgroupid>
wee1_decoys_glide_SP


$$$$
