ZINC01145028_3615
                    3D
 Schrodinger Suite 2024-2.
 51 53  0  0  1  0            999 V2000
    0.9655   49.2581   22.0813 C   0  0  0  0  0  0
    0.0510   49.7525   23.2012 C   0  0  0  0  0  0
    0.0853   50.9573   23.8470 C   0  0  0  0  0  0
   -0.9605   51.2970   24.9639 C   0  0  1  0  0  0
   -1.3781   52.2688   24.6917 H   0  0  0  0  0  0
   -2.0990   50.2616   24.9945 C   0  0  0  0  0  0
   -2.0146   49.0982   24.3114 C   0  0  0  0  0  0
   -0.9567   48.8522   23.4735 N   0  0  0  0  0  0
   -3.1596   47.7296   24.3023 S   0  0  0  0  0  0
   -3.5694   47.4794   26.0611 C   0  0  0  0  0  0
   -3.5358   46.0084   26.4798 C   0  0  0  0  0  0
   -4.0976   45.1470   25.8078 O   0  0  0  0  0  0
   -2.8747   45.6967   27.5912 N   0  0  0  0  0  0
   -3.2437   50.5659   25.7930 C   0  0  0  0  0  0
   -4.1700   50.8583   26.4223 N   0  0  0  0  0  0
   -0.3857   51.5302   26.3683 C   0  0  0  0  0  0
    0.7044   50.7937   26.8205 C   0  0  0  0  0  0
    1.3257   51.1145   28.0268 C   0  0  0  0  0  0
    0.7965   52.1088   28.8375 C   0  0  0  0  0  0
   -0.3469   52.7885   28.4386 C   0  0  0  0  0  0
   -0.9348   52.4973   27.2073 C   0  0  0  0  0  0
    1.5606   52.4974   30.3360 Cl  0  0  0  0  0  0
    1.1770   51.9449   23.5846 C   0  0  0  0  0  0
    2.1863   51.6858   22.9242 O   0  0  0  0  0  0
    0.9754   53.1752   24.1333 O   0  0  0  0  0  0
    1.9356   54.2251   23.9489 C   0  0  0  0  0  0
    3.0977   54.1423   24.9374 C   0  0  0  0  0  0
    2.8641   53.8724   26.2890 C   0  0  0  0  0  0
    3.9247   53.8488   27.1911 C   0  0  0  0  0  0
    5.2193   54.0985   26.7400 C   0  0  0  0  0  0
    5.4612   54.3701   25.3944 C   0  0  0  0  0  0
    4.3995   54.3875   24.4923 C   0  0  0  0  0  0
    1.2357   50.0579   21.3926 H   0  0  0  0  0  0
    1.8813   48.8398   22.5004 H   0  0  0  0  0  0
    0.4882   48.4967   21.4638 H   0  0  0  0  0  0
   -0.9243   47.9523   23.0191 H   0  0  0  0  0  0
   -2.8956   48.0590   26.6879 H   0  0  0  0  0  0
   -4.5684   47.8734   26.2452 H   0  0  0  0  0  0
   -2.3649   46.4237   28.0843 H   0  0  0  0  0  0
   -2.8947   44.7375   27.9775 H   0  0  0  0  0  0
    1.1042   49.9948   26.2132 H   0  0  0  0  0  0
    2.1996   50.5668   28.3442 H   0  0  0  0  0  0
   -0.7663   53.5484   29.0803 H   0  0  0  0  0  0
   -1.8023   53.0553   26.8860 H   0  0  0  0  0  0
    2.3118   54.2196   22.9238 H   0  0  0  0  0  0
    1.4528   55.1901   24.0814 H   0  0  0  0  0  0
    1.8592   53.6908   26.6397 H   0  0  0  0  0  0
    3.7440   53.6364   28.2344 H   0  0  0  0  0  0
    6.0424   54.0777   27.4395 H   0  0  0  0  0  0
    6.4672   54.5581   25.0497 H   0  0  0  0  0  0
    4.5899   54.5978   23.4496 H   0  0  0  0  0  0
  1  2  1  0  0  0
  1 33  1  0  0  0
  1 34  1  0  0  0
  1 35  1  0  0  0
  2  8  1  0  0  0
  2  3  2  0  0  0
  3  4  1  0  0  0
  3 23  1  0  0  0
  4  5  1  0  0  0
  4  6  1  0  0  0
  4 16  1  0  0  0
  6  7  2  0  0  0
  6 14  1  0  0  0
  7  8  1  0  0  0
  7  9  1  0  0  0
  8 36  1  0  0  0
  9 10  1  0  0  0
 10 11  1  0  0  0
 10 37  1  0  0  0
 10 38  1  0  0  0
 11 12  2  0  0  0
 11 13  1  0  0  0
 13 39  1  0  0  0
 13 40  1  0  0  0
 14 15  3  0  0  0
 16 21  2  0  0  0
 16 17  1  0  0  0
 17 18  2  0  0  0
 17 41  1  0  0  0
 18 19  1  0  0  0
 18 42  1  0  0  0
 19 20  2  0  0  0
 19 22  1  0  0  0
 20 21  1  0  0  0
 20 43  1  0  0  0
 21 44  1  0  0  0
 23 24  2  0  0  0
 23 25  1  0  0  0
 25 26  1  0  0  0
 26 27  1  0  0  0
 26 45  1  0  0  0
 26 46  1  0  0  0
 27 32  2  0  0  0
 27 28  1  0  0  0
 28 29  2  0  0  0
 28 47  1  0  0  0
 29 30  1  0  0  0
 29 48  1  0  0  0
 30 31  2  0  0  0
 30 49  1  0  0  0
 31 32  1  0  0  0
 31 50  1  0  0  0
 32 51  1  0  0  0
M  END
> <i_i_glide_confnum>
59

> <i_i_glide_lignum>
3616

> <i_i_glide_posenum>
27

> <i_i_glide_rotatable_bonds>
9

> <i_m_Source_File_Index>
4797

> <b_m_subgroup_collapsed>
0

> <r_i_docking_score>
-5.80436

> <r_i_glide_ecoul>
-11.0877

> <r_i_glide_eff_state_penalty>
0

> <r_i_glide_einternal>
6.2212

> <r_i_glide_emodel>
-56.0885

> <r_i_glide_energy>
-41.3815

> <r_i_glide_erotb>
0.584592

> <r_i_glide_esite>
-0.216342

> <r_i_glide_evdw>
-30.2938

> <r_i_glide_gscore>
-5.80436

> <r_i_glide_hbond>
-0.433205

> <r_i_glide_ligand_efficiency>
-0.187237

> <r_i_glide_ligand_efficiency_ln>
-1.30906

> <r_i_glide_ligand_efficiency_sa>
-0.588184

> <r_i_glide_lipo>
-2.02421

> <r_i_glide_metal>
0

> <r_i_glide_rewards>
-0.537344

> <s_i_glide_gridfile>
wee1_glide-grid

> <s_m_Source_File>
wee1_decoys_glide_SP.sdf

> <s_m_Source_Path>
/Users/zhangxujun/Desktop

> <s_m_entry_id>
5072

> <s_m_entry_name>
wee1_decoys_glide_SP.4797

> <s_m_subgroup_title>
wee1_decoys_glide_SP

> <s_m_subgroupid>
wee1_decoys_glide_SP


$$$$
