ZINC39227146_5250
                    3D
 Schrodinger Suite 2024-2.
 66 70  0  0  1  0            999 V2000
    2.1981   53.9882   24.1482 C   0  0  0  0  0  0
    3.0201   53.8983   25.4345 C   0  0  0  0  0  0
    4.3791   54.2580   25.4657 C   0  0  0  0  0  0
    5.0637   54.2795   26.6794 C   0  0  0  0  0  0
    4.4105   53.9743   27.8713 C   0  0  0  0  0  0
    3.0502   53.6514   27.8664 C   0  0  0  0  0  0
    2.3866   53.5320   26.6304 C   0  0  0  0  0  0
    1.0738   53.0902   26.5263 O   0  0  0  0  0  0
    0.5045   52.4115   27.6629 C   0  0  1  0  0  0
   -1.0196   52.3327   27.4035 C   0  0  0  0  0  0
   -1.4080   51.5288   26.1448 C   0  0  0  0  0  0
   -0.8241   50.0968   26.2592 N   0  3  2  0  0  0
    0.7040   50.1625   26.4583 C   0  0  0  0  0  0
    0.9902   50.9476   27.7508 C   0  0  0  0  0  0
   -1.1258   49.2691   24.9778 C   0  0  0  0  0  0
   -2.5360   48.6634   24.9939 C   0  0  0  0  0  0
   -3.2385   48.7965   23.9934 O   0  0  0  0  0  0
   -2.8727   47.9400   26.0815 N   0  0  0  0  0  0
   -4.0036   47.1359   26.2830 C   0  0  0  0  0  0
   -5.2363   47.3346   25.6427 C   0  0  0  0  0  0
   -6.2924   46.4617   25.8954 C   0  0  0  0  0  0
   -6.1161   45.3956   26.7730 C   0  0  0  0  0  0
   -4.8958   45.2013   27.4151 C   0  0  0  0  0  0
   -3.8448   46.0826   27.1848 C   0  0  0  0  0  0
   -7.1351   44.5404   27.0071 F   0  0  0  0  0  0
    0.8101   53.2672   28.9178 C   0  0  0  0  0  0
    2.3226   53.3413   29.1262 C   0  0  0  0  0  0
    2.8864   53.1692   30.2065 O   0  0  0  0  0  0
    5.0750   54.6552   24.3503 O   0  0  0  0  0  0
    5.2828   53.6763   23.3374 C   0  0  0  0  0  0
    5.7930   54.3677   22.0831 C   0  0  0  0  0  0
    5.1059   54.2273   20.8727 C   0  0  0  0  0  0
    5.6051   54.8230   19.7165 C   0  0  0  0  0  0
    6.7931   55.5513   19.7715 C   0  0  0  0  0  0
    7.4826   55.6969   20.9748 C   0  0  0  0  0  0
    6.9720   55.1155   22.1336 C   0  0  0  0  0  0
    2.6430   54.6786   23.4319 H   0  0  0  0  0  0
    2.0828   53.0054   23.6914 H   0  0  0  0  0  0
    1.2004   54.3801   24.3562 H   0  0  0  0  0  0
    6.1074   54.5565   26.6982 H   0  0  0  0  0  0
    4.9680   54.0234   28.7982 H   0  0  0  0  0  0
   -1.3957   53.3430   27.2817 H   0  0  0  0  0  0
   -1.5324   51.9229   28.2756 H   0  0  0  0  0  0
   -1.0194   51.9831   25.2324 H   0  0  0  0  0  0
   -2.4918   51.4213   26.0740 H   0  0  0  0  0  0
    1.0623   49.1329   26.5374 H   0  0  0  0  0  0
    1.1042   50.6378   25.5605 H   0  0  0  0  0  0
    0.4769   50.4967   28.5968 H   0  0  0  0  0  0
    2.0532   50.8870   27.9724 H   0  0  0  0  0  0
   -0.4057   48.4485   24.9561 H   0  0  0  0  0  0
   -0.9389   49.9048   24.1120 H   0  0  0  0  0  0
   -2.1970   47.9066   26.8443 H   0  0  0  0  0  0
   -5.3919   48.1560   24.9605 H   0  0  0  0  0  0
   -7.2452   46.6038   25.4075 H   0  0  0  0  0  0
   -4.7541   44.3626   28.0801 H   0  0  0  0  0  0
   -2.9005   45.9204   27.6915 H   0  0  0  0  0  0
    0.4754   54.2791   28.6911 H   0  0  0  0  0  0
    0.3105   52.8690   29.8023 H   0  0  0  0  0  0
    6.0047   52.9216   23.6602 H   0  0  0  0  0  0
    4.3772   53.1212   23.0937 H   0  0  0  0  0  0
    4.1920   53.6532   20.8161 H   0  0  0  0  0  0
    5.0771   54.7112   18.7811 H   0  0  0  0  0  0
    7.1899   55.9947   18.8698 H   0  0  0  0  0  0
    8.4161   56.2395   21.0108 H   0  0  0  0  0  0
    7.5037   55.2274   23.0683 H   0  0  0  0  0  0
   -1.2093   49.6061   27.0719 H   0  0  0  0  0  0
  1  2  1  0  0  0
  1 37  1  0  0  0
  1 38  1  0  0  0
  1 39  1  0  0  0
  2  7  2  0  0  0
  2  3  1  0  0  0
  3  4  2  0  0  0
  3 29  1  0  0  0
  4  5  1  0  0  0
  4 40  1  0  0  0
  5  6  2  0  0  0
  5 41  1  0  0  0
  6 27  1  0  0  0
  6  7  1  0  0  0
  7  8  1  0  0  0
  8  9  1  0  0  0
  9 14  1  0  0  0
  9 10  1  0  0  0
  9 26  1  0  0  0
 10 11  1  0  0  0
 10 42  1  0  0  0
 10 43  1  0  0  0
 11 12  1  0  0  0
 11 44  1  0  0  0
 11 45  1  0  0  0
 12 13  1  0  0  0
 12 15  1  0  0  0
 12 66  1  0  0  0
 13 14  1  0  0  0
 13 46  1  0  0  0
 13 47  1  0  0  0
 14 48  1  0  0  0
 14 49  1  0  0  0
 15 16  1  0  0  0
 15 50  1  0  0  0
 15 51  1  0  0  0
 16 17  2  0  0  0
 16 18  1  0  0  0
 18 19  1  0  0  0
 18 52  1  0  0  0
 19 24  2  0  0  0
 19 20  1  0  0  0
 20 21  2  0  0  0
 20 53  1  0  0  0
 21 22  1  0  0  0
 21 54  1  0  0  0
 22 23  2  0  0  0
 22 25  1  0  0  0
 23 24  1  0  0  0
 23 55  1  0  0  0
 24 56  1  0  0  0
 26 27  1  0  0  0
 26 57  1  0  0  0
 26 58  1  0  0  0
 27 28  2  0  0  0
 29 30  1  0  0  0
 30 31  1  0  0  0
 30 59  1  0  0  0
 30 60  1  0  0  0
 31 36  2  0  0  0
 31 32  1  0  0  0
 32 33  2  0  0  0
 32 61  1  0  0  0
 33 34  1  0  0  0
 33 62  1  0  0  0
 34 35  2  0  0  0
 34 63  1  0  0  0
 35 36  1  0  0  0
 35 64  1  0  0  0
 36 65  1  0  0  0
M  CHG  1  12   1
M  END
> <i_i_glide_confnum>
193

> <i_i_glide_lignum>
5251

> <i_i_glide_posenum>
178

> <i_i_glide_rotatable_bonds>
7

> <i_m_Source_File_Index>
2877

> <b_m_subgroup_collapsed>
0

> <r_i_docking_score>
-7.00224

> <r_i_glide_ecoul>
-9.68329

> <r_i_glide_eff_state_penalty>
0

> <r_i_glide_einternal>
13.8732

> <r_i_glide_emodel>
-67.6172

> <r_i_glide_energy>
-48.4224

> <r_i_glide_erotb>
0.509315

> <r_i_glide_esite>
-0.242603

> <r_i_glide_evdw>
-38.7391

> <r_i_glide_gscore>
-7.00224

> <r_i_glide_hbond>
-0.633354

> <r_i_glide_ligand_efficiency>
-0.194507

> <r_i_glide_ligand_efficiency_ln>
-1.5277

> <r_i_glide_ligand_efficiency_sa>
-0.642247

> <r_i_glide_lipo>
-2.96961

> <r_i_glide_metal>
0

> <r_i_glide_rewards>
-0.276543

> <s_i_glide_gridfile>
wee1_glide-grid

> <s_m_Source_File>
wee1_decoys_glide_SP.sdf

> <s_m_Source_Path>
/Users/zhangxujun/Desktop

> <s_m_entry_id>
3152

> <s_m_entry_name>
wee1_decoys_glide_SP.2877

> <s_m_subgroup_title>
wee1_decoys_glide_SP

> <s_m_subgroupid>
wee1_decoys_glide_SP


$$$$
