ZINC13623749_3289
                    3D
 Schrodinger Suite 2024-2.
 58 62  0  0  1  0            999 V2000
    2.7268   52.5999   21.9059 C   0  0  0  0  0  0
    3.9783   53.4096   21.6426 C   0  0  0  0  0  0
    4.8181   54.0755   22.5510 C   0  0  0  0  0  0
    5.7974   54.6993   21.7670 C   0  0  0  0  0  0
    5.5046   54.2954   20.4822 N   0  0  0  0  0  0
    4.4054   53.5380   20.4089 N   0  0  0  0  0  0
    6.2200   54.6091   19.2453 C   0  0  0  0  0  0
    5.7089   55.8391   18.4992 C   0  0  0  0  0  0
    6.5060   56.9848   18.4032 C   0  0  0  0  0  0
    6.0556   58.0893   17.6817 C   0  0  0  0  0  0
    4.8105   58.0446   17.0585 C   0  0  0  0  0  0
    4.0057   56.9111   17.1608 C   0  0  0  0  0  0
    4.4552   55.8080   17.8814 C   0  0  0  0  0  0
    6.9587   55.6229   22.0802 C   0  0  0  0  0  0
    4.5992   54.1045   23.9192 N   0  0  0  0  0  0
    5.5262   54.1475   24.8969 C   0  0  0  0  0  0
    6.7459   54.1297   24.7313 O   0  0  0  0  0  0
    4.9643   54.1945   26.2257 C   0  0  0  0  0  0
    5.6450   54.5317   27.4043 C   0  0  0  0  0  0
    4.8835   54.4965   28.4705 N   0  0  0  0  0  0
    3.6926   54.0494   28.0434 N   0  0  0  0  0  0
    3.7062   53.7884   26.6793 C   0  0  0  0  0  0
    2.5719   53.3010   26.0409 N   0  0  0  0  0  0
    1.5982   52.6421   26.9142 C   0  0  1  0  0  0
    2.0615   51.7283   27.2846 H   0  0  0  0  0  0
    1.3074   53.5695   28.1156 C   0  0  0  0  0  0
    2.5793   53.8090   28.9759 C   0  0  1  0  0  0
    2.4483   54.7153   29.5686 H   0  0  0  0  0  0
    2.8593   52.6540   29.9708 C   0  0  0  0  0  0
    3.9045   52.8980   30.7570 F   0  0  0  0  0  0
    1.8157   52.4472   30.7728 F   0  0  0  0  0  0
    3.1017   51.5090   29.3394 F   0  0  0  0  0  0
    0.3503   52.2019   26.1794 C   0  0  0  0  0  0
   -0.2241   52.4942   24.9464 C   0  0  0  0  0  0
   -1.3970   51.7418   24.8589 C   0  0  0  0  0  0
   -1.4917   51.0271   26.0424 C   0  0  0  0  0  0
   -0.4396   51.3191   26.8448 O   0  0  0  0  0  0
    2.5155   52.4891   22.9703 H   0  0  0  0  0  0
    1.8508   53.0662   21.4530 H   0  0  0  0  0  0
    2.8068   51.5933   21.4936 H   0  0  0  0  0  0
    6.1497   53.7454   18.5795 H   0  0  0  0  0  0
    7.2827   54.7058   19.4738 H   0  0  0  0  0  0
    7.4769   57.0191   18.8749 H   0  0  0  0  0  0
    6.6602   58.9830   17.6065 H   0  0  0  0  0  0
    4.4623   58.9103   16.5085 H   0  0  0  0  0  0
    3.0362   56.8914   16.6848 H   0  0  0  0  0  0
    3.8318   54.9286   17.9546 H   0  0  0  0  0  0
    6.8563   56.0945   23.0560 H   0  0  0  0  0  0
    7.9041   55.0838   22.0814 H   0  0  0  0  0  0
    7.0433   56.4333   21.3572 H   0  0  0  0  0  0
    3.6359   54.1047   24.2126 H   0  0  0  0  0  0
    6.6770   54.8452   27.4763 H   0  0  0  0  0  0
    2.7146   52.7360   25.2157 H   0  0  0  0  0  0
    0.5159   53.1401   28.7337 H   0  0  0  0  0  0
    0.8999   54.5246   27.7829 H   0  0  0  0  0  0
    0.1680   53.1700   24.1999 H   0  0  0  0  0  0
   -2.0930   51.7165   24.0335 H   0  0  0  0  0  0
   -2.2021   50.3127   26.4389 H   0  0  0  0  0  0
  1  2  1  0  0  0
  1 38  1  0  0  0
  1 39  1  0  0  0
  1 40  1  0  0  0
  2  6  2  0  0  0
  2  3  1  0  0  0
  3  4  2  0  0  0
  3 15  1  0  0  0
  4  5  1  0  0  0
  4 14  1  0  0  0
  5  6  1  0  0  0
  5  7  1  0  0  0
  7  8  1  0  0  0
  7 41  1  0  0  0
  7 42  1  0  0  0
  8 13  2  0  0  0
  8  9  1  0  0  0
  9 10  2  0  0  0
  9 43  1  0  0  0
 10 11  1  0  0  0
 10 44  1  0  0  0
 11 12  2  0  0  0
 11 45  1  0  0  0
 12 13  1  0  0  0
 12 46  1  0  0  0
 13 47  1  0  0  0
 14 48  1  0  0  0
 14 49  1  0  0  0
 14 50  1  0  0  0
 15 16  1  0  0  0
 15 51  1  0  0  0
 16 17  2  0  0  0
 16 18  1  0  0  0
 18 22  2  0  0  0
 18 19  1  0  0  0
 19 20  2  0  0  0
 19 52  1  0  0  0
 20 21  1  0  0  0
 21 27  1  0  0  0
 21 22  1  0  0  0
 22 23  1  0  0  0
 23 24  1  0  0  0
 23 53  1  0  0  0
 24 25  1  0  0  0
 24 26  1  0  0  0
 24 33  1  0  0  0
 26 27  1  0  0  0
 26 54  1  0  0  0
 26 55  1  0  0  0
 27 28  1  0  0  0
 27 29  1  0  0  0
 29 30  1  0  0  0
 29 31  1  0  0  0
 29 32  1  0  0  0
 33 37  1  0  0  0
 33 34  2  0  0  0
 34 35  1  0  0  0
 34 56  1  0  0  0
 35 36  2  0  0  0
 35 57  1  0  0  0
 36 37  1  0  0  0
 36 58  1  0  0  0
M  END
> <i_i_glide_confnum>
23

> <i_i_glide_lignum>
3290

> <i_i_glide_posenum>
397

> <i_i_glide_rotatable_bonds>
7

> <i_m_Source_File_Index>
2430

> <b_m_subgroup_collapsed>
0

> <r_i_docking_score>
-5.55623

> <r_i_glide_ecoul>
-1.25446

> <r_i_glide_eff_state_penalty>
0

> <r_i_glide_einternal>
3.33654

> <r_i_glide_emodel>
-63.703

> <r_i_glide_energy>
-48.4822

> <r_i_glide_erotb>
0.519137

> <r_i_glide_esite>
-0.050522

> <r_i_glide_evdw>
-47.2278

> <r_i_glide_gscore>
-5.55623

> <r_i_glide_hbond>
0

> <r_i_glide_ligand_efficiency>
-0.158749

> <r_i_glide_ligand_efficiency_ln>
-1.21972

> <r_i_glide_ligand_efficiency_sa>
-0.51928

> <r_i_glide_lipo>
-2.4978

> <r_i_glide_metal>
0

> <r_i_glide_rewards>
-0.977486

> <s_i_glide_gridfile>
wee1_glide-grid

> <s_m_Source_File>
wee1_decoys_glide_SP.sdf

> <s_m_Source_Path>
/Users/zhangxujun/Desktop

> <s_m_entry_id>
2705

> <s_m_entry_name>
wee1_decoys_glide_SP.2430

> <s_m_subgroup_title>
wee1_decoys_glide_SP

> <s_m_subgroupid>
wee1_decoys_glide_SP


$$$$
