ZINC15550730_159
                    3D
 Schrodinger Suite 2024-2.
 62 65  0  0  1  0            999 V2000
    7.1044   54.9126   23.1122 C   0  0  0  0  0  0
    5.8949   54.5852   23.7620 O   0  0  0  0  0  0
    5.7806   54.5858   25.1113 C   0  0  0  0  0  0
    6.6993   54.9030   25.8730 O   0  0  0  0  0  0
    4.4228   54.1617   25.5486 C   0  0  0  0  0  0
    4.0188   54.0451   26.9138 C   0  0  0  0  0  0
    2.6924   53.6080   27.0655 C   0  0  0  0  0  0
    1.9198   53.2971   25.5623 S   0  0  0  0  0  0
    3.3563   53.7656   24.6952 C   0  0  0  0  0  0
    3.4303   53.6871   23.3037 N   0  0  0  0  0  0
    2.5466   53.2089   22.4078 C   0  0  0  0  0  0
    1.3911   52.8642   22.6568 O   0  0  0  0  0  0
    3.0987   53.1063   20.9745 C   0  0  0  0  0  0
    2.2720   52.5884   18.6074 C   0  0  0  0  0  0
    1.2806   51.7080   17.8218 C   0  0  0  0  0  0
    1.6852   50.2365   18.0427 C   0  0  1  0  0  0
    1.5625   49.8383   19.5291 C   0  0  0  0  0  0
    2.5349   50.7064   20.3405 C   0  0  0  0  0  0
    0.8172   49.2860   17.1943 C   0  0  0  0  0  0
   -0.4100   49.3412   17.2860 O   0  0  0  0  0  0
    1.5044   48.4150   16.4249 N   0  0  0  0  0  0
    1.0310   47.3876   15.5895 C   0  0  0  0  0  0
    1.9711   46.4300   15.1972 C   0  0  0  0  0  0
    1.5876   45.3696   14.3784 C   0  0  0  0  0  0
    0.2708   45.2773   13.9370 C   0  0  0  0  0  0
   -0.6699   46.2337   14.3102 C   0  0  0  0  0  0
   -0.2928   47.2910   15.1340 C   0  0  0  0  0  0
    1.9524   53.4454   28.3838 C   0  0  0  0  0  0
    2.9751   53.3742   29.5321 C   0  0  0  0  0  0
    4.0173   54.4962   29.4197 C   0  0  0  0  0  0
    4.8821   54.3628   28.1462 C   0  0  0  0  0  0
    6.9389   55.0116   22.0412 H   0  0  0  0  0  0
    7.5065   55.8570   23.4817 H   0  0  0  0  0  0
    7.8386   54.1199   23.2682 H   0  0  0  0  0  0
    4.3264   53.9819   22.9406 H   0  0  0  0  0  0
    3.1044   54.0958   20.5208 H   0  0  0  0  0  0
    4.1124   52.7085   20.9156 H   0  0  0  0  0  0
    1.9931   53.6404   18.5146 H   0  0  0  0  0  0
    3.3090   52.4506   18.2885 H   0  0  0  0  0  0
    0.2788   51.9238   18.2004 H   0  0  0  0  0  0
    1.3798   51.9991   16.7746 H   0  0  0  0  0  0
    2.7043   50.0967   17.6894 H   0  0  0  0  0  0
    1.8764   48.8062   19.6951 H   0  0  0  0  0  0
    0.5597   50.0135   19.9223 H   0  0  0  0  0  0
    3.5732   50.5543   20.0415 H   0  0  0  0  0  0
    2.4189   50.5070   21.4073 H   0  0  0  0  0  0
    2.5175   48.4990   16.4815 H   0  0  0  0  0  0
    2.9950   46.4965   15.5390 H   0  0  0  0  0  0
    2.3048   44.6196   14.0830 H   0  0  0  0  0  0
   -0.0242   44.4576   13.2992 H   0  0  0  0  0  0
   -1.6890   46.1576   13.9603 H   0  0  0  0  0  0
   -1.0403   48.0239   15.3946 H   0  0  0  0  0  0
    1.3253   52.5519   28.3846 H   0  0  0  0  0  0
    1.2863   54.2941   28.5406 H   0  0  0  0  0  0
    3.4768   52.4044   29.5245 H   0  0  0  0  0  0
    2.4488   53.4357   30.4842 H   0  0  0  0  0  0
    4.6647   54.4965   30.2975 H   0  0  0  0  0  0
    3.5088   55.4627   29.4121 H   0  0  0  0  0  0
    5.4556   55.2794   28.0176 H   0  0  0  0  0  0
    5.6136   53.5656   28.2843 H   0  0  0  0  0  0
    2.1841   52.1997   20.1073 N   0  3  1  0  0  0
    1.2334   52.3667   20.4169 H   0  0  0  0  0  0
  1  2  1  0  0  0
  1 32  1  0  0  0
  1 33  1  0  0  0
  1 34  1  0  0  0
  2  3  1  0  0  0
  3  4  2  0  0  0
  3  5  1  0  0  0
  5  9  2  0  0  0
  5  6  1  0  0  0
  6 31  1  0  0  0
  6  7  2  0  0  0
  7  8  1  0  0  0
  7 28  1  0  0  0
  8  9  1  0  0  0
  9 10  1  0  0  0
 10 11  1  0  0  0
 10 35  1  0  0  0
 11 12  2  0  0  0
 11 13  1  0  0  0
 13 36  1  0  0  0
 13 37  1  0  0  0
 13 61  1  0  0  0
 14 15  1  0  0  0
 14 38  1  0  0  0
 14 39  1  0  0  0
 14 61  1  0  0  0
 15 16  1  0  0  0
 15 40  1  0  0  0
 15 41  1  0  0  0
 16 17  1  0  0  0
 16 19  1  0  0  0
 16 42  1  0  0  0
 17 18  1  0  0  0
 17 43  1  0  0  0
 17 44  1  0  0  0
 18 45  1  0  0  0
 18 46  1  0  0  0
 18 61  1  0  0  0
 19 20  2  0  0  0
 19 21  1  0  0  0
 21 22  1  0  0  0
 21 47  1  0  0  0
 22 27  2  0  0  0
 22 23  1  0  0  0
 23 24  2  0  0  0
 23 48  1  0  0  0
 24 25  1  0  0  0
 24 49  1  0  0  0
 25 26  2  0  0  0
 25 50  1  0  0  0
 26 27  1  0  0  0
 26 51  1  0  0  0
 27 52  1  0  0  0
 28 29  1  0  0  0
 28 53  1  0  0  0
 28 54  1  0  0  0
 29 30  1  0  0  0
 29 55  1  0  0  0
 29 56  1  0  0  0
 30 31  1  0  0  0
 30 57  1  0  0  0
 30 58  1  0  0  0
 31 59  1  0  0  0
 31 60  1  0  0  0
 61 62  1  0  0  0
M  CHG  1  61   1
M  END
> <i_i_glide_confnum>
156

> <i_i_glide_lignum>
160

> <i_i_glide_posenum>
345

> <i_i_glide_rotatable_bonds>
9

> <i_m_Source_File_Index>
72

> <b_m_subgroup_collapsed>
0

> <r_i_docking_score>
-5.59189

> <r_i_glide_ecoul>
-7.76854

> <r_i_glide_eff_state_penalty>
0

> <r_i_glide_einternal>
2.53038

> <r_i_glide_emodel>
-61.1807

> <r_i_glide_energy>
-44.2244

> <r_i_glide_erotb>
0.771283

> <r_i_glide_esite>
-0.180458

> <r_i_glide_evdw>
-36.4558

> <r_i_glide_gscore>
-5.59189

> <r_i_glide_hbond>
-0.382377

> <r_i_glide_ligand_efficiency>
-0.174747

> <r_i_glide_ligand_efficiency_ln>
-1.25218

> <r_i_glide_ligand_efficiency_sa>
-0.554786

> <r_i_glide_lipo>
-1.76274

> <r_i_glide_metal>
0

> <r_i_glide_rewards>
-1.04953

> <s_i_glide_gridfile>
wee1_glide-grid

> <s_m_Source_File>
wee1_decoys_glide_SP.sdf

> <s_m_Source_Path>
/Users/zhangxujun/Desktop

> <s_m_entry_id>
347

> <s_m_entry_name>
wee1_decoys_glide_SP.72

> <s_m_subgroup_title>
wee1_decoys_glide_SP

> <s_m_subgroupid>
wee1_decoys_glide_SP


$$$$
