ZINC39962536_5058
                    3D
 Schrodinger Suite 2024-2.
 49 52  0  0  1  0            999 V2000
    6.0646   56.1321   20.4231 C   0  0  0  0  0  0
    5.6387   55.0587   19.4449 C   0  0  0  0  0  0
    5.1517   53.8158   19.5811 C   0  0  0  0  0  0
    4.7665   52.8415   20.7027 C   0  0  2  0  0  0
    5.5721   52.1170   20.8168 H   0  0  0  0  0  0
    3.5828   51.9898   20.1888 C   0  0  0  0  0  0
    3.1035   52.0987   18.9260 C   0  0  0  0  0  0
    3.6107   52.8955   17.9450 O   0  0  0  0  0  0
    4.9580   53.3313   18.1748 C   0  0  1  0  0  0
    5.6184   52.5013   17.9113 H   0  0  0  0  0  0
    5.3010   54.4637   17.3802 N   0  0  0  0  0  0
    5.6931   55.4047   18.1361 N   0  0  0  0  0  0
    2.0890   51.3669   18.3729 N   0  0  0  0  0  0
    2.9882   51.0392   21.0747 C   0  0  0  0  0  0
    2.4746   50.2906   21.7918 N   0  0  0  0  0  0
    4.6090   53.4543   22.1067 C   0  0  0  0  0  0
    3.3406   53.6315   22.6610 C   0  0  0  0  0  0
    3.1600   54.0314   23.9947 C   0  0  0  0  0  0
    4.2857   54.3642   24.7588 C   0  0  0  0  0  0
    5.5620   54.2887   24.1804 C   0  0  0  0  0  0
    5.7207   53.7914   22.8853 C   0  0  0  0  0  0
    7.1029   54.8567   25.1438 Br  0  0  0  0  0  0
    4.1143   54.7949   26.0578 O   0  0  0  0  0  0
    4.6091   53.9131   27.0715 C   0  0  0  0  0  0
    3.5565   53.5791   28.1235 C   0  0  0  0  0  0
    2.2096   53.9377   27.9783 C   0  0  0  0  0  0
    1.2724   53.5689   28.9464 C   0  0  0  0  0  0
    1.6746   52.8443   30.0692 C   0  0  0  0  0  0
    3.0164   52.4962   30.2257 C   0  0  0  0  0  0
    3.9495   52.8601   29.2574 C   0  0  0  0  0  0
    3.4162   51.7941   31.3092 F   0  0  0  0  0  0
    1.9177   54.0859   24.6014 O   0  0  0  0  0  0
    0.7951   53.6129   23.8675 C   0  0  0  0  0  0
    5.6697   57.1023   20.1210 H   0  0  0  0  0  0
    5.7074   55.9287   21.4254 H   0  0  0  0  0  0
    7.1523   56.1982   20.4499 H   0  0  0  0  0  0
    1.5992   50.6940   18.9437 H   0  0  0  0  0  0
    2.1337   51.1628   17.3849 H   0  0  0  0  0  0
    2.4876   53.4024   22.0441 H   0  0  0  0  0  0
    6.7155   53.6966   22.4820 H   0  0  0  0  0  0
    4.9941   52.9723   26.6705 H   0  0  0  0  0  0
    5.4413   54.4137   27.5673 H   0  0  0  0  0  0
    1.8782   54.4881   27.1096 H   0  0  0  0  0  0
    0.2326   53.8344   28.8179 H   0  0  0  0  0  0
    0.9488   52.5457   30.8132 H   0  0  0  0  0  0
    4.9807   52.5651   29.3849 H   0  0  0  0  0  0
    0.7043   54.1964   22.9570 H   0  0  0  0  0  0
    0.9029   52.5585   23.6080 H   0  0  0  0  0  0
   -0.1338   53.7181   24.4217 H   0  0  0  0  0  0
  1  2  1  0  0  0
  1 34  1  0  0  0
  1 35  1  0  0  0
  1 36  1  0  0  0
  2 12  1  0  0  0
  2  3  2  0  0  0
  3  9  1  0  0  0
  3  4  1  0  0  0
  4  5  1  0  0  0
  4  6  1  0  0  0
  4 16  1  0  0  0
  6  7  2  0  0  0
  6 14  1  0  0  0
  7  8  1  0  0  0
  7 13  1  0  0  0
  8  9  1  0  0  0
  9 10  1  0  0  0
  9 11  1  0  0  0
 11 12  2  0  0  0
 13 37  1  0  0  0
 13 38  1  0  0  0
 14 15  3  0  0  0
 16 21  2  0  0  0
 16 17  1  0  0  0
 17 18  2  0  0  0
 17 39  1  0  0  0
 18 19  1  0  0  0
 18 32  1  0  0  0
 19 20  2  0  0  0
 19 23  1  0  0  0
 20 21  1  0  0  0
 20 22  1  0  0  0
 21 40  1  0  0  0
 23 24  1  0  0  0
 24 25  1  0  0  0
 24 41  1  0  0  0
 24 42  1  0  0  0
 25 30  2  0  0  0
 25 26  1  0  0  0
 26 27  2  0  0  0
 26 43  1  0  0  0
 27 28  1  0  0  0
 27 44  1  0  0  0
 28 29  2  0  0  0
 28 45  1  0  0  0
 29 30  1  0  0  0
 29 31  1  0  0  0
 30 46  1  0  0  0
 32 33  1  0  0  0
 33 47  1  0  0  0
 33 48  1  0  0  0
 33 49  1  0  0  0
M  END
> <i_i_glide_confnum>
7

> <i_i_glide_lignum>
5059

> <i_i_glide_posenum>
74

> <i_i_glide_rotatable_bonds>
6

> <i_m_Source_File_Index>
434

> <b_m_subgroup_collapsed>
0

> <r_i_docking_score>
-5.93758

> <r_i_glide_ecoul>
-2.45059

> <r_i_glide_eff_state_penalty>
0

> <r_i_glide_einternal>
10.7418

> <r_i_glide_emodel>
-57.7412

> <r_i_glide_energy>
-47.0643

> <r_i_glide_erotb>
0.345007

> <r_i_glide_esite>
-0.153139

> <r_i_glide_evdw>
-44.6137

> <r_i_glide_gscore>
-5.93758

> <r_i_glide_hbond>
0

> <r_i_glide_ligand_efficiency>
-0.191535

> <r_i_glide_ligand_efficiency_ln>
-1.33911

> <r_i_glide_ligand_efficiency_sa>
-0.601684

> <r_i_glide_lipo>
-3.02185

> <r_i_glide_metal>
0

> <r_i_glide_rewards>
-0.509324

> <s_i_glide_gridfile>
wee1_glide-grid

> <s_m_Source_File>
wee1_decoys_glide_SP.sdf

> <s_m_Source_Path>
/Users/zhangxujun/Desktop

> <s_m_entry_id>
709

> <s_m_entry_name>
wee1_decoys_glide_SP.434

> <s_m_subgroup_title>
wee1_decoys_glide_SP

> <s_m_subgroupid>
wee1_decoys_glide_SP


$$$$
