ZINC09490678_5286
                    3D
 Schrodinger Suite 2024-2.
 72 76  0  0  1  0            999 V2000
   -0.6713   51.7716   29.7928 C   0  0  0  0  0  0
    0.3428   52.7348   29.1580 C   0  0  0  0  0  0
    1.7894   52.3491   29.5260 C   0  0  0  0  0  0
    0.1389   52.8934   27.6307 C   0  0  0  0  0  0
    0.4780   51.6481   26.7689 C   0  0  0  0  0  0
    0.3039   51.8020   25.3145 N   0  0  0  0  0  0
   -0.3527   50.7540   24.4864 C   0  0  2  0  0  0
   -0.2131   49.7630   24.9158 H   0  0  0  0  0  0
    0.4566   50.8863   23.1900 C   0  0  1  0  0  0
    1.7140   50.0197   23.1427 C   0  0  0  0  0  0
    2.2047   50.1487   21.9049 C   0  0  0  0  0  0
    1.2688   51.1365   21.2363 C   0  0  1  0  0  0
    0.0257   50.7541   21.8514 O   0  0  0  0  0  0
    1.4471   52.5844   21.8248 C   0  0  1  0  0  0
    0.9456   53.2968   21.1760 H   0  0  0  0  0  0
    0.6104   52.3885   23.1287 C   0  0  2  0  0  0
   -0.3387   52.8950   22.9365 H   0  0  0  0  0  0
    0.9444   52.7606   24.5800 C   0  0  0  0  0  0
    1.6332   53.7013   24.9644 O   0  0  0  0  0  0
    2.9227   53.0602   21.9612 C   0  0  0  0  0  0
    3.5044   52.9126   23.0216 O   0  0  0  0  0  0
    3.5045   53.6263   20.8837 N   0  0  0  0  0  0
    4.7816   54.2071   20.7599 C   0  0  0  0  0  0
    5.1743   54.5441   19.4620 C   0  0  0  0  0  0
    6.3934   55.1796   19.2400 C   0  0  0  0  0  0
    7.2160   55.4933   20.3188 C   0  0  0  0  0  0
    6.8341   55.1776   21.6199 C   0  0  0  0  0  0
    5.6297   54.5106   21.8412 C   0  0  0  0  0  0
    8.4049   56.0971   20.0986 F   0  0  0  0  0  0
    1.1836   51.0052   19.7105 C   0  0  0  0  0  0
   -1.8876   50.9458   24.3909 C   0  0  0  0  0  0
   -2.4507   51.1447   23.3127 O   0  0  0  0  0  0
   -2.5547   50.8818   25.5562 N   0  0  0  0  0  0
   -4.0061   50.9928   25.7227 C   0  0  0  0  0  0
   -4.7131   49.6237   25.5601 C   0  0  0  0  0  0
   -4.2869   48.6055   26.6422 C   0  0  0  0  0  0
   -4.5208   49.1572   28.0662 C   0  0  0  0  0  0
   -3.9153   50.5630   28.2591 C   0  0  0  0  0  0
   -4.3482   51.5297   27.1334 C   0  0  0  0  0  0
   -0.5568   50.7752   29.3827 H   0  0  0  0  0  0
   -0.5522   51.7025   30.8784 H   0  0  0  0  0  0
   -1.6950   52.0883   29.5934 H   0  0  0  0  0  0
    0.1593   53.7169   29.5992 H   0  0  0  0  0  0
    2.0378   51.3435   29.1854 H   0  0  0  0  0  0
    2.5079   53.0384   29.0816 H   0  0  0  0  0  0
    1.9396   52.3743   30.6066 H   0  0  0  0  0  0
    0.7643   53.7281   27.3176 H   0  0  0  0  0  0
   -0.8923   53.1924   27.4351 H   0  0  0  0  0  0
   -0.1207   50.8036   27.1112 H   0  0  0  0  0  0
    1.5048   51.3412   26.9588 H   0  0  0  0  0  0
    2.1081   49.4590   23.9756 H   0  0  0  0  0  0
    3.1021   49.7307   21.4698 H   0  0  0  0  0  0
    2.9220   53.7078   20.0637 H   0  0  0  0  0  0
    4.5382   54.3161   18.6173 H   0  0  0  0  0  0
    6.7005   55.4285   18.2351 H   0  0  0  0  0  0
    7.4889   55.4231   22.4452 H   0  0  0  0  0  0
    5.3683   54.2920   22.8630 H   0  0  0  0  0  0
    2.1309   51.2694   19.2380 H   0  0  0  0  0  0
    0.9401   49.9838   19.4172 H   0  0  0  0  0  0
    0.4112   51.6590   19.3037 H   0  0  0  0  0  0
   -2.0543   50.5484   26.3677 H   0  0  0  0  0  0
   -4.3909   51.6991   24.9839 H   0  0  0  0  0  0
   -4.5058   49.2162   24.5687 H   0  0  0  0  0  0
   -5.7936   49.7657   25.5962 H   0  0  0  0  0  0
   -3.2309   48.3548   26.5212 H   0  0  0  0  0  0
   -4.8364   47.6726   26.5154 H   0  0  0  0  0  0
   -4.0967   48.4742   28.8047 H   0  0  0  0  0  0
   -5.5933   49.1994   28.2668 H   0  0  0  0  0  0
   -2.8278   50.4824   28.2788 H   0  0  0  0  0  0
   -4.2014   50.9631   29.2321 H   0  0  0  0  0  0
   -5.4198   51.7195   27.2032 H   0  0  0  0  0  0
   -3.8672   52.4971   27.2802 H   0  0  0  0  0  0
  1  2  1  0  0  0
  1 40  1  0  0  0
  1 41  1  0  0  0
  1 42  1  0  0  0
  2  3  1  0  0  0
  2  4  1  0  0  0
  2 43  1  0  0  0
  3 44  1  0  0  0
  3 45  1  0  0  0
  3 46  1  0  0  0
  4  5  1  0  0  0
  4 47  1  0  0  0
  4 48  1  0  0  0
  5  6  1  0  0  0
  5 49  1  0  0  0
  5 50  1  0  0  0
  6 18  1  0  0  0
  6  7  1  0  0  0
  7  8  1  0  0  0
  7  9  1  0  0  0
  7 31  1  0  0  0
  9 13  1  0  0  0
  9 16  1  0  0  0
  9 10  1  0  0  0
 10 11  2  0  0  0
 10 51  1  0  0  0
 11 12  1  0  0  0
 11 52  1  0  0  0
 12 13  1  0  0  0
 12 14  1  0  0  0
 12 30  1  0  0  0
 14 15  1  0  0  0
 14 16  1  0  0  0
 14 20  1  0  0  0
 16 17  1  0  0  0
 16 18  1  0  0  0
 18 19  2  0  0  0
 20 21  2  0  0  0
 20 22  1  0  0  0
 22 23  1  0  0  0
 22 53  1  0  0  0
 23 28  2  0  0  0
 23 24  1  0  0  0
 24 25  2  0  0  0
 24 54  1  0  0  0
 25 26  1  0  0  0
 25 55  1  0  0  0
 26 27  2  0  0  0
 26 29  1  0  0  0
 27 28  1  0  0  0
 27 56  1  0  0  0
 28 57  1  0  0  0
 30 58  1  0  0  0
 30 59  1  0  0  0
 30 60  1  0  0  0
 31 32  2  0  0  0
 31 33  1  0  0  0
 33 34  1  0  0  0
 33 61  1  0  0  0
 34 39  1  0  0  0
 34 35  1  0  0  0
 34 62  1  0  0  0
 35 36  1  0  0  0
 35 63  1  0  0  0
 35 64  1  0  0  0
 36 37  1  0  0  0
 36 65  1  0  0  0
 36 66  1  0  0  0
 37 38  1  0  0  0
 37 67  1  0  0  0
 37 68  1  0  0  0
 38 39  1  0  0  0
 38 69  1  0  0  0
 38 70  1  0  0  0
 39 71  1  0  0  0
 39 72  1  0  0  0
M  END
> <i_i_glide_confnum>
81

> <i_i_glide_lignum>
5287

> <i_i_glide_posenum>
275

> <i_i_glide_rotatable_bonds>
9

> <i_m_Source_File_Index>
515

> <b_m_subgroup_collapsed>
0

> <r_i_docking_score>
-4.13802

> <r_i_glide_ecoul>
-6.73834

> <r_i_glide_eff_state_penalty>
0

> <r_i_glide_einternal>
5.57981

> <r_i_glide_emodel>
-48.015

> <r_i_glide_energy>
-39.6638

> <r_i_glide_erotb>
0.659117

> <r_i_glide_esite>
-0.0558178

> <r_i_glide_evdw>
-32.9255

> <r_i_glide_gscore>
-4.13802

> <r_i_glide_hbond>
-0.0724729

> <r_i_glide_ligand_efficiency>
-0.114945

> <r_i_glide_ligand_efficiency_ln>
-0.902805

> <r_i_glide_ligand_efficiency_sa>
-0.37954

> <r_i_glide_lipo>
-1.38603

> <r_i_glide_metal>
0

> <r_i_glide_rewards>
-0.6258

> <s_i_glide_gridfile>
wee1_glide-grid

> <s_m_Source_File>
wee1_decoys_glide_SP.sdf

> <s_m_Source_Path>
/Users/zhangxujun/Desktop

> <s_m_entry_id>
790

> <s_m_entry_name>
wee1_decoys_glide_SP.515

> <s_m_subgroup_title>
wee1_decoys_glide_SP

> <s_m_subgroupid>
wee1_decoys_glide_SP


$$$$
