ZINC14649024_3715
                    3D
 Schrodinger Suite 2024-2.
 48 49  0  0  1  0            999 V2000
    5.6590   54.5569   27.4335 C   0  0  0  0  0  0
    4.8638   54.3777   26.1447 C   0  0  0  0  0  0
    3.5005   54.0929   26.2377 C   0  0  0  0  0  0
    2.7368   53.9137   25.0892 C   0  0  0  0  0  0
    3.3257   54.0346   23.8343 C   0  0  0  0  0  0
    4.6944   54.3240   23.7099 C   0  0  0  0  0  0
    5.4636   54.4970   24.8759 C   0  0  0  0  0  0
    6.9545   54.7926   24.7548 C   0  0  0  0  0  0
    5.3331   54.4833   22.4873 O   0  0  0  0  0  0
    4.6233   54.3326   21.2501 C   0  0  0  0  0  0
    4.4193   52.8510   20.8791 C   0  0  0  0  0  0
    5.1038   51.9721   21.4094 O   0  0  0  0  0  0
    3.4595   52.6162   19.9593 N   0  0  0  0  0  0
    3.1047   51.3003   19.6161 N   0  0  0  0  0  0
    2.1504   50.5421   20.2453 C   0  0  0  0  0  0
    1.3984   51.0062   21.6880 S   0  0  0  0  0  0
    1.9030   49.3931   19.5300 N   0  0  0  0  0  0
    0.9466   48.4277   19.6413 C   0  0  0  0  0  0
    0.0479   48.4164   20.4848 O   0  0  0  0  0  0
    1.0183   47.2883   18.6412 C   0  0  0  0  0  0
    1.7601   47.3830   17.4536 C   0  0  0  0  0  0
    1.8059   46.3232   16.5517 C   0  0  0  0  0  0
    1.1045   45.1358   16.8051 C   0  0  0  0  0  0
    0.3537   45.0348   17.9810 C   0  0  0  0  0  0
    0.3065   46.1014   18.8806 C   0  0  0  0  0  0
   -0.6939   43.2788   18.4482 I   0  0  0  0  0  0
    1.1394   44.0508   15.9528 O   0  0  0  0  0  0
    1.2416   44.3072   14.5559 C   0  0  0  0  0  0
    5.0096   54.7082   28.2969 H   0  0  0  0  0  0
    6.2889   53.6850   27.6160 H   0  0  0  0  0  0
    6.3043   55.4336   27.3737 H   0  0  0  0  0  0
    3.0280   53.9941   27.2051 H   0  0  0  0  0  0
    1.6846   53.6834   25.1714 H   0  0  0  0  0  0
    2.6981   53.8908   22.9685 H   0  0  0  0  0  0
    7.3768   54.3998   23.8289 H   0  0  0  0  0  0
    7.5044   54.3023   25.5553 H   0  0  0  0  0  0
    7.1408   55.8670   24.8033 H   0  0  0  0  0  0
    3.6843   54.8858   21.2558 H   0  0  0  0  0  0
    5.2382   54.7887   20.4723 H   0  0  0  0  0  0
    2.8519   53.3173   19.5575 H   0  0  0  0  0  0
    3.7558   50.8973   18.9464 H   0  0  0  0  0  0
    2.5582   49.2256   18.7805 H   0  0  0  0  0  0
    2.3043   48.2818   17.2003 H   0  0  0  0  0  0
    2.4036   46.4331   15.6601 H   0  0  0  0  0  0
   -0.2848   45.9932   19.7807 H   0  0  0  0  0  0
    1.0191   43.3937   14.0063 H   0  0  0  0  0  0
    0.5359   45.0720   14.2256 H   0  0  0  0  0  0
    2.2517   44.6153   14.2807 H   0  0  0  0  0  0
  1  2  1  0  0  0
  1 29  1  0  0  0
  1 30  1  0  0  0
  1 31  1  0  0  0
  2  7  2  0  0  0
  2  3  1  0  0  0
  3  4  2  0  0  0
  3 32  1  0  0  0
  4  5  1  0  0  0
  4 33  1  0  0  0
  5  6  2  0  0  0
  5 34  1  0  0  0
  6  7  1  0  0  0
  6  9  1  0  0  0
  7  8  1  0  0  0
  8 35  1  0  0  0
  8 36  1  0  0  0
  8 37  1  0  0  0
  9 10  1  0  0  0
 10 11  1  0  0  0
 10 38  1  0  0  0
 10 39  1  0  0  0
 11 12  2  0  0  0
 11 13  1  0  0  0
 13 14  1  0  0  0
 13 40  1  0  0  0
 14 15  1  0  0  0
 14 41  1  0  0  0
 15 16  2  0  0  0
 15 17  1  0  0  0
 17 18  1  0  0  0
 17 42  1  0  0  0
 18 19  2  0  0  0
 18 20  1  0  0  0
 20 25  2  0  0  0
 20 21  1  0  0  0
 21 22  2  0  0  0
 21 43  1  0  0  0
 22 23  1  0  0  0
 22 44  1  0  0  0
 23 24  2  0  0  0
 23 27  1  0  0  0
 24 25  1  0  0  0
 24 26  1  0  0  0
 25 45  1  0  0  0
 27 28  1  0  0  0
 28 46  1  0  0  0
 28 47  1  0  0  0
 28 48  1  0  0  0
M  END
> <i_i_glide_confnum>
230

> <i_i_glide_lignum>
3716

> <i_i_glide_posenum>
67

> <i_i_glide_rotatable_bonds>
10

> <i_m_Source_File_Index>
5878

> <b_m_subgroup_collapsed>
0

> <r_i_docking_score>
-4.86792

> <r_i_glide_ecoul>
-8.05458

> <r_i_glide_eff_state_penalty>
0

> <r_i_glide_einternal>
6.47286

> <r_i_glide_emodel>
-56.904

> <r_i_glide_energy>
-45.0593

> <r_i_glide_erotb>
0.700303

> <r_i_glide_esite>
-0.17966

> <r_i_glide_evdw>
-37.0047

> <r_i_glide_gscore>
-4.86792

> <r_i_glide_hbond>
-0.16

> <r_i_glide_ligand_efficiency>
-0.173854

> <r_i_glide_ligand_efficiency_ln>
-1.12366

> <r_i_glide_ligand_efficiency_sa>
-0.527924

> <r_i_glide_lipo>
-1.96929

> <r_i_glide_metal>
0

> <r_i_glide_rewards>
-0.200849

> <s_i_glide_gridfile>
wee1_glide-grid

> <s_m_Source_File>
wee1_decoys_glide_SP.sdf

> <s_m_Source_Path>
/Users/zhangxujun/Desktop

> <s_m_entry_id>
6153

> <s_m_entry_name>
wee1_decoys_glide_SP.5878

> <s_m_subgroup_title>
wee1_decoys_glide_SP

> <s_m_subgroupid>
wee1_decoys_glide_SP


$$$$
