ZINC33253838_5672
                    3D
 Schrodinger Suite 2024-2.
 57 60  0  0  1  0            999 V2000
    3.5042   52.1074   30.9339 C   0  0  0  0  0  0
    3.7399   52.3658   29.5861 C   0  0  0  0  0  0
    2.6646   52.5871   28.7288 C   0  0  0  0  0  0
    1.3563   52.5470   29.2220 C   0  0  0  0  0  0
    1.1290   52.3257   30.5815 C   0  0  0  0  0  0
    2.2037   52.0967   31.4348 C   0  0  0  0  0  0
    0.1733   52.7480   28.2830 C   0  0  0  0  0  0
   -0.3573   51.4516   27.6148 C   0  0  2  0  0  0
    0.7045   50.7579   26.7321 C   0  0  0  0  0  0
    0.1957   49.5448   25.9326 C   0  0  0  0  0  0
   -1.0608   49.9572   25.1393 N   0  3  2  0  0  0
   -2.1770   50.4749   26.0756 C   0  0  0  0  0  0
   -1.6520   51.7153   26.8156 C   0  0  0  0  0  0
   -1.4946   48.9027   24.1845 C   0  0  0  0  0  0
   -2.0923   47.7498   24.7008 C   0  0  0  0  0  0
   -2.3956   46.7004   23.8401 C   0  0  0  0  0  0
   -2.0945   46.7804   22.4726 C   0  0  0  0  0  0
   -1.5145   47.9613   21.9872 C   0  0  0  0  0  0
   -1.2051   49.0460   22.8115 C   0  0  0  0  0  0
   -0.5500   50.0855   22.2035 N   0  5  0  0  0  0
   -1.0102   51.5812   22.2219 S   0  0  0  0  0  0
   -1.8070   51.9635   23.3922 O   0  0  0  0  0  0
   -1.4634   52.0969   20.9261 O   0  0  0  0  0  0
    0.5971   52.3388   22.4934 C   0  0  0  0  0  0
    0.8823   52.9787   23.7056 C   0  0  0  0  0  0
    2.1381   53.5392   23.9289 C   0  0  0  0  0  0
    3.1050   53.5063   22.9259 C   0  0  0  0  0  0
    2.8195   52.8967   21.7045 C   0  0  0  0  0  0
    1.5701   52.3149   21.4837 C   0  0  0  0  0  0
    1.3231   51.7291   20.2899 F   0  0  0  0  0  0
    2.4225   54.0964   25.1259 F   0  0  0  0  0  0
   -2.3368   45.6164   21.5573 C   0  0  0  0  0  0
   -2.4961   44.4895   22.0817 O   0  0  0  0  0  0
   -2.3392   45.8208   20.3223 O   0  5  0  0  0  0
    4.3361   51.9285   31.5996 H   0  0  0  0  0  0
    4.7505   52.3830   29.2035 H   0  0  0  0  0  0
    2.8490   52.7720   27.6798 H   0  0  0  0  0  0
    0.1219   52.2968   30.9767 H   0  0  0  0  0  0
    2.0226   51.9032   32.4817 H   0  0  0  0  0  0
    0.4568   53.4742   27.5201 H   0  0  0  0  0  0
   -0.6239   53.2300   28.8482 H   0  0  0  0  0  0
   -0.6300   50.7339   28.3910 H   0  0  0  0  0  0
    1.5484   50.4622   27.3500 H   0  0  0  0  0  0
    1.1038   51.4811   26.0228 H   0  0  0  0  0  0
   -0.0950   48.7021   26.5623 H   0  0  0  0  0  0
    0.9338   49.2024   25.2040 H   0  0  0  0  0  0
   -3.0308   50.7133   25.4392 H   0  0  0  0  0  0
   -2.4523   49.6728   26.7614 H   0  0  0  0  0  0
   -1.4822   52.5092   26.0878 H   0  0  0  0  0  0
   -2.4259   52.0970   27.4804 H   0  0  0  0  0  0
   -2.2903   47.6442   25.7585 H   0  0  0  0  0  0
   -2.8459   45.8108   24.2518 H   0  0  0  0  0  0
   -1.2662   48.0315   20.9365 H   0  0  0  0  0  0
    0.1442   53.0304   24.4905 H   0  0  0  0  0  0
    4.0757   53.9466   23.0976 H   0  0  0  0  0  0
    3.5641   52.8728   20.9225 H   0  0  0  0  0  0
   -0.8183   50.7413   24.5451 H   0  0  0  0  0  0
  1  6  2  0  0  0
  1  2  1  0  0  0
  1 35  1  0  0  0
  2  3  2  0  0  0
  2 36  1  0  0  0
  3  4  1  0  0  0
  3 37  1  0  0  0
  4  5  2  0  0  0
  4  7  1  0  0  0
  5  6  1  0  0  0
  5 38  1  0  0  0
  6 39  1  0  0  0
  7  8  1  0  0  0
  7 40  1  0  0  0
  7 41  1  0  0  0
  8 13  1  0  0  0
  8  9  1  0  0  0
  8 42  1  0  0  0
  9 10  1  0  0  0
  9 43  1  0  0  0
  9 44  1  0  0  0
 10 11  1  0  0  0
 10 45  1  0  0  0
 10 46  1  0  0  0
 11 12  1  0  0  0
 11 14  1  0  0  0
 11 57  1  0  0  0
 12 13  1  0  0  0
 12 47  1  0  0  0
 12 48  1  0  0  0
 13 49  1  0  0  0
 13 50  1  0  0  0
 14 19  2  0  0  0
 14 15  1  0  0  0
 15 16  2  0  0  0
 15 51  1  0  0  0
 16 17  1  0  0  0
 16 52  1  0  0  0
 17 18  2  0  0  0
 17 32  1  0  0  0
 18 19  1  0  0  0
 18 53  1  0  0  0
 19 20  1  0  0  0
 20 21  1  0  0  0
 21 22  2  0  0  0
 21 23  2  0  0  0
 21 24  1  0  0  0
 24 29  2  0  0  0
 24 25  1  0  0  0
 25 26  2  0  0  0
 25 54  1  0  0  0
 26 27  1  0  0  0
 26 31  1  0  0  0
 27 28  2  0  0  0
 27 55  1  0  0  0
 28 29  1  0  0  0
 28 56  1  0  0  0
 29 30  1  0  0  0
 32 33  2  0  0  0
 32 34  1  0  0  0
M  CHG  3  11   1  20  -1  34  -1
M  END
> <i_i_glide_confnum>
53

> <i_i_glide_lignum>
5673

> <i_i_glide_posenum>
170

> <i_i_glide_rotatable_bonds>
7

> <i_m_Source_File_Index>
836

> <b_m_subgroup_collapsed>
0

> <r_i_docking_score>
-3.39586

> <r_i_glide_ecoul>
-8.49749

> <r_i_glide_eff_state_penalty>
0

> <r_i_glide_einternal>
10.9957

> <r_i_glide_emodel>
-46.6986

> <r_i_glide_energy>
-43.4394

> <r_i_glide_erotb>
0.517085

> <r_i_glide_esite>
-0.0915212

> <r_i_glide_evdw>
-34.9419

> <r_i_glide_gscore>
-3.39586

> <r_i_glide_hbond>
-0.194534

> <r_i_glide_ligand_efficiency>
-0.0998782

> <r_i_glide_ligand_efficiency_ln>
-0.75024

> <r_i_glide_ligand_efficiency_sa>
-0.323566

> <r_i_glide_lipo>
-1.49944

> <r_i_glide_metal>
0

> <r_i_glide_rewards>
0.894268

> <s_i_glide_gridfile>
wee1_glide-grid

> <s_m_Source_File>
wee1_decoys_glide_SP.sdf

> <s_m_Source_Path>
/Users/zhangxujun/Desktop

> <s_m_entry_id>
1111

> <s_m_entry_name>
wee1_decoys_glide_SP.836

> <s_m_subgroup_title>
wee1_decoys_glide_SP

> <s_m_subgroupid>
wee1_decoys_glide_SP


$$$$
