ZINC35664070_1035
                    3D
 Schrodinger Suite 2024-2.
 71 74  0  0  1  0            999 V2000
    0.5654   49.7131   25.4627 C   0  0  0  0  0  0
    0.0214   50.5398   26.6137 C   0  0  0  0  0  0
   -1.3280   50.8965   26.6445 C   0  0  0  0  0  0
   -1.8501   51.5496   27.7582 C   0  0  0  0  0  0
   -1.0182   51.8868   28.8278 C   0  0  0  0  0  0
    0.3412   51.6049   28.7862 C   0  0  0  0  0  0
    0.8494   50.8968   27.6828 C   0  0  0  0  0  0
    1.1317   52.0780   29.8601 N   0  0  0  0  0  0
    2.4726   52.2756   29.9149 C   0  0  0  0  0  0
    3.0447   52.0972   30.9900 O   0  0  0  0  0  0
    3.1394   52.7199   28.8128 N   0  0  0  0  0  0
    4.6150   52.7795   28.7744 C   0  0  0  0  0  0
    5.0640   54.1977   28.3628 C   0  0  0  0  0  0
    4.4046   54.6708   27.1292 N   0  0  0  0  0  0
    2.9661   54.6622   27.3560 C   0  0  0  0  0  0
    2.4453   53.2883   27.6517 C   0  0  0  0  0  0
    4.9250   54.4973   25.8460 C   0  0  0  0  0  0
    6.3061   54.4940   25.6691 C   0  0  0  0  0  0
    6.8444   54.5228   24.3978 C   0  0  0  0  0  0
    6.0413   54.6065   23.2706 C   0  0  0  0  0  0
    4.6588   54.4901   23.4157 C   0  0  0  0  0  0
    4.1126   54.4388   24.6928 C   0  0  0  0  0  0
    6.7108   54.8964   22.0732 N   0  0  0  0  0  0
    6.2603   54.9029   20.8035 C   0  0  0  0  0  0
    5.1044   54.6631   20.4601 O   0  0  0  0  0  0
    7.3636   55.1572   19.7601 C   0  0  0  0  0  0
    6.8878   55.7403   18.4927 N   0  0  0  0  0  0
    6.3174   54.8135   17.4978 C   0  0  0  0  0  0
    7.3700   54.0607   16.7056 C   0  0  0  0  0  0
    7.5034   52.7252   16.7094 C   0  0  0  0  0  0
    6.8628   57.0956   18.3531 C   0  0  0  0  0  0
    7.1036   57.8720   19.2815 O   0  0  0  0  0  0
    6.5585   57.6667   16.9950 C   0  0  0  0  0  0
    5.3451   58.3273   16.7721 C   0  0  0  0  0  0
    5.0706   58.8963   15.5288 C   0  0  0  0  0  0
    6.0099   58.8221   14.5017 C   0  0  0  0  0  0
    7.2316   58.1874   14.7228 C   0  0  0  0  0  0
    7.5135   57.6214   15.9673 C   0  0  0  0  0  0
    8.7243   57.0473   16.1650 F   0  0  0  0  0  0
   -0.2338   49.1915   24.9350 H   0  0  0  0  0  0
    1.1062   50.3417   24.7558 H   0  0  0  0  0  0
    1.2418   48.9394   25.8324 H   0  0  0  0  0  0
   -1.9854   50.6173   25.8344 H   0  0  0  0  0  0
   -2.9040   51.7785   27.7982 H   0  0  0  0  0  0
   -1.4267   52.4000   29.6820 H   0  0  0  0  0  0
    1.8902   50.6013   27.6791 H   0  0  0  0  0  0
    0.6607   52.0514   30.7531 H   0  0  0  0  0  0
    4.9872   52.0964   28.0171 H   0  0  0  0  0  0
    5.0863   52.5067   29.7174 H   0  0  0  0  0  0
    6.1496   54.2443   28.3160 H   0  0  0  0  0  0
    4.7811   54.8966   29.1518 H   0  0  0  0  0  0
    2.7230   55.3628   28.1574 H   0  0  0  0  0  0
    2.3894   54.8967   26.4833 H   0  0  0  0  0  0
    1.3830   53.4650   27.7993 H   0  0  0  0  0  0
    2.5916   52.6498   26.7795 H   0  0  0  0  0  0
    6.9906   54.5155   26.5011 H   0  0  0  0  0  0
    7.9043   54.5217   24.3096 H   0  0  0  0  0  0
    3.9884   54.5188   22.5706 H   0  0  0  0  0  0
    3.0383   54.3968   24.7283 H   0  0  0  0  0  0
    7.6938   55.0906   22.1936 H   0  0  0  0  0  0
    7.8050   54.1906   19.5178 H   0  0  0  0  0  0
    8.1968   55.7128   20.1943 H   0  0  0  0  0  0
    5.6869   54.0908   18.0184 H   0  0  0  0  0  0
    5.6344   55.3281   16.8207 H   0  0  0  0  0  0
    8.0458   54.6544   16.1074 H   0  0  0  0  0  0
    8.2721   52.2374   16.1278 H   0  0  0  0  0  0
    6.8435   52.0972   17.2933 H   0  0  0  0  0  0
    4.6115   58.4152   17.5601 H   0  0  0  0  0  0
    4.1379   59.4211   15.3736 H   0  0  0  0  0  0
    5.8000   59.2746   13.5440 H   0  0  0  0  0  0
    7.9695   58.1462   13.9354 H   0  0  0  0  0  0
  1  2  1  0  0  0
  1 40  1  0  0  0
  1 41  1  0  0  0
  1 42  1  0  0  0
  2  7  2  0  0  0
  2  3  1  0  0  0
  3  4  2  0  0  0
  3 43  1  0  0  0
  4  5  1  0  0  0
  4 44  1  0  0  0
  5  6  2  0  0  0
  5 45  1  0  0  0
  6  7  1  0  0  0
  6  8  1  0  0  0
  7 46  1  0  0  0
  8  9  1  0  0  0
  8 47  1  0  0  0
  9 10  2  0  0  0
  9 11  1  0  0  0
 11 16  1  0  0  0
 11 12  1  0  0  0
 12 13  1  0  0  0
 12 48  1  0  0  0
 12 49  1  0  0  0
 13 14  1  0  0  0
 13 50  1  0  0  0
 13 51  1  0  0  0
 14 15  1  0  0  0
 14 17  1  0  0  0
 15 16  1  0  0  0
 15 52  1  0  0  0
 15 53  1  0  0  0
 16 54  1  0  0  0
 16 55  1  0  0  0
 17 22  2  0  0  0
 17 18  1  0  0  0
 18 19  2  0  0  0
 18 56  1  0  0  0
 19 20  1  0  0  0
 19 57  1  0  0  0
 20 21  2  0  0  0
 20 23  1  0  0  0
 21 22  1  0  0  0
 21 58  1  0  0  0
 22 59  1  0  0  0
 23 24  1  0  0  0
 23 60  1  0  0  0
 24 25  2  0  0  0
 24 26  1  0  0  0
 26 27  1  0  0  0
 26 61  1  0  0  0
 26 62  1  0  0  0
 27 28  1  0  0  0
 27 31  1  0  0  0
 28 29  1  0  0  0
 28 63  1  0  0  0
 28 64  1  0  0  0
 29 30  2  0  0  0
 29 65  1  0  0  0
 30 66  1  0  0  0
 30 67  1  0  0  0
 31 32  2  0  0  0
 31 33  1  0  0  0
 33 38  2  0  0  0
 33 34  1  0  0  0
 34 35  2  0  0  0
 34 68  1  0  0  0
 35 36  1  0  0  0
 35 69  1  0  0  0
 36 37  2  0  0  0
 36 70  1  0  0  0
 37 38  1  0  0  0
 37 71  1  0  0  0
 38 39  1  0  0  0
M  END
> <i_i_glide_confnum>
459

> <i_i_glide_lignum>
1036

> <i_i_glide_posenum>
141

> <i_i_glide_rotatable_bonds>
12

> <i_m_Source_File_Index>
4858

> <b_m_subgroup_collapsed>
0

> <r_i_docking_score>
-4.37347

> <r_i_glide_ecoul>
-6.83166

> <r_i_glide_eff_state_penalty>
0

> <r_i_glide_einternal>
9.59253

> <r_i_glide_emodel>
-47.4214

> <r_i_glide_energy>
-47.0688

> <r_i_glide_erotb>
0.808236

> <r_i_glide_esite>
-0.0098061

> <r_i_glide_evdw>
-40.2372

> <r_i_glide_gscore>
-4.37347

> <r_i_glide_hbond>
-0.5177

> <r_i_glide_ligand_efficiency>
-0.11214

> <r_i_glide_ligand_efficiency_ln>
-0.937797

> <r_i_glide_ligand_efficiency_sa>
-0.380292

> <r_i_glide_lipo>
-2.37613

> <r_i_glide_metal>
0

> <r_i_glide_rewards>
0.758531

> <s_i_glide_gridfile>
wee1_glide-grid

> <s_m_Source_File>
wee1_decoys_glide_SP.sdf

> <s_m_Source_Path>
/Users/zhangxujun/Desktop

> <s_m_entry_id>
5133

> <s_m_entry_name>
wee1_decoys_glide_SP.4858

> <s_m_subgroup_title>
wee1_decoys_glide_SP

> <s_m_subgroupid>
wee1_decoys_glide_SP


$$$$
