ZINC10011336_2949
                    3D
 Schrodinger Suite 2024-2.
 58 60  0  0  1  0            999 V2000
    2.5368   55.4122   29.4277 C   0  0  0  0  0  0
    2.2862   53.9528   29.0002 C   0  0  0  0  0  0
    0.8564   53.5117   29.3663 C   0  0  0  0  0  0
    2.5736   53.7319   27.4997 C   0  0  0  0  0  0
    3.9489   53.9964   27.2235 O   0  0  0  0  0  0
    4.3792   54.1059   25.9135 C   0  0  0  0  0  0
    3.5484   53.9294   24.7959 C   0  0  0  0  0  0
    4.0437   54.0965   23.5044 C   0  0  0  0  0  0
    5.3820   54.4715   23.2856 C   0  0  0  0  0  0
    6.2167   54.6128   24.4059 C   0  0  0  0  0  0
    5.7243   54.4303   25.6993 C   0  0  0  0  0  0
    6.9159   54.6296   27.1738 Br  0  0  0  0  0  0
    5.9183   54.7767   21.8981 C   0  0  0  0  0  0
    7.0325   55.2951   21.7768 O   0  0  0  0  0  0
    5.0818   54.4965   20.8623 N   0  0  0  0  0  0
    5.2541   54.5146   19.5009 C   0  0  0  0  0  0
    6.7255   54.4973   18.6779 S   0  0  0  0  0  0
    4.0471   54.5190   18.8567 N   0  0  0  0  0  0
    3.7988   54.5096   17.4768 C   0  0  0  0  0  0
    3.6268   53.2705   16.8486 C   0  0  0  0  0  0
    3.3878   53.2159   15.4774 C   0  0  0  0  0  0
    3.3145   54.3918   14.7370 C   0  0  0  0  0  0
    3.4838   55.6286   15.3632 C   0  0  0  0  0  0
    3.7331   55.7111   16.7471 C   0  0  0  0  0  0
    3.9045   56.8970   17.4494 O   0  0  0  0  0  0
    4.1909   58.1362   16.7855 C   0  0  0  0  0  0
    5.6858   58.5090   16.8909 C   0  0  1  0  0  0
    5.8088   59.4949   16.4385 H   0  0  0  0  0  0
    6.3041   58.4624   18.2891 C   0  0  0  0  0  0
    7.7773   58.2318   18.0300 C   0  0  0  0  0  0
    7.8256   57.6394   16.6184 C   0  0  0  0  0  0
    6.4716   57.5619   16.1746 O   0  0  0  0  0  0
    1.9245   56.1074   28.8508 H   0  0  0  0  0  0
    3.5803   55.6943   29.2806 H   0  0  0  0  0  0
    2.3037   55.5687   30.4819 H   0  0  0  0  0  0
    2.9732   53.3165   29.5607 H   0  0  0  0  0  0
    0.1056   54.0974   28.8336 H   0  0  0  0  0  0
    0.6877   52.4613   29.1248 H   0  0  0  0  0  0
    0.6679   53.6279   30.4344 H   0  0  0  0  0  0
    2.3491   52.7020   27.2138 H   0  0  0  0  0  0
    1.9239   54.3896   26.9201 H   0  0  0  0  0  0
    2.5107   53.6601   24.9066 H   0  0  0  0  0  0
    3.3502   53.9662   22.6859 H   0  0  0  0  0  0
    7.2570   54.8834   24.2813 H   0  0  0  0  0  0
    4.1879   54.1360   21.1530 H   0  0  0  0  0  0
    3.2158   54.5789   19.4290 H   0  0  0  0  0  0
    3.6978   52.3494   17.4113 H   0  0  0  0  0  0
    3.2657   52.2581   14.9920 H   0  0  0  0  0  0
    3.1303   54.3480   13.6717 H   0  0  0  0  0  0
    3.4062   56.5017   14.7384 H   0  0  0  0  0  0
    3.8658   58.2013   15.7511 H   0  0  0  0  0  0
    3.6069   58.9099   17.2815 H   0  0  0  0  0  0
    6.0724   59.3467   18.8815 H   0  0  0  0  0  0
    5.8790   57.6352   18.8595 H   0  0  0  0  0  0
    8.3234   59.1762   18.0633 H   0  0  0  0  0  0
    8.2177   57.5635   18.7713 H   0  0  0  0  0  0
    8.3931   58.2824   15.9444 H   0  0  0  0  0  0
    8.2797   56.6492   16.6044 H   0  0  0  0  0  0
  1  2  1  0  0  0
  1 33  1  0  0  0
  1 34  1  0  0  0
  1 35  1  0  0  0
  2  3  1  0  0  0
  2  4  1  0  0  0
  2 36  1  0  0  0
  3 37  1  0  0  0
  3 38  1  0  0  0
  3 39  1  0  0  0
  4  5  1  0  0  0
  4 40  1  0  0  0
  4 41  1  0  0  0
  5  6  1  0  0  0
  6 11  2  0  0  0
  6  7  1  0  0  0
  7  8  2  0  0  0
  7 42  1  0  0  0
  8  9  1  0  0  0
  8 43  1  0  0  0
  9 10  2  0  0  0
  9 13  1  0  0  0
 10 11  1  0  0  0
 10 44  1  0  0  0
 11 12  1  0  0  0
 13 14  2  0  0  0
 13 15  1  0  0  0
 15 16  1  0  0  0
 15 45  1  0  0  0
 16 17  2  0  0  0
 16 18  1  0  0  0
 18 19  1  0  0  0
 18 46  1  0  0  0
 19 24  2  0  0  0
 19 20  1  0  0  0
 20 21  2  0  0  0
 20 47  1  0  0  0
 21 22  1  0  0  0
 21 48  1  0  0  0
 22 23  2  0  0  0
 22 49  1  0  0  0
 23 24  1  0  0  0
 23 50  1  0  0  0
 24 25  1  0  0  0
 25 26  1  0  0  0
 26 27  1  0  0  0
 26 51  1  0  0  0
 26 52  1  0  0  0
 27 28  1  0  0  0
 27 32  1  0  0  0
 27 29  1  0  0  0
 29 30  1  0  0  0
 29 53  1  0  0  0
 29 54  1  0  0  0
 30 31  1  0  0  0
 30 55  1  0  0  0
 30 56  1  0  0  0
 31 32  1  0  0  0
 31 57  1  0  0  0
 31 58  1  0  0  0
M  END
> <i_i_glide_confnum>
466

> <i_i_glide_lignum>
2950

> <i_i_glide_posenum>
158

> <i_i_glide_rotatable_bonds>
11

> <i_m_Source_File_Index>
247

> <b_m_subgroup_collapsed>
0

> <r_i_docking_score>
-4.98754

> <r_i_glide_ecoul>
-3.68217

> <r_i_glide_eff_state_penalty>
0

> <r_i_glide_einternal>
2.4775

> <r_i_glide_emodel>
-56.6502

> <r_i_glide_energy>
-44.2038

> <r_i_glide_erotb>
0.794833

> <r_i_glide_esite>
-0.010372

> <r_i_glide_evdw>
-40.5216

> <r_i_glide_gscore>
-4.98754

> <r_i_glide_hbond>
-0.317834

> <r_i_glide_ligand_efficiency>
-0.160888

> <r_i_glide_ligand_efficiency_ln>
-1.12484

> <r_i_glide_ligand_efficiency_sa>
-0.505412

> <r_i_glide_lipo>
-2.45352

> <r_i_glide_metal>
0

> <r_i_glide_rewards>
-0.422237

> <s_i_glide_gridfile>
wee1_glide-grid

> <s_m_Source_File>
wee1_decoys_glide_SP.sdf

> <s_m_Source_Path>
/Users/zhangxujun/Desktop

> <s_m_entry_id>
522

> <s_m_entry_name>
wee1_decoys_glide_SP.247

> <s_m_subgroup_title>
wee1_decoys_glide_SP

> <s_m_subgroupid>
wee1_decoys_glide_SP


$$$$
