ZINC59168060_2835
                    3D
 Schrodinger Suite 2024-2.
 46 49  0  0  1  0            999 V2000
    4.4780   54.2921   25.8804 C   0  0  0  0  0  0
    4.2545   54.0969   24.5153 C   0  0  0  0  0  0
    5.2630   54.4087   23.5973 C   0  0  0  0  0  0
    6.4801   54.8981   24.0978 C   0  0  0  0  0  0
    6.7043   55.1046   25.4206 N   0  0  0  0  0  0
    5.7113   54.7985   26.2909 C   0  0  0  0  0  0
    5.0018   54.1865   22.2343 N   0  0  0  0  0  0
    5.5301   54.8214   21.1530 C   0  0  0  0  0  0
    6.3151   55.7603   21.2887 O   0  0  0  0  0  0
    5.0928   54.3370   19.8289 C   0  0  0  0  0  0
    5.4989   54.9437   18.6712 C   0  0  0  0  0  0
    6.4084   56.0866   18.4463 C   0  0  0  0  0  0
    5.8833   57.2758   17.9063 C   0  0  0  0  0  0
    6.7027   58.3883   17.6774 C   0  0  0  0  0  0
    8.0523   58.2728   17.9848 C   0  0  0  0  0  0
    8.5753   57.1140   18.4826 C   0  0  0  0  0  0
    7.7848   55.9945   18.7264 C   0  0  0  0  0  0
    9.9020   57.2897   18.7187 O   0  0  0  0  0  0
   10.2318   58.5500   18.2024 C   0  0  0  0  0  0
    9.0319   59.2127   17.9014 O   0  0  0  0  0  0
    4.2284   53.2526   19.8307 N   0  0  0  0  0  0
    3.2763   52.8909   18.9402 C   0  0  0  0  0  0
    3.0238   53.4915   17.8955 O   0  0  0  0  0  0
    2.4767   51.6672   19.3285 C   0  0  0  0  0  0
    1.9590   50.8366   18.3265 C   0  0  0  0  0  0
    1.2089   49.7122   18.6582 C   0  0  0  0  0  0
    0.9605   49.4168   19.9964 C   0  0  0  0  0  0
    1.4696   50.2303   21.0052 C   0  0  0  0  0  0
    2.2222   51.3540   20.6746 C   0  0  0  0  0  0
   -0.0956   47.8984   20.4480 Br  0  0  0  0  0  0
    3.7151   54.0493   26.6041 H   0  0  0  0  0  0
    3.3027   53.7098   24.1855 H   0  0  0  0  0  0
    7.3097   55.1342   23.4466 H   0  0  0  0  0  0
    5.9232   54.9696   27.3370 H   0  0  0  0  0  0
    4.2201   53.5809   22.0513 H   0  0  0  0  0  0
    5.1423   54.5480   17.7327 H   0  0  0  0  0  0
    4.8293   57.3492   17.6757 H   0  0  0  0  0  0
    6.2838   59.2969   17.2779 H   0  0  0  0  0  0
    8.2072   55.0905   19.1385 H   0  0  0  0  0  0
   10.8169   58.4178   17.2888 H   0  0  0  0  0  0
   10.8000   59.1074   18.9495 H   0  0  0  0  0  0
    4.3384   52.6142   20.5997 H   0  0  0  0  0  0
    2.1541   51.0441   17.2834 H   0  0  0  0  0  0
    0.8236   49.0718   17.8780 H   0  0  0  0  0  0
    1.2718   49.9935   22.0398 H   0  0  0  0  0  0
    2.5815   51.9802   21.4770 H   0  0  0  0  0  0
  1  6  2  0  0  0
  1  2  1  0  0  0
  1 31  1  0  0  0
  2  3  2  0  0  0
  2 32  1  0  0  0
  3  4  1  0  0  0
  3  7  1  0  0  0
  4  5  2  0  0  0
  4 33  1  0  0  0
  5  6  1  0  0  0
  6 34  1  0  0  0
  7  8  1  0  0  0
  7 35  1  0  0  0
  8  9  2  0  0  0
  8 10  1  0  0  0
 10 11  2  0  0  0
 10 21  1  0  0  0
 11 12  1  0  0  0
 11 36  1  0  0  0
 12 17  2  0  0  0
 12 13  1  0  0  0
 13 14  2  0  0  0
 13 37  1  0  0  0
 14 15  1  0  0  0
 14 38  1  0  0  0
 15 20  1  0  0  0
 15 16  2  0  0  0
 16 17  1  0  0  0
 16 18  1  0  0  0
 17 39  1  0  0  0
 18 19  1  0  0  0
 19 20  1  0  0  0
 19 40  1  0  0  0
 19 41  1  0  0  0
 21 22  1  0  0  0
 21 42  1  0  0  0
 22 23  2  0  0  0
 22 24  1  0  0  0
 24 29  2  0  0  0
 24 25  1  0  0  0
 25 26  2  0  0  0
 25 43  1  0  0  0
 26 27  1  0  0  0
 26 44  1  0  0  0
 27 28  2  0  0  0
 27 30  1  0  0  0
 28 29  1  0  0  0
 28 45  1  0  0  0
 29 46  1  0  0  0
M  END
> <i_i_glide_confnum>
1

> <i_i_glide_lignum>
2836

> <i_i_glide_posenum>
119

> <i_i_glide_rotatable_bonds>
7

> <i_m_Source_File_Index>
5725

> <b_m_subgroup_collapsed>
0

> <r_i_docking_score>
-4.99684

> <r_i_glide_ecoul>
-3.1976

> <r_i_glide_eff_state_penalty>
0

> <r_i_glide_einternal>
5.7938

> <r_i_glide_emodel>
-50.1089

> <r_i_glide_energy>
-40.5041

> <r_i_glide_erotb>
0.371143

> <r_i_glide_esite>
-0.0617214

> <r_i_glide_evdw>
-37.3065

> <r_i_glide_gscore>
-4.99684

> <r_i_glide_hbond>
-0.212065

> <r_i_glide_ligand_efficiency>
-0.166561

> <r_i_glide_ligand_efficiency_ln>
-1.13534

> <r_i_glide_ligand_efficiency_sa>
-0.517544

> <r_i_glide_lipo>
-1.47036

> <r_i_glide_metal>
0

> <r_i_glide_rewards>
-1.27887

> <s_i_glide_gridfile>
wee1_glide-grid

> <s_m_Source_File>
wee1_decoys_glide_SP.sdf

> <s_m_Source_Path>
/Users/zhangxujun/Desktop

> <s_m_entry_id>
6000

> <s_m_entry_name>
wee1_decoys_glide_SP.5725

> <s_m_subgroup_title>
wee1_decoys_glide_SP

> <s_m_subgroupid>
wee1_decoys_glide_SP


$$$$
