ZINC35755521_1038
                    3D
 Schrodinger Suite 2024-2.
 66 70  0  0  1  0            999 V2000
   -5.4535   43.0378   26.6246 C   0  0  0  0  0  0
   -5.0967   44.4122   26.0845 C   0  0  0  0  0  0
   -5.4540   44.7803   24.7856 C   0  0  0  0  0  0
   -5.0833   46.0289   24.2862 C   0  0  0  0  0  0
   -4.3523   46.9136   25.0856 C   0  0  0  0  0  0
   -4.0073   46.5486   26.3920 C   0  0  0  0  0  0
   -4.3752   45.2997   26.8849 C   0  0  0  0  0  0
   -3.9330   48.2703   24.5135 C   0  0  0  0  0  0
   -2.6085   48.7673   24.9160 N   0  0  0  0  0  0
   -2.3167   50.1592   25.2530 C   0  0  1  0  0  0
   -3.0213   50.5278   25.9969 H   0  0  0  0  0  0
   -0.9090   50.0004   25.8429 C   0  0  1  0  0  0
   -1.0178   49.6978   26.8816 H   0  0  0  0  0  0
   -0.4237   48.8611   25.1586 O   0  0  0  0  0  0
   -1.4236   48.0362   24.7737 C   0  0  0  0  0  0
   -1.2375   46.8967   24.3544 O   0  0  0  0  0  0
    0.0702   51.1774   25.8603 C   0  0  0  0  0  0
    0.3143   51.8547   27.0566 C   0  0  0  0  0  0
    1.2292   52.9049   27.0950 C   0  0  0  0  0  0
    1.9014   53.2964   25.9346 C   0  0  0  0  0  0
    1.6639   52.6256   24.7237 C   0  0  0  0  0  0
    0.7469   51.5699   24.6999 C   0  0  0  0  0  0
    2.3034   52.9084   23.5030 N   0  0  0  0  0  0
    3.3503   53.7210   23.2427 C   0  0  0  0  0  0
    3.8723   54.4857   24.0542 O   0  0  0  0  0  0
    3.8703   53.6288   21.8963 C   0  0  0  0  0  0
    4.8347   54.4596   21.3184 C   0  0  0  0  0  0
    5.1569   54.1074   20.0052 C   0  0  0  0  0  0
    4.4765   52.9819   19.5718 C   0  0  0  0  0  0
    3.4249   52.3429   20.7917 S   0  0  0  0  0  0
   -2.3811   51.1472   24.0570 C   0  0  0  0  0  0
   -2.6301   52.3322   24.2694 O   0  0  0  0  0  0
   -2.0905   50.6716   22.8304 N   0  0  0  0  0  0
   -1.9383   51.4733   21.6143 C   0  0  0  0  0  0
   -2.8806   51.0082   20.4918 C   0  0  2  0  0  0
   -3.9016   50.8957   20.8678 H   0  0  0  0  0  0
   -2.3569   49.8891   19.5862 C   0  0  0  0  0  0
   -2.9557   50.1761   18.2259 C   0  0  0  0  0  0
   -3.3775   51.6416   18.3048 C   0  0  0  0  0  0
   -2.9139   52.0965   19.5726 O   0  0  0  0  0  0
   -4.6536   42.6533   27.2622 H   0  0  0  0  0  0
   -6.3677   43.0784   27.2158 H   0  0  0  0  0  0
   -5.5840   42.3104   25.8232 H   0  0  0  0  0  0
   -6.0224   44.1048   24.1644 H   0  0  0  0  0  0
   -5.3652   46.3047   23.2798 H   0  0  0  0  0  0
   -3.4421   47.2222   27.0215 H   0  0  0  0  0  0
   -4.0929   45.0227   27.8879 H   0  0  0  0  0  0
   -4.6816   49.0026   24.8171 H   0  0  0  0  0  0
   -3.9693   48.2379   23.4241 H   0  0  0  0  0  0
   -0.1906   51.5533   27.9660 H   0  0  0  0  0  0
    1.4214   53.4191   28.0225 H   0  0  0  0  0  0
    2.5977   54.1172   26.0099 H   0  0  0  0  0  0
    0.5696   51.0317   23.7780 H   0  0  0  0  0  0
    1.9829   52.3579   22.7232 H   0  0  0  0  0  0
    5.2844   55.2964   21.8270 H   0  0  0  0  0  0
    5.8692   54.6441   19.3952 H   0  0  0  0  0  0
    4.5519   52.4957   18.6105 H   0  0  0  0  0  0
   -1.8393   49.6972   22.7584 H   0  0  0  0  0  0
   -2.0973   52.5334   21.8196 H   0  0  0  0  0  0
   -0.8970   51.3962   21.2983 H   0  0  0  0  0  0
   -1.2673   49.9194   19.5333 H   0  0  0  0  0  0
   -2.6032   48.9021   19.9812 H   0  0  0  0  0  0
   -2.2344   50.0024   17.4268 H   0  0  0  0  0  0
   -3.8226   49.5423   18.0371 H   0  0  0  0  0  0
   -2.9511   52.2479   17.5054 H   0  0  0  0  0  0
   -4.4611   51.7576   18.2503 H   0  0  0  0  0  0
  1  2  1  0  0  0
  1 41  1  0  0  0
  1 42  1  0  0  0
  1 43  1  0  0  0
  2  7  2  0  0  0
  2  3  1  0  0  0
  3  4  2  0  0  0
  3 44  1  0  0  0
  4  5  1  0  0  0
  4 45  1  0  0  0
  5  6  2  0  0  0
  5  8  1  0  0  0
  6  7  1  0  0  0
  6 46  1  0  0  0
  7 47  1  0  0  0
  8  9  1  0  0  0
  8 48  1  0  0  0
  8 49  1  0  0  0
  9 15  1  0  0  0
  9 10  1  0  0  0
 10 11  1  0  0  0
 10 12  1  0  0  0
 10 31  1  0  0  0
 12 13  1  0  0  0
 12 14  1  0  0  0
 12 17  1  0  0  0
 14 15  1  0  0  0
 15 16  2  0  0  0
 17 22  2  0  0  0
 17 18  1  0  0  0
 18 19  2  0  0  0
 18 50  1  0  0  0
 19 20  1  0  0  0
 19 51  1  0  0  0
 20 21  2  0  0  0
 20 52  1  0  0  0
 21 22  1  0  0  0
 21 23  1  0  0  0
 22 53  1  0  0  0
 23 24  1  0  0  0
 23 54  1  0  0  0
 24 25  2  0  0  0
 24 26  1  0  0  0
 26 30  1  0  0  0
 26 27  2  0  0  0
 27 28  1  0  0  0
 27 55  1  0  0  0
 28 29  2  0  0  0
 28 56  1  0  0  0
 29 30  1  0  0  0
 29 57  1  0  0  0
 31 32  2  0  0  0
 31 33  1  0  0  0
 33 34  1  0  0  0
 33 58  1  0  0  0
 34 35  1  0  0  0
 34 59  1  0  0  0
 34 60  1  0  0  0
 35 36  1  0  0  0
 35 40  1  0  0  0
 35 37  1  0  0  0
 37 38  1  0  0  0
 37 61  1  0  0  0
 37 62  1  0  0  0
 38 39  1  0  0  0
 38 63  1  0  0  0
 38 64  1  0  0  0
 39 40  1  0  0  0
 39 65  1  0  0  0
 39 66  1  0  0  0
M  END
> <i_i_glide_confnum>
117

> <i_i_glide_lignum>
1039

> <i_i_glide_posenum>
45

> <i_i_glide_rotatable_bonds>
10

> <i_m_Source_File_Index>
3407

> <b_m_subgroup_collapsed>
0

> <r_i_docking_score>
-3.86014

> <r_i_glide_ecoul>
-7.56108

> <r_i_glide_eff_state_penalty>
0

> <r_i_glide_einternal>
10.7341

> <r_i_glide_emodel>
-53.8741

> <r_i_glide_energy>
-46.6226

> <r_i_glide_erotb>
0.68487

> <r_i_glide_esite>
-0.104077

> <r_i_glide_evdw>
-39.0615

> <r_i_glide_gscore>
-3.86014

> <r_i_glide_hbond>
-0.333785

> <r_i_glide_ligand_efficiency>
-0.104328

> <r_i_glide_ligand_efficiency_ln>
-0.837173

> <r_i_glide_ligand_efficiency_sa>
-0.347644

> <r_i_glide_lipo>
-0.746918

> <r_i_glide_metal>
0

> <r_i_glide_rewards>
-0.27299

> <s_i_glide_gridfile>
wee1_glide-grid

> <s_m_Source_File>
wee1_decoys_glide_SP.sdf

> <s_m_Source_Path>
/Users/zhangxujun/Desktop

> <s_m_entry_id>
3682

> <s_m_entry_name>
wee1_decoys_glide_SP.3407

> <s_m_subgroup_title>
wee1_decoys_glide_SP

> <s_m_subgroupid>
wee1_decoys_glide_SP


$$$$
