ZINC38597410_583
                    3D
 Schrodinger Suite 2024-2.
 65 68  0  0  1  0            999 V2000
   -2.4729   49.4680   20.3695 C   0  0  0  0  0  0
   -1.1048   50.1771   20.4662 C   0  0  2  0  0  0
   -0.3514   49.3868   20.4735 H   0  0  0  0  0  0
   -0.9357   50.9820   21.8058 C   0  0  1  0  0  0
   -1.8022   51.6477   21.8251 H   0  0  0  0  0  0
   -0.9902   50.0835   23.0431 C   0  0  0  0  0  0
   -0.1610   49.0268   23.4295 C   0  0  0  0  0  0
   -0.4549   48.4908   24.6853 C   0  0  0  0  0  0
   -1.5387   49.1036   25.2816 C   0  0  0  0  0  0
   -2.1861   50.3588   24.2844 S   0  0  0  0  0  0
    0.2276   51.8948   21.8260 N   0  0  0  0  0  0
    1.5294   51.2732   21.5189 C   0  0  0  0  0  0
    2.6466   52.3319   21.3825 C   0  0  0  0  0  0
    2.7122   53.1722   22.6806 N   0  3  0  0  0  0
    1.3269   53.8153   22.9303 C   0  0  0  0  0  0
    0.2802   52.6981   23.0595 C   0  0  0  0  0  0
    3.8305   54.2436   22.6245 C   0  0  0  0  0  0
    4.6575   54.3437   23.9030 C   0  0  0  0  0  0
    6.0512   54.3823   23.8110 C   0  0  0  0  0  0
    6.8226   54.4829   24.9649 C   0  0  0  0  0  0
    6.2063   54.5361   26.2135 C   0  0  0  0  0  0
    4.8189   54.4977   26.3141 C   0  0  0  0  0  0
    4.0439   54.4145   25.1605 C   0  0  0  0  0  0
   -0.8173   50.9462   19.2412 N   0  0  0  0  0  0
   -1.3964   52.0967   18.8528 C   0  0  0  0  0  0
   -2.4807   52.4966   19.2824 O   0  0  0  0  0  0
   -0.5909   52.7736   18.0091 N   0  0  0  0  0  0
   -0.8112   54.0149   17.3833 C   0  0  0  0  0  0
   -2.0772   54.5925   17.2110 C   0  0  0  0  0  0
   -2.1965   55.8293   16.5821 C   0  0  0  0  0  0
   -1.0616   56.5016   16.1222 C   0  0  0  0  0  0
    0.1998   55.9233   16.2968 C   0  0  0  0  0  0
    0.3212   54.6810   16.9120 C   0  0  0  0  0  0
   -1.2092   57.8593   15.4383 C   0  0  0  0  0  0
   -0.0564   58.5301   15.3884 F   0  0  0  0  0  0
   -2.0964   58.6177   16.0820 F   0  0  0  0  0  0
   -1.6401   57.6727   14.1906 F   0  0  0  0  0  0
   -2.6811   48.8843   21.2642 H   0  0  0  0  0  0
   -3.2897   50.1813   20.2805 H   0  0  0  0  0  0
   -2.5076   48.7784   19.5231 H   0  0  0  0  0  0
    0.6632   48.6741   22.8300 H   0  0  0  0  0  0
    0.1091   47.6973   25.1519 H   0  0  0  0  0  0
   -1.9703   48.8939   26.2552 H   0  0  0  0  0  0
    1.7834   50.6112   22.3470 H   0  0  0  0  0  0
    1.4985   50.6893   20.6011 H   0  0  0  0  0  0
    2.4840   53.0130   20.5452 H   0  0  0  0  0  0
    3.6172   51.8376   21.2880 H   0  0  0  0  0  0
    1.1067   54.4760   22.0902 H   0  0  0  0  0  0
    1.3770   54.3945   23.8507 H   0  0  0  0  0  0
   -0.6957   53.1387   23.2810 H   0  0  0  0  0  0
    0.5493   52.0493   23.8934 H   0  0  0  0  0  0
    4.4724   53.9832   21.7801 H   0  0  0  0  0  0
    3.3618   55.1971   22.3801 H   0  0  0  0  0  0
    6.5514   54.3325   22.8513 H   0  0  0  0  0  0
    7.9011   54.5043   24.8828 H   0  0  0  0  0  0
    6.8042   54.6040   27.1147 H   0  0  0  0  0  0
    4.3434   54.5448   27.2838 H   0  0  0  0  0  0
    2.9706   54.3976   25.2691 H   0  0  0  0  0  0
   -0.0870   50.5737   18.6567 H   0  0  0  0  0  0
    0.3334   52.3934   17.8680 H   0  0  0  0  0  0
   -2.9782   54.0897   17.5313 H   0  0  0  0  0  0
   -3.1783   56.2611   16.4454 H   0  0  0  0  0  0
    1.0905   56.4291   15.9513 H   0  0  0  0  0  0
    1.3062   54.2536   17.0397 H   0  0  0  0  0  0
    2.9192   52.5565   23.4540 H   0  0  0  0  0  0
  1  2  1  0  0  0
  1 38  1  0  0  0
  1 39  1  0  0  0
  1 40  1  0  0  0
  2  3  1  0  0  0
  2  4  1  0  0  0
  2 24  1  0  0  0
  4  5  1  0  0  0
  4  6  1  0  0  0
  4 11  1  0  0  0
  6 10  1  0  0  0
  6  7  2  0  0  0
  7  8  1  0  0  0
  7 41  1  0  0  0
  8  9  2  0  0  0
  8 42  1  0  0  0
  9 10  1  0  0  0
  9 43  1  0  0  0
 11 16  1  0  0  0
 11 12  1  0  0  0
 12 13  1  0  0  0
 12 44  1  0  0  0
 12 45  1  0  0  0
 13 14  1  0  0  0
 13 46  1  0  0  0
 13 47  1  0  0  0
 14 15  1  0  0  0
 14 17  1  0  0  0
 14 65  1  0  0  0
 15 16  1  0  0  0
 15 48  1  0  0  0
 15 49  1  0  0  0
 16 50  1  0  0  0
 16 51  1  0  0  0
 17 18  1  0  0  0
 17 52  1  0  0  0
 17 53  1  0  0  0
 18 23  2  0  0  0
 18 19  1  0  0  0
 19 20  2  0  0  0
 19 54  1  0  0  0
 20 21  1  0  0  0
 20 55  1  0  0  0
 21 22  2  0  0  0
 21 56  1  0  0  0
 22 23  1  0  0  0
 22 57  1  0  0  0
 23 58  1  0  0  0
 24 25  1  0  0  0
 24 59  1  0  0  0
 25 26  2  0  0  0
 25 27  1  0  0  0
 27 28  1  0  0  0
 27 60  1  0  0  0
 28 33  2  0  0  0
 28 29  1  0  0  0
 29 30  2  0  0  0
 29 61  1  0  0  0
 30 31  1  0  0  0
 30 62  1  0  0  0
 31 32  2  0  0  0
 31 34  1  0  0  0
 32 33  1  0  0  0
 32 63  1  0  0  0
 33 64  1  0  0  0
 34 35  1  0  0  0
 34 36  1  0  0  0
 34 37  1  0  0  0
M  CHG  1  14   1
M  END
> <i_i_glide_confnum>
158

> <i_i_glide_lignum>
584

> <i_i_glide_posenum>
147

> <i_i_glide_rotatable_bonds>
10

> <i_m_Source_File_Index>
4079

> <b_m_subgroup_collapsed>
0

> <r_i_docking_score>
-4.6309

> <r_i_glide_ecoul>
-8.32502

> <r_i_glide_eff_state_penalty>
0

> <r_i_glide_einternal>
8.06544

> <r_i_glide_emodel>
-51.3546

> <r_i_glide_energy>
-41.8869

> <r_i_glide_erotb>
0.725383

> <r_i_glide_esite>
-0.0712021

> <r_i_glide_evdw>
-33.5619

> <r_i_glide_gscore>
-4.6309

> <r_i_glide_hbond>
-0.32

> <r_i_glide_ligand_efficiency>
-0.132311

> <r_i_glide_ligand_efficiency_ln>
-1.01658

> <r_i_glide_ligand_efficiency_sa>
-0.432799

> <r_i_glide_lipo>
-1.99225

> <r_i_glide_metal>
0

> <r_i_glide_rewards>
-0.0459802

> <s_i_glide_gridfile>
wee1_glide-grid

> <s_m_Source_File>
wee1_decoys_glide_SP.sdf

> <s_m_Source_Path>
/Users/zhangxujun/Desktop

> <s_m_entry_id>
4354

> <s_m_entry_name>
wee1_decoys_glide_SP.4079

> <s_m_subgroup_title>
wee1_decoys_glide_SP

> <s_m_subgroupid>
wee1_decoys_glide_SP


$$$$
