ZINC32832440_2768
                    3D
 Schrodinger Suite 2024-2.
 52 55  0  0  1  0            999 V2000
    6.1054   55.0886   19.9859 C   0  0  0  0  0  0
    5.9042   54.8936   21.4770 C   0  0  0  0  0  0
    4.7401   54.2853   21.9466 C   0  0  0  0  0  0
    4.5581   54.0967   23.3150 C   0  0  0  0  0  0
    5.5419   54.4969   24.2311 C   0  0  0  0  0  0
    6.7043   55.1011   23.7437 C   0  0  0  0  0  0
    6.8891   55.2958   22.3771 C   0  0  0  0  0  0
    5.3361   54.2974   25.7064 C   0  0  0  0  0  0
    4.2028   53.9013   26.2289 N   0  0  0  0  0  0
    4.2406   53.7426   27.5475 C   0  0  0  0  0  0
    5.4623   54.0950   28.1268 C   0  0  0  0  0  0
    6.5981   54.5242   26.8827 S   0  0  0  0  0  0
    3.0591   53.2836   28.2648 C   0  0  0  0  0  0
    2.9683   53.4205   29.4870 O   0  0  0  0  0  0
    2.1306   52.7032   27.4682 N   0  0  0  0  0  0
    0.8455   52.2173   27.7383 C   0  0  0  0  0  0
    0.2835   52.1024   29.0152 C   0  0  0  0  0  0
   -1.0420   51.6967   29.1483 C   0  0  0  0  0  0
   -1.8198   51.4309   28.0101 C   0  0  0  0  0  0
   -1.2217   51.4526   26.7472 C   0  0  0  0  0  0
    0.1035   51.8493   26.6147 C   0  0  0  0  0  0
   -3.2174   51.2009   28.1315 N   0  0  0  0  0  0
   -4.2516   51.6964   27.3518 C   0  0  0  0  0  0
   -5.4114   51.2249   27.9513 C   0  0  0  0  0  0
   -5.0037   50.4933   29.0680 C   0  0  0  0  0  0
   -3.6955   50.4966   29.1740 N   0  0  0  0  0  0
   -5.8395   49.7680   30.0940 C   0  0  0  0  0  0
   -4.0610   52.5332   26.2604 N   0  0  0  0  0  0
   -4.9041   53.5188   25.8941 C   0  0  0  0  0  0
   -5.9441   53.8180   26.4802 O   0  0  0  0  0  0
   -4.4952   54.3317   24.6737 C   0  0  0  0  0  0
    5.7727   54.2045   19.4398 H   0  0  0  0  0  0
    5.5264   55.9413   19.6300 H   0  0  0  0  0  0
    7.1567   55.2371   19.7352 H   0  0  0  0  0  0
    3.9724   53.9683   21.2546 H   0  0  0  0  0  0
    3.6453   53.6303   23.6553 H   0  0  0  0  0  0
    7.4854   55.4275   24.4133 H   0  0  0  0  0  0
    7.8031   55.7541   22.0268 H   0  0  0  0  0  0
    5.7492   54.0933   29.1683 H   0  0  0  0  0  0
    2.3862   52.6584   26.4944 H   0  0  0  0  0  0
    0.8404   52.3420   29.9071 H   0  0  0  0  0  0
   -1.4680   51.6318   30.1402 H   0  0  0  0  0  0
   -1.7789   51.1832   25.8625 H   0  0  0  0  0  0
    0.5361   51.8964   25.6254 H   0  0  0  0  0  0
   -6.4265   51.4072   27.6307 H   0  0  0  0  0  0
   -6.9067   49.8609   29.8921 H   0  0  0  0  0  0
   -5.6077   48.7026   30.1166 H   0  0  0  0  0  0
   -5.6670   50.1532   31.0995 H   0  0  0  0  0  0
   -3.1611   52.4919   25.8093 H   0  0  0  0  0  0
   -3.7421   53.8192   24.0753 H   0  0  0  0  0  0
   -4.0961   55.2956   24.9858 H   0  0  0  0  0  0
   -5.3699   54.5098   24.0496 H   0  0  0  0  0  0
  1  2  1  0  0  0
  1 32  1  0  0  0
  1 33  1  0  0  0
  1 34  1  0  0  0
  2  7  2  0  0  0
  2  3  1  0  0  0
  3  4  2  0  0  0
  3 35  1  0  0  0
  4  5  1  0  0  0
  4 36  1  0  0  0
  5  6  2  0  0  0
  5  8  1  0  0  0
  6  7  1  0  0  0
  6 37  1  0  0  0
  7 38  1  0  0  0
  8 12  1  0  0  0
  8  9  2  0  0  0
  9 10  1  0  0  0
 10 11  2  0  0  0
 10 13  1  0  0  0
 11 12  1  0  0  0
 11 39  1  0  0  0
 13 14  2  0  0  0
 13 15  1  0  0  0
 15 16  1  0  0  0
 15 40  1  0  0  0
 16 21  2  0  0  0
 16 17  1  0  0  0
 17 18  2  0  0  0
 17 41  1  0  0  0
 18 19  1  0  0  0
 18 42  1  0  0  0
 19 20  2  0  0  0
 19 22  1  0  0  0
 20 21  1  0  0  0
 20 43  1  0  0  0
 21 44  1  0  0  0
 22 26  1  0  0  0
 22 23  1  0  0  0
 23 24  2  0  0  0
 23 28  1  0  0  0
 24 25  1  0  0  0
 24 45  1  0  0  0
 25 26  2  0  0  0
 25 27  1  0  0  0
 27 46  1  0  0  0
 27 47  1  0  0  0
 27 48  1  0  0  0
 28 29  1  0  0  0
 28 49  1  0  0  0
 29 30  2  0  0  0
 29 31  1  0  0  0
 31 50  1  0  0  0
 31 51  1  0  0  0
 31 52  1  0  0  0
M  END
> <i_i_glide_confnum>
61

> <i_i_glide_lignum>
2769

> <i_i_glide_posenum>
141

> <i_i_glide_rotatable_bonds>
7

> <i_m_Source_File_Index>
806

> <b_m_subgroup_collapsed>
0

> <r_i_docking_score>
-5.94222

> <r_i_glide_ecoul>
-2.46824

> <r_i_glide_eff_state_penalty>
0

> <r_i_glide_einternal>
1.25642

> <r_i_glide_emodel>
-70.5852

> <r_i_glide_energy>
-51.2041

> <r_i_glide_erotb>
0.640933

> <r_i_glide_esite>
-0.0769018

> <r_i_glide_evdw>
-48.7358

> <r_i_glide_gscore>
-5.94222

> <r_i_glide_hbond>
0

> <r_i_glide_ligand_efficiency>
-0.191685

> <r_i_glide_ligand_efficiency_ln>
-1.34015

> <r_i_glide_ligand_efficiency_sa>
-0.602154

> <r_i_glide_lipo>
-2.7304

> <r_i_glide_metal>
0

> <r_i_glide_rewards>
-0.968826

> <s_i_glide_gridfile>
wee1_glide-grid

> <s_m_Source_File>
wee1_decoys_glide_SP.sdf

> <s_m_Source_Path>
/Users/zhangxujun/Desktop

> <s_m_entry_id>
1081

> <s_m_entry_name>
wee1_decoys_glide_SP.806

> <s_m_subgroup_title>
wee1_decoys_glide_SP

> <s_m_subgroupid>
wee1_decoys_glide_SP


$$$$
