ZINC37404712_1631
                    3D
 Schrodinger Suite 2024-2.
 37 37  0  0  1  0            999 V2000
    5.5061   54.7251   28.5580 C   0  0  0  0  0  0
    4.3425   54.2509   27.7175 C   0  0  0  0  0  0
    4.2567   54.4962   26.3408 C   0  0  0  0  0  0
    3.1703   53.9113   25.7140 C   0  0  0  0  0  0
    2.1333   53.1357   26.8784 S   0  0  0  0  0  0
    3.2364   53.5113   28.1773 C   0  0  0  0  0  0
    2.9157   53.0310   29.5294 C   0  0  0  0  0  0
    3.5048   53.5882   30.4816 O   0  0  0  0  0  0
    2.0907   52.0974   29.6513 O   0  5  0  0  0  0
    2.9807   53.9007   24.3403 N   0  0  0  0  0  0
    2.1003   53.1774   23.6185 C   0  0  0  0  0  0
    1.1337   52.5767   24.0926 O   0  0  0  0  0  0
    2.3552   53.1520   22.0768 C   0  0  1  0  0  0
    2.3038   54.1918   21.7684 H   0  0  0  0  0  0
    3.7899   52.6165   21.6838 C   0  0  0  0  0  0
    3.9748   52.4842   20.1537 C   0  0  0  0  0  0
    4.9809   53.4430   22.2215 C   0  0  0  0  0  0
    1.2777   52.4966   21.3116 N   0  0  0  0  0  0
    0.9771   51.1851   21.3021 C   0  0  0  0  0  0
    1.5921   50.3318   21.9389 O   0  0  0  0  0  0
   -0.1940   50.7699   20.4215 C   0  0  0  0  0  0
    5.1754   55.2966   29.4242 H   0  0  0  0  0  0
    6.0591   53.8798   28.9648 H   0  0  0  0  0  0
    6.2126   55.3423   28.0044 H   0  0  0  0  0  0
    5.0182   55.0396   25.8011 H   0  0  0  0  0  0
    3.6985   54.3696   23.8091 H   0  0  0  0  0  0
    3.9012   51.6054   22.0787 H   0  0  0  0  0  0
    3.8141   53.4395   19.6544 H   0  0  0  0  0  0
    4.9790   52.1442   19.8979 H   0  0  0  0  0  0
    3.2905   51.7586   19.7158 H   0  0  0  0  0  0
    4.8283   54.5112   22.0630 H   0  0  0  0  0  0
    5.1748   53.2684   23.2789 H   0  0  0  0  0  0
    5.9041   53.1778   21.7117 H   0  0  0  0  0  0
    0.7450   53.1241   20.7288 H   0  0  0  0  0  0
    0.0903   50.8232   19.3690 H   0  0  0  0  0  0
   -1.0567   51.4169   20.5877 H   0  0  0  0  0  0
   -0.4886   49.7422   20.6430 H   0  0  0  0  0  0
  1  2  1  0  0  0
  1 22  1  0  0  0
  1 23  1  0  0  0
  1 24  1  0  0  0
  2  6  2  0  0  0
  2  3  1  0  0  0
  3  4  2  0  0  0
  3 25  1  0  0  0
  4  5  1  0  0  0
  4 10  1  0  0  0
  5  6  1  0  0  0
  6  7  1  0  0  0
  7  8  2  0  0  0
  7  9  1  0  0  0
 10 11  1  0  0  0
 10 26  1  0  0  0
 11 12  2  0  0  0
 11 13  1  0  0  0
 13 14  1  0  0  0
 13 15  1  0  0  0
 13 18  1  0  0  0
 15 16  1  0  0  0
 15 17  1  0  0  0
 15 27  1  0  0  0
 16 28  1  0  0  0
 16 29  1  0  0  0
 16 30  1  0  0  0
 17 31  1  0  0  0
 17 32  1  0  0  0
 17 33  1  0  0  0
 18 19  1  0  0  0
 18 34  1  0  0  0
 19 20  2  0  0  0
 19 21  1  0  0  0
 21 35  1  0  0  0
 21 36  1  0  0  0
 21 37  1  0  0  0
M  CHG  1   9  -1
M  END
> <i_i_glide_confnum>
1

> <i_i_glide_lignum>
1632

> <i_i_glide_posenum>
139

> <i_i_glide_rotatable_bonds>
7

> <i_m_Source_File_Index>
1800

> <b_m_subgroup_collapsed>
0

> <r_i_docking_score>
-5.11054

> <r_i_glide_ecoul>
-6.21798

> <r_i_glide_eff_state_penalty>
0

> <r_i_glide_einternal>
0.837164

> <r_i_glide_emodel>
-47.4429

> <r_i_glide_energy>
-33.8571

> <r_i_glide_erotb>
0.829435

> <r_i_glide_esite>
-0.0213653

> <r_i_glide_evdw>
-27.6392

> <r_i_glide_gscore>
-5.11054

> <r_i_glide_hbond>
-0.253473

> <r_i_glide_ligand_efficiency>
-0.255527

> <r_i_glide_ligand_efficiency_ln>
-1.279

> <r_i_glide_ligand_efficiency_sa>
-0.693607

> <r_i_glide_lipo>
-1.4787

> <r_i_glide_metal>
0

> <r_i_glide_rewards>
-1.87178

> <s_i_glide_gridfile>
wee1_glide-grid

> <s_m_Source_File>
wee1_decoys_glide_SP.sdf

> <s_m_Source_Path>
/Users/zhangxujun/Desktop

> <s_m_entry_id>
2075

> <s_m_entry_name>
wee1_decoys_glide_SP.1800

> <s_m_subgroup_title>
wee1_decoys_glide_SP

> <s_m_subgroupid>
wee1_decoys_glide_SP


$$$$
