ZINC12864958_419
                    3D
 Schrodinger Suite 2024-2.
 53 57  0  0  1  0            999 V2000
    5.0376   52.2109   21.2219 C   0  0  0  0  0  0
    4.6510   53.6986   21.3119 C   0  0  2  0  0  0
    4.2265   53.9620   20.3417 H   0  0  0  0  0  0
    5.8481   54.6539   21.5208 C   0  0  0  0  0  0
    6.5543   54.4495   22.8854 C   0  0  0  0  0  0
    5.4916   54.3737   23.9738 C   0  0  0  0  0  0
    4.1298   54.1386   23.7452 C   0  0  0  0  0  0
    3.4201   54.0044   24.9436 C   0  0  0  0  0  0
    4.1964   54.1700   26.0854 C   0  0  0  0  0  0
    5.8512   54.4972   25.6703 S   0  0  0  0  0  0
    3.7448   54.0610   27.4557 C   0  0  0  0  0  0
    4.3627   54.3906   28.5664 N   0  0  0  0  0  0
    3.4921   54.0556   29.6041 N   0  0  0  0  0  0
    2.4472   53.5098   29.0299 C   0  0  0  0  0  0
    2.5272   53.5136   27.6795 O   0  0  0  0  0  0
    0.9748   52.8960   29.7741 S   0  0  0  0  0  0
    0.6655   51.4775   28.6646 C   0  0  0  0  0  0
   -0.3825   51.7595   27.5878 C   0  0  0  0  0  0
   -0.0503   52.3941   26.5879 O   0  0  0  0  0  0
   -1.6263   51.3002   27.8509 N   0  0  0  0  0  0
   -2.7927   51.4567   27.0983 C   0  0  0  0  0  0
   -4.1167   51.2544   27.5692 C   0  0  0  0  0  0
   -5.0540   51.6299   26.5848 C   0  0  0  0  0  0
   -4.4879   51.9863   25.3843 C   0  0  0  0  0  0
   -2.7670   51.9871   25.4208 S   0  0  0  0  0  0
   -5.5060   52.2979   24.3241 C   0  0  0  0  0  0
   -6.8027   51.8090   24.9872 C   0  0  0  0  0  0
   -6.5540   51.7631   26.5041 C   0  0  0  0  0  0
   -4.5208   50.8957   28.9149 C   0  0  0  0  0  0
   -5.5402   51.3422   29.4357 O   0  0  0  0  0  0
   -3.6957   50.0967   29.5828 N   0  0  0  0  0  0
    3.5346   53.9825   22.3495 C   0  0  0  0  0  0
    5.5122   51.8516   22.1345 H   0  0  0  0  0  0
    4.1629   51.5855   21.0429 H   0  0  0  0  0  0
    5.7223   52.0389   20.3919 H   0  0  0  0  0  0
    5.5140   55.6890   21.4315 H   0  0  0  0  0  0
    6.5802   54.4984   20.7258 H   0  0  0  0  0  0
    7.2563   55.2631   23.0757 H   0  0  0  0  0  0
    7.1330   53.5252   22.8820 H   0  0  0  0  0  0
    2.3624   53.7874   24.9782 H   0  0  0  0  0  0
    0.3096   50.6564   29.2816 H   0  0  0  0  0  0
    1.5878   51.1274   28.2005 H   0  0  0  0  0  0
   -1.7528   50.8397   28.7410 H   0  0  0  0  0  0
   -5.3277   51.7561   23.3943 H   0  0  0  0  0  0
   -5.5486   53.3625   24.0933 H   0  0  0  0  0  0
   -7.0354   50.8031   24.6306 H   0  0  0  0  0  0
   -7.6582   52.4350   24.7293 H   0  0  0  0  0  0
   -6.8918   52.6885   26.9718 H   0  0  0  0  0  0
   -7.0922   50.9401   26.9800 H   0  0  0  0  0  0
   -2.9997   49.5205   29.1166 H   0  0  0  0  0  0
   -3.8635   49.9089   30.5588 H   0  0  0  0  0  0
    2.7874   53.1891   22.3288 H   0  0  0  0  0  0
    2.9958   54.8920   22.0794 H   0  0  0  0  0  0
  1  2  1  0  0  0
  1 33  1  0  0  0
  1 34  1  0  0  0
  1 35  1  0  0  0
  2  3  1  0  0  0
  2 32  1  0  0  0
  2  4  1  0  0  0
  4  5  1  0  0  0
  4 36  1  0  0  0
  4 37  1  0  0  0
  5  6  1  0  0  0
  5 38  1  0  0  0
  5 39  1  0  0  0
  6 10  1  0  0  0
  6  7  2  0  0  0
  7  8  1  0  0  0
  7 32  1  0  0  0
  8  9  2  0  0  0
  8 40  1  0  0  0
  9 10  1  0  0  0
  9 11  1  0  0  0
 11 15  1  0  0  0
 11 12  2  0  0  0
 12 13  1  0  0  0
 13 14  2  0  0  0
 14 15  1  0  0  0
 14 16  1  0  0  0
 16 17  1  0  0  0
 17 18  1  0  0  0
 17 41  1  0  0  0
 17 42  1  0  0  0
 18 19  2  0  0  0
 18 20  1  0  0  0
 20 21  1  0  0  0
 20 43  1  0  0  0
 21 25  1  0  0  0
 21 22  2  0  0  0
 22 23  1  0  0  0
 22 29  1  0  0  0
 23 28  1  0  0  0
 23 24  2  0  0  0
 24 25  1  0  0  0
 24 26  1  0  0  0
 26 27  1  0  0  0
 26 44  1  0  0  0
 26 45  1  0  0  0
 27 28  1  0  0  0
 27 46  1  0  0  0
 27 47  1  0  0  0
 28 48  1  0  0  0
 28 49  1  0  0  0
 29 30  2  0  0  0
 29 31  1  0  0  0
 31 50  1  0  0  0
 31 51  1  0  0  0
 32 52  1  0  0  0
 32 53  1  0  0  0
M  END
> <i_i_glide_confnum>
52

> <i_i_glide_lignum>
420

> <i_i_glide_posenum>
348

> <i_i_glide_rotatable_bonds>
7

> <i_m_Source_File_Index>
1336

> <b_m_subgroup_collapsed>
0

> <r_i_docking_score>
-6.00135

> <r_i_glide_ecoul>
-5.87508

> <r_i_glide_eff_state_penalty>
0

> <r_i_glide_einternal>
6.73099

> <r_i_glide_emodel>
-68.6028

> <r_i_glide_energy>
-51.309

> <r_i_glide_erotb>
0.538997

> <r_i_glide_esite>
-0.293537

> <r_i_glide_evdw>
-45.4339

> <r_i_glide_gscore>
-6.00135

> <r_i_glide_hbond>
-0.180644

> <r_i_glide_ligand_efficiency>
-0.193592

> <r_i_glide_ligand_efficiency_ln>
-1.35349

> <r_i_glide_ligand_efficiency_sa>
-0.608146

> <r_i_glide_lipo>
-2.64365

> <r_i_glide_metal>
0

> <r_i_glide_rewards>
-0.269556

> <s_i_glide_gridfile>
wee1_glide-grid

> <s_m_Source_File>
wee1_decoys_glide_SP.sdf

> <s_m_Source_Path>
/Users/zhangxujun/Desktop

> <s_m_entry_id>
1611

> <s_m_entry_name>
wee1_decoys_glide_SP.1336

> <s_m_subgroup_title>
wee1_decoys_glide_SP

> <s_m_subgroupid>
wee1_decoys_glide_SP


$$$$
