ZINC06781480_3591
                    3D
 Schrodinger Suite 2024-2.
 40 42  0  0  1  0            999 V2000
    4.5256   51.4382   21.1891 C   0  0  0  0  0  0
    3.6394   52.6836   20.9898 C   0  0  0  0  0  0
    4.5776   53.9033   20.7862 C   0  0  0  0  0  0
    2.8196   52.4920   19.6955 C   0  0  0  0  0  0
    2.7229   52.8733   22.2174 C   0  0  0  0  0  0
    1.8674   52.0284   22.9418 C   0  0  0  0  0  0
    1.3854   52.8370   23.9885 C   0  0  0  0  0  0
    1.8166   54.0703   23.9490 N   0  0  0  0  0  0
    2.6143   54.0765   22.8801 N   0  0  0  0  0  0
    3.0989   54.9126   22.5904 H   0  0  0  0  0  0
    0.5463   52.4329   24.9999 O   0  0  0  0  0  0
    0.1670   51.1254   24.9544 C   0  0  0  0  0  0
    0.4987   50.2236   23.9995 C   0  0  0  0  0  0
    1.3997   50.5730   22.8014 C   0  0  1  0  0  0
    2.2772   49.9311   22.8897 H   0  0  0  0  0  0
    0.7462   50.2626   21.4505 C   0  0  0  0  0  0
   -0.3586   51.0027   20.9978 C   0  0  0  0  0  0
   -0.9347   50.7233   19.7587 C   0  0  0  0  0  0
   -0.4227   49.7022   18.9600 C   0  0  0  0  0  0
    0.6665   48.9562   19.4031 C   0  0  0  0  0  0
    1.2448   49.2313   20.6413 C   0  0  0  0  0  0
    2.3037   48.4960   21.0430 F   0  0  0  0  0  0
   -0.8790   52.0016   21.7487 F   0  0  0  0  0  0
   -0.0268   48.8959   24.0698 C   0  0  0  0  0  0
   -0.4958   47.8377   24.0945 N   0  0  0  0  0  0
   -0.6142   50.8886   26.0540 N   0  0  0  0  0  0
    5.1937   51.2930   20.3406 H   0  0  0  0  0  0
    3.9298   50.5309   21.2831 H   0  0  0  0  0  0
    5.1451   51.5235   22.0814 H   0  0  0  0  0  0
    4.0145   54.8110   20.5686 H   0  0  0  0  0  0
    5.1813   54.0991   21.6737 H   0  0  0  0  0  0
    5.2660   53.7491   19.9548 H   0  0  0  0  0  0
    2.1089   53.2966   19.5366 H   0  0  0  0  0  0
    3.4622   52.4512   18.8143 H   0  0  0  0  0  0
    2.2496   51.5688   19.6997 H   0  0  0  0  0  0
   -1.7801   51.3009   19.4166 H   0  0  0  0  0  0
   -0.8646   49.4915   17.9966 H   0  0  0  0  0  0
    1.0760   48.1701   18.7852 H   0  0  0  0  0  0
   -0.9155   49.9501   26.2841 H   0  0  0  0  0  0
   -0.6856   51.5823   26.7844 H   0  0  0  0  0  0
  1  2  1  0  0  0
  1 27  1  0  0  0
  1 28  1  0  0  0
  1 29  1  0  0  0
  2  3  1  0  0  0
  2  4  1  0  0  0
  2  5  1  0  0  0
  3 30  1  0  0  0
  3 31  1  0  0  0
  3 32  1  0  0  0
  4 33  1  0  0  0
  4 34  1  0  0  0
  4 35  1  0  0  0
  5  9  1  0  0  0
  5  6  2  0  0  0
  6 14  1  0  0  0
  6  7  1  0  0  0
  7  8  2  0  0  0
  7 11  1  0  0  0
  8  9  1  0  0  0
  9 10  1  0  0  0
 11 12  1  0  0  0
 12 13  2  0  0  0
 12 26  1  0  0  0
 13 14  1  0  0  0
 13 24  1  0  0  0
 14 15  1  0  0  0
 14 16  1  0  0  0
 16 21  2  0  0  0
 16 17  1  0  0  0
 17 18  2  0  0  0
 17 23  1  0  0  0
 18 19  1  0  0  0
 18 36  1  0  0  0
 19 20  2  0  0  0
 19 37  1  0  0  0
 20 21  1  0  0  0
 20 38  1  0  0  0
 21 22  1  0  0  0
 24 25  3  0  0  0
 26 39  1  0  0  0
 26 40  1  0  0  0
M  END
> <i_i_glide_confnum>
1

> <i_i_glide_lignum>
3592

> <i_i_glide_posenum>
330

> <i_i_glide_rotatable_bonds>
3

> <i_m_Source_File_Index>
1201

> <b_m_subgroup_collapsed>
0

> <r_i_docking_score>
-3.3643

> <r_i_glide_ecoul>
-1.72396

> <r_i_glide_eff_state_penalty>
0

> <r_i_glide_einternal>
0.799955

> <r_i_glide_emodel>
-33.7808

> <r_i_glide_energy>
-27.8126

> <r_i_glide_erotb>
0.17235

> <r_i_glide_esite>
-0.0996802

> <r_i_glide_evdw>
-26.0886

> <r_i_glide_gscore>
-3.3643

> <r_i_glide_hbond>
0

> <r_i_glide_ligand_efficiency>
-0.140179

> <r_i_glide_ligand_efficiency_ln>
-0.805232

> <r_i_glide_ligand_efficiency_sa>
-0.404347

> <r_i_glide_lipo>
-0.71712

> <r_i_glide_metal>
0

> <r_i_glide_rewards>
-1.15683

> <s_i_glide_gridfile>
wee1_glide-grid

> <s_m_Source_File>
wee1_decoys_glide_SP.sdf

> <s_m_Source_Path>
/Users/zhangxujun/Desktop

> <s_m_entry_id>
1476

> <s_m_entry_name>
wee1_decoys_glide_SP.1201

> <s_m_subgroup_title>
wee1_decoys_glide_SP

> <s_m_subgroupid>
wee1_decoys_glide_SP


$$$$
