ZINC09019127_5427
                    3D
 Schrodinger Suite 2024-2.
 57 62  0  0  1  0            999 V2000
   -6.0718   51.3422   26.4298 C   0  0  0  0  0  0
   -5.3296   50.7426   27.4459 C   0  0  0  0  0  0
   -3.9353   50.7421   27.3808 C   0  0  0  0  0  0
   -3.2664   51.3418   26.3071 C   0  0  0  0  0  0
   -4.0255   51.9142   25.2753 C   0  0  0  0  0  0
   -5.4215   51.9301   25.3452 C   0  0  0  0  0  0
   -3.3327   52.5280   24.1430 C   0  0  0  0  0  0
   -2.0118   52.7704   24.1219 C   0  0  0  0  0  0
   -1.7334   51.3305   26.2101 C   0  0  1  0  0  0
   -1.3581   51.5785   27.2071 H   0  0  0  0  0  0
   -1.0105   50.0592   25.6866 C   0  0  2  0  0  0
   -0.8895   49.3210   26.4813 H   0  0  0  0  0  0
    0.3108   50.5208   25.1522 C   0  0  2  0  0  0
    1.1038   50.0683   25.7459 H   0  0  0  0  0  0
    0.3238   52.0844   25.2698 C   0  0  1  0  0  0
    0.6821   52.3658   26.2629 H   0  0  0  0  0  0
    1.1970   52.9040   24.2658 C   0  0  0  0  0  0
    0.7397   53.2932   23.1986 O   0  0  0  0  0  0
    2.4720   53.1376   24.6566 N   0  0  0  0  0  0
    3.5440   53.6981   23.9255 C   0  0  0  0  0  0
    3.5926   53.7540   22.5222 C   0  0  0  0  0  0
    4.7411   54.2146   21.8813 C   0  0  0  0  0  0
    5.8455   54.6164   22.6318 C   0  0  0  0  0  0
    5.8123   54.5460   24.0223 C   0  0  0  0  0  0
    4.6613   54.0962   24.6660 C   0  0  0  0  0  0
    7.2279   55.2847   21.8416 Cl  0  0  0  0  0  0
    0.3795   49.9250   23.7467 C   0  0  0  0  0  0
    1.3838   49.9956   23.0388 O   0  0  0  0  0  0
   -0.7882   49.2666   23.4779 N   0  0  0  0  0  0
   -1.6749   49.3401   24.5139 C   0  0  0  0  0  0
   -2.8120   48.8690   24.5588 O   0  0  0  0  0  0
   -1.0376   48.5530   22.2635 C   0  0  0  0  0  0
   -0.6093   49.0602   21.0257 C   0  0  0  0  0  0
   -0.7984   48.3324   19.8532 C   0  0  0  0  0  0
   -1.4231   47.0781   19.8872 C   0  0  0  0  0  0
   -1.8760   46.5819   21.1152 C   0  0  0  0  0  0
   -1.6895   47.3089   22.2863 C   0  0  0  0  0  0
   -1.5954   46.2826   18.6446 N   0  3  0  0  0  0
   -1.2710   46.7891   17.5759 O   0  0  0  0  0  0
   -2.0506   45.1455   18.7384 O   0  5  0  0  0  0
   -7.1520   51.3435   26.4732 H   0  0  0  0  0  0
   -5.8257   50.2690   28.2808 H   0  0  0  0  0  0
   -3.3687   50.2574   28.1648 H   0  0  0  0  0  0
   -6.0072   52.3843   24.5578 H   0  0  0  0  0  0
   -3.9137   52.8194   23.2827 H   0  0  0  0  0  0
   -1.5601   53.2873   23.2912 H   0  0  0  0  0  0
    2.7191   52.8615   25.5950 H   0  0  0  0  0  0
    2.7672   53.4253   21.9090 H   0  0  0  0  0  0
    4.7681   54.2694   20.8029 H   0  0  0  0  0  0
    6.6746   54.8581   24.5929 H   0  0  0  0  0  0
    4.6546   54.0348   25.7455 H   0  0  0  0  0  0
   -0.1090   50.0169   20.9642 H   0  0  0  0  0  0
   -0.4403   48.7473   18.9196 H   0  0  0  0  0  0
   -2.3681   45.6215   21.1764 H   0  0  0  0  0  0
   -2.0305   46.8764   23.2162 H   0  0  0  0  0  0
   -1.1803   52.4946   25.3250 N   0  3  1  0  0  0
   -1.2271   53.3374   25.8780 H   0  0  0  0  0  0
  1  6  2  0  0  0
  1  2  1  0  0  0
  1 41  1  0  0  0
  2  3  2  0  0  0
  2 42  1  0  0  0
  3  4  1  0  0  0
  3 43  1  0  0  0
  4  9  1  0  0  0
  4  5  2  0  0  0
  5  6  1  0  0  0
  5  7  1  0  0  0
  6 44  1  0  0  0
  7  8  2  0  0  0
  7 45  1  0  0  0
  8 46  1  0  0  0
  8 56  1  0  0  0
  9 10  1  0  0  0
  9 11  1  0  0  0
  9 56  1  0  0  0
 11 12  1  0  0  0
 11 30  1  0  0  0
 11 13  1  0  0  0
 13 14  1  0  0  0
 13 15  1  0  0  0
 13 27  1  0  0  0
 15 16  1  0  0  0
 15 17  1  0  0  0
 15 56  1  0  0  0
 17 18  2  0  0  0
 17 19  1  0  0  0
 19 20  1  0  0  0
 19 47  1  0  0  0
 20 25  2  0  0  0
 20 21  1  0  0  0
 21 22  2  0  0  0
 21 48  1  0  0  0
 22 23  1  0  0  0
 22 49  1  0  0  0
 23 24  2  0  0  0
 23 26  1  0  0  0
 24 25  1  0  0  0
 24 50  1  0  0  0
 25 51  1  0  0  0
 27 28  2  0  0  0
 27 29  1  0  0  0
 29 30  1  0  0  0
 29 32  1  0  0  0
 30 31  2  0  0  0
 32 37  2  0  0  0
 32 33  1  0  0  0
 33 34  2  0  0  0
 33 52  1  0  0  0
 34 35  1  0  0  0
 34 53  1  0  0  0
 35 36  2  0  0  0
 35 38  1  0  0  0
 36 37  1  0  0  0
 36 54  1  0  0  0
 37 55  1  0  0  0
 38 39  2  0  0  0
 38 40  1  0  0  0
 56 57  1  0  0  0
M  CHG  3  38   1  40  -1  56   1
M  END
> <i_i_glide_confnum>
13

> <i_i_glide_lignum>
5428

> <i_i_glide_posenum>
240

> <i_i_glide_rotatable_bonds>
5

> <i_m_Source_File_Index>
1519

> <b_m_subgroup_collapsed>
0

> <r_i_docking_score>
-3.7542

> <r_i_glide_ecoul>
-1.10325

> <r_i_glide_eff_state_penalty>
0

> <r_i_glide_einternal>
1.22318

> <r_i_glide_emodel>
-48.0102

> <r_i_glide_energy>
-37.5745

> <r_i_glide_erotb>
0.308399

> <r_i_glide_esite>
-0.0345673

> <r_i_glide_evdw>
-36.4713

> <r_i_glide_gscore>
-3.7542

> <r_i_glide_hbond>
0

> <r_i_glide_ligand_efficiency>
-0.101465

> <r_i_glide_ligand_efficiency_ln>
-0.814197

> <r_i_glide_ligand_efficiency_sa>
-0.338103

> <r_i_glide_lipo>
-1.68007

> <r_i_glide_metal>
0

> <r_i_glide_rewards>
-0.35891

> <s_i_glide_gridfile>
wee1_glide-grid

> <s_m_Source_File>
wee1_decoys_glide_SP.sdf

> <s_m_Source_Path>
/Users/zhangxujun/Desktop

> <s_m_entry_id>
1794

> <s_m_entry_name>
wee1_decoys_glide_SP.1519

> <s_m_subgroup_title>
wee1_decoys_glide_SP

> <s_m_subgroupid>
wee1_decoys_glide_SP


$$$$
