ZINC49429160_3337
                    3D
 Schrodinger Suite 2024-2.
 57 60  0  0  1  0            999 V2000
    2.3389   42.4702   16.5668 C   0  0  0  0  0  0
    1.8295   42.2731   17.9804 C   0  0  0  0  0  0
    2.4438   41.3881   18.8650 C   0  0  0  0  0  0
    1.9040   41.3206   20.1455 C   0  0  0  0  0  0
    0.8394   42.0694   20.5279 N   0  0  0  0  0  0
    0.2716   42.8964   19.6103 C   0  0  0  0  0  0
    0.7497   43.0157   18.3368 N   0  0  0  0  0  0
   -0.8469   43.5482   20.0587 N   0  5  0  0  0  0
   -1.7207   44.5388   19.2042 S   0  0  0  0  0  0
   -3.0540   44.7325   19.7851 O   0  0  0  0  0  0
   -1.6567   44.3472   17.7508 O   0  0  0  0  0  0
   -0.8385   46.0810   19.5086 C   0  0  0  0  0  0
    0.3884   46.3218   18.8817 C   0  0  0  0  0  0
    1.1110   47.4746   19.1797 C   0  0  0  0  0  0
    0.6002   48.4083   20.0834 C   0  0  0  0  0  0
   -0.6534   48.1901   20.6757 C   0  0  0  0  0  0
   -1.3659   47.0281   20.3927 C   0  0  0  0  0  0
    1.4408   49.4849   20.4131 N   0  0  0  0  0  0
    1.1212   50.6754   20.9669 C   0  0  0  0  0  0
   -0.0328   51.0793   21.1233 O   0  0  0  0  0  0
    2.3188   51.5317   21.4357 C   0  0  1  0  0  0
    2.8778   50.8488   22.0811 H   0  0  0  0  0  0
    3.2381   51.9199   20.2528 C   0  0  0  0  0  0
    4.4363   52.7167   20.8046 C   0  0  0  0  0  0
    3.9912   53.9362   21.6424 C   0  0  0  0  0  0
    3.1082   53.4372   22.7267 N   0  0  0  0  0  0
    1.8709   52.7666   22.2708 C   0  0  0  0  0  0
    3.2393   53.7953   24.0347 C   0  0  0  0  0  0
    2.3060   53.7087   24.8360 O   0  0  0  0  0  0
    4.4963   54.1520   24.3874 N   0  0  0  0  0  0
    5.0415   54.2597   25.6600 C   0  0  0  0  0  0
    6.3889   54.4878   25.9169 C   0  0  0  0  0  0
    6.6969   54.4971   27.2818 C   0  0  0  0  0  0
    5.5822   54.3114   28.0829 C   0  0  0  0  0  0
    4.1386   54.0968   27.1518 S   0  0  0  0  0  0
    3.2216   41.8618   16.3706 H   0  0  0  0  0  0
    1.5701   42.1974   15.8447 H   0  0  0  0  0  0
    2.6106   43.5132   16.4054 H   0  0  0  0  0  0
    3.2967   40.7893   18.5784 H   0  0  0  0  0  0
    2.3052   40.6457   20.8816 H   0  0  0  0  0  0
    0.7947   45.6082   18.1795 H   0  0  0  0  0  0
    2.0761   47.6293   18.7144 H   0  0  0  0  0  0
   -1.0661   48.8828   21.3934 H   0  0  0  0  0  0
   -2.3153   46.8599   20.8814 H   0  0  0  0  0  0
    2.4070   49.3552   20.1546 H   0  0  0  0  0  0
    2.7222   52.5815   19.5534 H   0  0  0  0  0  0
    3.6525   51.0499   19.7399 H   0  0  0  0  0  0
    5.0583   53.0532   19.9725 H   0  0  0  0  0  0
    5.0786   52.0690   21.4040 H   0  0  0  0  0  0
    3.4080   54.6080   21.0157 H   0  0  0  0  0  0
    4.8590   54.4926   21.9939 H   0  0  0  0  0  0
    1.2597   52.4237   23.1075 H   0  0  0  0  0  0
    1.2853   53.4642   21.6725 H   0  0  0  0  0  0
    5.1611   54.2265   23.6345 H   0  0  0  0  0  0
    7.1273   54.6194   25.1397 H   0  0  0  0  0  0
    7.6890   54.6482   27.6821 H   0  0  0  0  0  0
    5.5478   54.2913   29.1611 H   0  0  0  0  0  0
  1  2  1  0  0  0
  1 36  1  0  0  0
  1 37  1  0  0  0
  1 38  1  0  0  0
  2  7  2  0  0  0
  2  3  1  0  0  0
  3  4  2  0  0  0
  3 39  1  0  0  0
  4  5  1  0  0  0
  4 40  1  0  0  0
  5  6  2  0  0  0
  6  7  1  0  0  0
  6  8  1  0  0  0
  8  9  1  0  0  0
  9 10  2  0  0  0
  9 11  2  0  0  0
  9 12  1  0  0  0
 12 17  2  0  0  0
 12 13  1  0  0  0
 13 14  2  0  0  0
 13 41  1  0  0  0
 14 15  1  0  0  0
 14 42  1  0  0  0
 15 16  2  0  0  0
 15 18  1  0  0  0
 16 17  1  0  0  0
 16 43  1  0  0  0
 17 44  1  0  0  0
 18 19  1  0  0  0
 18 45  1  0  0  0
 19 20  2  0  0  0
 19 21  1  0  0  0
 21 22  1  0  0  0
 21 27  1  0  0  0
 21 23  1  0  0  0
 23 24  1  0  0  0
 23 46  1  0  0  0
 23 47  1  0  0  0
 24 25  1  0  0  0
 24 48  1  0  0  0
 24 49  1  0  0  0
 25 26  1  0  0  0
 25 50  1  0  0  0
 25 51  1  0  0  0
 26 27  1  0  0  0
 26 28  1  0  0  0
 27 52  1  0  0  0
 27 53  1  0  0  0
 28 29  2  0  0  0
 28 30  1  0  0  0
 30 31  1  0  0  0
 30 54  1  0  0  0
 31 35  1  0  0  0
 31 32  2  0  0  0
 32 33  1  0  0  0
 32 55  1  0  0  0
 33 34  2  0  0  0
 33 56  1  0  0  0
 34 35  1  0  0  0
 34 57  1  0  0  0
M  CHG  1   8  -1
M  END
> <i_i_glide_confnum>
155

> <i_i_glide_lignum>
3338

> <i_i_glide_posenum>
192

> <i_i_glide_rotatable_bonds>
9

> <i_m_Source_File_Index>
4317

> <b_m_subgroup_collapsed>
0

> <r_i_docking_score>
-4.51748

> <r_i_glide_ecoul>
-2.53775

> <r_i_glide_eff_state_penalty>
0

> <r_i_glide_einternal>
7.16

> <r_i_glide_emodel>
-62.5754

> <r_i_glide_energy>
-48.526

> <r_i_glide_erotb>
0.736112

> <r_i_glide_esite>
-0.0897253

> <r_i_glide_evdw>
-45.9883

> <r_i_glide_gscore>
-4.51748

> <r_i_glide_hbond>
-0.202588

> <r_i_glide_ligand_efficiency>
-0.132867

> <r_i_glide_ligand_efficiency_ln>
-0.998039

> <r_i_glide_ligand_efficiency_sa>
-0.430438

> <r_i_glide_lipo>
-1.87537

> <r_i_glide_metal>
0

> <r_i_glide_rewards>
-0.405835

> <s_i_glide_gridfile>
wee1_glide-grid

> <s_m_Source_File>
wee1_decoys_glide_SP.sdf

> <s_m_Source_Path>
/Users/zhangxujun/Desktop

> <s_m_entry_id>
4592

> <s_m_entry_name>
wee1_decoys_glide_SP.4317

> <s_m_subgroup_title>
wee1_decoys_glide_SP

> <s_m_subgroupid>
wee1_decoys_glide_SP


$$$$
