ZINC59813206_2737
                    3D
 Schrodinger Suite 2024-2.
 57 60  0  0  1  0            999 V2000
    6.9607   54.8959   22.2703 C   0  0  0  0  0  0
    5.8906   54.4974   23.2707 C   0  0  0  0  0  0
    4.6183   54.0946   22.8448 C   0  0  0  0  0  0
    3.6157   53.8172   23.7893 C   0  0  0  0  0  0
    3.9704   53.9494   25.1480 C   0  0  0  0  0  0
    3.3536   53.7415   26.4284 C   0  0  0  0  0  0
    4.1992   54.0079   27.3949 N   0  0  0  0  0  0
    5.3716   54.3514   26.8298 N   0  0  0  0  0  0
    5.2923   54.3501   25.4538 C   0  0  0  0  0  0
    6.2544   54.6375   24.5722 N   0  0  0  0  0  0
    6.4846   54.7012   27.6823 C   0  0  0  0  0  0
    1.9600   53.2469   26.7449 C   0  0  0  0  0  0
    2.2582   53.3725   23.3387 C   0  0  0  0  0  0
    1.2835   54.1082   23.4795 O   0  0  0  0  0  0
    2.2057   52.1133   22.8659 N   0  0  0  0  0  0
    0.9977   51.3481   22.5397 C   0  0  2  0  0  0
    1.3463   50.3403   22.3018 H   0  0  0  0  0  0
    0.3317   51.8586   21.2430 C   0  0  0  0  0  0
    0.0327   51.1927   23.7297 C   0  0  0  0  0  0
   -1.0242   52.0885   23.9214 C   0  0  0  0  0  0
   -1.9033   51.9275   24.9862 C   0  0  0  0  0  0
   -1.7604   50.8430   25.8654 C   0  0  0  0  0  0
   -0.6996   49.9527   25.6807 C   0  0  0  0  0  0
    0.1877   50.1224   24.6180 C   0  0  0  0  0  0
   -2.6172   50.5962   26.9621 N   0  0  0  0  0  0
   -3.8306   51.1420   27.2232 C   0  0  0  0  0  0
   -4.4393   51.8901   26.4556 O   0  0  0  0  0  0
   -4.4709   50.7783   28.5436 C   0  0  0  0  0  0
   -5.8689   50.7523   28.6547 C   0  0  0  0  0  0
   -6.4770   50.4362   29.8679 C   0  0  0  0  0  0
   -5.6925   50.1492   30.9804 C   0  0  0  0  0  0
   -4.3065   50.1820   30.8877 C   0  0  0  0  0  0
   -3.6959   50.4963   29.6754 C   0  0  0  0  0  0
   -6.2832   49.8419   32.1577 F   0  0  0  0  0  0
    6.6666   54.6550   21.2468 H   0  0  0  0  0  0
    7.1428   55.9702   22.3251 H   0  0  0  0  0  0
    7.9031   54.3860   22.4815 H   0  0  0  0  0  0
    4.4047   54.0230   21.7869 H   0  0  0  0  0  0
    7.4154   54.6908   27.1146 H   0  0  0  0  0  0
    6.3046   55.6968   28.0808 H   0  0  0  0  0  0
    6.5651   53.9905   28.5066 H   0  0  0  0  0  0
    1.8159   52.2215   26.4014 H   0  0  0  0  0  0
    1.1953   53.8476   26.2556 H   0  0  0  0  0  0
    1.7404   53.2551   27.8126 H   0  0  0  0  0  0
    3.0767   51.6141   22.7860 H   0  0  0  0  0  0
   -0.5382   51.2566   20.9818 H   0  0  0  0  0  0
    0.0125   52.8957   21.3245 H   0  0  0  0  0  0
    1.0265   51.8091   20.4040 H   0  0  0  0  0  0
   -1.1572   52.9340   23.2655 H   0  0  0  0  0  0
   -2.6801   52.6648   25.1047 H   0  0  0  0  0  0
   -0.5617   49.1163   26.3539 H   0  0  0  0  0  0
    0.9940   49.4148   24.4874 H   0  0  0  0  0  0
   -2.2844   49.8832   27.6089 H   0  0  0  0  0  0
   -6.4950   50.9683   27.7992 H   0  0  0  0  0  0
   -7.5534   50.4084   29.9476 H   0  0  0  0  0  0
   -3.6938   49.9649   31.7509 H   0  0  0  0  0  0
   -2.6148   50.4992   29.6373 H   0  0  0  0  0  0
  1  2  1  0  0  0
  1 35  1  0  0  0
  1 36  1  0  0  0
  1 37  1  0  0  0
  2 10  2  0  0  0
  2  3  1  0  0  0
  3  4  2  0  0  0
  3 38  1  0  0  0
  4  5  1  0  0  0
  4 13  1  0  0  0
  5  9  2  0  0  0
  5  6  1  0  0  0
  6  7  2  0  0  0
  6 12  1  0  0  0
  7  8  1  0  0  0
  8  9  1  0  0  0
  8 11  1  0  0  0
  9 10  1  0  0  0
 11 39  1  0  0  0
 11 40  1  0  0  0
 11 41  1  0  0  0
 12 42  1  0  0  0
 12 43  1  0  0  0
 12 44  1  0  0  0
 13 14  2  0  0  0
 13 15  1  0  0  0
 15 16  1  0  0  0
 15 45  1  0  0  0
 16 17  1  0  0  0
 16 18  1  0  0  0
 16 19  1  0  0  0
 18 46  1  0  0  0
 18 47  1  0  0  0
 18 48  1  0  0  0
 19 24  2  0  0  0
 19 20  1  0  0  0
 20 21  2  0  0  0
 20 49  1  0  0  0
 21 22  1  0  0  0
 21 50  1  0  0  0
 22 23  2  0  0  0
 22 25  1  0  0  0
 23 24  1  0  0  0
 23 51  1  0  0  0
 24 52  1  0  0  0
 25 26  1  0  0  0
 25 53  1  0  0  0
 26 27  2  0  0  0
 26 28  1  0  0  0
 28 33  2  0  0  0
 28 29  1  0  0  0
 29 30  2  0  0  0
 29 54  1  0  0  0
 30 31  1  0  0  0
 30 55  1  0  0  0
 31 32  2  0  0  0
 31 34  1  0  0  0
 32 33  1  0  0  0
 32 56  1  0  0  0
 33 57  1  0  0  0
M  END
> <i_i_glide_confnum>
106

> <i_i_glide_lignum>
2738

> <i_i_glide_posenum>
325

> <i_i_glide_rotatable_bonds>
7

> <i_m_Source_File_Index>
4232

> <b_m_subgroup_collapsed>
0

> <r_i_docking_score>
-5.64829

> <r_i_glide_ecoul>
-5.45809

> <r_i_glide_eff_state_penalty>
0

> <r_i_glide_einternal>
6.3631

> <r_i_glide_emodel>
-63.0355

> <r_i_glide_energy>
-48.533

> <r_i_glide_erotb>
0.705735

> <r_i_glide_esite>
-0.139316

> <r_i_glide_evdw>
-43.0749

> <r_i_glide_gscore>
-5.64829

> <r_i_glide_hbond>
-0.16

> <r_i_glide_ligand_efficiency>
-0.17116

> <r_i_glide_ligand_efficiency_ln>
-1.25615

> <r_i_glide_ligand_efficiency_sa>
-0.549002

> <r_i_glide_lipo>
-1.64237

> <r_i_glide_metal>
0

> <r_i_glide_rewards>
-1.43987

> <s_i_glide_gridfile>
wee1_glide-grid

> <s_m_Source_File>
wee1_decoys_glide_SP.sdf

> <s_m_Source_Path>
/Users/zhangxujun/Desktop

> <s_m_entry_id>
4507

> <s_m_entry_name>
wee1_decoys_glide_SP.4232

> <s_m_subgroup_title>
wee1_decoys_glide_SP

> <s_m_subgroupid>
wee1_decoys_glide_SP


$$$$
