ZINC22642851_1550
                    3D
 Schrodinger Suite 2024-2.
 47 50  0  0  1  0            999 V2000
   -4.4712   50.9401   26.7101 C   0  0  0  0  0  0
   -3.1120   51.5290   26.3189 C   0  0  0  0  0  0
   -2.9484   51.8447   25.1393 O   0  0  0  0  0  0
   -2.1623   51.6845   27.2813 N   0  0  0  0  0  0
   -2.3991   51.2917   28.6766 C   0  0  0  0  0  0
   -1.1287   51.6965   29.4308 C   0  0  0  0  0  0
   -0.1700   52.0687   28.3452 C   0  0  0  0  0  0
   -0.8140   52.0555   27.1102 C   0  0  0  0  0  0
   -0.1112   52.4254   25.9575 C   0  0  0  0  0  0
    1.2169   52.8356   26.0613 C   0  0  0  0  0  0
    1.8582   52.8749   27.3036 C   0  0  0  0  0  0
    1.1605   52.4787   28.4531 C   0  0  0  0  0  0
    3.1938   53.2971   27.2761 N   0  0  0  0  0  0
    4.1325   53.3899   28.2480 C   0  0  0  0  0  0
    3.9038   53.2477   29.4494 O   0  0  0  0  0  0
    5.5889   53.6747   27.7964 C   0  0  0  0  0  0
    5.6956   53.6967   26.3289 N   0  0  0  0  0  0
    6.1392   54.7079   25.5697 C   0  0  0  0  0  0
    6.7045   55.6967   26.0355 O   0  0  0  0  0  0
    5.8953   54.5797   24.0816 C   0  0  0  0  0  0
    4.8154   53.8265   23.5599 C   0  0  0  0  0  0
    4.5534   53.7760   22.1826 C   0  0  0  0  0  0
    5.3942   54.4952   21.3414 C   0  0  0  0  0  0
    6.4350   55.2313   21.8254 C   0  0  0  0  0  0
    6.7047   55.2983   23.1861 C   0  0  0  0  0  0
    7.0460   55.8832   20.8018 O   0  0  0  0  0  0
    6.4961   55.3334   19.6338 C   0  0  0  0  0  0
    5.3249   54.6504   19.9936 O   0  0  0  0  0  0
   -4.3478   49.9444   27.1391 H   0  0  0  0  0  0
   -5.1185   50.8527   25.8353 H   0  0  0  0  0  0
   -4.9724   51.5800   27.4359 H   0  0  0  0  0  0
   -3.3110   51.6960   29.1175 H   0  0  0  0  0  0
   -2.4869   50.2049   28.6797 H   0  0  0  0  0  0
   -1.2953   52.5726   30.0529 H   0  0  0  0  0  0
   -0.7949   50.8968   30.0854 H   0  0  0  0  0  0
   -0.5727   52.4212   24.9818 H   0  0  0  0  0  0
    1.7410   53.1253   25.1611 H   0  0  0  0  0  0
    1.6240   52.4991   29.4268 H   0  0  0  0  0  0
    3.5295   53.5100   26.3516 H   0  0  0  0  0  0
    5.9140   54.6200   28.2326 H   0  0  0  0  0  0
    6.2462   52.8958   28.1844 H   0  0  0  0  0  0
    5.4448   52.8361   25.8623 H   0  0  0  0  0  0
    4.1424   53.2969   24.2164 H   0  0  0  0  0  0
    3.7164   53.2151   21.7927 H   0  0  0  0  0  0
    7.5044   55.9237   23.5503 H   0  0  0  0  0  0
    7.2071   54.6272   19.2004 H   0  0  0  0  0  0
    6.2740   56.1133   18.9052 H   0  0  0  0  0  0
  1  2  1  0  0  0
  1 29  1  0  0  0
  1 30  1  0  0  0
  1 31  1  0  0  0
  2  3  2  0  0  0
  2  4  1  0  0  0
  4  8  1  0  0  0
  4  5  1  0  0  0
  5  6  1  0  0  0
  5 32  1  0  0  0
  5 33  1  0  0  0
  6  7  1  0  0  0
  6 34  1  0  0  0
  6 35  1  0  0  0
  7 12  2  0  0  0
  7  8  1  0  0  0
  8  9  2  0  0  0
  9 10  1  0  0  0
  9 36  1  0  0  0
 10 11  2  0  0  0
 10 37  1  0  0  0
 11 12  1  0  0  0
 11 13  1  0  0  0
 12 38  1  0  0  0
 13 14  1  0  0  0
 13 39  1  0  0  0
 14 15  2  0  0  0
 14 16  1  0  0  0
 16 17  1  0  0  0
 16 40  1  0  0  0
 16 41  1  0  0  0
 17 18  1  0  0  0
 17 42  1  0  0  0
 18 19  2  0  0  0
 18 20  1  0  0  0
 20 25  2  0  0  0
 20 21  1  0  0  0
 21 22  2  0  0  0
 21 43  1  0  0  0
 22 23  1  0  0  0
 22 44  1  0  0  0
 23 28  1  0  0  0
 23 24  2  0  0  0
 24 25  1  0  0  0
 24 26  1  0  0  0
 25 45  1  0  0  0
 26 27  1  0  0  0
 27 28  1  0  0  0
 27 46  1  0  0  0
 27 47  1  0  0  0
M  END
> <i_i_glide_confnum>
47

> <i_i_glide_lignum>
1551

> <i_i_glide_posenum>
319

> <i_i_glide_rotatable_bonds>
7

> <i_m_Source_File_Index>
3599

> <b_m_subgroup_collapsed>
0

> <r_i_docking_score>
-6.77589

> <r_i_glide_ecoul>
-8.05995

> <r_i_glide_eff_state_penalty>
0

> <r_i_glide_einternal>
5.38278

> <r_i_glide_emodel>
-65.6688

> <r_i_glide_energy>
-48.0433

> <r_i_glide_erotb>
0.667246

> <r_i_glide_esite>
-0.0775227

> <r_i_glide_evdw>
-39.9833

> <r_i_glide_gscore>
-6.77589

> <r_i_glide_hbond>
-0.32

> <r_i_glide_ligand_efficiency>
-0.241996

> <r_i_glide_ligand_efficiency_ln>
-1.56407

> <r_i_glide_ligand_efficiency_sa>
-0.734843

> <r_i_glide_lipo>
-2.09877

> <r_i_glide_metal>
0

> <r_i_glide_rewards>
-1.73869

> <s_i_glide_gridfile>
wee1_glide-grid

> <s_m_Source_File>
wee1_decoys_glide_SP.sdf

> <s_m_Source_Path>
/Users/zhangxujun/Desktop

> <s_m_entry_id>
3874

> <s_m_entry_name>
wee1_decoys_glide_SP.3599

> <s_m_subgroup_title>
wee1_decoys_glide_SP

> <s_m_subgroupid>
wee1_decoys_glide_SP


$$$$
