ZINC11782799_5228
                    3D
 Schrodinger Suite 2024-2.
 63 67  0  0  1  0            999 V2000
    0.8209   50.6744   27.2824 C   0  0  0  0  0  0
    0.1779   51.4800   26.3050 O   0  0  0  0  0  0
   -0.7489   50.8057   25.4443 C   0  0  1  0  0  0
   -0.2432   49.8995   25.1092 H   0  0  0  0  0  0
   -2.0448   50.5064   26.2354 C   0  0  1  0  0  0
   -1.8630   50.6360   27.3019 H   0  0  0  0  0  0
   -3.0098   51.6047   25.8365 C   0  0  0  0  0  0
   -4.2387   51.9519   26.4036 C   0  0  0  0  0  0
   -4.9833   52.9989   25.8596 C   0  0  0  0  0  0
   -4.5100   53.6826   24.7395 C   0  0  0  0  0  0
   -3.2951   53.3156   24.1596 C   0  0  0  0  0  0
   -2.5243   52.2978   24.7240 C   0  0  0  0  0  0
   -1.1703   51.7537   24.2808 C   0  0  1  0  0  0
   -0.1205   52.8670   24.0007 C   0  0  0  0  0  0
    1.2441   52.3298   23.5219 C   0  0  0  0  0  0
    0.0016   50.3662   22.4208 C   0  0  0  0  0  0
   -1.3157   50.9921   22.9299 C   0  0  0  0  0  0
    2.3652   50.9947   21.6520 C   0  0  0  0  0  0
    3.0862   52.0335   20.8065 C   0  0  0  0  0  0
    4.0109   52.9148   21.3832 C   0  0  0  0  0  0
    4.6768   53.8519   20.5922 C   0  0  0  0  0  0
    4.4299   53.9107   19.2215 C   0  0  0  0  0  0
    3.5068   53.0398   18.6416 C   0  0  0  0  0  0
    2.8332   52.1074   19.4300 C   0  0  0  0  0  0
    1.9257   51.2824   18.8583 F   0  0  0  0  0  0
    5.5585   54.7066   21.1575 F   0  0  0  0  0  0
   -2.5137   49.1221   26.0817 N   0  0  0  0  0  0
   -3.3302   48.5858   25.1600 C   0  0  0  0  0  0
   -3.9193   49.2406   24.3001 O   0  0  0  0  0  0
   -3.4919   47.0640   25.2089 C   0  0  0  0  0  0
   -3.3718   46.4349   23.8341 C   0  0  0  0  0  0
   -2.2653   46.3811   22.9857 C   0  0  0  0  0  0
   -2.4947   45.7147   21.7791 C   0  0  0  0  0  0
   -3.7920   45.2479   21.6753 C   0  0  0  0  0  0
   -4.7296   45.6513   23.0725 S   0  0  0  0  0  0
    1.6964   51.1950   27.6704 H   0  0  0  0  0  0
    0.1591   50.4968   28.1280 H   0  0  0  0  0  0
    1.1484   49.7136   26.8819 H   0  0  0  0  0  0
   -4.6199   51.4096   27.2572 H   0  0  0  0  0  0
   -5.9326   53.2705   26.2984 H   0  0  0  0  0  0
   -5.0899   54.4884   24.3100 H   0  0  0  0  0  0
   -2.9495   53.8372   23.2832 H   0  0  0  0  0  0
   -0.5178   53.5694   23.2817 H   0  0  0  0  0  0
    0.0254   53.4844   24.8817 H   0  0  0  0  0  0
    1.7355   51.6832   24.2512 H   0  0  0  0  0  0
    1.8983   53.1639   23.2636 H   0  0  0  0  0  0
    0.4447   49.6199   23.0815 H   0  0  0  0  0  0
   -0.1613   49.9268   21.4342 H   0  0  0  0  0  0
   -2.0867   50.2270   22.9946 H   0  0  0  0  0  0
   -1.6908   51.6759   22.1664 H   0  0  0  0  0  0
    2.9700   50.6280   22.4818 H   0  0  0  0  0  0
    2.1214   50.1269   21.0345 H   0  0  0  0  0  0
    4.2177   52.8966   22.4427 H   0  0  0  0  0  0
    4.9524   54.6307   18.6105 H   0  0  0  0  0  0
    3.3147   53.0780   17.5795 H   0  0  0  0  0  0
   -2.1533   48.5013   26.8091 H   0  0  0  0  0  0
   -4.4503   46.8438   25.6799 H   0  0  0  0  0  0
   -2.7291   46.6457   25.8681 H   0  0  0  0  0  0
   -1.3140   46.8272   23.2406 H   0  0  0  0  0  0
   -1.7440   45.5870   21.0124 H   0  0  0  0  0  0
   -4.2441   44.7123   20.8530 H   0  0  0  0  0  0
    1.0238   51.5129   22.2242 N   0  3  2  0  0  0
    0.6359   52.1436   21.5349 H   0  0  0  0  0  0
  1  2  1  0  0  0
  1 36  1  0  0  0
  1 37  1  0  0  0
  1 38  1  0  0  0
  2  3  1  0  0  0
  3  4  1  0  0  0
  3 13  1  0  0  0
  3  5  1  0  0  0
  5  6  1  0  0  0
  5  7  1  0  0  0
  5 27  1  0  0  0
  7 12  2  0  0  0
  7  8  1  0  0  0
  8  9  2  0  0  0
  8 39  1  0  0  0
  9 10  1  0  0  0
  9 40  1  0  0  0
 10 11  2  0  0  0
 10 41  1  0  0  0
 11 12  1  0  0  0
 11 42  1  0  0  0
 12 13  1  0  0  0
 13 17  1  0  0  0
 13 14  1  0  0  0
 14 15  1  0  0  0
 14 43  1  0  0  0
 14 44  1  0  0  0
 15 45  1  0  0  0
 15 46  1  0  0  0
 15 62  1  0  0  0
 16 17  1  0  0  0
 16 47  1  0  0  0
 16 48  1  0  0  0
 16 62  1  0  0  0
 17 49  1  0  0  0
 17 50  1  0  0  0
 18 19  1  0  0  0
 18 51  1  0  0  0
 18 52  1  0  0  0
 18 62  1  0  0  0
 19 24  2  0  0  0
 19 20  1  0  0  0
 20 21  2  0  0  0
 20 53  1  0  0  0
 21 22  1  0  0  0
 21 26  1  0  0  0
 22 23  2  0  0  0
 22 54  1  0  0  0
 23 24  1  0  0  0
 23 55  1  0  0  0
 24 25  1  0  0  0
 27 28  1  0  0  0
 27 56  1  0  0  0
 28 29  2  0  0  0
 28 30  1  0  0  0
 30 31  1  0  0  0
 30 57  1  0  0  0
 30 58  1  0  0  0
 31 35  1  0  0  0
 31 32  2  0  0  0
 32 33  1  0  0  0
 32 59  1  0  0  0
 33 34  2  0  0  0
 33 60  1  0  0  0
 34 35  1  0  0  0
 34 61  1  0  0  0
 62 63  1  0  0  0
M  CHG  1  62   1
M  END
> <i_i_glide_confnum>
2

> <i_i_glide_lignum>
5229

> <i_i_glide_posenum>
349

> <i_i_glide_rotatable_bonds>
7

> <i_m_Source_File_Index>
3492

> <b_m_subgroup_collapsed>
0

> <r_i_docking_score>
-3.30937

> <r_i_glide_ecoul>
-4.13034

> <r_i_glide_eff_state_penalty>
0

> <r_i_glide_einternal>
3.47071

> <r_i_glide_emodel>
-39.4951

> <r_i_glide_energy>
-32.1622

> <r_i_glide_erotb>
0.434054

> <r_i_glide_esite>
-0.182387

> <r_i_glide_evdw>
-28.0318

> <r_i_glide_gscore>
-3.30937

> <r_i_glide_hbond>
-0.154958

> <r_i_glide_ligand_efficiency>
-0.0973343

> <r_i_glide_ligand_efficiency_ln>
-0.731132

> <r_i_glide_ligand_efficiency_sa>
-0.315325

> <r_i_glide_lipo>
-1.03412

> <r_i_glide_metal>
0

> <r_i_glide_rewards>
-0.350814

> <s_i_glide_gridfile>
wee1_glide-grid

> <s_m_Source_File>
wee1_decoys_glide_SP.sdf

> <s_m_Source_Path>
/Users/zhangxujun/Desktop

> <s_m_entry_id>
3767

> <s_m_entry_name>
wee1_decoys_glide_SP.3492

> <s_m_subgroup_title>
wee1_decoys_glide_SP

> <s_m_subgroupid>
wee1_decoys_glide_SP


$$$$
