ZINC23590882_5849
                    3D
 Schrodinger Suite 2024-2.
 52 55  0  0  1  0            999 V2000
    0.5476   54.2637   30.3276 C   0  0  0  0  0  0
    0.8782   52.8343   29.8599 C   0  0  2  0  0  0
    0.1646   52.1787   30.3648 H   0  0  0  0  0  0
    2.2717   52.3327   30.2864 C   0  0  0  0  0  0
    3.4143   53.1641   29.6681 C   0  0  0  0  0  0
    3.1673   53.3136   28.1654 C   0  0  0  0  0  0
    1.9169   53.0842   27.5811 C   0  0  0  0  0  0
    1.9045   53.2967   25.8437 S   0  0  0  0  0  0
    3.5889   53.7664   25.8746 C   0  0  0  0  0  0
    4.1356   53.7244   27.1896 C   0  0  0  0  0  0
    5.5011   54.0868   27.2719 C   0  0  0  0  0  0
    6.2168   54.4381   26.1765 N   0  0  0  0  0  0
    5.5758   54.4107   24.9844 C   0  0  0  0  0  0
    4.2704   54.0969   24.7736 N   0  0  0  0  0  0
    6.5803   54.7591   23.5751 S   0  0  0  0  0  0
    5.5563   54.5519   22.0784 C   0  0  0  0  0  0
    6.0583   55.3005   20.8269 C   0  0  0  0  0  0
    7.0520   56.0280   20.9178 O   0  0  0  0  0  0
    5.3454   55.1911   19.6705 N   0  0  0  0  0  0
    4.2741   54.1860   19.5101 C   0  0  0  0  0  0
    4.9023   52.9633   18.8146 C   0  0  0  0  0  0
    5.5780   53.3461   17.4825 C   0  0  0  0  0  0
    6.5156   54.5646   17.6379 C   0  0  0  0  0  0
    5.8732   55.7549   18.4034 C   0  0  1  0  0  0
    6.6585   56.4817   18.6218 H   0  0  0  0  0  0
    4.8424   56.5337   17.5644 C   0  0  0  0  0  0
    6.1890   54.0966   28.4808 N   0  0  0  0  0  0
    0.6759   52.6130   28.3392 C   0  0  0  0  0  0
    1.1612   55.0110   29.8235 H   0  0  0  0  0  0
   -0.4955   54.4960   30.1221 H   0  0  0  0  0  0
    0.6970   54.3740   31.4024 H   0  0  0  0  0  0
    2.3660   52.3567   31.3736 H   0  0  0  0  0  0
    2.3872   51.2971   29.9721 H   0  0  0  0  0  0
    4.3547   52.6491   29.8642 H   0  0  0  0  0  0
    3.4862   54.1466   30.1344 H   0  0  0  0  0  0
    4.5453   54.8962   22.2926 H   0  0  0  0  0  0
    5.5056   53.4850   21.8644 H   0  0  0  0  0  0
    3.5086   54.6262   18.8711 H   0  0  0  0  0  0
    3.7177   53.9696   20.4224 H   0  0  0  0  0  0
    4.1286   52.2157   18.6336 H   0  0  0  0  0  0
    5.6240   52.4846   19.4776 H   0  0  0  0  0  0
    4.8082   53.5741   16.7440 H   0  0  0  0  0  0
    6.1326   52.4966   17.0837 H   0  0  0  0  0  0
    6.8869   54.8924   16.6662 H   0  0  0  0  0  0
    7.4036   54.2427   18.1851 H   0  0  0  0  0  0
    5.3234   57.0216   16.7164 H   0  0  0  0  0  0
    4.3436   57.2967   18.1587 H   0  0  0  0  0  0
    4.0773   55.8811   17.1450 H   0  0  0  0  0  0
    5.6941   53.8840   29.3325 H   0  0  0  0  0  0
    7.1385   54.4411   28.5134 H   0  0  0  0  0  0
   -0.2157   53.1369   27.9928 H   0  0  0  0  0  0
    0.4977   51.5534   28.1486 H   0  0  0  0  0  0
  1  2  1  0  0  0
  1 29  1  0  0  0
  1 30  1  0  0  0
  1 31  1  0  0  0
  2  3  1  0  0  0
  2 28  1  0  0  0
  2  4  1  0  0  0
  4  5  1  0  0  0
  4 32  1  0  0  0
  4 33  1  0  0  0
  5  6  1  0  0  0
  5 34  1  0  0  0
  5 35  1  0  0  0
  6 10  1  0  0  0
  6  7  2  0  0  0
  7  8  1  0  0  0
  7 28  1  0  0  0
  8  9  1  0  0  0
  9 14  2  0  0  0
  9 10  1  0  0  0
 10 11  2  0  0  0
 11 12  1  0  0  0
 11 27  1  0  0  0
 12 13  2  0  0  0
 13 14  1  0  0  0
 13 15  1  0  0  0
 15 16  1  0  0  0
 16 17  1  0  0  0
 16 36  1  0  0  0
 16 37  1  0  0  0
 17 18  2  0  0  0
 17 19  1  0  0  0
 19 24  1  0  0  0
 19 20  1  0  0  0
 20 21  1  0  0  0
 20 38  1  0  0  0
 20 39  1  0  0  0
 21 22  1  0  0  0
 21 40  1  0  0  0
 21 41  1  0  0  0
 22 23  1  0  0  0
 22 42  1  0  0  0
 22 43  1  0  0  0
 23 24  1  0  0  0
 23 44  1  0  0  0
 23 45  1  0  0  0
 24 25  1  0  0  0
 24 26  1  0  0  0
 26 46  1  0  0  0
 26 47  1  0  0  0
 26 48  1  0  0  0
 27 49  1  0  0  0
 27 50  1  0  0  0
 28 51  1  0  0  0
 28 52  1  0  0  0
M  END
> <i_i_glide_confnum>
70

> <i_i_glide_lignum>
5850

> <i_i_glide_posenum>
310

> <i_i_glide_rotatable_bonds>
4

> <i_m_Source_File_Index>
3062

> <b_m_subgroup_collapsed>
0

> <r_i_docking_score>
-6.16759

> <r_i_glide_ecoul>
-2.33534

> <r_i_glide_eff_state_penalty>
0

> <r_i_glide_einternal>
2.07179

> <r_i_glide_emodel>
-60.8711

> <r_i_glide_energy>
-45.356

> <r_i_glide_erotb>
0.511482

> <r_i_glide_esite>
0

> <r_i_glide_evdw>
-43.0207

> <r_i_glide_gscore>
-6.16759

> <r_i_glide_hbond>
-0.127431

> <r_i_glide_ligand_efficiency>
-0.237215

> <r_i_glide_ligand_efficiency_ln>
-1.44844

> <r_i_glide_ligand_efficiency_sa>
-0.702749

> <r_i_glide_lipo>
-2.5819

> <r_i_glide_metal>
0

> <r_i_glide_rewards>
-1.46841

> <s_i_glide_gridfile>
wee1_glide-grid

> <s_m_Source_File>
wee1_decoys_glide_SP.sdf

> <s_m_Source_Path>
/Users/zhangxujun/Desktop

> <s_m_entry_id>
3337

> <s_m_entry_name>
wee1_decoys_glide_SP.3062

> <s_m_subgroup_title>
wee1_decoys_glide_SP

> <s_m_subgroupid>
wee1_decoys_glide_SP


$$$$
