ZINC12445859_63
                    3D
 Schrodinger Suite 2024-2.
 42 43  0  0  1  0            999 V2000
    3.0136   51.9775   31.2625 C   0  0  0  0  0  0
    3.1013   52.9307   30.0817 C   0  0  0  0  0  0
    4.2462   52.9196   29.2769 C   0  0  0  0  0  0
    4.3569   53.7649   28.1717 C   0  0  0  0  0  0
    3.2989   54.6306   27.8761 C   0  0  0  0  0  0
    2.1564   54.6555   28.6724 C   0  0  0  0  0  0
    2.0506   53.8089   29.7742 C   0  0  0  0  0  0
    0.3048   53.9128   30.9328 I   0  0  0  0  0  0
    5.5328   53.6966   27.4047 N   0  0  0  0  0  0
    5.8945   54.5771   26.3144 C   0  0  0  0  0  0
    5.1518   54.2867   24.9869 C   0  0  0  0  0  0
    3.9705   53.9242   24.9877 O   0  0  0  0  0  0
    5.8571   54.4989   23.8575 N   0  0  0  0  0  0
    5.3283   54.2927   22.6312 N   0  0  0  0  0  0
    5.9858   54.6952   21.6058 C   0  0  0  0  0  0
    7.2926   55.5155   21.6761 C   0  0  0  0  0  0
    5.5045   54.3355   20.2388 C   0  0  0  0  0  0
    4.2664   53.6958   20.0575 C   0  0  0  0  0  0
    3.8219   53.3148   18.7955 C   0  0  0  0  0  0
    4.6048   53.5593   17.6631 C   0  0  0  0  0  0
    5.8403   54.1944   17.8265 C   0  0  0  0  0  0
    6.2796   54.5765   19.0912 C   0  0  0  0  0  0
    4.1384   53.1412   16.3184 N   0  3  0  0  0  0
    4.9162   53.2378   15.3727 O   0  0  0  0  0  0
    2.9849   52.7369   16.1962 O   0  5  0  0  0  0
    2.9740   52.4966   32.2150 H   0  0  0  0  0  0
    2.0925   51.4000   31.1957 H   0  0  0  0  0  0
    3.8635   51.2967   31.2985 H   0  0  0  0  0  0
    5.0514   52.2365   29.5048 H   0  0  0  0  0  0
    3.3516   55.2967   27.0302 H   0  0  0  0  0  0
    1.3502   55.3329   28.4314 H   0  0  0  0  0  0
    6.3039   53.3598   27.9626 H   0  0  0  0  0  0
    6.9533   54.4221   26.0996 H   0  0  0  0  0  0
    5.8149   55.6365   26.5580 H   0  0  0  0  0  0
    6.8047   54.8456   23.8742 H   0  0  0  0  0  0
    8.1526   54.8968   21.4196 H   0  0  0  0  0  0
    7.2632   56.3661   20.9962 H   0  0  0  0  0  0
    7.5043   55.9268   22.6621 H   0  0  0  0  0  0
    3.6233   53.4818   20.8998 H   0  0  0  0  0  0
    2.8658   52.8182   18.7069 H   0  0  0  0  0  0
    6.4733   54.3888   16.9721 H   0  0  0  0  0  0
    7.2504   55.0442   19.1515 H   0  0  0  0  0  0
  1  2  1  0  0  0
  1 26  1  0  0  0
  1 27  1  0  0  0
  1 28  1  0  0  0
  2  7  2  0  0  0
  2  3  1  0  0  0
  3  4  2  0  0  0
  3 29  1  0  0  0
  4  5  1  0  0  0
  4  9  1  0  0  0
  5  6  2  0  0  0
  5 30  1  0  0  0
  6  7  1  0  0  0
  6 31  1  0  0  0
  7  8  1  0  0  0
  9 10  1  0  0  0
  9 32  1  0  0  0
 10 11  1  0  0  0
 10 33  1  0  0  0
 10 34  1  0  0  0
 11 12  2  0  0  0
 11 13  1  0  0  0
 13 14  1  0  0  0
 13 35  1  0  0  0
 14 15  2  0  0  0
 15 16  1  0  0  0
 15 17  1  0  0  0
 16 36  1  0  0  0
 16 37  1  0  0  0
 16 38  1  0  0  0
 17 22  2  0  0  0
 17 18  1  0  0  0
 18 19  2  0  0  0
 18 39  1  0  0  0
 19 20  1  0  0  0
 19 40  1  0  0  0
 20 21  2  0  0  0
 20 23  1  0  0  0
 21 22  1  0  0  0
 21 41  1  0  0  0
 22 42  1  0  0  0
 23 24  2  0  0  0
 23 25  1  0  0  0
M  CHG  2  23   1  25  -1
M  END
> <i_i_glide_confnum>
68

> <i_i_glide_lignum>
64

> <i_i_glide_posenum>
380

> <i_i_glide_rotatable_bonds>
7

> <i_m_Source_File_Index>
5076

> <b_m_subgroup_collapsed>
0

> <r_i_docking_score>
-4.09995

> <r_i_glide_ecoul>
1.61523

> <r_i_glide_eff_state_penalty>
0

> <r_i_glide_einternal>
6.8547

> <r_i_glide_emodel>
-45.7813

> <r_i_glide_energy>
-38.4607

> <r_i_glide_erotb>
0.588585

> <r_i_glide_esite>
-0.0866529

> <r_i_glide_evdw>
-40.0759

> <r_i_glide_gscore>
-4.09995

> <r_i_glide_hbond>
0

> <r_i_glide_ligand_efficiency>
-0.163998

> <r_i_glide_ligand_efficiency_ln>
-0.971812

> <r_i_glide_ligand_efficiency_sa>
-0.479533

> <r_i_glide_lipo>
-1.90745

> <r_i_glide_metal>
0

> <r_i_glide_rewards>
-0.932923

> <s_i_glide_gridfile>
wee1_glide-grid

> <s_m_Source_File>
wee1_decoys_glide_SP.sdf

> <s_m_Source_Path>
/Users/zhangxujun/Desktop

> <s_m_entry_id>
5351

> <s_m_entry_name>
wee1_decoys_glide_SP.5076

> <s_m_subgroup_title>
wee1_decoys_glide_SP

> <s_m_subgroupid>
wee1_decoys_glide_SP


$$$$
