ZINC41549380_37
                    3D
 Schrodinger Suite 2024-2.
 40 43  0  0  1  0            999 V2000
    6.5639   55.4240   16.8040 C   0  0  0  0  0  0
    5.9973   56.6553   17.5636 C   0  0  2  0  0  0
    4.4523   56.7752   17.2575 C   0  0  0  0  0  0
    3.5613   56.0958   17.7657 O   0  0  0  0  0  0
    4.1698   57.7025   16.3246 N   0  0  0  0  0  0
    5.0817   58.4929   15.6379 C   0  0  0  0  0  0
    4.7051   59.2359   14.5160 C   0  0  0  0  0  0
    5.6548   60.0217   13.8570 C   0  0  0  0  0  0
    6.9754   60.0608   14.3154 C   0  0  0  0  0  0
    7.3532   59.3124   15.4322 C   0  0  0  0  0  0
    6.4023   58.5281   16.0825 C   0  0  0  0  0  0
    6.7818   57.8302   17.2100 O   0  0  0  0  0  0
    5.1946   60.9492   12.4756 Cl  0  0  0  0  0  0
    6.2125   56.4273   19.0983 C   0  0  0  0  0  0
    6.8877   57.2376   19.7402 O   0  0  0  0  0  0
    5.6487   55.3275   19.6635 N   0  0  0  0  0  0
    5.7745   54.8968   20.9781 C   0  0  0  0  0  0
    4.9721   53.9994   21.4896 N   0  0  0  0  0  0
    5.2859   53.6958   22.8104 N   0  0  0  0  0  0
    6.3061   54.3750   23.2845 C   0  0  0  0  0  0
    7.0318   55.4001   22.0812 S   0  0  0  0  0  0
    6.8875   54.2224   24.6822 C   0  0  0  0  0  0
    5.9207   54.2287   25.8614 C   0  0  0  0  0  0
    6.2415   54.0395   27.2080 C   0  0  0  0  0  0
    5.1577   54.0947   28.0865 C   0  0  0  0  0  0
    3.9639   54.3299   27.4332 C   0  0  0  0  0  0
    4.1966   54.4963   25.7271 S   0  0  0  0  0  0
    6.0242   54.4997   17.0229 H   0  0  0  0  0  0
    6.5178   55.5743   15.7241 H   0  0  0  0  0  0
    7.6147   55.2558   17.0475 H   0  0  0  0  0  0
    3.1907   57.7660   16.0918 H   0  0  0  0  0  0
    3.6846   59.2210   14.1644 H   0  0  0  0  0  0
    7.7032   60.6795   13.8113 H   0  0  0  0  0  0
    8.3679   59.3504   15.7988 H   0  0  0  0  0  0
    4.9608   54.8360   19.1105 H   0  0  0  0  0  0
    7.5042   53.3259   24.7114 H   0  0  0  0  0  0
    7.5842   55.0411   24.8526 H   0  0  0  0  0  0
    7.2512   53.8580   27.5457 H   0  0  0  0  0  0
    5.2450   53.9660   29.1545 H   0  0  0  0  0  0
    2.9758   54.4147   27.8603 H   0  0  0  0  0  0
  1  2  1  0  0  0
  1 28  1  0  0  0
  1 29  1  0  0  0
  1 30  1  0  0  0
  2 12  1  0  0  0
  2  3  1  0  0  0
  2 14  1  0  0  0
  3  4  2  0  0  0
  3  5  1  0  0  0
  5  6  1  0  0  0
  5 31  1  0  0  0
  6 11  2  0  0  0
  6  7  1  0  0  0
  7  8  2  0  0  0
  7 32  1  0  0  0
  8  9  1  0  0  0
  8 13  1  0  0  0
  9 10  2  0  0  0
  9 33  1  0  0  0
 10 11  1  0  0  0
 10 34  1  0  0  0
 11 12  1  0  0  0
 14 15  2  0  0  0
 14 16  1  0  0  0
 16 17  1  0  0  0
 16 35  1  0  0  0
 17 21  1  0  0  0
 17 18  2  0  0  0
 18 19  1  0  0  0
 19 20  2  0  0  0
 20 21  1  0  0  0
 20 22  1  0  0  0
 22 23  1  0  0  0
 22 36  1  0  0  0
 22 37  1  0  0  0
 23 27  1  0  0  0
 23 24  2  0  0  0
 24 25  1  0  0  0
 24 38  1  0  0  0
 25 26  2  0  0  0
 25 39  1  0  0  0
 26 27  1  0  0  0
 26 40  1  0  0  0
M  END
> <i_i_glide_confnum>
5

> <i_i_glide_lignum>
38

> <i_i_glide_posenum>
326

> <i_i_glide_rotatable_bonds>
5

> <i_m_Source_File_Index>
3222

> <b_m_subgroup_collapsed>
0

> <r_i_docking_score>
-5.17728

> <r_i_glide_ecoul>
-2.7821

> <r_i_glide_eff_state_penalty>
0

> <r_i_glide_einternal>
3.83904

> <r_i_glide_emodel>
-51.9597

> <r_i_glide_energy>
-40.4248

> <r_i_glide_erotb>
0.558743

> <r_i_glide_esite>
-0.0227959

> <r_i_glide_evdw>
-37.6427

> <r_i_glide_gscore>
-5.17728

> <r_i_glide_hbond>
-0.316116

> <r_i_glide_ligand_efficiency>
-0.191751

> <r_i_glide_ligand_efficiency_ln>
-1.20519

> <r_i_glide_ligand_efficiency_sa>
-0.575253

> <r_i_glide_lipo>
-2.30587

> <r_i_glide_metal>
0

> <r_i_glide_rewards>
-0.791786

> <s_i_glide_gridfile>
wee1_glide-grid

> <s_m_Source_File>
wee1_decoys_glide_SP.sdf

> <s_m_Source_Path>
/Users/zhangxujun/Desktop

> <s_m_entry_id>
3497

> <s_m_entry_name>
wee1_decoys_glide_SP.3222

> <s_m_subgroup_title>
wee1_decoys_glide_SP

> <s_m_subgroupid>
wee1_decoys_glide_SP


$$$$
