ZINC62566729_5320
                    3D
 Schrodinger Suite 2024-2.
 63 66  0  0  1  0            999 V2000
    7.1048   54.8982   22.4669 C   0  0  0  0  0  0
    5.8088   54.6487   22.9962 O   0  0  0  0  0  0
    5.6389   54.5373   24.3632 C   0  0  0  0  0  0
    6.7046   54.4970   25.2750 C   0  0  0  0  0  0
    6.4782   54.3843   26.6450 C   0  0  0  0  0  0
    5.1750   54.3149   27.1263 C   0  0  0  0  0  0
    4.1035   54.3620   26.2371 C   0  0  0  0  0  0
    4.3276   54.4719   24.8589 C   0  0  0  0  0  0
    3.1286   54.5634   23.9247 C   0  0  0  0  0  0
    2.6028   53.2067   23.3960 N   0  3  1  0  0  0
    1.1215   53.3700   22.9983 C   0  0  0  0  0  0
    0.5547   52.0012   22.5983 C   0  0  0  0  0  0
    1.3499   51.3346   21.4600 C   0  0  1  0  0  0
    2.8755   51.3487   21.7114 C   0  0  0  0  0  0
    3.4181   52.7192   22.1718 C   0  0  0  0  0  0
    0.8160   50.0263   21.0894 N   0  0  0  0  0  0
    0.8808   49.4831   19.8602 C   0  0  0  0  0  0
    1.4116   50.0466   18.9062 O   0  0  0  0  0  0
    0.3013   48.0967   19.7239 C   0  0  0  0  0  0
    0.8883   47.1936   18.8321 C   0  0  0  0  0  0
    0.4040   45.8923   18.7260 C   0  0  0  0  0  0
   -0.6718   45.4728   19.5163 C   0  0  0  0  0  0
   -1.2903   46.3856   20.3738 C   0  0  0  0  0  0
   -0.8100   47.6890   20.4775 C   0  0  0  0  0  0
   -1.2895   43.7748   19.5297 S   0  0  0  0  0  0
   -2.7113   43.9076   19.2034 O   0  0  0  0  0  0
   -0.9828   43.2967   20.8814 O   0  0  0  0  0  0
   -0.4802   43.0880   18.3666 N   0  5  0  0  0  0
    0.7520   42.4837   18.4420 C   0  0  0  0  0  0
    1.3707   42.1875   17.2224 C   0  0  0  0  0  0
    2.6035   41.5384   17.1618 C   0  0  0  0  0  0
    3.2242   41.1455   18.3397 C   0  0  0  0  0  0
    2.6279   41.4137   19.5660 C   0  0  0  0  0  0
    1.4170   42.0967   19.6175 C   0  0  0  0  0  0
    4.4128   40.5035   18.2950 F   0  0  0  0  0  0
    7.0446   54.9660   21.3796 H   0  0  0  0  0  0
    7.5038   55.8444   22.8356 H   0  0  0  0  0  0
    7.8026   54.0964   22.7101 H   0  0  0  0  0  0
    7.7222   54.5426   24.9261 H   0  0  0  0  0  0
    7.3088   54.3436   27.3370 H   0  0  0  0  0  0
    4.9959   54.2257   28.1879 H   0  0  0  0  0  0
    3.0980   54.3145   26.6277 H   0  0  0  0  0  0
    3.3160   55.1936   23.0535 H   0  0  0  0  0  0
    2.3030   55.0084   24.4808 H   0  0  0  0  0  0
    1.1044   54.0970   22.1865 H   0  0  0  0  0  0
    0.5772   53.7568   23.8622 H   0  0  0  0  0  0
   -0.4903   52.1148   22.3051 H   0  0  0  0  0  0
    0.5662   51.3540   23.4777 H   0  0  0  0  0  0
    1.1907   52.0009   20.6043 H   0  0  0  0  0  0
    3.1044   50.6062   22.4771 H   0  0  0  0  0  0
    3.4032   51.0460   20.8052 H   0  0  0  0  0  0
    3.3443   53.4813   21.3913 H   0  0  0  0  0  0
    4.4595   52.6197   22.4817 H   0  0  0  0  0  0
    0.2400   49.5598   21.7705 H   0  0  0  0  0  0
    1.7390   47.4869   18.2321 H   0  0  0  0  0  0
    0.8983   45.2198   18.0414 H   0  0  0  0  0  0
   -2.1321   46.0746   20.9765 H   0  0  0  0  0  0
   -1.3042   48.3663   21.1599 H   0  0  0  0  0  0
    0.8903   42.4677   16.2958 H   0  0  0  0  0  0
    3.0664   41.3309   16.2088 H   0  0  0  0  0  0
    3.1043   41.1031   20.4809 H   0  0  0  0  0  0
    1.0196   42.2822   20.5982 H   0  0  0  0  0  0
    2.6776   52.5336   24.1475 H   0  0  0  0  0  0
  1  2  1  0  0  0
  1 36  1  0  0  0
  1 37  1  0  0  0
  1 38  1  0  0  0
  2  3  1  0  0  0
  3  8  2  0  0  0
  3  4  1  0  0  0
  4  5  2  0  0  0
  4 39  1  0  0  0
  5  6  1  0  0  0
  5 40  1  0  0  0
  6  7  2  0  0  0
  6 41  1  0  0  0
  7  8  1  0  0  0
  7 42  1  0  0  0
  8  9  1  0  0  0
  9 10  1  0  0  0
  9 43  1  0  0  0
  9 44  1  0  0  0
 10 15  1  0  0  0
 10 11  1  0  0  0
 10 63  1  0  0  0
 11 12  1  0  0  0
 11 45  1  0  0  0
 11 46  1  0  0  0
 12 13  1  0  0  0
 12 47  1  0  0  0
 12 48  1  0  0  0
 13 14  1  0  0  0
 13 16  1  0  0  0
 13 49  1  0  0  0
 14 15  1  0  0  0
 14 50  1  0  0  0
 14 51  1  0  0  0
 15 52  1  0  0  0
 15 53  1  0  0  0
 16 17  1  0  0  0
 16 54  1  0  0  0
 17 18  2  0  0  0
 17 19  1  0  0  0
 19 24  2  0  0  0
 19 20  1  0  0  0
 20 21  2  0  0  0
 20 55  1  0  0  0
 21 22  1  0  0  0
 21 56  1  0  0  0
 22 23  2  0  0  0
 22 25  1  0  0  0
 23 24  1  0  0  0
 23 57  1  0  0  0
 24 58  1  0  0  0
 25 26  2  0  0  0
 25 27  2  0  0  0
 25 28  1  0  0  0
 28 29  1  0  0  0
 29 34  2  0  0  0
 29 30  1  0  0  0
 30 31  2  0  0  0
 30 59  1  0  0  0
 31 32  1  0  0  0
 31 60  1  0  0  0
 32 33  2  0  0  0
 32 35  1  0  0  0
 33 34  1  0  0  0
 33 61  1  0  0  0
 34 62  1  0  0  0
M  CHG  2  10   1  28  -1
M  END
> <i_i_glide_confnum>
268

> <i_i_glide_lignum>
5321

> <i_i_glide_posenum>
352

> <i_i_glide_rotatable_bonds>
9

> <i_m_Source_File_Index>
3823

> <b_m_subgroup_collapsed>
0

> <r_i_docking_score>
-2.77595

> <r_i_glide_ecoul>
-1.07344

> <r_i_glide_eff_state_penalty>
0

> <r_i_glide_einternal>
10.4978

> <r_i_glide_emodel>
-41.1496

> <r_i_glide_energy>
-42.8934

> <r_i_glide_erotb>
0.659163

> <r_i_glide_esite>
-0.159904

> <r_i_glide_evdw>
-41.82

> <r_i_glide_gscore>
-2.77595

> <r_i_glide_hbond>
0

> <r_i_glide_ligand_efficiency>
-0.079313

> <r_i_glide_ligand_efficiency_ln>
-0.609384

> <r_i_glide_ligand_efficiency_sa>
-0.259438

> <r_i_glide_lipo>
-2.71159

> <r_i_glide_metal>
0

> <r_i_glide_rewards>
1.68839

> <s_i_glide_gridfile>
wee1_glide-grid

> <s_m_Source_File>
wee1_decoys_glide_SP.sdf

> <s_m_Source_Path>
/Users/zhangxujun/Desktop

> <s_m_entry_id>
4098

> <s_m_entry_name>
wee1_decoys_glide_SP.3823

> <s_m_subgroup_title>
wee1_decoys_glide_SP

> <s_m_subgroupid>
wee1_decoys_glide_SP


$$$$
