ZINC06300988_1170
                    3D
 Schrodinger Suite 2024-2.
 72 77  0  0  1  0            999 V2000
    6.7056   52.4114   11.3733 C   0  0  0  0  0  0
    5.8833   53.1466   12.4166 C   0  0  0  0  0  0
    5.6344   54.5156   12.2767 C   0  0  0  0  0  0
    4.8933   55.2146   13.2374 C   0  0  0  0  0  0
    4.4000   54.5220   14.3508 C   0  0  0  0  0  0
    4.6528   53.1481   14.4930 C   0  0  0  0  0  0
    5.3951   52.4617   13.5324 C   0  0  0  0  0  0
    4.1170   52.4954   15.6958 C   0  0  0  0  0  0
    3.4093   53.1726   16.6329 C   0  0  0  0  0  0
    3.1527   54.6142   16.4816 C   0  0  0  0  0  0
    2.5572   55.3279   17.2812 O   0  0  0  0  0  0
    3.6545   55.1681   15.3560 N   0  0  0  0  0  0
    3.4695   56.1545   15.2842 H   0  0  0  0  0  0
    2.9016   52.4714   17.9066 C   0  0  2  0  0  0
    3.4852   51.5569   18.0098 H   0  0  0  0  0  0
    1.4020   52.1495   17.9248 C   0  0  0  0  0  0
    0.4636   53.0556   18.0806 N   0  0  0  0  0  0
   -0.7420   52.3739   18.1059 N   0  0  0  0  0  0
   -0.5120   51.0238   17.9471 N   0  0  0  0  0  0
    0.8214   50.8924   17.8310 N   0  0  0  0  0  0
    1.4319   49.5541   17.6375 C   0  0  0  0  0  0
    2.3054   49.0636   18.8203 C   0  0  0  0  0  0
    1.4695   48.5688   20.0148 C   0  0  0  0  0  0
    0.5017   47.4465   19.5832 C   0  0  0  0  0  0
   -0.3812   47.8495   18.3807 C   0  0  0  0  0  0
    0.4446   48.4311   17.2048 C   0  0  0  0  0  0
    4.8206   53.4075   19.3607 C   0  0  0  0  0  0
    5.1132   54.2661   20.6126 C   0  0  0  0  0  0
    4.4973   53.6451   21.8732 C   0  0  0  0  0  0
    3.3584   52.9284   21.7733 C   0  0  0  0  0  0
    2.6897   52.5010   20.4820 C   0  0  0  0  0  0
    4.9505   54.0977   23.2188 C   0  0  0  0  0  0
    6.3179   54.2591   23.4639 C   0  0  0  0  0  0
    6.7745   54.6275   24.7250 C   0  0  0  0  0  0
    5.8742   54.8316   25.7599 C   0  0  0  0  0  0
    4.5113   54.6761   25.5446 C   0  0  0  0  0  0
    4.0531   54.3121   24.2802 C   0  0  0  0  0  0
    6.3316   55.1842   26.9822 F   0  0  0  0  0  0
    4.6423   56.7054   13.0509 C   0  0  0  0  0  0
    7.2563   51.5815   11.8171 H   0  0  0  0  0  0
    6.0610   52.0242   10.5815 H   0  0  0  0  0  0
    7.4488   53.0733   10.9273 H   0  0  0  0  0  0
    6.0235   55.0379   11.4133 H   0  0  0  0  0  0
    5.5899   51.4050   13.6523 H   0  0  0  0  0  0
    4.3002   51.4388   15.8337 H   0  0  0  0  0  0
    2.0819   49.7272   16.7784 H   0  0  0  0  0  0
    2.9464   48.2532   18.4648 H   0  0  0  0  0  0
    3.0639   49.7840   19.1065 H   0  0  0  0  0  0
    2.1310   48.2127   20.8068 H   0  0  0  0  0  0
    0.9039   49.4032   20.4385 H   0  0  0  0  0  0
    1.0817   46.5601   19.3195 H   0  0  0  0  0  0
   -0.1260   47.1570   20.4296 H   0  0  0  0  0  0
   -0.9509   46.9841   18.0366 H   0  0  0  0  0  0
   -1.1258   48.5726   18.7121 H   0  0  0  0  0  0
   -0.1969   48.7783   16.3928 H   0  0  0  0  0  0
    1.0190   47.6388   16.7187 H   0  0  0  0  0  0
    5.1683   53.9278   18.4699 H   0  0  0  0  0  0
    5.2716   52.4149   19.3986 H   0  0  0  0  0  0
    4.7028   55.2662   20.4702 H   0  0  0  0  0  0
    6.1858   54.4201   20.7155 H   0  0  0  0  0  0
    2.8905   52.5781   22.6812 H   0  0  0  0  0  0
    2.8353   51.4324   20.3701 H   0  0  0  0  0  0
    1.6242   52.7290   20.5011 H   0  0  0  0  0  0
    7.0535   54.0917   22.6916 H   0  0  0  0  0  0
    7.8322   54.7496   24.8832 H   0  0  0  0  0  0
    3.8141   54.8378   26.3521 H   0  0  0  0  0  0
    2.9879   54.2138   24.1352 H   0  0  0  0  0  0
    5.0993   57.0925   12.1383 H   0  0  0  0  0  0
    3.5711   56.9055   13.0065 H   0  0  0  0  0  0
    5.0466   57.2650   13.8957 H   0  0  0  0  0  0
    3.2890   53.2091   19.2354 N   0  3  2  0  0  0
    2.8437   54.1234   19.1820 H   0  0  0  0  0  0
  1  2  1  0  0  0
  1 40  1  0  0  0
  1 41  1  0  0  0
  1 42  1  0  0  0
  2  7  2  0  0  0
  2  3  1  0  0  0
  3  4  2  0  0  0
  3 43  1  0  0  0
  4  5  1  0  0  0
  4 39  1  0  0  0
  5 12  1  0  0  0
  5  6  2  0  0  0
  6  7  1  0  0  0
  6  8  1  0  0  0
  7 44  1  0  0  0
  8  9  2  0  0  0
  8 45  1  0  0  0
  9 10  1  0  0  0
  9 14  1  0  0  0
 10 11  2  0  0  0
 10 12  1  0  0  0
 12 13  1  0  0  0
 14 15  1  0  0  0
 14 16  1  0  0  0
 14 71  1  0  0  0
 16 20  1  0  0  0
 16 17  2  0  0  0
 17 18  1  0  0  0
 18 19  2  0  0  0
 19 20  1  0  0  0
 20 21  1  0  0  0
 21 26  1  0  0  0
 21 22  1  0  0  0
 21 46  1  0  0  0
 22 23  1  0  0  0
 22 47  1  0  0  0
 22 48  1  0  0  0
 23 24  1  0  0  0
 23 49  1  0  0  0
 23 50  1  0  0  0
 24 25  1  0  0  0
 24 51  1  0  0  0
 24 52  1  0  0  0
 25 26  1  0  0  0
 25 53  1  0  0  0
 25 54  1  0  0  0
 26 55  1  0  0  0
 26 56  1  0  0  0
 27 28  1  0  0  0
 27 57  1  0  0  0
 27 58  1  0  0  0
 27 71  1  0  0  0
 28 29  1  0  0  0
 28 59  1  0  0  0
 28 60  1  0  0  0
 29 30  2  0  0  0
 29 32  1  0  0  0
 30 31  1  0  0  0
 30 61  1  0  0  0
 31 62  1  0  0  0
 31 63  1  0  0  0
 31 71  1  0  0  0
 32 37  2  0  0  0
 32 33  1  0  0  0
 33 34  2  0  0  0
 33 64  1  0  0  0
 34 35  1  0  0  0
 34 65  1  0  0  0
 35 36  2  0  0  0
 35 38  1  0  0  0
 36 37  1  0  0  0
 36 66  1  0  0  0
 37 67  1  0  0  0
 39 68  1  0  0  0
 39 69  1  0  0  0
 39 70  1  0  0  0
 71 72  1  0  0  0
M  CHG  1  71   1
M  END
> <i_i_glide_confnum>
154

> <i_i_glide_lignum>
1171

> <i_i_glide_posenum>
251

> <i_i_glide_rotatable_bonds>
5

> <i_m_Source_File_Index>
1345

> <b_m_subgroup_collapsed>
0

> <r_i_docking_score>
-4.08547

> <r_i_glide_ecoul>
-3.31484

> <r_i_glide_eff_state_penalty>
0

> <r_i_glide_einternal>
3.01701

> <r_i_glide_emodel>
-43.8365

> <r_i_glide_energy>
-34.4803

> <r_i_glide_erotb>
0.38867

> <r_i_glide_esite>
-0.102427

> <r_i_glide_evdw>
-31.1655

> <r_i_glide_gscore>
-4.08547

> <r_i_glide_hbond>
0

> <r_i_glide_ligand_efficiency>
-0.107512

> <r_i_glide_ligand_efficiency_ln>
-0.880947

> <r_i_glide_ligand_efficiency_sa>
-0.361454

> <r_i_glide_lipo>
-1.8987

> <r_i_glide_metal>
0

> <r_i_glide_rewards>
-0.417516

> <s_i_glide_gridfile>
wee1_glide-grid

> <s_m_Source_File>
wee1_decoys_glide_SP.sdf

> <s_m_Source_Path>
/Users/zhangxujun/Desktop

> <s_m_entry_id>
1620

> <s_m_entry_name>
wee1_decoys_glide_SP.1345

> <s_m_subgroup_title>
wee1_decoys_glide_SP

> <s_m_subgroupid>
wee1_decoys_glide_SP


$$$$
