ZINC40877627_5562
                    3D
 Schrodinger Suite 2024-2.
 76 81  0  0  1  0            999 V2000
    6.4485   54.5361   22.9842 C   0  0  0  0  0  0
    6.2843   54.4975   24.3666 C   0  0  0  0  0  0
    5.0087   54.4215   24.9570 C   0  0  0  0  0  0
    3.8987   54.4135   24.0835 C   0  0  0  0  0  0
    4.0675   54.4149   22.6989 C   0  0  0  0  0  0
    5.3423   54.4965   22.1315 C   0  0  0  0  0  0
    5.5046   54.6088   20.6485 C   0  0  0  0  0  0
    4.6152   54.1164   19.8069 N   0  0  0  0  0  0
    5.1126   54.4596   18.6491 C   0  0  0  0  0  0
    6.2791   55.1423   18.7397 O   0  0  0  0  0  0
    6.5301   55.2366   20.1059 N   0  0  0  0  0  0
    4.5411   54.2043   17.2693 C   0  0  0  0  0  0
    3.8519   52.8966   16.9582 C   0  0  0  0  0  0
    3.0439   54.1758   17.0568 C   0  0  0  0  0  0
    2.6298   54.4399   24.5511 F   0  0  0  0  0  0
    4.8496   54.3771   26.3520 N   0  0  0  0  0  0
    6.0397   54.4287   27.2333 C   0  0  0  0  0  0
    5.7518   54.5004   28.7500 C   0  0  0  0  0  0
    4.7044   53.5248   29.2814 C   0  0  0  0  0  0
    3.5114   53.5151   28.3367 C   0  0  1  0  0  0
    2.9891   54.4675   28.4320 H   0  0  0  0  0  0
    4.0057   53.2967   26.8863 C   0  0  0  0  0  0
    2.4568   52.4619   28.7785 C   0  0  0  0  0  0
    2.7385   51.6969   29.7050 O   0  0  0  0  0  0
    1.2814   52.3434   28.1180 N   0  0  0  0  0  0
    0.3153   51.2959   28.4315 C   0  0  0  0  0  0
    0.1701   50.5027   27.0963 C   0  0  0  0  0  0
   -0.4955   51.3545   25.9819 C   0  0  0  0  0  0
    0.4685   52.5585   25.8136 C   0  0  0  0  0  0
    0.7821   53.2967   27.1448 C   0  0  0  0  0  0
   -1.9675   51.7337   26.3879 C   0  0  0  0  0  0
   -2.4820   52.7773   25.9930 O   0  0  0  0  0  0
   -2.6711   50.8969   27.1655 N   0  0  0  0  0  0
   -0.5843   50.5573   24.6217 N   0  3  0  0  0  0
   -0.9453   51.4907   23.4208 C   0  0  0  0  0  0
   -1.2202   50.6477   22.1683 C   0  0  0  0  0  0
    0.0182   49.8353   21.7818 C   0  0  0  0  0  0
    0.4850   48.9721   22.9586 C   0  0  0  0  0  0
    0.7041   49.7627   24.2545 C   0  0  0  0  0  0
    7.4485   54.6068   22.5797 H   0  0  0  0  0  0
    7.1817   54.5204   24.9639 H   0  0  0  0  0  0
    3.1920   54.4171   22.0641 H   0  0  0  0  0  0
    5.1401   54.6314   16.4645 H   0  0  0  0  0  0
    4.0224   52.4377   15.9835 H   0  0  0  0  0  0
    3.7777   52.1456   17.7468 H   0  0  0  0  0  0
    2.3878   54.3257   17.9158 H   0  0  0  0  0  0
    2.6431   54.6237   16.1471 H   0  0  0  0  0  0
    6.6034   55.3256   26.9731 H   0  0  0  0  0  0
    6.6911   53.5770   27.0257 H   0  0  0  0  0  0
    5.5043   55.5199   29.0331 H   0  0  0  0  0  0
    6.6902   54.3097   29.2695 H   0  0  0  0  0  0
    4.4123   53.8486   30.2819 H   0  0  0  0  0  0
    5.1966   52.5500   29.2890 H   0  0  0  0  0  0
    4.6672   52.4395   26.8823 H   0  0  0  0  0  0
    3.1949   53.0200   26.2251 H   0  0  0  0  0  0
   -0.6254   51.7564   28.7366 H   0  0  0  0  0  0
    0.6077   50.6769   29.2809 H   0  0  0  0  0  0
   -0.4818   49.6807   27.2817 H   0  0  0  0  0  0
    1.1490   50.1058   26.8437 H   0  0  0  0  0  0
    1.4036   52.2599   25.3475 H   0  0  0  0  0  0
    0.0234   53.2968   25.1531 H   0  0  0  0  0  0
   -0.1384   53.6938   27.5786 H   0  0  0  0  0  0
    1.4306   54.1579   26.9830 H   0  0  0  0  0  0
   -2.2708   50.0305   27.5249 H   0  0  0  0  0  0
   -3.6185   51.1340   27.4154 H   0  0  0  0  0  0
   -0.1258   52.1915   23.2531 H   0  0  0  0  0  0
   -1.8540   52.0374   23.6699 H   0  0  0  0  0  0
   -1.5068   51.2994   21.3416 H   0  0  0  0  0  0
   -2.0692   49.9849   22.3420 H   0  0  0  0  0  0
   -0.1986   49.2065   20.9171 H   0  0  0  0  0  0
    0.8230   50.5052   21.4722 H   0  0  0  0  0  0
   -0.2307   48.1687   23.1404 H   0  0  0  0  0  0
    1.4297   48.4967   22.6937 H   0  0  0  0  0  0
    1.5424   50.4522   24.1698 H   0  0  0  0  0  0
    0.8914   49.0303   25.0399 H   0  0  0  0  0  0
   -1.3449   49.9003   24.7314 H   0  0  0  0  0  0
  1  6  2  0  0  0
  1  2  1  0  0  0
  1 40  1  0  0  0
  2  3  2  0  0  0
  2 41  1  0  0  0
  3  4  1  0  0  0
  3 16  1  0  0  0
  4  5  2  0  0  0
  4 15  1  0  0  0
  5  6  1  0  0  0
  5 42  1  0  0  0
  6  7  1  0  0  0
  7 11  2  0  0  0
  7  8  1  0  0  0
  8  9  2  0  0  0
  9 10  1  0  0  0
  9 12  1  0  0  0
 10 11  1  0  0  0
 12 14  1  0  0  0
 12 13  1  0  0  0
 12 43  1  0  0  0
 13 14  1  0  0  0
 13 44  1  0  0  0
 13 45  1  0  0  0
 14 46  1  0  0  0
 14 47  1  0  0  0
 16 22  1  0  0  0
 16 17  1  0  0  0
 17 18  1  0  0  0
 17 48  1  0  0  0
 17 49  1  0  0  0
 18 19  1  0  0  0
 18 50  1  0  0  0
 18 51  1  0  0  0
 19 20  1  0  0  0
 19 52  1  0  0  0
 19 53  1  0  0  0
 20 21  1  0  0  0
 20 22  1  0  0  0
 20 23  1  0  0  0
 22 54  1  0  0  0
 22 55  1  0  0  0
 23 24  2  0  0  0
 23 25  1  0  0  0
 25 30  1  0  0  0
 25 26  1  0  0  0
 26 27  1  0  0  0
 26 56  1  0  0  0
 26 57  1  0  0  0
 27 28  1  0  0  0
 27 58  1  0  0  0
 27 59  1  0  0  0
 28 29  1  0  0  0
 28 31  1  0  0  0
 28 34  1  0  0  0
 29 30  1  0  0  0
 29 60  1  0  0  0
 29 61  1  0  0  0
 30 62  1  0  0  0
 30 63  1  0  0  0
 31 32  2  0  0  0
 31 33  1  0  0  0
 33 64  1  0  0  0
 33 65  1  0  0  0
 34 39  1  0  0  0
 34 35  1  0  0  0
 34 76  1  0  0  0
 35 36  1  0  0  0
 35 66  1  0  0  0
 35 67  1  0  0  0
 36 37  1  0  0  0
 36 68  1  0  0  0
 36 69  1  0  0  0
 37 38  1  0  0  0
 37 70  1  0  0  0
 37 71  1  0  0  0
 38 39  1  0  0  0
 38 72  1  0  0  0
 38 73  1  0  0  0
 39 74  1  0  0  0
 39 75  1  0  0  0
M  CHG  1  34   1
M  END
> <i_i_glide_confnum>
63

> <i_i_glide_lignum>
5563

> <i_i_glide_posenum>
78

> <i_i_glide_rotatable_bonds>
7

> <i_m_Source_File_Index>
356

> <b_m_subgroup_collapsed>
0

> <r_i_docking_score>
-6.91704

> <r_i_glide_ecoul>
-8.13437

> <r_i_glide_eff_state_penalty>
0

> <r_i_glide_einternal>
5.30913

> <r_i_glide_emodel>
-66.4728

> <r_i_glide_energy>
-46.2254

> <r_i_glide_erotb>
0.447

> <r_i_glide_esite>
-0.125031

> <r_i_glide_evdw>
-38.091

> <r_i_glide_gscore>
-6.91704

> <r_i_glide_hbond>
-0.428193

> <r_i_glide_ligand_efficiency>
-0.182027

> <r_i_glide_ligand_efficiency_ln>
-1.49152

> <r_i_glide_ligand_efficiency_sa>
-0.611972

> <r_i_glide_lipo>
-2.39919

> <r_i_glide_metal>
0

> <r_i_glide_rewards>
-1.28692

> <s_i_glide_gridfile>
wee1_glide-grid

> <s_m_Source_File>
wee1_decoys_glide_SP.sdf

> <s_m_Source_Path>
/Users/zhangxujun/Desktop

> <s_m_entry_id>
631

> <s_m_entry_name>
wee1_decoys_glide_SP.356

> <s_m_subgroup_title>
wee1_decoys_glide_SP

> <s_m_subgroupid>
wee1_decoys_glide_SP


$$$$
