ZINC59921061_2837
                    3D
 Schrodinger Suite 2024-2.
 48 50  0  0  1  0            999 V2000
   -8.1411   45.3674   25.6823 C   0  0  0  0  0  0
   -8.0828   44.0599   26.1538 C   0  0  0  0  0  0
   -6.8481   43.4781   26.4246 C   0  0  0  0  0  0
   -5.6689   44.1983   26.2250 C   0  0  0  0  0  0
   -5.7055   45.5348   25.7634 C   0  0  0  0  0  0
   -6.9665   46.0935   25.4921 C   0  0  0  0  0  0
   -4.5259   46.4109   25.5750 C   0  0  0  0  0  0
   -3.3094   46.0964   25.8366 N   0  0  0  0  0  0
   -2.2625   46.9943   25.6821 N   0  0  0  0  0  0
   -2.1460   48.1299   24.9388 C   0  0  0  0  0  0
   -3.0056   48.5539   24.1593 O   0  0  0  0  0  0
   -0.8164   48.9093   25.0844 C   0  0  0  0  0  0
   -0.1661   49.0628   23.6760 C   0  0  0  0  0  0
    1.1044   49.9377   23.7594 C   0  0  0  0  0  0
    0.7978   51.2292   24.4144 N   0  0  0  0  0  0
    0.1604   51.1575   25.7508 C   0  0  0  0  0  0
   -1.1311   50.3128   25.6820 C   0  0  0  0  0  0
    0.9425   52.7694   23.5413 S   0  0  0  0  0  0
    1.0225   52.4910   22.1027 O   0  0  0  0  0  0
   -0.0563   53.6958   24.0817 O   0  0  0  0  0  0
    2.5345   53.4381   24.0340 C   0  0  0  0  0  0
    3.5220   53.6947   23.0786 C   0  0  0  0  0  0
    4.7649   54.1801   23.4800 C   0  0  0  0  0  0
    5.0045   54.4467   24.8275 C   0  0  0  0  0  0
    4.0141   54.2090   25.7799 C   0  0  0  0  0  0
    2.7780   53.7014   25.3845 C   0  0  0  0  0  0
    6.6971   55.1371   25.3704 Br  0  0  0  0  0  0
   -4.4956   43.5434   26.4817 O   0  0  0  0  0  0
   -9.0978   45.8213   25.4706 H   0  0  0  0  0  0
   -8.9916   43.4965   26.3058 H   0  0  0  0  0  0
   -6.8098   42.4573   26.7768 H   0  0  0  0  0  0
   -7.0537   47.1115   25.1380 H   0  0  0  0  0  0
   -4.7901   47.4017   25.2178 H   0  0  0  0  0  0
   -1.4209   46.6873   26.1522 H   0  0  0  0  0  0
   -0.1642   48.3480   25.7577 H   0  0  0  0  0  0
    0.1469   48.0969   23.2811 H   0  0  0  0  0  0
   -0.8278   49.5789   22.9755 H   0  0  0  0  0  0
    1.9042   49.4479   24.3146 H   0  0  0  0  0  0
    1.4962   50.1287   22.7594 H   0  0  0  0  0  0
    0.8802   50.7507   26.4615 H   0  0  0  0  0  0
   -0.0717   52.1673   26.0863 H   0  0  0  0  0  0
   -1.8211   50.8786   25.0509 H   0  0  0  0  0  0
   -1.5071   50.2314   26.7041 H   0  0  0  0  0  0
    3.3385   53.5040   22.0302 H   0  0  0  0  0  0
    5.5367   54.3646   22.7468 H   0  0  0  0  0  0
    4.2058   54.4132   26.8229 H   0  0  0  0  0  0
    2.0142   53.5138   26.1248 H   0  0  0  0  0  0
   -4.5055   42.9935   27.2736 H   0  0  0  0  0  0
  1  6  2  0  0  0
  1  2  1  0  0  0
  1 29  1  0  0  0
  2  3  2  0  0  0
  2 30  1  0  0  0
  3  4  1  0  0  0
  3 31  1  0  0  0
  4  5  2  0  0  0
  4 28  1  0  0  0
  5  6  1  0  0  0
  5  7  1  0  0  0
  6 32  1  0  0  0
  7  8  2  0  0  0
  7 33  1  0  0  0
  8  9  1  0  0  0
  9 10  1  0  0  0
  9 34  1  0  0  0
 10 11  2  0  0  0
 10 12  1  0  0  0
 12 17  1  0  0  0
 12 13  1  0  0  0
 12 35  1  0  0  0
 13 14  1  0  0  0
 13 36  1  0  0  0
 13 37  1  0  0  0
 14 15  1  0  0  0
 14 38  1  0  0  0
 14 39  1  0  0  0
 15 16  1  0  0  0
 15 18  1  0  0  0
 16 17  1  0  0  0
 16 40  1  0  0  0
 16 41  1  0  0  0
 17 42  1  0  0  0
 17 43  1  0  0  0
 18 19  2  0  0  0
 18 20  2  0  0  0
 18 21  1  0  0  0
 21 26  2  0  0  0
 21 22  1  0  0  0
 22 23  2  0  0  0
 22 44  1  0  0  0
 23 24  1  0  0  0
 23 45  1  0  0  0
 24 25  2  0  0  0
 24 27  1  0  0  0
 25 26  1  0  0  0
 25 46  1  0  0  0
 26 47  1  0  0  0
 28 48  1  0  0  0
M  END
> <i_i_glide_confnum>
42

> <i_i_glide_lignum>
2838

> <i_i_glide_posenum>
353

> <i_i_glide_rotatable_bonds>
7

> <i_m_Source_File_Index>
6010

> <b_m_subgroup_collapsed>
0

> <r_i_docking_score>
-4.09511

> <r_i_glide_ecoul>
-7.91135

> <r_i_glide_eff_state_penalty>
0

> <r_i_glide_einternal>
3.68341

> <r_i_glide_emodel>
-50.5183

> <r_i_glide_energy>
-40.4389

> <r_i_glide_erotb>
0.556571

> <r_i_glide_esite>
-0.18721

> <r_i_glide_evdw>
-32.5275

> <r_i_glide_gscore>
-4.09511

> <r_i_glide_hbond>
-0.251598

> <r_i_glide_ligand_efficiency>
-0.146254

> <r_i_glide_ligand_efficiency_ln>
-0.945272

> <r_i_glide_ligand_efficiency_sa>
-0.444113

> <r_i_glide_lipo>
-1.60055

> <r_i_glide_metal>
0

> <r_i_glide_rewards>
0.200757

> <s_i_glide_gridfile>
wee1_glide-grid

> <s_m_Source_File>
wee1_decoys_glide_SP.sdf

> <s_m_Source_Path>
/Users/zhangxujun/Desktop

> <s_m_entry_id>
6285

> <s_m_entry_name>
wee1_decoys_glide_SP.6010

> <s_m_subgroup_title>
wee1_decoys_glide_SP

> <s_m_subgroupid>
wee1_decoys_glide_SP


$$$$
