ZINC43223274_594
                    3D
 Schrodinger Suite 2024-2.
 68 71  0  0  1  0            999 V2000
    2.9357   52.5907   28.9934 C   0  0  0  0  0  0
    2.3263   53.2253   27.9121 C   0  0  0  0  0  0
    3.0944   54.0063   27.0522 C   0  0  0  0  0  0
    4.4702   54.1449   27.2622 C   0  0  0  0  0  0
    5.0754   53.4936   28.3415 C   0  0  0  0  0  0
    4.3045   52.7155   29.2092 C   0  0  0  0  0  0
    5.2969   55.0434   26.3408 C   0  0  0  0  0  0
    5.7666   54.4080   25.0162 C   0  0  0  0  0  0
    4.5908   54.0287   24.1019 C   0  0  0  0  0  0
    5.0375   53.4637   22.7476 C   0  0  0  0  0  0
    5.8903   54.4796   22.0992 N   0  0  0  0  0  0
    7.1139   54.8328   22.8465 C   0  0  0  0  0  0
    6.7024   55.3605   24.2375 C   0  0  0  0  0  0
    5.7286   54.8688   20.8014 C   0  0  0  0  0  0
    6.5612   55.5634   20.2177 O   0  0  0  0  0  0
    4.4121   54.4971   20.0467 C   0  0  1  0  0  0
    3.6257   54.6767   20.7775 H   0  0  0  0  0  0
    4.1578   55.3854   18.8036 C   0  0  0  0  0  0
    4.8069   54.6020   17.6566 N   0  3  0  0  0  0
    4.3474   53.1649   17.9401 C   0  0  0  0  0  0
    4.4969   53.0442   19.4690 C   0  0  2  0  0  0
    5.4764   52.5958   19.6617 H   0  0  0  0  0  0
    3.4901   52.0593   20.1069 C   0  0  0  0  0  0
    3.8852   50.9567   20.4818 O   0  0  0  0  0  0
    2.2406   52.4965   20.3544 N   0  0  0  0  0  0
    1.2643   51.7607   21.1606 C   0  0  0  0  0  0
    1.6097   51.7565   22.6670 C   0  0  0  0  0  0
    0.5111   51.2064   23.5635 C   0  0  0  0  0  0
    0.6504   49.9559   24.1781 C   0  0  0  0  0  0
   -0.3346   49.4872   25.0440 C   0  0  0  0  0  0
   -1.4759   50.2535   25.2868 C   0  0  0  0  0  0
   -1.6400   51.5005   24.6632 C   0  0  0  0  0  0
   -0.6339   51.9702   23.8108 C   0  0  0  0  0  0
   -2.9028   52.3260   24.9115 C   0  0  0  0  0  0
   -3.9853   51.5478   24.8684 F   0  0  0  0  0  0
   -2.8304   52.8936   26.1147 F   0  0  0  0  0  0
   -3.0555   53.2951   24.0043 F   0  0  0  0  0  0
    2.3353   51.9875   29.6607 H   0  0  0  0  0  0
    1.2648   53.1136   27.7434 H   0  0  0  0  0  0
    2.6153   54.4985   26.2187 H   0  0  0  0  0  0
    6.1368   53.5923   28.5151 H   0  0  0  0  0  0
    4.7652   52.2097   30.0443 H   0  0  0  0  0  0
    6.1521   55.4224   26.9057 H   0  0  0  0  0  0
    4.7044   55.9202   26.0818 H   0  0  0  0  0  0
    6.3327   53.4972   25.2220 H   0  0  0  0  0  0
    3.9495   54.8937   23.9297 H   0  0  0  0  0  0
    3.9439   53.3056   24.5993 H   0  0  0  0  0  0
    4.1264   53.2356   22.2138 H   0  0  0  0  0  0
    5.6131   52.5455   22.8816 H   0  0  0  0  0  0
    7.7189   53.9322   22.9607 H   0  0  0  0  0  0
    7.7090   55.5990   22.3480 H   0  0  0  0  0  0
    7.5748   55.5915   24.8443 H   0  0  0  0  0  0
    6.2348   56.3311   24.0885 H   0  0  0  0  0  0
    3.1060   55.4311   18.5107 H   0  0  0  0  0  0
    4.5681   56.3972   18.8300 H   0  0  0  0  0  0
    4.5356   54.9334   16.7413 H   0  0  0  0  0  0
    4.9837   52.4969   17.3587 H   0  0  0  0  0  0
    3.3158   53.0947   17.5853 H   0  0  0  0  0  0
    1.9762   53.4343   20.0707 H   0  0  0  0  0  0
    1.0934   50.7469   20.7966 H   0  0  0  0  0  0
    0.2948   52.2417   21.0225 H   0  0  0  0  0  0
    1.8325   52.7725   22.9982 H   0  0  0  0  0  0
    2.5310   51.1968   22.8372 H   0  0  0  0  0  0
    1.5266   49.3478   24.0003 H   0  0  0  0  0  0
   -0.2162   48.5307   25.5371 H   0  0  0  0  0  0
   -2.2256   49.8756   25.9676 H   0  0  0  0  0  0
   -0.7336   52.9360   23.3388 H   0  0  0  0  0  0
    5.8165   54.6720   17.7206 H   0  0  0  0  0  0
  1  6  2  0  0  0
  1  2  1  0  0  0
  1 38  1  0  0  0
  2  3  2  0  0  0
  2 39  1  0  0  0
  3  4  1  0  0  0
  3 40  1  0  0  0
  4  5  2  0  0  0
  4  7  1  0  0  0
  5  6  1  0  0  0
  5 41  1  0  0  0
  6 42  1  0  0  0
  7  8  1  0  0  0
  7 43  1  0  0  0
  7 44  1  0  0  0
  8 13  1  0  0  0
  8  9  1  0  0  0
  8 45  1  0  0  0
  9 10  1  0  0  0
  9 46  1  0  0  0
  9 47  1  0  0  0
 10 11  1  0  0  0
 10 48  1  0  0  0
 10 49  1  0  0  0
 11 12  1  0  0  0
 11 14  1  0  0  0
 12 13  1  0  0  0
 12 50  1  0  0  0
 12 51  1  0  0  0
 13 52  1  0  0  0
 13 53  1  0  0  0
 14 15  2  0  0  0
 14 16  1  0  0  0
 16 17  1  0  0  0
 16 21  1  0  0  0
 16 18  1  0  0  0
 18 19  1  0  0  0
 18 54  1  0  0  0
 18 55  1  0  0  0
 19 20  1  0  0  0
 19 56  1  0  0  0
 19 68  1  0  0  0
 20 21  1  0  0  0
 20 57  1  0  0  0
 20 58  1  0  0  0
 21 22  1  0  0  0
 21 23  1  0  0  0
 23 24  2  0  0  0
 23 25  1  0  0  0
 25 26  1  0  0  0
 25 59  1  0  0  0
 26 27  1  0  0  0
 26 60  1  0  0  0
 26 61  1  0  0  0
 27 28  1  0  0  0
 27 62  1  0  0  0
 27 63  1  0  0  0
 28 33  2  0  0  0
 28 29  1  0  0  0
 29 30  2  0  0  0
 29 64  1  0  0  0
 30 31  1  0  0  0
 30 65  1  0  0  0
 31 32  2  0  0  0
 31 66  1  0  0  0
 32 33  1  0  0  0
 32 34  1  0  0  0
 33 67  1  0  0  0
 34 35  1  0  0  0
 34 36  1  0  0  0
 34 37  1  0  0  0
M  CHG  1  19   1
M  END
> <i_i_glide_confnum>
256

> <i_i_glide_lignum>
595

> <i_i_glide_posenum>
339

> <i_i_glide_rotatable_bonds>
10

> <i_m_Source_File_Index>
75

> <b_m_subgroup_collapsed>
0

> <r_i_docking_score>
-6.58882

> <r_i_glide_ecoul>
-5.95051

> <r_i_glide_eff_state_penalty>
0

> <r_i_glide_einternal>
12.9226

> <r_i_glide_emodel>
-64.515

> <r_i_glide_energy>
-49.2804

> <r_i_glide_erotb>
0.766817

> <r_i_glide_esite>
-0.0710344

> <r_i_glide_evdw>
-43.3298

> <r_i_glide_gscore>
-6.58882

> <r_i_glide_hbond>
-0.379202

> <r_i_glide_ligand_efficiency>
-0.188252

> <r_i_glide_ligand_efficiency_ln>
-1.44639

> <r_i_glide_ligand_efficiency_sa>
-0.615785

> <r_i_glide_lipo>
-2.81418

> <r_i_glide_metal>
0

> <r_i_glide_rewards>
-1.03215

> <s_i_glide_gridfile>
wee1_glide-grid

> <s_m_Source_File>
wee1_decoys_glide_SP.sdf

> <s_m_Source_Path>
/Users/zhangxujun/Desktop

> <s_m_entry_id>
350

> <s_m_entry_name>
wee1_decoys_glide_SP.75

> <s_m_subgroup_title>
wee1_decoys_glide_SP

> <s_m_subgroupid>
wee1_decoys_glide_SP


$$$$
