ZINC48101004_2168
                    3D
 Schrodinger Suite 2024-2.
 60 62  0  0  1  0            999 V2000
    4.5531   54.8443   29.5043 C   0  0  0  0  0  0
    4.4872   53.6468   28.5477 C   0  0  1  0  0  0
    5.4038   53.0778   28.7185 H   0  0  0  0  0  0
    3.3323   52.6619   28.8921 C   0  0  0  0  0  0
    1.9575   53.0203   28.3079 C   0  0  0  0  0  0
    2.0779   53.3737   26.8212 C   0  0  0  0  0  0
    3.1058   54.4989   26.6275 C   0  0  0  0  0  0
    4.4182   54.0145   27.1101 N   0  0  0  0  0  0
    5.5832   54.1692   26.4072 C   0  0  0  0  0  0
    6.6874   54.1113   26.9598 O   0  0  0  0  0  0
    5.5762   54.3981   24.9050 C   0  0  0  0  0  0
    4.6228   53.8175   24.0518 C   0  0  0  0  0  0
    4.7119   53.9696   22.6682 C   0  0  0  0  0  0
    5.7504   54.7151   22.1164 C   0  0  0  0  0  0
    6.7052   55.2925   22.9560 C   0  0  0  0  0  0
    6.6217   55.1287   24.3311 C   0  0  0  0  0  0
    5.8057   54.8335   20.7211 N   0  0  0  0  0  0
    6.3068   55.8607   20.0139 C   0  0  0  0  0  0
    6.7039   56.9313   20.4805 O   0  0  0  0  0  0
    6.2856   55.5782   18.7080 N   0  0  0  0  0  0
    6.0325   56.5434   17.6383 C   0  0  0  0  0  0
    4.5549   56.5162   17.1493 C   0  0  2  0  0  0
    3.9301   57.0257   17.8873 H   0  0  0  0  0  0
    3.9839   55.1313   16.8567 C   0  0  0  0  0  0
    4.6301   53.9256   16.5621 C   0  0  0  0  0  0
    3.7749   52.8334   16.4027 C   0  0  0  0  0  0
    2.4449   53.1800   16.5402 C   0  0  0  0  0  0
    2.2584   54.8667   16.8817 S   0  0  0  0  0  0
    4.3543   57.3841   15.8778 N   0  3  0  0  0  0
    4.4806   58.8973   16.1615 C   0  0  0  0  0  0
    5.1995   56.9788   14.6465 C   0  0  0  0  0  0
    4.5011   54.4967   30.5339 H   0  0  0  0  0  0
    3.7286   55.5411   29.3520 H   0  0  0  0  0  0
    5.5030   55.3683   29.4073 H   0  0  0  0  0  0
    3.6061   51.6963   28.4823 H   0  0  0  0  0  0
    3.2593   52.5057   29.9692 H   0  0  0  0  0  0
    1.2626   52.1896   28.4429 H   0  0  0  0  0  0
    1.5338   53.8650   28.8530 H   0  0  0  0  0  0
    2.3544   52.4976   26.2327 H   0  0  0  0  0  0
    1.1062   53.6953   26.4443 H   0  0  0  0  0  0
    3.1039   54.8971   25.6155 H   0  0  0  0  0  0
    2.8187   55.3317   27.2659 H   0  0  0  0  0  0
    3.8215   53.2119   24.4422 H   0  0  0  0  0  0
    3.9726   53.5035   22.0347 H   0  0  0  0  0  0
    7.5410   55.8470   22.5569 H   0  0  0  0  0  0
    7.3973   55.5672   24.9408 H   0  0  0  0  0  0
    5.3060   54.1227   20.2059 H   0  0  0  0  0  0
    6.3304   54.6103   18.4331 H   0  0  0  0  0  0
    6.2934   57.5506   17.9708 H   0  0  0  0  0  0
    6.7224   56.3131   16.8254 H   0  0  0  0  0  0
    5.7039   53.8316   16.4876 H   0  0  0  0  0  0
    4.1172   51.8256   16.2010 H   0  0  0  0  0  0
    1.5845   52.5317   16.4699 H   0  0  0  0  0  0
    5.5035   59.1237   16.4693 H   0  0  0  0  0  0
    4.2297   59.4380   15.2475 H   0  0  0  0  0  0
    3.7709   59.1585   16.9478 H   0  0  0  0  0  0
    6.2426   57.2348   14.8404 H   0  0  0  0  0  0
    5.0736   55.9094   14.4809 H   0  0  0  0  0  0
    4.8148   57.5429   13.7964 H   0  0  0  0  0  0
    3.3868   57.2323   15.6176 H   0  0  0  0  0  0
  1  2  1  0  0  0
  1 32  1  0  0  0
  1 33  1  0  0  0
  1 34  1  0  0  0
  2  3  1  0  0  0
  2  8  1  0  0  0
  2  4  1  0  0  0
  4  5  1  0  0  0
  4 35  1  0  0  0
  4 36  1  0  0  0
  5  6  1  0  0  0
  5 37  1  0  0  0
  5 38  1  0  0  0
  6  7  1  0  0  0
  6 39  1  0  0  0
  6 40  1  0  0  0
  7  8  1  0  0  0
  7 41  1  0  0  0
  7 42  1  0  0  0
  8  9  1  0  0  0
  9 10  2  0  0  0
  9 11  1  0  0  0
 11 16  2  0  0  0
 11 12  1  0  0  0
 12 13  2  0  0  0
 12 43  1  0  0  0
 13 14  1  0  0  0
 13 44  1  0  0  0
 14 15  2  0  0  0
 14 17  1  0  0  0
 15 16  1  0  0  0
 15 45  1  0  0  0
 16 46  1  0  0  0
 17 18  1  0  0  0
 17 47  1  0  0  0
 18 19  2  0  0  0
 18 20  1  0  0  0
 20 21  1  0  0  0
 20 48  1  0  0  0
 21 22  1  0  0  0
 21 49  1  0  0  0
 21 50  1  0  0  0
 22 23  1  0  0  0
 22 24  1  0  0  0
 22 29  1  0  0  0
 24 28  1  0  0  0
 24 25  2  0  0  0
 25 26  1  0  0  0
 25 51  1  0  0  0
 26 27  2  0  0  0
 26 52  1  0  0  0
 27 28  1  0  0  0
 27 53  1  0  0  0
 29 30  1  0  0  0
 29 31  1  0  0  0
 29 60  1  0  0  0
 30 54  1  0  0  0
 30 55  1  0  0  0
 30 56  1  0  0  0
 31 57  1  0  0  0
 31 58  1  0  0  0
 31 59  1  0  0  0
M  CHG  1  29   1
M  END
> <i_i_glide_confnum>
90

> <i_i_glide_lignum>
2169

> <i_i_glide_posenum>
277

> <i_i_glide_rotatable_bonds>
9

> <i_m_Source_File_Index>
2810

> <b_m_subgroup_collapsed>
0

> <r_i_docking_score>
-6.12177

> <r_i_glide_ecoul>
-7.30749

> <r_i_glide_eff_state_penalty>
0

> <r_i_glide_einternal>
7.51908

> <r_i_glide_emodel>
-60.4619

> <r_i_glide_energy>
-44.6892

> <r_i_glide_erotb>
0.800436

> <r_i_glide_esite>
-0.0124168

> <r_i_glide_evdw>
-37.3817

> <r_i_glide_gscore>
-6.12177

> <r_i_glide_hbond>
-0.32

> <r_i_glide_ligand_efficiency>
-0.211096

> <r_i_glide_ligand_efficiency_ln>
-1.40173

> <r_i_glide_ligand_efficiency_sa>
-0.648553

> <r_i_glide_lipo>
-2.59887

> <r_i_glide_metal>
0

> <r_i_glide_rewards>
-1.02572

> <s_i_glide_gridfile>
wee1_glide-grid

> <s_m_Source_File>
wee1_decoys_glide_SP.sdf

> <s_m_Source_Path>
/Users/zhangxujun/Desktop

> <s_m_entry_id>
3085

> <s_m_entry_name>
wee1_decoys_glide_SP.2810

> <s_m_subgroup_title>
wee1_decoys_glide_SP

> <s_m_subgroupid>
wee1_decoys_glide_SP


$$$$
