ZINC41006611_3545
                    3D
 Schrodinger Suite 2024-2.
 75 78  0  0  1  0            999 V2000
    0.7046   49.1670   24.9768 C   0  0  0  0  0  0
   -0.2441   50.3561   25.0610 C   0  0  0  0  0  0
   -0.7926   50.6751   26.3073 C   0  0  0  0  0  0
   -1.6931   51.7285   26.4361 C   0  0  0  0  0  0
   -2.0443   52.4821   25.3199 C   0  0  0  0  0  0
   -1.4842   52.1923   24.0757 C   0  0  0  0  0  0
   -0.5792   51.1250   23.9276 C   0  0  0  0  0  0
    0.0369   50.7833   22.7044 N   0  0  0  0  0  0
   -0.2000   51.2237   21.4496 C   0  0  0  0  0  0
   -1.0829   52.0305   21.1423 O   0  0  0  0  0  0
    0.7492   50.6666   20.3505 C   0  0  2  0  0  0
    1.4026   49.9335   20.8255 H   0  0  0  0  0  0
    1.6281   51.8405   19.7729 C   0  0  2  0  0  0
    0.9729   52.7058   19.6355 H   0  0  0  0  0  0
    2.2404   51.5772   18.3404 C   0  0  1  0  0  0
    3.0546   50.8595   18.4322 H   0  0  0  0  0  0
    1.2340   50.9217   17.3366 C   0  0  1  0  0  0
    0.7089   49.6216   17.9769 C   0  0  0  0  0  0
   -0.0416   49.8633   19.2867 C   0  0  0  0  0  0
   -1.1713   49.4034   19.4588 O   0  0  0  0  0  0
    0.0695   51.8238   16.8536 C   0  0  0  0  0  0
    1.9044   50.4986   16.1640 O   0  0  0  0  0  0
    2.9045   52.8808   17.8009 C   0  0  0  0  0  0
    2.2093   53.8482   17.4865 O   0  0  0  0  0  0
    4.2540   52.8967   17.7796 N   0  0  0  0  0  0
    5.0610   54.0090   17.5159 C   0  0  0  0  0  0
    5.9366   54.3935   18.5359 C   0  0  0  0  0  0
    6.7763   55.4934   18.3682 C   0  0  0  0  0  0
    6.7519   56.2097   17.1731 C   0  0  0  0  0  0
    5.8952   55.8218   16.1431 C   0  0  0  0  0  0
    5.0471   54.7186   16.2960 C   0  0  0  0  0  0
    4.1890   54.2961   15.1090 C   0  0  0  0  0  0
    2.6695   52.3146   20.8164 C   0  0  0  0  0  0
    3.9649   51.7961   20.8173 C   0  0  0  0  0  0
    4.9175   52.3081   21.6819 C   0  0  0  0  0  0
    4.5991   53.2968   22.6087 C   0  0  0  0  0  0
    3.2831   53.7742   22.6596 C   0  0  0  0  0  0
    2.3331   53.2847   21.7684 C   0  0  0  0  0  0
    5.6305   53.6971   23.4404 O   0  0  0  0  0  0
    5.3801   54.5187   24.5800 C   0  0  0  0  0  0
    4.8075   53.7056   25.7536 C   0  0  0  0  0  0
    6.7044   55.2049   24.9426 C   0  0  0  0  0  0
    0.9709   48.7738   25.9602 H   0  0  0  0  0  0
    0.2522   48.3616   24.3991 H   0  0  0  0  0  0
    1.6304   49.4533   24.4789 H   0  0  0  0  0  0
   -0.5316   50.0965   27.1835 H   0  0  0  0  0  0
   -2.1206   51.9533   27.4025 H   0  0  0  0  0  0
   -2.7451   53.2961   25.4210 H   0  0  0  0  0  0
   -1.7680   52.8201   23.2475 H   0  0  0  0  0  0
    0.7570   50.0848   22.7990 H   0  0  0  0  0  0
    0.0394   49.1041   17.2892 H   0  0  0  0  0  0
    1.5343   48.9406   18.1881 H   0  0  0  0  0  0
   -0.4539   52.2930   17.6863 H   0  0  0  0  0  0
    0.4139   52.6214   16.1940 H   0  0  0  0  0  0
   -0.6661   51.2521   16.2866 H   0  0  0  0  0  0
    2.6855   49.9731   16.4085 H   0  0  0  0  0  0
    4.7275   52.0443   18.0810 H   0  0  0  0  0  0
    5.9592   53.8492   19.4690 H   0  0  0  0  0  0
    7.4454   55.7890   19.1629 H   0  0  0  0  0  0
    7.4020   57.0611   17.0390 H   0  0  0  0  0  0
    5.9013   56.3775   15.2157 H   0  0  0  0  0  0
    4.0681   53.2133   15.0771 H   0  0  0  0  0  0
    3.2029   54.7571   15.1630 H   0  0  0  0  0  0
    4.6563   54.5770   14.1649 H   0  0  0  0  0  0
    4.2665   51.0149   20.1371 H   0  0  0  0  0  0
    5.9049   51.8942   21.6646 H   0  0  0  0  0  0
    2.9708   54.5256   23.3665 H   0  0  0  0  0  0
    1.3342   53.6950   21.7970 H   0  0  0  0  0  0
    4.6711   55.2969   24.3317 H   0  0  0  0  0  0
    4.6030   54.3480   26.6105 H   0  0  0  0  0  0
    3.8671   53.2260   25.4828 H   0  0  0  0  0  0
    5.5047   52.9357   26.0827 H   0  0  0  0  0  0
    6.5868   55.8655   25.8023 H   0  0  0  0  0  0
    7.4768   54.4739   25.1791 H   0  0  0  0  0  0
    7.0714   55.8088   24.1127 H   0  0  0  0  0  0
  1  2  1  0  0  0
  1 43  1  0  0  0
  1 44  1  0  0  0
  1 45  1  0  0  0
  2  7  2  0  0  0
  2  3  1  0  0  0
  3  4  2  0  0  0
  3 46  1  0  0  0
  4  5  1  0  0  0
  4 47  1  0  0  0
  5  6  2  0  0  0
  5 48  1  0  0  0
  6  7  1  0  0  0
  6 49  1  0  0  0
  7  8  1  0  0  0
  8  9  1  0  0  0
  8 50  1  0  0  0
  9 10  2  0  0  0
  9 11  1  0  0  0
 11 12  1  0  0  0
 11 19  1  0  0  0
 11 13  1  0  0  0
 13 14  1  0  0  0
 13 15  1  0  0  0
 13 33  1  0  0  0
 15 16  1  0  0  0
 15 17  1  0  0  0
 15 23  1  0  0  0
 17 18  1  0  0  0
 17 21  1  0  0  0
 17 22  1  0  0  0
 18 19  1  0  0  0
 18 51  1  0  0  0
 18 52  1  0  0  0
 19 20  2  0  0  0
 21 53  1  0  0  0
 21 54  1  0  0  0
 21 55  1  0  0  0
 22 56  1  0  0  0
 23 24  2  0  0  0
 23 25  1  0  0  0
 25 26  1  0  0  0
 25 57  1  0  0  0
 26 31  2  0  0  0
 26 27  1  0  0  0
 27 28  2  0  0  0
 27 58  1  0  0  0
 28 29  1  0  0  0
 28 59  1  0  0  0
 29 30  2  0  0  0
 29 60  1  0  0  0
 30 31  1  0  0  0
 30 61  1  0  0  0
 31 32  1  0  0  0
 32 62  1  0  0  0
 32 63  1  0  0  0
 32 64  1  0  0  0
 33 38  2  0  0  0
 33 34  1  0  0  0
 34 35  2  0  0  0
 34 65  1  0  0  0
 35 36  1  0  0  0
 35 66  1  0  0  0
 36 37  2  0  0  0
 36 39  1  0  0  0
 37 38  1  0  0  0
 37 67  1  0  0  0
 38 68  1  0  0  0
 39 40  1  0  0  0
 40 41  1  0  0  0
 40 42  1  0  0  0
 40 69  1  0  0  0
 41 70  1  0  0  0
 41 71  1  0  0  0
 41 72  1  0  0  0
 42 73  1  0  0  0
 42 74  1  0  0  0
 42 75  1  0  0  0
M  END
> <i_i_glide_confnum>
231

> <i_i_glide_lignum>
3546

> <i_i_glide_posenum>
351

> <i_i_glide_rotatable_bonds>
10

> <i_m_Source_File_Index>
6089

> <b_m_subgroup_collapsed>
0

> <r_i_docking_score>
-4.07674

> <r_i_glide_ecoul>
-9.3728

> <r_i_glide_eff_state_penalty>
0

> <r_i_glide_einternal>
14.5716

> <r_i_glide_emodel>
-48.0124

> <r_i_glide_energy>
-42.5881

> <r_i_glide_erotb>
0.589788

> <r_i_glide_esite>
-0.124552

> <r_i_glide_evdw>
-33.2153

> <r_i_glide_gscore>
-4.07674

> <r_i_glide_hbond>
-0.304

> <r_i_glide_ligand_efficiency>
-0.104532

> <r_i_glide_ligand_efficiency_ln>
-0.874169

> <r_i_glide_ligand_efficiency_sa>
-0.35449

> <r_i_glide_lipo>
-1.17405

> <r_i_glide_metal>
0

> <r_i_glide_rewards>
0.00275817

> <s_i_glide_gridfile>
wee1_glide-grid

> <s_m_Source_File>
wee1_decoys_glide_SP.sdf

> <s_m_Source_Path>
/Users/zhangxujun/Desktop

> <s_m_entry_id>
6364

> <s_m_entry_name>
wee1_decoys_glide_SP.6089

> <s_m_subgroup_title>
wee1_decoys_glide_SP

> <s_m_subgroupid>
wee1_decoys_glide_SP


$$$$
