ZINC12660463_3158
                    3D
 Schrodinger Suite 2024-2.
 80 84  0  0  1  0            999 V2000
    6.3343   52.7873   16.0947 C   0  0  0  0  0  0
    6.2558   53.4657   17.4478 C   0  0  0  0  0  0
    5.1499   53.2974   18.2824 C   0  0  0  0  0  0
    5.1503   53.9034   19.5376 C   0  0  0  0  0  0
    6.2496   54.6775   19.9269 C   0  0  0  0  0  0
    7.3078   54.8180   19.0132 C   0  0  0  0  0  0
    7.3274   54.2212   17.7958 N   0  0  0  0  0  0
    6.2717   55.3543   21.2946 C   0  0  1  0  0  0
    5.2525   55.6969   21.4659 H   0  0  0  0  0  0
    6.6483   54.4149   22.4813 C   0  0  0  0  0  0
    6.5796   55.0330   23.8126 N   0  0  0  0  0  0
    5.7874   54.7587   24.8672 C   0  0  0  0  0  0
    6.0335   55.2976   25.9404 O   0  0  0  0  0  0
    4.6158   53.7560   24.7971 C   0  0  0  0  0  0
    3.2120   54.3893   24.9797 C   0  0  0  0  0  0
    2.3041   53.6715   25.9934 C   0  0  0  0  0  0
    2.5450   53.7182   27.1997 O   0  0  0  0  0  0
    1.2353   53.0515   25.4228 O   0  0  0  0  0  0
    0.1422   52.5370   26.2079 C   0  0  2  0  0  0
   -0.1107   53.2966   26.9425 H   0  0  0  0  0  0
    0.4834   51.2481   26.9806 C   0  0  0  0  0  0
   -0.4766   50.1706   26.4770 C   0  0  0  0  0  0
   -1.0795   50.6758   25.1566 C   0  0  1  0  0  0
   -2.1109   50.3197   25.0963 H   0  0  0  0  0  0
   -1.1245   52.2264   25.3425 C   0  0  2  0  0  0
   -1.2307   53.0227   23.9951 C   0  0  0  0  0  0
   -0.6612   52.3632   22.7300 C   0  0  0  0  0  0
   -0.9446   50.8466   22.6037 C   0  0  2  0  0  0
   -2.0308   50.7370   22.6331 H   0  0  0  0  0  0
   -0.3893   50.1340   23.8665 C   0  0  1  0  0  0
   -0.6919   49.0907   23.8047 H   0  0  0  0  0  0
    1.1590   50.1206   23.8321 C   0  0  0  0  0  0
    1.7591   49.5707   22.5181 C   0  0  0  0  0  0
    1.1197   50.2343   21.2955 C   0  0  0  0  0  0
    1.8672   50.8552   20.3533 C   0  0  0  0  0  0
    1.3201   51.5733   19.2191 C   0  0  0  0  0  0
    2.0053   51.9101   18.2605 O   0  0  0  0  0  0
   -0.1305   52.0199   19.3649 C   0  0  0  0  0  0
   -1.0036   50.9149   19.9933 C   0  0  0  0  0  0
   -0.4339   50.1898   21.2664 C   0  0  2  0  0  0
   -0.8964   48.7070   21.1602 C   0  0  0  0  0  0
   -2.3803   52.5863   26.1994 C   0  0  0  0  0  0
    7.1042   56.4967   21.2845 O   0  0  0  0  0  0
    5.4898   52.1138   15.9367 H   0  0  0  0  0  0
    6.3358   53.5289   15.2961 H   0  0  0  0  0  0
    7.2481   52.1943   16.0213 H   0  0  0  0  0  0
    4.3252   52.6738   17.9756 H   0  0  0  0  0  0
    4.3041   53.7660   20.1966 H   0  0  0  0  0  0
    8.1820   55.4059   19.2525 H   0  0  0  0  0  0
    6.0676   53.4980   22.4160 H   0  0  0  0  0  0
    7.6884   54.0967   22.3989 H   0  0  0  0  0  0
    7.3291   55.6774   24.0198 H   0  0  0  0  0  0
    4.6204   53.2232   23.8560 H   0  0  0  0  0  0
    4.8277   53.0480   25.5990 H   0  0  0  0  0  0
    3.3055   55.4198   25.3137 H   0  0  0  0  0  0
    2.6994   54.4290   24.0183 H   0  0  0  0  0  0
    1.5043   50.9311   26.8196 H   0  0  0  0  0  0
    0.3797   51.3961   28.0565 H   0  0  0  0  0  0
   -0.0309   49.1762   26.4107 H   0  0  0  0  0  0
   -1.2838   50.0968   27.2042 H   0  0  0  0  0  0
   -2.2931   53.0664   23.7484 H   0  0  0  0  0  0
   -0.9447   54.0706   24.0820 H   0  0  0  0  0  0
    0.4080   52.5593   22.6652 H   0  0  0  0  0  0
   -1.0824   52.8772   21.8696 H   0  0  0  0  0  0
    1.5585   51.1164   23.9982 H   0  0  0  0  0  0
    1.5128   49.5270   24.6735 H   0  0  0  0  0  0
    1.6286   48.4970   22.4728 H   0  0  0  0  0  0
    2.8399   49.7172   22.5307 H   0  0  0  0  0  0
    2.9432   50.8159   20.4476 H   0  0  0  0  0  0
   -0.0925   52.8963   20.0033 H   0  0  0  0  0  0
   -0.5058   52.3451   18.3934 H   0  0  0  0  0  0
   -1.1739   50.1916   19.1931 H   0  0  0  0  0  0
   -1.9977   51.3125   20.2041 H   0  0  0  0  0  0
   -1.9848   48.6347   21.1834 H   0  0  0  0  0  0
   -0.5665   48.2529   20.2250 H   0  0  0  0  0  0
   -0.5187   48.0658   21.9517 H   0  0  0  0  0  0
   -3.3059   52.2859   25.7073 H   0  0  0  0  0  0
   -2.3728   52.0969   27.1740 H   0  0  0  0  0  0
   -2.4641   53.6568   26.3936 H   0  0  0  0  0  0
    7.8259   56.3357   21.9022 H   0  0  0  0  0  0
  1  2  1  0  0  0
  1 44  1  0  0  0
  1 45  1  0  0  0
  1 46  1  0  0  0
  2  7  2  0  0  0
  2  3  1  0  0  0
  3  4  2  0  0  0
  3 47  1  0  0  0
  4  5  1  0  0  0
  4 48  1  0  0  0
  5  6  2  0  0  0
  5  8  1  0  0  0
  6  7  1  0  0  0
  6 49  1  0  0  0
  8  9  1  0  0  0
  8 10  1  0  0  0
  8 43  1  0  0  0
 10 11  1  0  0  0
 10 50  1  0  0  0
 10 51  1  0  0  0
 11 12  1  0  0  0
 11 52  1  0  0  0
 12 13  2  0  0  0
 12 14  1  0  0  0
 14 15  1  0  0  0
 14 53  1  0  0  0
 14 54  1  0  0  0
 15 16  1  0  0  0
 15 55  1  0  0  0
 15 56  1  0  0  0
 16 17  2  0  0  0
 16 18  1  0  0  0
 18 19  1  0  0  0
 19 20  1  0  0  0
 19 25  1  0  0  0
 19 21  1  0  0  0
 21 22  1  0  0  0
 21 57  1  0  0  0
 21 58  1  0  0  0
 22 23  1  0  0  0
 22 59  1  0  0  0
 22 60  1  0  0  0
 23 24  1  0  0  0
 23 30  1  0  0  0
 23 25  1  0  0  0
 25 26  1  0  0  0
 25 42  1  0  0  0
 26 27  1  0  0  0
 26 61  1  0  0  0
 26 62  1  0  0  0
 27 28  1  0  0  0
 27 63  1  0  0  0
 27 64  1  0  0  0
 28 29  1  0  0  0
 28 40  1  0  0  0
 28 30  1  0  0  0
 30 31  1  0  0  0
 30 32  1  0  0  0
 32 33  1  0  0  0
 32 65  1  0  0  0
 32 66  1  0  0  0
 33 34  1  0  0  0
 33 67  1  0  0  0
 33 68  1  0  0  0
 34 40  1  0  0  0
 34 35  2  0  0  0
 35 36  1  0  0  0
 35 69  1  0  0  0
 36 37  2  0  0  0
 36 38  1  0  0  0
 38 39  1  0  0  0
 38 70  1  0  0  0
 38 71  1  0  0  0
 39 40  1  0  0  0
 39 72  1  0  0  0
 39 73  1  0  0  0
 40 41  1  0  0  0
 41 74  1  0  0  0
 41 75  1  0  0  0
 41 76  1  0  0  0
 42 77  1  0  0  0
 42 78  1  0  0  0
 42 79  1  0  0  0
 43 80  1  0  0  0
M  END
> <i_i_glide_confnum>
167

> <i_i_glide_lignum>
3159

> <i_i_glide_posenum>
196

> <i_i_glide_rotatable_bonds>
10

> <i_m_Source_File_Index>
3754

> <b_m_subgroup_collapsed>
0

> <r_i_docking_score>
-2.342

> <r_i_glide_ecoul>
-3.85962

> <r_i_glide_eff_state_penalty>
0

> <r_i_glide_einternal>
9.02749

> <r_i_glide_emodel>
-34.9137

> <r_i_glide_energy>
-38.5678

> <r_i_glide_erotb>
0.677508

> <r_i_glide_esite>
-0.0178914

> <r_i_glide_evdw>
-34.7082

> <r_i_glide_gscore>
-2.342

> <r_i_glide_hbond>
-0.246094

> <r_i_glide_ligand_efficiency>
-0.0616317

> <r_i_glide_ligand_efficiency_ln>
-0.505005

> <r_i_glide_ligand_efficiency_sa>
-0.207204

> <r_i_glide_lipo>
-1.27793

> <r_i_glide_metal>
0

> <r_i_glide_rewards>
0.836755

> <s_i_glide_gridfile>
wee1_glide-grid

> <s_m_Source_File>
wee1_decoys_glide_SP.sdf

> <s_m_Source_Path>
/Users/zhangxujun/Desktop

> <s_m_entry_id>
4029

> <s_m_entry_name>
wee1_decoys_glide_SP.3754

> <s_m_subgroup_title>
wee1_decoys_glide_SP

> <s_m_subgroupid>
wee1_decoys_glide_SP


$$$$
