ZINC08809648_2694
                    3D
 Schrodinger Suite 2024-2.
 44 47  0  0  1  0            999 V2000
    8.2519   55.6316   19.0784 C   0  0  0  0  0  0
    9.1039   56.5647   18.4948 C   0  0  0  0  0  0
    8.6547   57.8658   18.2248 C   0  0  0  0  0  0
    7.3155   58.1925   18.4822 C   0  0  0  0  0  0
    6.4649   57.2548   19.0607 C   0  0  0  0  0  0
    6.9357   55.9835   19.3939 C   0  0  0  0  0  0
    6.1139   55.0843   20.1243 N   0  0  0  0  0  0
    5.1093   54.3541   19.4611 C   0  0  0  0  0  0
    4.3579   53.4209   20.1357 C   0  0  0  0  0  0
    4.5010   53.1833   21.6709 C   0  0  1  0  0  0
    4.8703   52.1645   21.8026 H   0  0  0  0  0  0
    5.5897   54.0960   22.2591 C   0  0  0  0  0  0
    6.3159   54.9454   21.5053 C   0  0  0  0  0  0
    7.3337   55.6963   22.0585 N   0  0  0  0  0  0
    5.8244   54.0598   23.6723 C   0  0  0  0  0  0
    6.0494   54.0983   24.8067 N   0  0  0  0  0  0
    3.1912   53.3020   22.4673 C   0  0  0  0  0  0
    2.7324   54.3645   23.2470 C   0  0  0  0  0  0
    1.5051   54.1543   23.8676 C   0  0  0  0  0  0
    0.9674   52.9181   23.5982 C   0  0  0  0  0  0
    2.0158   52.0038   22.5788 S   0  0  0  0  0  0
   -0.6893   52.2039   24.2004 Br  0  0  0  0  0  0
    3.4539   52.4977   19.3989 C   0  0  0  0  0  0
    3.0944   51.4157   19.8585 O   0  0  0  0  0  0
    3.1392   52.8383   17.9410 C   0  0  0  0  0  0
    4.4078   53.3072   17.2291 C   0  0  0  0  0  0
    4.9868   54.5448   17.9282 C   0  0  0  0  0  0
    9.5968   58.8964   17.7263 N   0  3  0  0  0  0
   10.6860   58.5341   17.2911 O   0  0  0  0  0  0
    9.2661   60.0781   17.8030 O   0  5  0  0  0  0
    8.6261   54.6469   19.3209 H   0  0  0  0  0  0
   10.1311   56.2840   18.3035 H   0  0  0  0  0  0
    6.9348   59.1829   18.2614 H   0  0  0  0  0  0
    5.4467   57.5264   19.2819 H   0  0  0  0  0  0
    7.5580   55.5972   23.0399 H   0  0  0  0  0  0
    8.0947   56.0097   21.4749 H   0  0  0  0  0  0
    3.2793   55.2887   23.3556 H   0  0  0  0  0  0
    1.0249   54.8958   24.4815 H   0  0  0  0  0  0
    2.3876   53.6280   17.9464 H   0  0  0  0  0  0
    2.6945   51.9676   17.4565 H   0  0  0  0  0  0
    4.1947   53.5278   16.1825 H   0  0  0  0  0  0
    5.1418   52.4975   17.2206 H   0  0  0  0  0  0
    4.4554   55.4659   17.6879 H   0  0  0  0  0  0
    5.9720   54.6359   17.4697 H   0  0  0  0  0  0
  1  6  2  0  0  0
  1  2  1  0  0  0
  1 31  1  0  0  0
  2  3  2  0  0  0
  2 32  1  0  0  0
  3  4  1  0  0  0
  3 28  1  0  0  0
  4  5  2  0  0  0
  4 33  1  0  0  0
  5  6  1  0  0  0
  5 34  1  0  0  0
  6  7  1  0  0  0
  7 13  1  0  0  0
  7  8  1  0  0  0
  8 27  1  0  0  0
  8  9  2  0  0  0
  9 10  1  0  0  0
  9 23  1  0  0  0
 10 11  1  0  0  0
 10 12  1  0  0  0
 10 17  1  0  0  0
 12 13  2  0  0  0
 12 15  1  0  0  0
 13 14  1  0  0  0
 14 35  1  0  0  0
 14 36  1  0  0  0
 15 16  3  0  0  0
 17 21  1  0  0  0
 17 18  2  0  0  0
 18 19  1  0  0  0
 18 37  1  0  0  0
 19 20  2  0  0  0
 19 38  1  0  0  0
 20 21  1  0  0  0
 20 22  1  0  0  0
 23 24  2  0  0  0
 23 25  1  0  0  0
 25 26  1  0  0  0
 25 39  1  0  0  0
 25 40  1  0  0  0
 26 27  1  0  0  0
 26 41  1  0  0  0
 26 42  1  0  0  0
 27 43  1  0  0  0
 27 44  1  0  0  0
 28 29  2  0  0  0
 28 30  1  0  0  0
M  CHG  2  28   1  30  -1
M  END
> <i_i_glide_confnum>
2

> <i_i_glide_lignum>
2695

> <i_i_glide_posenum>
80

> <i_i_glide_rotatable_bonds>
4

> <i_m_Source_File_Index>
3691

> <b_m_subgroup_collapsed>
0

> <r_i_docking_score>
-4.79896

> <r_i_glide_ecoul>
-3.86761

> <r_i_glide_eff_state_penalty>
0

> <r_i_glide_einternal>
4.97452

> <r_i_glide_emodel>
-49.5773

> <r_i_glide_energy>
-40.4789

> <r_i_glide_erotb>
0.181965

> <r_i_glide_esite>
-0.121385

> <r_i_glide_evdw>
-36.6113

> <r_i_glide_gscore>
-4.79896

> <r_i_glide_hbond>
-0.0605947

> <r_i_glide_ligand_efficiency>
-0.165481

> <r_i_glide_ligand_efficiency_ln>
-1.09884

> <r_i_glide_ligand_efficiency_sa>
-0.508411

> <r_i_glide_lipo>
-1.58737

> <r_i_glide_metal>
0

> <r_i_glide_rewards>
-0.800874

> <s_i_glide_gridfile>
wee1_glide-grid

> <s_m_Source_File>
wee1_decoys_glide_SP.sdf

> <s_m_Source_Path>
/Users/zhangxujun/Desktop

> <s_m_entry_id>
3966

> <s_m_entry_name>
wee1_decoys_glide_SP.3691

> <s_m_subgroup_title>
wee1_decoys_glide_SP

> <s_m_subgroupid>
wee1_decoys_glide_SP


$$$$
