ZINC36312029_1136
                    3D
 Schrodinger Suite 2024-2.
 71 74  0  0  1  0            999 V2000
    1.8892   54.3528   30.0782 C   0  0  0  0  0  0
    2.7496   53.1889   29.5163 C   0  0  0  0  0  0
    3.6251   52.6623   30.6811 C   0  0  0  0  0  0
    1.8061   52.0426   29.0814 C   0  0  0  0  0  0
    3.5776   53.6509   28.2870 C   0  0  0  0  0  0
    4.9357   53.3349   28.1193 C   0  0  0  0  0  0
    5.6021   53.6530   26.9338 C   0  0  0  0  0  0
    4.9261   54.2737   25.8758 C   0  0  0  0  0  0
    3.6185   54.7037   26.1008 C   0  0  0  0  0  0
    2.9450   54.3740   27.2710 C   0  0  0  0  0  0
    5.6292   54.4963   24.5449 C   0  0  0  0  0  0
    6.8198   54.8118   24.5922 O   0  0  0  0  0  0
    4.9691   54.3221   23.3486 N   0  0  0  0  0  0
    5.6656   54.6806   22.0892 C   0  0  0  0  0  0
    5.4120   53.5768   21.0516 C   0  0  0  0  0  0
    3.9047   53.5152   20.7254 N   0  3  0  0  0  0
    3.2116   53.0551   22.0343 C   0  0  0  0  0  0
    3.5289   53.9741   23.2395 C   0  0  0  0  0  0
    3.6617   52.6505   19.4277 C   0  0  2  0  0  0
    4.5824   52.0885   19.2814 H   0  0  0  0  0  0
    3.4500   53.6097   18.2139 C   0  0  0  0  0  0
    4.5573   54.6434   17.9456 C   0  0  0  0  0  0
    4.3423   55.1226   16.5070 C   0  0  0  0  0  0
    3.6419   53.9670   15.7788 C   0  0  0  0  0  0
    3.3434   52.9049   16.8457 C   0  0  0  0  0  0
    2.4622   51.6657   19.5489 C   0  0  0  0  0  0
    1.3438   52.0971   19.8409 O   0  0  0  0  0  0
    2.7044   50.3641   19.2817 N   0  0  0  0  0  0
    1.7490   49.3338   19.3551 C   0  0  0  0  0  0
    1.6631   48.4482   18.2768 C   0  0  0  0  0  0
    0.7381   47.4047   18.2923 C   0  0  0  0  0  0
   -0.1040   47.2349   19.3890 C   0  0  0  0  0  0
   -0.0102   48.0968   20.4795 C   0  0  0  0  0  0
    0.9290   49.1284   20.4816 C   0  0  0  0  0  0
    1.0409   49.9018   21.5878 F   0  0  0  0  0  0
   -1.0000   46.2228   19.4043 F   0  0  0  0  0  0
    1.3541   54.0562   30.9814 H   0  0  0  0  0  0
    1.1194   54.6806   29.3798 H   0  0  0  0  0  0
    2.4973   55.2263   30.3183 H   0  0  0  0  0  0
    4.2175   51.7929   30.3932 H   0  0  0  0  0  0
    4.3044   53.4332   31.0393 H   0  0  0  0  0  0
    3.0173   52.3523   31.5333 H   0  0  0  0  0  0
    2.3624   51.1807   28.7110 H   0  0  0  0  0  0
    1.1834   51.6968   29.9080 H   0  0  0  0  0  0
    1.1295   52.3547   28.2848 H   0  0  0  0  0  0
    5.4872   52.8000   28.8759 H   0  0  0  0  0  0
    6.6330   53.3455   26.8211 H   0  0  0  0  0  0
    3.1044   55.2810   25.3515 H   0  0  0  0  0  0
    1.9093   54.6617   27.3596 H   0  0  0  0  0  0
    5.2848   55.6190   21.6818 H   0  0  0  0  0  0
    6.7449   54.7914   22.2178 H   0  0  0  0  0  0
    5.7261   52.5837   21.3826 H   0  0  0  0  0  0
    5.9313   53.8360   20.1312 H   0  0  0  0  0  0
    3.4521   52.0059   22.2147 H   0  0  0  0  0  0
    2.1409   53.1511   21.8549 H   0  0  0  0  0  0
    3.2170   53.3725   24.0935 H   0  0  0  0  0  0
    2.9188   54.8744   23.1509 H   0  0  0  0  0  0
    2.5265   54.1778   18.3444 H   0  0  0  0  0  0
    4.5930   55.4446   18.6843 H   0  0  0  0  0  0
    5.5281   54.1460   17.9775 H   0  0  0  0  0  0
    3.7051   56.0083   16.5012 H   0  0  0  0  0  0
    5.2825   55.4002   16.0274 H   0  0  0  0  0  0
    2.7155   54.3162   15.3204 H   0  0  0  0  0  0
    4.2621   53.5591   14.9787 H   0  0  0  0  0  0
    4.1242   52.1434   16.7787 H   0  0  0  0  0  0
    2.3990   52.3790   16.7018 H   0  0  0  0  0  0
    3.5798   50.1434   18.8073 H   0  0  0  0  0  0
    2.3044   48.5696   17.4150 H   0  0  0  0  0  0
    0.6721   46.7311   17.4509 H   0  0  0  0  0  0
   -0.6494   47.9509   21.3369 H   0  0  0  0  0  0
    3.5835   54.4464   20.4915 H   0  0  0  0  0  0
  1  2  1  0  0  0
  1 37  1  0  0  0
  1 38  1  0  0  0
  1 39  1  0  0  0
  2  3  1  0  0  0
  2  4  1  0  0  0
  2  5  1  0  0  0
  3 40  1  0  0  0
  3 41  1  0  0  0
  3 42  1  0  0  0
  4 43  1  0  0  0
  4 44  1  0  0  0
  4 45  1  0  0  0
  5 10  2  0  0  0
  5  6  1  0  0  0
  6  7  2  0  0  0
  6 46  1  0  0  0
  7  8  1  0  0  0
  7 47  1  0  0  0
  8  9  2  0  0  0
  8 11  1  0  0  0
  9 10  1  0  0  0
  9 48  1  0  0  0
 10 49  1  0  0  0
 11 12  2  0  0  0
 11 13  1  0  0  0
 13 18  1  0  0  0
 13 14  1  0  0  0
 14 15  1  0  0  0
 14 50  1  0  0  0
 14 51  1  0  0  0
 15 16  1  0  0  0
 15 52  1  0  0  0
 15 53  1  0  0  0
 16 17  1  0  0  0
 16 19  1  0  0  0
 16 71  1  0  0  0
 17 18  1  0  0  0
 17 54  1  0  0  0
 17 55  1  0  0  0
 18 56  1  0  0  0
 18 57  1  0  0  0
 19 20  1  0  0  0
 19 21  1  0  0  0
 19 26  1  0  0  0
 21 25  1  0  0  0
 21 22  1  0  0  0
 21 58  1  0  0  0
 22 23  1  0  0  0
 22 59  1  0  0  0
 22 60  1  0  0  0
 23 24  1  0  0  0
 23 61  1  0  0  0
 23 62  1  0  0  0
 24 25  1  0  0  0
 24 63  1  0  0  0
 24 64  1  0  0  0
 25 65  1  0  0  0
 25 66  1  0  0  0
 26 27  2  0  0  0
 26 28  1  0  0  0
 28 29  1  0  0  0
 28 67  1  0  0  0
 29 34  2  0  0  0
 29 30  1  0  0  0
 30 31  2  0  0  0
 30 68  1  0  0  0
 31 32  1  0  0  0
 31 69  1  0  0  0
 32 33  2  0  0  0
 32 36  1  0  0  0
 33 34  1  0  0  0
 33 70  1  0  0  0
 34 35  1  0  0  0
M  CHG  1  16   1
M  END
> <i_i_glide_confnum>
306

> <i_i_glide_lignum>
1137

> <i_i_glide_posenum>
334

> <i_i_glide_rotatable_bonds>
8

> <i_m_Source_File_Index>
3190

> <b_m_subgroup_collapsed>
0

> <r_i_docking_score>
-5.43972

> <r_i_glide_ecoul>
-3.14841

> <r_i_glide_eff_state_penalty>
0

> <r_i_glide_einternal>
7.92098

> <r_i_glide_emodel>
-53.5032

> <r_i_glide_energy>
-41.5006

> <r_i_glide_erotb>
0.518888

> <r_i_glide_esite>
-0.132035

> <r_i_glide_evdw>
-38.3522

> <r_i_glide_gscore>
-5.43972

> <r_i_glide_hbond>
-0.163473

> <r_i_glide_ligand_efficiency>
-0.155421

> <r_i_glide_ligand_efficiency_ln>
-1.19414

> <r_i_glide_ligand_efficiency_sa>
-0.508391

> <r_i_glide_lipo>
-2.36806

> <r_i_glide_metal>
0

> <r_i_glide_rewards>
-0.905168

> <s_i_glide_gridfile>
wee1_glide-grid

> <s_m_Source_File>
wee1_decoys_glide_SP.sdf

> <s_m_Source_Path>
/Users/zhangxujun/Desktop

> <s_m_entry_id>
3465

> <s_m_entry_name>
wee1_decoys_glide_SP.3190

> <s_m_subgroup_title>
wee1_decoys_glide_SP

> <s_m_subgroupid>
wee1_decoys_glide_SP


$$$$
