ZINC36844753_5509
                    3D
 Schrodinger Suite 2024-2.
 45 47  0  0  1  0            999 V2000
    1.8830   51.7822   28.8810 C   0  0  0  0  0  0
    0.6937   52.2809   29.4083 C   0  0  0  0  0  0
    0.6007   53.6261   29.7603 C   0  0  0  0  0  0
    1.6930   54.4753   29.5770 C   0  0  0  0  0  0
    2.8952   53.9858   29.0495 C   0  0  0  0  0  0
    2.9815   52.6254   28.7116 C   0  0  0  0  0  0
    3.9223   54.8967   28.8779 O   0  0  0  0  0  0
    5.2209   54.5068   28.4036 C   0  0  0  0  0  0
    5.2925   54.3774   26.8677 C   0  0  0  0  0  0
    6.4006   54.2616   26.3423 O   0  0  0  0  0  0
    4.1187   54.3578   26.1997 N   0  0  0  0  0  0
    3.8760   54.0800   24.8438 C   0  0  0  0  0  0
    4.8189   54.2439   23.8170 C   0  0  0  0  0  0
    4.4997   53.8813   22.5071 C   0  0  0  0  0  0
    3.2498   53.3360   22.2129 C   0  0  0  0  0  0
    2.3051   53.1630   23.2294 C   0  0  0  0  0  0
    2.6149   53.5590   24.5347 C   0  0  0  0  0  0
    0.7130   52.4027   22.8917 S   0  0  0  0  0  0
   -0.2140   53.2209   23.6835 O   0  0  0  0  0  0
    0.5564   52.4977   21.4371 O   0  0  0  0  0  0
    1.1375   50.8064   23.4934 N   0  0  0  0  0  0
    0.2729   50.1847   24.1770 C   0  0  0  0  0  0
   -1.1132   50.5995   24.6702 C   0  0  0  0  0  0
   -1.7031   49.3148   25.2474 C   0  0  0  0  0  0
   -0.4899   48.5171   25.6811 C   0  0  0  0  0  0
    0.4387   48.8970   24.6373 N   0  0  0  0  0  0
    1.5044   56.4968   30.0985 I   0  0  0  0  0  0
    1.9522   50.7413   28.6007 H   0  0  0  0  0  0
   -0.1549   51.6247   29.5460 H   0  0  0  0  0  0
   -0.3215   54.0099   30.1712 H   0  0  0  0  0  0
    3.8857   52.2078   28.2961 H   0  0  0  0  0  0
    5.9044   55.2968   28.7087 H   0  0  0  0  0  0
    5.5718   53.5912   28.8810 H   0  0  0  0  0  0
    3.2963   54.4311   26.7803 H   0  0  0  0  0  0
    5.7971   54.6546   24.0143 H   0  0  0  0  0  0
    5.2268   54.0122   21.7192 H   0  0  0  0  0  0
    3.0211   53.0461   21.1968 H   0  0  0  0  0  0
    1.8812   53.4117   25.3153 H   0  0  0  0  0  0
   -1.0197   51.3644   25.4422 H   0  0  0  0  0  0
   -1.7324   50.9898   23.8624 H   0  0  0  0  0  0
   -2.3890   49.4756   26.0809 H   0  0  0  0  0  0
   -2.2601   48.7708   24.4815 H   0  0  0  0  0  0
   -0.6672   47.4423   25.6816 H   0  0  0  0  0  0
   -0.0944   48.8571   26.6400 H   0  0  0  0  0  0
    1.2951   48.3530   24.6500 H   0  0  0  0  0  0
  1  6  2  0  0  0
  1  2  1  0  0  0
  1 28  1  0  0  0
  2  3  2  0  0  0
  2 29  1  0  0  0
  3  4  1  0  0  0
  3 30  1  0  0  0
  4  5  2  0  0  0
  4 27  1  0  0  0
  5  6  1  0  0  0
  5  7  1  0  0  0
  6 31  1  0  0  0
  7  8  1  0  0  0
  8  9  1  0  0  0
  8 32  1  0  0  0
  8 33  1  0  0  0
  9 10  2  0  0  0
  9 11  1  0  0  0
 11 12  1  0  0  0
 11 34  1  0  0  0
 12 17  2  0  0  0
 12 13  1  0  0  0
 13 14  2  0  0  0
 13 35  1  0  0  0
 14 15  1  0  0  0
 14 36  1  0  0  0
 15 16  2  0  0  0
 15 37  1  0  0  0
 16 17  1  0  0  0
 16 18  1  0  0  0
 17 38  1  0  0  0
 18 19  2  0  0  0
 18 20  2  0  0  0
 18 21  1  0  0  0
 21 22  2  0  0  0
 22 26  1  0  0  0
 22 23  1  0  0  0
 23 24  1  0  0  0
 23 39  1  0  0  0
 23 40  1  0  0  0
 24 25  1  0  0  0
 24 41  1  0  0  0
 24 42  1  0  0  0
 25 26  1  0  0  0
 25 43  1  0  0  0
 25 44  1  0  0  0
 26 45  1  0  0  0
M  END
> <i_i_glide_confnum>
52

> <i_i_glide_lignum>
5510

> <i_i_glide_posenum>
387

> <i_i_glide_rotatable_bonds>
7

> <i_m_Source_File_Index>
2195

> <b_m_subgroup_collapsed>
0

> <r_i_docking_score>
-6.58273

> <r_i_glide_ecoul>
-6.56942

> <r_i_glide_eff_state_penalty>
0

> <r_i_glide_einternal>
7.24882

> <r_i_glide_emodel>
-72.3332

> <r_i_glide_energy>
-54.334

> <r_i_glide_erotb>
0.491217

> <r_i_glide_esite>
-0.0600595

> <r_i_glide_evdw>
-47.7646

> <r_i_glide_gscore>
-6.58273

> <r_i_glide_hbond>
-0.32

> <r_i_glide_ligand_efficiency>
-0.243805

> <r_i_glide_ligand_efficiency_ln>
-1.53235

> <r_i_glide_ligand_efficiency_sa>
-0.731414

> <r_i_glide_lipo>
-2.79324

> <r_i_glide_metal>
0

> <r_i_glide_rewards>
-0.527002

> <s_i_glide_gridfile>
wee1_glide-grid

> <s_m_Source_File>
wee1_decoys_glide_SP.sdf

> <s_m_Source_Path>
/Users/zhangxujun/Desktop

> <s_m_entry_id>
2470

> <s_m_entry_name>
wee1_decoys_glide_SP.2195

> <s_m_subgroup_title>
wee1_decoys_glide_SP

> <s_m_subgroupid>
wee1_decoys_glide_SP


$$$$
