ZINC39637720_3064
                    3D
 Schrodinger Suite 2024-2.
 66 69  0  0  1  0            999 V2000
   -7.2259   51.8024   25.5246 C   0  0  0  0  0  0
   -6.3081   51.5573   26.5865 O   0  0  0  0  0  0
   -4.9482   51.6769   26.3610 C   0  0  0  0  0  0
   -4.4129   52.1589   25.1589 C   0  0  0  0  0  0
   -3.0376   52.2772   24.9911 C   0  0  0  0  0  0
   -2.1417   51.9160   26.0089 C   0  0  0  0  0  0
   -2.6814   51.3860   27.1918 C   0  0  0  0  0  0
   -4.0695   51.2992   27.3903 C   0  0  0  0  0  0
   -4.6224   50.8428   28.7443 C   0  0  0  0  0  0
   -5.5686   51.6791   29.1761 F   0  0  0  0  0  0
   -5.1446   49.6222   28.6341 F   0  0  0  0  0  0
   -3.6785   50.8239   29.6814 F   0  0  0  0  0  0
   -0.6541   52.1257   25.7599 C   0  0  0  0  0  0
   -0.2704   52.1214   24.5855 O   0  0  0  0  0  0
    0.2055   52.4902   26.7580 N   0  0  0  0  0  0
    1.5546   52.9547   26.4339 C   0  0  0  0  0  0
    2.3560   52.7206   27.7260 C   0  0  2  0  0  0
    2.7064   51.6918   27.6801 H   0  0  0  0  0  0
    1.3259   52.9184   28.8739 C   0  0  0  0  0  0
    0.0176   52.4001   28.2077 C   0  0  0  0  0  0
    1.1903   54.3912   29.3640 C   0  0  0  0  0  0
    0.0940   54.5533   30.4453 C   0  0  0  0  0  0
    0.3051   53.5578   31.6120 N   0  3  0  0  0  0
    0.5996   52.1075   31.1842 C   0  0  0  0  0  0
    1.7288   52.1269   30.1338 C   0  0  0  0  0  0
    3.6370   53.6038   27.7542 C   0  0  0  0  0  0
    4.3320   53.6013   28.7696 O   0  0  0  0  0  0
    3.9994   54.2631   26.6378 N   0  0  0  0  0  0
    5.2489   54.9902   26.4364 C   0  0  0  0  0  0
    6.1988   54.3185   25.4216 C   0  0  0  0  0  0
    5.7489   54.3378   23.9576 C   0  0  0  0  0  0
    4.5370   53.7676   23.5462 C   0  0  0  0  0  0
    4.1591   53.7884   22.2025 C   0  0  0  0  0  0
    4.9930   54.3776   21.2532 C   0  0  0  0  0  0
    6.2005   54.9473   21.6500 C   0  0  0  0  0  0
    6.5753   54.9209   22.9924 C   0  0  0  0  0  0
    7.0046   55.5384   20.7378 F   0  0  0  0  0  0
   -8.2399   51.6030   25.8742 H   0  0  0  0  0  0
   -7.1913   52.8426   25.1955 H   0  0  0  0  0  0
   -7.0389   51.1494   24.6703 H   0  0  0  0  0  0
   -5.0503   52.4602   24.3415 H   0  0  0  0  0  0
   -2.6754   52.6747   24.0524 H   0  0  0  0  0  0
   -2.0407   51.0127   27.9747 H   0  0  0  0  0  0
    1.4640   54.0259   26.2398 H   0  0  0  0  0  0
    2.0112   52.4329   25.5902 H   0  0  0  0  0  0
   -0.0209   51.3290   28.4147 H   0  0  0  0  0  0
   -0.8949   52.8391   28.6028 H   0  0  0  0  0  0
    2.1364   54.7860   29.7369 H   0  0  0  0  0  0
    0.9309   55.0300   28.5178 H   0  0  0  0  0  0
    0.0955   55.5530   30.8799 H   0  0  0  0  0  0
   -0.8957   54.3392   30.0682 H   0  0  0  0  0  0
    1.0761   53.8824   32.1762 H   0  0  0  0  0  0
    0.8766   51.5945   32.1068 H   0  0  0  0  0  0
   -0.3461   51.7010   30.8203 H   0  0  0  0  0  0
    1.8987   51.1043   29.8062 H   0  0  0  0  0  0
    2.6784   52.4666   30.5503 H   0  0  0  0  0  0
    3.3683   54.2556   25.8515 H   0  0  0  0  0  0
    5.7744   55.2421   27.3615 H   0  0  0  0  0  0
    4.9549   55.9522   26.0201 H   0  0  0  0  0  0
    6.4003   53.2958   25.7342 H   0  0  0  0  0  0
    7.1682   54.8117   25.4986 H   0  0  0  0  0  0
    3.8824   53.2928   24.2583 H   0  0  0  0  0  0
    3.2220   53.3473   21.8945 H   0  0  0  0  0  0
    4.7011   54.3984   20.2129 H   0  0  0  0  0  0
    7.5044   55.3819   23.2797 H   0  0  0  0  0  0
   -0.5003   53.5295   32.2295 H   0  0  0  0  0  0
  1  2  1  0  0  0
  1 38  1  0  0  0
  1 39  1  0  0  0
  1 40  1  0  0  0
  2  3  1  0  0  0
  3  8  2  0  0  0
  3  4  1  0  0  0
  4  5  2  0  0  0
  4 41  1  0  0  0
  5  6  1  0  0  0
  5 42  1  0  0  0
  6  7  2  0  0  0
  6 13  1  0  0  0
  7  8  1  0  0  0
  7 43  1  0  0  0
  8  9  1  0  0  0
  9 10  1  0  0  0
  9 11  1  0  0  0
  9 12  1  0  0  0
 13 14  2  0  0  0
 13 15  1  0  0  0
 15 20  1  0  0  0
 15 16  1  0  0  0
 16 17  1  0  0  0
 16 44  1  0  0  0
 16 45  1  0  0  0
 17 18  1  0  0  0
 17 19  1  0  0  0
 17 26  1  0  0  0
 19 25  1  0  0  0
 19 20  1  0  0  0
 19 21  1  0  0  0
 20 46  1  0  0  0
 20 47  1  0  0  0
 21 22  1  0  0  0
 21 48  1  0  0  0
 21 49  1  0  0  0
 22 23  1  0  0  0
 22 50  1  0  0  0
 22 51  1  0  0  0
 23 24  1  0  0  0
 23 52  1  0  0  0
 23 66  1  0  0  0
 24 25  1  0  0  0
 24 53  1  0  0  0
 24 54  1  0  0  0
 25 55  1  0  0  0
 25 56  1  0  0  0
 26 27  2  0  0  0
 26 28  1  0  0  0
 28 29  1  0  0  0
 28 57  1  0  0  0
 29 30  1  0  0  0
 29 58  1  0  0  0
 29 59  1  0  0  0
 30 31  1  0  0  0
 30 60  1  0  0  0
 30 61  1  0  0  0
 31 36  2  0  0  0
 31 32  1  0  0  0
 32 33  2  0  0  0
 32 62  1  0  0  0
 33 34  1  0  0  0
 33 63  1  0  0  0
 34 35  2  0  0  0
 34 64  1  0  0  0
 35 36  1  0  0  0
 35 37  1  0  0  0
 36 65  1  0  0  0
M  CHG  1  23   1
M  END
> <i_i_glide_confnum>
276

> <i_i_glide_lignum>
3065

> <i_i_glide_posenum>
217

> <i_i_glide_rotatable_bonds>
9

> <i_m_Source_File_Index>
1432

> <b_m_subgroup_collapsed>
0

> <r_i_docking_score>
-5.13658

> <r_i_glide_ecoul>
1.21757

> <r_i_glide_eff_state_penalty>
0

> <r_i_glide_einternal>
10.3955

> <r_i_glide_emodel>
-51.9184

> <r_i_glide_energy>
-39.1946

> <r_i_glide_erotb>
0.47503

> <r_i_glide_esite>
-0.231369

> <r_i_glide_evdw>
-40.4122

> <r_i_glide_gscore>
-5.13658

> <r_i_glide_hbond>
-0.0449009

> <r_i_glide_ligand_efficiency>
-0.142683

> <r_i_glide_ligand_efficiency_ln>
-1.12066

> <r_i_glide_ligand_efficiency_sa>
-0.471128

> <r_i_glide_lipo>
-2.96869

> <r_i_glide_metal>
0

> <r_i_glide_rewards>
-0.528671

> <s_i_glide_gridfile>
wee1_glide-grid

> <s_m_Source_File>
wee1_decoys_glide_SP.sdf

> <s_m_Source_Path>
/Users/zhangxujun/Desktop

> <s_m_entry_id>
1707

> <s_m_entry_name>
wee1_decoys_glide_SP.1432

> <s_m_subgroup_title>
wee1_decoys_glide_SP

> <s_m_subgroupid>
wee1_decoys_glide_SP


$$$$
