ZINC13023264_1927
                    3D
 Schrodinger Suite 2024-2.
 45 47  0  0  1  0            999 V2000
    5.4159   54.6091   28.2081 C   0  0  0  0  0  0
    4.1497   54.0669   27.5422 C   0  0  0  0  0  0
    3.9416   54.3697   26.1918 C   0  0  0  0  0  0
    2.8240   53.8475   25.5454 C   0  0  0  0  0  0
    1.9208   53.0563   26.1697 N   0  0  0  0  0  0
    2.1076   52.7641   27.4839 C   0  0  0  0  0  0
    3.2128   53.2517   28.2250 C   0  0  0  0  0  0
    3.4128   52.9027   29.6689 C   0  0  0  0  0  0
    3.5045   53.8473   30.4808 O   0  0  0  0  0  0
    0.8698   51.7019   28.2005 S   0  0  0  0  0  0
    0.1098   50.6968   26.8729 C   0  0  0  0  0  0
   -1.3121   51.0846   26.4254 C   0  0  0  0  0  0
   -1.8131   52.0983   26.9187 O   0  0  0  0  0  0
   -1.9679   50.3068   25.5019 N   0  0  0  0  0  0
   -1.4056   48.9865   25.0687 C   0  0  0  0  0  0
   -2.3899   47.7829   25.1754 C   0  0  0  0  0  0
   -2.0591   46.6072   25.0273 O   0  0  0  0  0  0
   -3.6796   48.1601   25.2819 N   0  0  0  0  0  0
   -4.1851   49.4439   25.0696 C   0  0  0  0  0  0
   -3.3348   50.5542   25.1980 C   0  0  0  0  0  0
   -3.8266   51.8201   24.8407 C   0  0  0  0  0  0
   -5.1645   51.9848   24.4825 C   0  0  0  0  0  0
   -6.0286   50.8835   24.4276 C   0  0  0  0  0  0
   -5.5254   49.6096   24.7149 C   0  0  0  0  0  0
   -7.5039   51.0689   24.0678 C   0  0  0  0  0  0
   -8.2666   50.1808   24.7062 F   0  0  0  0  0  0
   -7.9379   52.2909   24.3905 F   0  0  0  0  0  0
   -7.6577   50.8955   22.7550 F   0  0  0  0  0  0
    2.5415   54.1426   24.0849 C   0  0  0  0  0  0
    5.9960   53.7920   28.6387 H   0  0  0  0  0  0
    6.0638   55.1409   27.5103 H   0  0  0  0  0  0
    5.1626   55.2871   29.0240 H   0  0  0  0  0  0
    4.6432   54.9882   25.6505 H   0  0  0  0  0  0
    0.0531   49.6951   27.2819 H   0  0  0  0  0  0
    0.7668   50.6661   26.0059 H   0  0  0  0  0  0
   -0.4956   48.6868   25.5833 H   0  0  0  0  0  0
   -1.1247   49.0659   24.0192 H   0  0  0  0  0  0
   -4.3206   47.3814   25.2885 H   0  0  0  0  0  0
   -3.1796   52.6860   24.8573 H   0  0  0  0  0  0
   -5.5283   52.9735   24.2399 H   0  0  0  0  0  0
   -6.1744   48.7462   24.6467 H   0  0  0  0  0  0
    3.2216   54.8977   23.6870 H   0  0  0  0  0  0
    2.6555   53.2339   23.4917 H   0  0  0  0  0  0
    1.5214   54.5110   23.9580 H   0  0  0  0  0  0
    3.5041   51.6967   29.9819 O   0  5  0  0  0  0
  1  2  1  0  0  0
  1 30  1  0  0  0
  1 31  1  0  0  0
  1 32  1  0  0  0
  2  7  2  0  0  0
  2  3  1  0  0  0
  3  4  2  0  0  0
  3 33  1  0  0  0
  4  5  1  0  0  0
  4 29  1  0  0  0
  5  6  2  0  0  0
  6  7  1  0  0  0
  6 10  1  0  0  0
  7  8  1  0  0  0
  8  9  2  0  0  0
  8 45  1  0  0  0
 10 11  1  0  0  0
 11 12  1  0  0  0
 11 34  1  0  0  0
 11 35  1  0  0  0
 12 13  2  0  0  0
 12 14  1  0  0  0
 14 20  1  0  0  0
 14 15  1  0  0  0
 15 16  1  0  0  0
 15 36  1  0  0  0
 15 37  1  0  0  0
 16 17  2  0  0  0
 16 18  1  0  0  0
 18 19  1  0  0  0
 18 38  1  0  0  0
 19 24  2  0  0  0
 19 20  1  0  0  0
 20 21  2  0  0  0
 21 22  1  0  0  0
 21 39  1  0  0  0
 22 23  2  0  0  0
 22 40  1  0  0  0
 23 24  1  0  0  0
 23 25  1  0  0  0
 24 41  1  0  0  0
 25 26  1  0  0  0
 25 27  1  0  0  0
 25 28  1  0  0  0
 29 42  1  0  0  0
 29 43  1  0  0  0
 29 44  1  0  0  0
M  CHG  1  45  -1
M  END
> <i_i_glide_confnum>
110

> <i_i_glide_lignum>
1928

> <i_i_glide_posenum>
355

> <i_i_glide_rotatable_bonds>
6

> <i_m_Source_File_Index>
4978

> <b_m_subgroup_collapsed>
0

> <r_i_docking_score>
-5.93981

> <r_i_glide_ecoul>
-11.7968

> <r_i_glide_eff_state_penalty>
0

> <r_i_glide_einternal>
2.74715

> <r_i_glide_emodel>
-61.2579

> <r_i_glide_energy>
-43.7384

> <r_i_glide_erotb>
0.415191

> <r_i_glide_esite>
-0.225607

> <r_i_glide_evdw>
-31.9415

> <r_i_glide_gscore>
-5.93981

> <r_i_glide_hbond>
-0.32

> <r_i_glide_ligand_efficiency>
-0.197994

> <r_i_glide_ligand_efficiency_ln>
-1.34959

> <r_i_glide_ligand_efficiency_sa>
-0.615212

> <r_i_glide_lipo>
-1.72443

> <r_i_glide_metal>
0

> <r_i_glide_rewards>
-0.71836

> <s_i_glide_gridfile>
wee1_glide-grid

> <s_m_Source_File>
wee1_decoys_glide_SP.sdf

> <s_m_Source_Path>
/Users/zhangxujun/Desktop

> <s_m_entry_id>
5253

> <s_m_entry_name>
wee1_decoys_glide_SP.4978

> <s_m_subgroup_title>
wee1_decoys_glide_SP

> <s_m_subgroupid>
wee1_decoys_glide_SP


$$$$
