ZINC36286336_5559
                    3D
 Schrodinger Suite 2024-2.
 74 79  0  0  1  0            999 V2000
    1.6546   50.5525   20.1356 C   0  0  0  0  0  0
    1.8486   51.6782   20.9401 C   0  0  0  0  0  0
    1.2478   51.7401   22.2089 C   0  0  0  0  0  0
    0.4766   50.7105   22.6568 N   0  0  0  0  0  0
    0.2842   49.6267   21.8651 C   0  0  0  0  0  0
    0.8441   49.5048   20.5902 C   0  0  0  0  0  0
    0.5580   48.2968   19.7017 C   0  0  0  0  0  0
    1.6308   47.5070   19.6714 F   0  0  0  0  0  0
   -0.4786   47.5810   20.1493 F   0  0  0  0  0  0
    0.2802   48.6939   18.4590 F   0  0  0  0  0  0
    1.3201   52.8710   23.0328 N   0  0  0  0  0  0
    2.0700   54.0916   22.7290 C   0  0  0  0  0  0
    3.3709   54.2888   23.5236 C   0  0  0  0  0  0
    3.1223   54.2248   25.0552 N   0  3  0  0  0  0
    2.3576   52.8970   25.2771 C   0  0  0  0  0  0
    1.0496   52.8582   24.4737 C   0  0  0  0  0  0
    4.4452   54.4691   25.9087 C   0  0  0  0  0  0
    5.2627   55.6965   25.4614 C   0  0  0  0  0  0
    6.6766   55.5955   26.0051 C   0  0  0  0  0  0
    6.9361   54.1069   25.8993 C   0  0  0  0  0  0
    5.5630   53.4450   25.7759 C   0  0  0  0  0  0
    4.1502   54.4967   27.4654 C   0  0  0  0  0  0
    5.0687   54.4980   28.2903 O   0  0  0  0  0  0
    2.8921   54.4392   27.8925 N   0  0  0  0  0  0
    2.4629   54.1522   29.2574 C   0  0  1  0  0  0
    1.0252   54.6663   29.4213 C   0  0  2  0  0  0
    0.9768   55.7143   29.1179 H   0  0  0  0  0  0
    0.5565   54.5557   30.8845 C   0  0  0  0  0  0
    0.6504   53.0815   31.3508 C   0  0  2  0  0  0
    2.0718   52.4835   31.1610 C   0  0  0  0  0  0
    2.5149   52.6337   29.6868 C   0  0  1  0  0  0
    3.5317   52.2546   29.5724 H   0  0  0  0  0  0
    1.5359   51.7414   28.8737 C   0  0  0  0  0  0
    0.0961   52.3316   28.9745 C   0  0  2  0  0  0
    0.1086   53.8088   28.5118 C   0  0  0  0  0  0
   -0.3386   52.2938   30.4710 C   0  0  0  0  0  0
   -0.8820   51.5916   28.0236 C   0  0  0  0  0  0
   -0.5487   51.3282   26.8720 O   0  0  0  0  0  0
   -2.1082   51.2960   28.4491 N   0  0  0  0  0  0
    2.1209   50.5010   19.1598 H   0  0  0  0  0  0
    2.4573   52.4762   20.5510 H   0  0  0  0  0  0
   -0.3458   48.8537   22.2786 H   0  0  0  0  0  0
    1.3716   54.8977   22.9457 H   0  0  0  0  0  0
    2.3067   54.1625   21.6769 H   0  0  0  0  0  0
    3.6913   55.2964   23.3020 H   0  0  0  0  0  0
    4.1336   53.5655   23.2401 H   0  0  0  0  0  0
    3.0178   52.0969   24.9741 H   0  0  0  0  0  0
    2.1073   52.8051   26.3125 H   0  0  0  0  0  0
    0.4966   51.9636   24.7540 H   0  0  0  0  0  0
    0.3956   53.6968   24.7162 H   0  0  0  0  0  0
    5.4074   55.6970   24.3866 H   0  0  0  0  0  0
    4.7476   56.6206   25.6817 H   0  0  0  0  0  0
    7.3815   56.1915   25.4258 H   0  0  0  0  0  0
    6.7053   55.9235   27.0443 H   0  0  0  0  0  0
    7.5045   53.8872   24.9957 H   0  0  0  0  0  0
    7.4930   53.7334   26.7623 H   0  0  0  0  0  0
    5.4812   52.6093   26.4817 H   0  0  0  0  0  0
    5.5139   53.0171   24.7792 H   0  0  0  0  0  0
    2.1630   54.3939   27.2014 H   0  0  0  0  0  0
    3.1008   54.7441   29.9197 H   0  0  0  0  0  0
    1.1040   55.2277   31.5383 H   0  0  0  0  0  0
   -0.4737   54.8992   30.9647 H   0  0  0  0  0  0
    0.3490   53.0002   32.3985 H   0  0  0  0  0  0
    2.0457   51.4360   31.4582 H   0  0  0  0  0  0
    2.8209   52.8964   31.8212 H   0  0  0  0  0  0
    1.5386   50.7330   29.2777 H   0  0  0  0  0  0
    1.8838   51.5916   27.8606 H   0  0  0  0  0  0
    0.4432   53.8554   27.4802 H   0  0  0  0  0  0
   -0.8919   54.2263   28.5119 H   0  0  0  0  0  0
   -1.2955   52.7645   30.5771 H   0  0  0  0  0  0
   -0.4957   51.2969   30.8539 H   0  0  0  0  0  0
   -2.3038   51.2757   29.4370 H   0  0  0  0  0  0
   -2.6961   50.7660   27.8243 H   0  0  0  0  0  0
    2.4870   54.9773   25.2775 H   0  0  0  0  0  0
  1  6  2  0  0  0
  1  2  1  0  0  0
  1 40  1  0  0  0
  2  3  2  0  0  0
  2 41  1  0  0  0
  3  4  1  0  0  0
  3 11  1  0  0  0
  4  5  2  0  0  0
  5  6  1  0  0  0
  5 42  1  0  0  0
  6  7  1  0  0  0
  7  8  1  0  0  0
  7  9  1  0  0  0
  7 10  1  0  0  0
 11 16  1  0  0  0
 11 12  1  0  0  0
 12 13  1  0  0  0
 12 43  1  0  0  0
 12 44  1  0  0  0
 13 14  1  0  0  0
 13 45  1  0  0  0
 13 46  1  0  0  0
 14 15  1  0  0  0
 14 17  1  0  0  0
 14 74  1  0  0  0
 15 16  1  0  0  0
 15 47  1  0  0  0
 15 48  1  0  0  0
 16 49  1  0  0  0
 16 50  1  0  0  0
 17 21  1  0  0  0
 17 18  1  0  0  0
 17 22  1  0  0  0
 18 19  1  0  0  0
 18 51  1  0  0  0
 18 52  1  0  0  0
 19 20  1  0  0  0
 19 53  1  0  0  0
 19 54  1  0  0  0
 20 21  1  0  0  0
 20 55  1  0  0  0
 20 56  1  0  0  0
 21 57  1  0  0  0
 21 58  1  0  0  0
 22 23  2  0  0  0
 22 24  1  0  0  0
 24 25  1  0  0  0
 24 59  1  0  0  0
 25 31  1  0  0  0
 25 26  1  0  0  0
 25 60  1  0  0  0
 26 27  1  0  0  0
 26 35  1  0  0  0
 26 28  1  0  0  0
 28 29  1  0  0  0
 28 61  1  0  0  0
 28 62  1  0  0  0
 29 36  1  0  0  0
 29 30  1  0  0  0
 29 63  1  0  0  0
 30 31  1  0  0  0
 30 64  1  0  0  0
 30 65  1  0  0  0
 31 32  1  0  0  0
 31 33  1  0  0  0
 33 34  1  0  0  0
 33 66  1  0  0  0
 33 67  1  0  0  0
 34 35  1  0  0  0
 34 36  1  0  0  0
 34 37  1  0  0  0
 35 68  1  0  0  0
 35 69  1  0  0  0
 36 70  1  0  0  0
 36 71  1  0  0  0
 37 38  2  0  0  0
 37 39  1  0  0  0
 39 72  1  0  0  0
 39 73  1  0  0  0
M  CHG  1  14   1
M  END
> <i_i_glide_confnum>
423

> <i_i_glide_lignum>
5560

> <i_i_glide_posenum>
253

> <i_i_glide_rotatable_bonds>
7

> <i_m_Source_File_Index>
552

> <b_m_subgroup_collapsed>
0

> <r_i_docking_score>
-3.6325

> <r_i_glide_ecoul>
2.05914

> <r_i_glide_eff_state_penalty>
0

> <r_i_glide_einternal>
10.0199

> <r_i_glide_emodel>
-21.4971

> <r_i_glide_energy>
-17.0645

> <r_i_glide_erotb>
0.379144

> <r_i_glide_esite>
-0.215061

> <r_i_glide_evdw>
-19.1237

> <r_i_glide_gscore>
-3.6325

> <r_i_glide_hbond>
0

> <r_i_glide_ligand_efficiency>
-0.0981758

> <r_i_glide_ligand_efficiency_ln>
-0.787805

> <r_i_glide_ligand_efficiency_sa>
-0.327143

> <r_i_glide_lipo>
-2.6349

> <r_i_glide_metal>
0

> <r_i_glide_rewards>
-0.514373

> <s_i_glide_gridfile>
wee1_glide-grid

> <s_m_Source_File>
wee1_decoys_glide_SP.sdf

> <s_m_Source_Path>
/Users/zhangxujun/Desktop

> <s_m_entry_id>
827

> <s_m_entry_name>
wee1_decoys_glide_SP.552

> <s_m_subgroup_title>
wee1_decoys_glide_SP

> <s_m_subgroupid>
wee1_decoys_glide_SP


$$$$
