ZINC37191421_1833
                    3D
 Schrodinger Suite 2024-2.
 33 35  0  0  1  0            999 V2000
   -0.5578   50.3280   24.8287 C   0  0  0  0  0  0
    0.4270   51.0783   24.1912 C   0  0  0  0  0  0
    1.1077   52.0832   24.8755 C   0  0  0  0  0  0
    0.8114   52.3410   26.2342 C   0  0  0  0  0  0
   -0.2063   51.5844   26.8894 C   0  0  0  0  0  0
   -0.8854   50.5702   26.1607 C   0  0  0  0  0  0
   -0.4509   51.9358   28.2492 C   0  0  0  0  0  0
    0.2203   52.9205   28.8913 N   0  0  0  0  0  0
    1.1651   53.5700   28.1683 C   0  0  0  0  0  0
    1.5029   53.3182   26.8796 N   0  0  0  0  0  0
    1.8742   54.7344   28.8518 C   0  0  0  0  0  0
    3.6269   54.4007   29.2390 S   0  0  0  0  0  0
    4.6207   54.4440   27.7685 C   0  0  0  0  0  0
    4.1129   54.8931   26.5446 C   0  0  0  0  0  0
    4.9410   54.8966   25.4247 C   0  0  0  0  0  0
    6.2680   54.4964   25.5507 C   0  0  0  0  0  0
    6.7119   54.0862   26.8097 C   0  0  0  0  0  0
    5.9120   54.0481   27.9061 N   0  0  0  0  0  0
    7.1020   54.5249   24.4339 N   0  0  0  0  0  0
   -1.4194   51.2968   29.0165 N   0  0  0  0  0  0
   -1.0745   49.5489   24.2862 H   0  0  0  0  0  0
    0.6673   50.8763   23.1579 H   0  0  0  0  0  0
    1.8786   52.6578   24.3820 H   0  0  0  0  0  0
   -1.6518   49.9810   26.6445 H   0  0  0  0  0  0
    1.3712   54.9679   29.7906 H   0  0  0  0  0  0
    1.7905   55.6335   28.2428 H   0  0  0  0  0  0
    3.1053   55.2486   26.4482 H   0  0  0  0  0  0
    4.5532   55.2313   24.4749 H   0  0  0  0  0  0
    7.7252   53.7592   26.9671 H   0  0  0  0  0  0
    8.1089   54.4304   24.5010 H   0  0  0  0  0  0
    6.7029   54.8236   23.5554 H   0  0  0  0  0  0
   -1.6951   50.3576   28.7328 H   0  0  0  0  0  0
   -1.4157   51.5109   30.0034 H   0  0  0  0  0  0
  1  6  2  0  0  0
  1  2  1  0  0  0
  1 21  1  0  0  0
  2  3  2  0  0  0
  2 22  1  0  0  0
  3  4  1  0  0  0
  3 23  1  0  0  0
  4 10  2  0  0  0
  4  5  1  0  0  0
  5  6  1  0  0  0
  5  7  2  0  0  0
  6 24  1  0  0  0
  7  8  1  0  0  0
  7 20  1  0  0  0
  8  9  2  0  0  0
  9 10  1  0  0  0
  9 11  1  0  0  0
 11 12  1  0  0  0
 11 25  1  0  0  0
 11 26  1  0  0  0
 12 13  1  0  0  0
 13 18  2  0  0  0
 13 14  1  0  0  0
 14 15  2  0  0  0
 14 27  1  0  0  0
 15 16  1  0  0  0
 15 28  1  0  0  0
 16 17  2  0  0  0
 16 19  1  0  0  0
 17 18  1  0  0  0
 17 29  1  0  0  0
 19 30  1  0  0  0
 19 31  1  0  0  0
 20 32  1  0  0  0
 20 33  1  0  0  0
M  END
> <i_i_glide_confnum>
7

> <i_i_glide_lignum>
1834

> <i_i_glide_posenum>
22

> <i_i_glide_rotatable_bonds>
3

> <i_m_Source_File_Index>
2396

> <b_m_subgroup_collapsed>
0

> <r_i_docking_score>
-5.97558

> <r_i_glide_ecoul>
-4.43442

> <r_i_glide_eff_state_penalty>
0

> <r_i_glide_einternal>
0.779431

> <r_i_glide_emodel>
-50.9929

> <r_i_glide_energy>
-36.3127

> <r_i_glide_erotb>
0.676647

> <r_i_glide_esite>
-0.0968442

> <r_i_glide_evdw>
-31.8783

> <r_i_glide_gscore>
-5.97558

> <r_i_glide_hbond>
-0.400752

> <r_i_glide_ligand_efficiency>
-0.298779

> <r_i_glide_ligand_efficiency_ln>
-1.49549

> <r_i_glide_ligand_efficiency_sa>
-0.811011

> <r_i_glide_lipo>
-2.11191

> <r_i_glide_metal>
0

> <r_i_glide_rewards>
-1.78364

> <s_i_glide_gridfile>
wee1_glide-grid

> <s_m_Source_File>
wee1_decoys_glide_SP.sdf

> <s_m_Source_Path>
/Users/zhangxujun/Desktop

> <s_m_entry_id>
2671

> <s_m_entry_name>
wee1_decoys_glide_SP.2396

> <s_m_subgroup_title>
wee1_decoys_glide_SP

> <s_m_subgroupid>
wee1_decoys_glide_SP


$$$$
