ZINC25582130_5154
                    3D
 Schrodinger Suite 2024-2.
 61 64  0  0  1  0            999 V2000
    6.8626   54.9821   24.4043 C   0  0  0  0  0  0
    6.0392   54.5299   25.5943 C   0  0  0  0  0  0
    6.6779   54.1296   26.7701 C   0  0  0  0  0  0
    5.9259   53.6976   27.8549 C   0  0  0  0  0  0
    4.5347   53.6731   27.7674 C   0  0  0  0  0  0
    3.8895   54.0967   26.6036 C   0  0  0  0  0  0
    4.6455   54.5135   25.5123 C   0  0  0  0  0  0
    3.6218   53.1727   29.2169 S   0  0  0  0  0  0
    3.6261   54.3538   30.0817 O   0  0  0  0  0  0
    4.2017   51.9077   29.6816 O   0  0  0  0  0  0
    1.9469   52.8618   28.7368 N   0  0  0  0  0  0
    0.9193   53.8886   28.9360 C   0  0  0  0  0  0
   -0.3165   53.2095   29.5378 C   0  0  0  0  0  0
   -0.8528   52.0312   28.6668 C   0  0  0  0  0  0
    0.2968   51.0961   28.2128 C   0  0  0  0  0  0
    1.5948   51.8040   27.7713 C   0  0  0  0  0  0
   -1.9631   51.2967   29.2816 N   0  0  0  0  0  0
   -3.0894   50.8967   28.6608 C   0  0  0  0  0  0
   -3.3313   51.1397   27.4760 O   0  0  0  0  0  0
   -4.1454   50.1741   29.5356 C   0  0  1  0  0  0
   -3.6767   49.9249   30.4909 H   0  0  0  0  0  0
   -5.3785   51.0239   29.8095 C   0  0  0  0  0  0
   -5.7505   51.2875   31.1339 C   0  0  0  0  0  0
   -6.8958   52.0295   31.4119 C   0  0  0  0  0  0
   -7.6649   52.5281   30.3640 C   0  0  0  0  0  0
   -7.3068   52.2786   29.0415 C   0  0  0  0  0  0
   -6.1717   51.5208   28.7653 C   0  0  0  0  0  0
   -4.4956   48.8746   28.9381 N   0  0  0  0  0  0
   -5.3880   47.9775   29.3982 C   0  0  0  0  0  0
   -6.1004   48.1440   30.3891 O   0  0  0  0  0  0
   -5.4821   46.7907   28.5984 C   0  0  0  0  0  0
   -4.4536   46.0867   27.9708 C   0  0  0  0  0  0
   -4.8959   44.8974   27.3788 C   0  0  0  0  0  0
   -6.2548   44.6815   27.5536 C   0  0  0  0  0  0
   -6.9991   45.9417   28.4817 S   0  0  0  0  0  0
    7.5044   54.1673   24.0679 H   0  0  0  0  0  0
    6.2420   55.2945   23.5638 H   0  0  0  0  0  0
    7.5042   55.8191   24.6791 H   0  0  0  0  0  0
    7.7520   54.1482   26.8625 H   0  0  0  0  0  0
    6.4233   53.3944   28.7658 H   0  0  0  0  0  0
    2.8131   54.1120   26.5339 H   0  0  0  0  0  0
    4.1453   54.8310   24.6088 H   0  0  0  0  0  0
    0.6856   54.3461   27.9744 H   0  0  0  0  0  0
    1.2923   54.6768   29.5898 H   0  0  0  0  0  0
   -1.0454   53.9924   29.6818 H   0  0  0  0  0  0
   -0.0584   52.8404   30.5327 H   0  0  0  0  0  0
   -1.2050   52.5057   27.7470 H   0  0  0  0  0  0
    0.5616   50.4967   29.0784 H   0  0  0  0  0  0
   -0.0456   50.4106   27.4356 H   0  0  0  0  0  0
    1.4337   52.2656   26.7964 H   0  0  0  0  0  0
    2.4205   51.1052   27.6824 H   0  0  0  0  0  0
   -1.8227   50.9886   30.2358 H   0  0  0  0  0  0
   -5.1618   50.8968   31.9538 H   0  0  0  0  0  0
   -7.1891   52.2091   32.4361 H   0  0  0  0  0  0
   -8.5544   53.1018   30.5804 H   0  0  0  0  0  0
   -7.9149   52.6569   28.2325 H   0  0  0  0  0  0
   -5.9117   51.3111   27.7377 H   0  0  0  0  0  0
   -3.8498   48.5702   28.2216 H   0  0  0  0  0  0
   -3.4174   46.4011   27.9691 H   0  0  0  0  0  0
   -4.2360   44.2048   26.8782 H   0  0  0  0  0  0
   -6.8411   43.8403   27.2122 H   0  0  0  0  0  0
  1  2  1  0  0  0
  1 36  1  0  0  0
  1 37  1  0  0  0
  1 38  1  0  0  0
  2  7  2  0  0  0
  2  3  1  0  0  0
  3  4  2  0  0  0
  3 39  1  0  0  0
  4  5  1  0  0  0
  4 40  1  0  0  0
  5  6  2  0  0  0
  5  8  1  0  0  0
  6  7  1  0  0  0
  6 41  1  0  0  0
  7 42  1  0  0  0
  8  9  2  0  0  0
  8 10  2  0  0  0
  8 11  1  0  0  0
 11 16  1  0  0  0
 11 12  1  0  0  0
 12 13  1  0  0  0
 12 43  1  0  0  0
 12 44  1  0  0  0
 13 14  1  0  0  0
 13 45  1  0  0  0
 13 46  1  0  0  0
 14 15  1  0  0  0
 14 17  1  0  0  0
 14 47  1  0  0  0
 15 16  1  0  0  0
 15 48  1  0  0  0
 15 49  1  0  0  0
 16 50  1  0  0  0
 16 51  1  0  0  0
 17 18  1  0  0  0
 17 52  1  0  0  0
 18 19  2  0  0  0
 18 20  1  0  0  0
 20 21  1  0  0  0
 20 22  1  0  0  0
 20 28  1  0  0  0
 22 27  2  0  0  0
 22 23  1  0  0  0
 23 24  2  0  0  0
 23 53  1  0  0  0
 24 25  1  0  0  0
 24 54  1  0  0  0
 25 26  2  0  0  0
 25 55  1  0  0  0
 26 27  1  0  0  0
 26 56  1  0  0  0
 27 57  1  0  0  0
 28 29  1  0  0  0
 28 58  1  0  0  0
 29 30  2  0  0  0
 29 31  1  0  0  0
 31 35  1  0  0  0
 31 32  2  0  0  0
 32 33  1  0  0  0
 32 59  1  0  0  0
 33 34  2  0  0  0
 33 60  1  0  0  0
 34 35  1  0  0  0
 34 61  1  0  0  0
M  END
> <i_i_glide_confnum>
139

> <i_i_glide_lignum>
5155

> <i_i_glide_posenum>
77

> <i_i_glide_rotatable_bonds>
9

> <i_m_Source_File_Index>
956

> <b_m_subgroup_collapsed>
0

> <r_i_docking_score>
-4.4443

> <r_i_glide_ecoul>
-8.5683

> <r_i_glide_eff_state_penalty>
0

> <r_i_glide_einternal>
9.42861

> <r_i_glide_emodel>
-54.6348

> <r_i_glide_energy>
-49.4157

> <r_i_glide_erotb>
0.576664

> <r_i_glide_esite>
-0.398879

> <r_i_glide_evdw>
-40.8474

> <r_i_glide_gscore>
-4.4443

> <r_i_glide_hbond>
-0.0189128

> <r_i_glide_ligand_efficiency>
-0.130715

> <r_i_glide_ligand_efficiency_ln>
-0.981871

> <r_i_glide_ligand_efficiency_sa>
-0.423465

> <r_i_glide_lipo>
-2.25266

> <r_i_glide_metal>
0

> <r_i_glide_rewards>
0.9771

> <s_i_glide_gridfile>
wee1_glide-grid

> <s_m_Source_File>
wee1_decoys_glide_SP.sdf

> <s_m_Source_Path>
/Users/zhangxujun/Desktop

> <s_m_entry_id>
1231

> <s_m_entry_name>
wee1_decoys_glide_SP.956

> <s_m_subgroup_title>
wee1_decoys_glide_SP

> <s_m_subgroupid>
wee1_decoys_glide_SP


$$$$
