ZINC12495459_2852
                    3D
 Schrodinger Suite 2024-2.
 51 53  0  0  1  0            999 V2000
   -0.1367   51.7672   28.8790 C   0  0  0  0  0  0
    0.9848   52.7863   28.9764 C   0  0  0  0  0  0
    0.7123   54.0801   29.4249 C   0  0  0  0  0  0
    1.7354   55.0267   29.5119 C   0  0  0  0  0  0
    3.0400   54.6662   29.1638 C   0  0  0  0  0  0
    3.3267   53.3768   28.6965 C   0  0  0  0  0  0
    2.2894   52.4439   28.6090 C   0  0  0  0  0  0
    4.6215   52.9528   28.3575 N   0  0  0  0  0  0
    5.8543   53.9446   27.5405 S   0  0  0  0  0  0
    7.1044   53.1893   27.6331 O   0  0  0  0  0  0
    5.8022   55.2966   28.0794 O   0  0  0  0  0  0
    5.4369   54.0658   25.7987 C   0  0  0  0  0  0
    4.1102   54.0962   25.3576 C   0  0  0  0  0  0
    3.8369   54.0986   23.9878 C   0  0  0  0  0  0
    4.8929   54.0964   23.0671 C   0  0  0  0  0  0
    6.2131   54.1266   23.5120 C   0  0  0  0  0  0
    6.4812   54.1021   24.8747 C   0  0  0  0  0  0
    4.6844   54.1517   21.6813 N   0  0  0  0  0  0
    3.9793   53.3304   20.8382 C   0  0  0  0  0  0
    3.1227   51.9741   21.2853 S   0  0  0  0  0  0
    3.9891   53.6162   19.5012 N   0  0  0  0  0  0
    4.6384   54.5770   18.7980 C   0  0  0  0  0  0
    5.3896   55.4292   19.2825 O   0  0  0  0  0  0
    4.3914   54.5297   17.3098 C   0  0  0  0  0  0
    4.4601   53.2961   16.6399 C   0  0  0  0  0  0
    4.2216   53.2099   15.2702 C   0  0  0  0  0  0
    3.9054   54.3561   14.5464 C   0  0  0  0  0  0
    3.8258   55.5866   15.1955 C   0  0  0  0  0  0
    4.0608   55.6845   16.5688 C   0  0  0  0  0  0
    3.9052   57.2534   17.2899 Cl  0  0  0  0  0  0
    3.6072   54.2524   12.8497 Cl  0  0  0  0  0  0
    1.4349   56.4311   30.0056 C   0  0  0  0  0  0
   -0.4495   51.4381   29.8706 H   0  0  0  0  0  0
   -1.0059   52.2066   28.3899 H   0  0  0  0  0  0
    0.1523   50.8967   28.2902 H   0  0  0  0  0  0
   -0.2952   54.3460   29.7099 H   0  0  0  0  0  0
    3.8188   55.4005   29.2806 H   0  0  0  0  0  0
    2.4946   51.4424   28.2593 H   0  0  0  0  0  0
    4.7508   51.9616   28.2205 H   0  0  0  0  0  0
    3.2925   54.0861   26.0627 H   0  0  0  0  0  0
    2.8122   54.1113   23.6449 H   0  0  0  0  0  0
    7.0357   54.1548   22.8116 H   0  0  0  0  0  0
    7.5044   54.0967   25.2099 H   0  0  0  0  0  0
    5.2309   54.8629   21.2139 H   0  0  0  0  0  0
    3.4268   52.9943   18.9394 H   0  0  0  0  0  0
    4.7056   52.3861   17.1722 H   0  0  0  0  0  0
    4.2829   52.2507   14.7758 H   0  0  0  0  0  0
    3.5742   56.4728   14.6318 H   0  0  0  0  0  0
    0.6560   56.4160   30.7679 H   0  0  0  0  0  0
    2.3043   56.8963   30.4675 H   0  0  0  0  0  0
    1.1047   57.0597   29.1792 H   0  0  0  0  0  0
  1  2  1  0  0  0
  1 33  1  0  0  0
  1 34  1  0  0  0
  1 35  1  0  0  0
  2  7  2  0  0  0
  2  3  1  0  0  0
  3  4  2  0  0  0
  3 36  1  0  0  0
  4  5  1  0  0  0
  4 32  1  0  0  0
  5  6  2  0  0  0
  5 37  1  0  0  0
  6  7  1  0  0  0
  6  8  1  0  0  0
  7 38  1  0  0  0
  8  9  1  0  0  0
  8 39  1  0  0  0
  9 10  2  0  0  0
  9 11  2  0  0  0
  9 12  1  0  0  0
 12 17  2  0  0  0
 12 13  1  0  0  0
 13 14  2  0  0  0
 13 40  1  0  0  0
 14 15  1  0  0  0
 14 41  1  0  0  0
 15 16  2  0  0  0
 15 18  1  0  0  0
 16 17  1  0  0  0
 16 42  1  0  0  0
 17 43  1  0  0  0
 18 19  1  0  0  0
 18 44  1  0  0  0
 19 20  2  0  0  0
 19 21  1  0  0  0
 21 22  1  0  0  0
 21 45  1  0  0  0
 22 23  2  0  0  0
 22 24  1  0  0  0
 24 29  2  0  0  0
 24 25  1  0  0  0
 25 26  2  0  0  0
 25 46  1  0  0  0
 26 27  1  0  0  0
 26 47  1  0  0  0
 27 28  2  0  0  0
 27 31  1  0  0  0
 28 29  1  0  0  0
 28 48  1  0  0  0
 29 30  1  0  0  0
 32 49  1  0  0  0
 32 50  1  0  0  0
 32 51  1  0  0  0
M  END
> <i_i_glide_confnum>
12

> <i_i_glide_lignum>
2853

> <i_i_glide_posenum>
272

> <i_i_glide_rotatable_bonds>
8

> <i_m_Source_File_Index>
2907

> <b_m_subgroup_collapsed>
0

> <r_i_docking_score>
-4.86422

> <r_i_glide_ecoul>
-1.68104

> <r_i_glide_eff_state_penalty>
0

> <r_i_glide_einternal>
6.06321

> <r_i_glide_emodel>
-58.885

> <r_i_glide_energy>
-50.2199

> <r_i_glide_erotb>
0.554375

> <r_i_glide_esite>
-0.0248125

> <r_i_glide_evdw>
-48.5389

> <r_i_glide_gscore>
-4.86422

> <r_i_glide_hbond>
0

> <r_i_glide_ligand_efficiency>
-0.152007

> <r_i_glide_ligand_efficiency_ln>
-1.08923

> <r_i_glide_ligand_efficiency_sa>
-0.482591

> <r_i_glide_lipo>
-3.26633

> <r_i_glide_metal>
0

> <r_i_glide_rewards>
0.551649

> <s_i_glide_gridfile>
wee1_glide-grid

> <s_m_Source_File>
wee1_decoys_glide_SP.sdf

> <s_m_Source_Path>
/Users/zhangxujun/Desktop

> <s_m_entry_id>
3182

> <s_m_entry_name>
wee1_decoys_glide_SP.2907

> <s_m_subgroup_title>
wee1_decoys_glide_SP

> <s_m_subgroupid>
wee1_decoys_glide_SP


$$$$
