ZINC32974761_5592
                    3D
 Schrodinger Suite 2024-2.
 64 68  0  0  1  0            999 V2000
    5.5411   54.8559   18.5248 C   0  0  0  0  0  0
    5.6770   54.7614   20.0345 C   0  0  0  0  0  0
    4.7171   54.0721   20.7728 C   0  0  0  0  0  0
    4.8323   53.9919   22.1574 C   0  0  0  0  0  0
    5.9040   54.6025   22.8223 C   0  0  0  0  0  0
    6.8622   55.2965   22.0693 C   0  0  0  0  0  0
    6.7478   55.3801   20.6834 C   0  0  0  0  0  0
    5.9859   54.5511   24.3203 C   0  0  0  0  0  0
    4.9332   54.2933   25.0741 N   0  0  0  0  0  0
    5.4374   54.3092   26.2775 C   0  0  0  0  0  0
    6.7580   54.6055   26.3104 O   0  0  0  0  0  0
    7.1041   54.7826   24.9739 N   0  0  0  0  0  0
    4.7333   54.0690   27.5140 C   0  0  0  0  0  0
    3.4770   54.5464   27.8483 C   0  0  0  0  0  0
    3.1493   53.9702   29.0462 N   0  0  0  0  0  0
    4.2492   53.2136   29.3607 C   0  0  0  0  0  0
    5.2111   53.2929   28.4723 N   0  0  0  0  0  0
    1.8880   54.0807   29.7649 C   0  0  0  0  0  0
    0.7561   53.2556   29.1649 C   0  0  0  0  0  0
    0.5142   53.2666   27.7872 C   0  0  0  0  0  0
   -0.5032   52.4963   27.2423 C   0  0  0  0  0  0
   -1.2963   51.7137   28.0733 C   0  0  0  0  0  0
   -1.0597   51.6966   29.4494 C   0  0  0  0  0  0
   -0.0475   52.4755   30.0000 C   0  0  0  0  0  0
   -2.2508   50.8740   27.5091 N   0  0  0  0  0  0
   -3.7158   51.3912   26.6571 S   0  0  0  0  0  0
   -3.4172   52.7225   26.1167 O   0  0  0  0  0  0
   -4.0718   50.2828   25.7627 O   0  0  0  0  0  0
   -5.0882   51.5207   27.8543 C   0  0  0  0  0  0
   -6.0960   52.4966   27.6721 C   0  0  0  0  0  0
   -7.0636   52.6991   28.6563 C   0  0  0  0  0  0
   -7.0678   51.9373   29.8202 C   0  0  0  0  0  0
   -6.1163   50.9353   29.9819 C   0  0  0  0  0  0
   -5.1413   50.7042   29.0075 C   0  0  0  0  0  0
   -4.2380   49.4981   29.2164 C   0  0  0  0  0  0
   -8.1119   52.1901   30.8953 C   0  0  0  0  0  0
   -6.2046   53.3414   26.4088 C   0  0  0  0  0  0
    6.0319   55.7471   18.1339 H   0  0  0  0  0  0
    4.4894   54.9234   18.2398 H   0  0  0  0  0  0
    5.9696   53.9739   18.0461 H   0  0  0  0  0  0
    3.8789   53.5995   20.2757 H   0  0  0  0  0  0
    4.0734   53.4601   22.7128 H   0  0  0  0  0  0
    7.6949   55.7844   22.5527 H   0  0  0  0  0  0
    7.4936   55.9166   20.1147 H   0  0  0  0  0  0
    2.7922   55.1995   27.3301 H   0  0  0  0  0  0
    4.2660   52.6254   30.2646 H   0  0  0  0  0  0
    2.0578   53.7652   30.7934 H   0  0  0  0  0  0
    1.6012   55.1325   29.8003 H   0  0  0  0  0  0
    1.1048   53.8577   27.1108 H   0  0  0  0  0  0
   -0.6714   52.4963   26.1749 H   0  0  0  0  0  0
   -1.6448   51.0714   30.1088 H   0  0  0  0  0  0
    0.1165   52.4489   31.0676 H   0  0  0  0  0  0
   -2.1173   49.8765   27.6702 H   0  0  0  0  0  0
   -7.8218   53.4573   28.5189 H   0  0  0  0  0  0
   -6.1442   50.3151   30.8680 H   0  0  0  0  0  0
   -4.7060   48.7489   29.8562 H   0  0  0  0  0  0
   -4.0235   48.9897   28.2763 H   0  0  0  0  0  0
   -3.2977   49.7815   29.6841 H   0  0  0  0  0  0
   -7.7281   51.9368   31.8850 H   0  0  0  0  0  0
   -8.3884   53.2453   30.9273 H   0  0  0  0  0  0
   -9.0123   51.6017   30.7079 H   0  0  0  0  0  0
   -7.2085   53.7456   26.2740 H   0  0  0  0  0  0
   -5.4965   54.1696   26.4365 H   0  0  0  0  0  0
   -6.0043   52.7390   25.5211 H   0  0  0  0  0  0
  1  2  1  0  0  0
  1 38  1  0  0  0
  1 39  1  0  0  0
  1 40  1  0  0  0
  2  7  2  0  0  0
  2  3  1  0  0  0
  3  4  2  0  0  0
  3 41  1  0  0  0
  4  5  1  0  0  0
  4 42  1  0  0  0
  5  6  2  0  0  0
  5  8  1  0  0  0
  6  7  1  0  0  0
  6 43  1  0  0  0
  7 44  1  0  0  0
  8 12  2  0  0  0
  8  9  1  0  0  0
  9 10  2  0  0  0
 10 11  1  0  0  0
 10 13  1  0  0  0
 11 12  1  0  0  0
 13 17  1  0  0  0
 13 14  2  0  0  0
 14 15  1  0  0  0
 14 45  1  0  0  0
 15 16  1  0  0  0
 15 18  1  0  0  0
 16 17  2  0  0  0
 16 46  1  0  0  0
 18 19  1  0  0  0
 18 47  1  0  0  0
 18 48  1  0  0  0
 19 24  2  0  0  0
 19 20  1  0  0  0
 20 21  2  0  0  0
 20 49  1  0  0  0
 21 22  1  0  0  0
 21 50  1  0  0  0
 22 23  2  0  0  0
 22 25  1  0  0  0
 23 24  1  0  0  0
 23 51  1  0  0  0
 24 52  1  0  0  0
 25 26  1  0  0  0
 25 53  1  0  0  0
 26 27  2  0  0  0
 26 28  2  0  0  0
 26 29  1  0  0  0
 29 34  2  0  0  0
 29 30  1  0  0  0
 30 31  2  0  0  0
 30 37  1  0  0  0
 31 32  1  0  0  0
 31 54  1  0  0  0
 32 33  2  0  0  0
 32 36  1  0  0  0
 33 34  1  0  0  0
 33 55  1  0  0  0
 34 35  1  0  0  0
 35 56  1  0  0  0
 35 57  1  0  0  0
 35 58  1  0  0  0
 36 59  1  0  0  0
 36 60  1  0  0  0
 36 61  1  0  0  0
 37 62  1  0  0  0
 37 63  1  0  0  0
 37 64  1  0  0  0
M  END
> <i_i_glide_confnum>
43

> <i_i_glide_lignum>
5593

> <i_i_glide_posenum>
275

> <i_i_glide_rotatable_bonds>
7

> <i_m_Source_File_Index>
111

> <b_m_subgroup_collapsed>
0

> <r_i_docking_score>
-6.0504

> <r_i_glide_ecoul>
-4.66318

> <r_i_glide_eff_state_penalty>
0

> <r_i_glide_einternal>
8.9804

> <r_i_glide_emodel>
-68.8775

> <r_i_glide_energy>
-52.7342

> <r_i_glide_erotb>
0.544171

> <r_i_glide_esite>
-0.140963

> <r_i_glide_evdw>
-48.071

> <r_i_glide_gscore>
-6.0504

> <r_i_glide_hbond>
-0.16

> <r_i_glide_ligand_efficiency>
-0.163524

> <r_i_glide_ligand_efficiency_ln>
-1.31219

> <r_i_glide_ligand_efficiency_sa>
-0.544899

> <r_i_glide_lipo>
-2.11197

> <r_i_glide_metal>
0

> <r_i_glide_rewards>
-1.07861

> <s_i_glide_gridfile>
wee1_glide-grid

> <s_m_Source_File>
wee1_decoys_glide_SP.sdf

> <s_m_Source_Path>
/Users/zhangxujun/Desktop

> <s_m_entry_id>
386

> <s_m_entry_name>
wee1_decoys_glide_SP.111

> <s_m_subgroup_title>
wee1_decoys_glide_SP

> <s_m_subgroupid>
wee1_decoys_glide_SP


$$$$
