ZINC39633784_175
                    3D
 Schrodinger Suite 2024-2.
 75 78  0  0  1  0            999 V2000
    4.9514   54.8996   29.2618 C   0  0  0  0  0  0
    4.9675   53.5953   28.4490 C   0  0  0  0  0  0
    4.0065   52.5908   29.1067 C   0  0  0  0  0  0
    4.7736   53.8165   26.9073 C   0  0  1  0  0  0
    5.0750   52.8837   26.4425 H   0  0  0  0  0  0
    3.3237   54.1362   26.4036 C   0  0  0  0  0  0
    2.4822   54.4967   27.2290 O   0  0  0  0  0  0
    3.0036   54.0308   25.0780 N   0  0  0  0  0  0
    1.7435   54.4967   24.5097 C   0  0  0  0  0  0
    1.4155   53.5556   23.3307 C   0  0  1  0  0  0
    0.9998   54.1463   22.5224 H   0  0  0  0  0  0
    2.7704   52.9464   22.8776 C   0  0  0  0  0  0
    3.5044   52.9695   24.2303 C   0  0  0  0  0  0
    2.7041   51.4926   22.2716 C   0  0  0  0  0  0
    3.7499   51.0544   21.2338 C   0  0  0  0  0  0
    3.9261   52.1505   20.1784 N   0  3  0  0  0  0
    4.4943   53.4084   20.8533 C   0  0  0  0  0  0
    3.5214   53.9419   21.9293 C   0  0  0  0  0  0
    0.3299   52.5053   23.6769 C   0  0  0  0  0  0
   -0.5251   52.2001   22.8479 O   0  0  0  0  0  0
    0.4544   51.8985   24.8646 N   0  0  0  0  0  0
   -0.3242   50.7774   25.3847 C   0  0  0  0  0  0
    0.5170   49.9873   26.4135 C   0  0  0  0  0  0
    1.2718   50.8292   27.4783 C   0  0  0  0  0  0
    0.4038   51.5408   28.5167 C   0  0  0  0  0  0
   -0.6126   52.5155   27.9213 C   0  0  0  0  0  0
   -1.8478   51.8101   27.3129 C   0  0  0  0  0  0
   -1.7172   51.2219   25.8906 C   0  0  0  0  0  0
    5.6692   54.8962   26.5497 O   0  0  0  0  0  0
    6.3451   54.8131   25.3570 C   0  0  0  0  0  0
    6.3041   55.8757   24.4818 C   0  0  0  0  0  0
    6.7044   55.6969   23.1593 C   0  0  0  0  0  0
    7.2394   54.5188   22.7357 C   0  0  0  0  0  0
    7.5042   53.5292   23.6704 C   0  0  0  0  0  0
    7.0682   53.6966   24.9822 C   0  0  0  0  0  0
    4.0051   55.4313   29.1566 H   0  0  0  0  0  0
    5.1005   54.7278   30.3217 H   0  0  0  0  0  0
    5.7547   55.5598   28.9387 H   0  0  0  0  0  0
    5.9672   53.1714   28.5606 H   0  0  0  0  0  0
    3.0331   53.0386   29.2952 H   0  0  0  0  0  0
    3.8511   51.7230   28.4820 H   0  0  0  0  0  0
    4.3953   52.2428   30.0648 H   0  0  0  0  0  0
    0.9185   54.4758   25.2031 H   0  0  0  0  0  0
    1.8918   55.4834   24.0815 H   0  0  0  0  0  0
    4.5890   52.8968   24.1824 H   0  0  0  0  0  0
    3.1044   52.0968   24.7569 H   0  0  0  0  0  0
    2.4849   50.7225   23.0133 H   0  0  0  0  0  0
    1.8075   51.4866   21.6497 H   0  0  0  0  0  0
    4.7341   50.8973   21.6751 H   0  0  0  0  0  0
    3.4510   50.1509   20.6969 H   0  0  0  0  0  0
    4.5481   51.8121   19.4454 H   0  0  0  0  0  0
    5.4545   53.1101   21.2727 H   0  0  0  0  0  0
    4.6729   54.1352   20.0588 H   0  0  0  0  0  0
    2.7320   54.3080   21.2819 H   0  0  0  0  0  0
    3.8607   54.8516   22.4271 H   0  0  0  0  0  0
    1.2040   52.2083   25.4635 H   0  0  0  0  0  0
   -0.5111   50.0990   24.5477 H   0  0  0  0  0  0
   -0.0977   49.2240   26.8816 H   0  0  0  0  0  0
    1.2377   49.3852   25.8600 H   0  0  0  0  0  0
    1.9676   50.1795   28.0033 H   0  0  0  0  0  0
    1.9023   51.5822   27.0050 H   0  0  0  0  0  0
   -0.1134   50.8177   29.1457 H   0  0  0  0  0  0
    1.0509   52.0865   29.2009 H   0  0  0  0  0  0
   -0.8955   53.1742   28.7384 H   0  0  0  0  0  0
   -0.1347   53.1686   27.1951 H   0  0  0  0  0  0
   -2.1645   51.0174   27.9945 H   0  0  0  0  0  0
   -2.6919   52.4964   27.2818 H   0  0  0  0  0  0
   -2.1475   51.9234   25.1729 H   0  0  0  0  0  0
   -2.3782   50.3544   25.8474 H   0  0  0  0  0  0
    5.8610   56.8047   24.7995 H   0  0  0  0  0  0
    6.6167   56.4966   22.4406 H   0  0  0  0  0  0
    7.5953   54.4966   21.7179 H   0  0  0  0  0  0
    8.0533   52.6470   23.3786 H   0  0  0  0  0  0
    7.2141   52.9018   25.6974 H   0  0  0  0  0  0
    3.0433   52.3561   19.7290 H   0  0  0  0  0  0
  1  2  1  0  0  0
  1 36  1  0  0  0
  1 37  1  0  0  0
  1 38  1  0  0  0
  2  3  1  0  0  0
  2  4  1  0  0  0
  2 39  1  0  0  0
  3 40  1  0  0  0
  3 41  1  0  0  0
  3 42  1  0  0  0
  4  5  1  0  0  0
  4  6  1  0  0  0
  4 29  1  0  0  0
  6  7  2  0  0  0
  6  8  1  0  0  0
  8 13  1  0  0  0
  8  9  1  0  0  0
  9 10  1  0  0  0
  9 43  1  0  0  0
  9 44  1  0  0  0
 10 11  1  0  0  0
 10 12  1  0  0  0
 10 19  1  0  0  0
 12 18  1  0  0  0
 12 13  1  0  0  0
 12 14  1  0  0  0
 13 45  1  0  0  0
 13 46  1  0  0  0
 14 15  1  0  0  0
 14 47  1  0  0  0
 14 48  1  0  0  0
 15 16  1  0  0  0
 15 49  1  0  0  0
 15 50  1  0  0  0
 16 17  1  0  0  0
 16 51  1  0  0  0
 16 75  1  0  0  0
 17 18  1  0  0  0
 17 52  1  0  0  0
 17 53  1  0  0  0
 18 54  1  0  0  0
 18 55  1  0  0  0
 19 20  2  0  0  0
 19 21  1  0  0  0
 21 22  1  0  0  0
 21 56  1  0  0  0
 22 28  1  0  0  0
 22 23  1  0  0  0
 22 57  1  0  0  0
 23 24  1  0  0  0
 23 58  1  0  0  0
 23 59  1  0  0  0
 24 25  1  0  0  0
 24 60  1  0  0  0
 24 61  1  0  0  0
 25 26  1  0  0  0
 25 62  1  0  0  0
 25 63  1  0  0  0
 26 27  1  0  0  0
 26 64  1  0  0  0
 26 65  1  0  0  0
 27 28  1  0  0  0
 27 66  1  0  0  0
 27 67  1  0  0  0
 28 68  1  0  0  0
 28 69  1  0  0  0
 29 30  1  0  0  0
 30 35  2  0  0  0
 30 31  1  0  0  0
 31 32  2  0  0  0
 31 70  1  0  0  0
 32 33  1  0  0  0
 32 71  1  0  0  0
 33 34  2  0  0  0
 33 72  1  0  0  0
 34 35  1  0  0  0
 34 73  1  0  0  0
 35 74  1  0  0  0
M  CHG  1  16   1
M  END
> <i_i_glide_confnum>
2274

> <i_i_glide_lignum>
176

> <i_i_glide_posenum>
17

> <i_i_glide_rotatable_bonds>
8

> <i_m_Source_File_Index>
5785

> <b_m_subgroup_collapsed>
0

> <r_i_docking_score>
-2.53989

> <r_i_glide_ecoul>
-2.81613

> <r_i_glide_eff_state_penalty>
0

> <r_i_glide_einternal>
13.1691

> <r_i_glide_emodel>
-4.47746

> <r_i_glide_energy>
-8.64916

> <r_i_glide_erotb>
0.578319

> <r_i_glide_esite>
-0.0499903

> <r_i_glide_evdw>
-5.83303

> <r_i_glide_gscore>
-2.53989

> <r_i_glide_hbond>
-0.1571

> <r_i_glide_ligand_efficiency>
-0.0769664

> <r_i_glide_ligand_efficiency_ln>
-0.564859

> <r_i_glide_ligand_efficiency_sa>
-0.246872

> <r_i_glide_lipo>
-2.29958

> <r_i_glide_metal>
0

> <r_i_glide_rewards>
0.10253

> <s_i_glide_gridfile>
wee1_glide-grid

> <s_m_Source_File>
wee1_decoys_glide_SP.sdf

> <s_m_Source_Path>
/Users/zhangxujun/Desktop

> <s_m_entry_id>
6060

> <s_m_entry_name>
wee1_decoys_glide_SP.5785

> <s_m_subgroup_title>
wee1_decoys_glide_SP

> <s_m_subgroupid>
wee1_decoys_glide_SP


$$$$
