ZINC13260378_5886
                    3D
 Schrodinger Suite 2024-2.
 50 52  0  0  1  0            999 V2000
    6.7043   55.2973   25.1748 C   0  0  0  0  0  0
    6.4202   55.1165   26.5251 C   0  0  0  0  0  0
    5.2400   54.4875   26.9012 C   0  0  0  0  0  0
    4.3479   54.0238   25.9253 C   0  0  0  0  0  0
    4.6529   54.2052   24.5719 C   0  0  0  0  0  0
    5.8349   54.8339   24.1952 C   0  0  0  0  0  0
    3.1110   53.2963   26.2644 C   0  0  0  0  0  0
    2.4413   53.3356   27.4320 C   0  0  0  0  0  0
    0.9859   52.3202   27.7356 S   0  0  0  0  0  0
    1.4015   51.3129   28.7193 O   0  0  0  0  0  0
   -0.1002   53.2474   28.0672 O   0  0  0  0  0  0
    0.5580   51.4775   26.2157 N   0  0  0  0  0  0
    0.2659   50.0205   26.2342 C   0  0  0  0  0  0
   -1.1368   49.6878   25.6831 C   0  0  0  0  0  0
   -1.4773   50.3721   24.3381 C   0  0  0  0  0  0
   -1.2048   51.8986   24.4591 C   0  0  0  0  0  0
    0.2077   52.2344   24.9821 C   0  0  0  0  0  0
   -0.7037   49.7366   23.1483 C   0  0  0  0  0  0
   -0.0956   48.6772   23.2981 O   0  0  0  0  0  0
   -0.9056   50.3265   21.9534 N   0  0  0  0  0  0
   -0.4863   49.9862   20.6481 C   0  0  0  0  0  0
    0.4945   49.0044   20.4121 C   0  0  0  0  0  0
    0.8564   48.6541   19.1153 C   0  0  0  0  0  0
    0.2494   49.2784   18.0329 C   0  0  0  0  0  0
   -0.6947   50.2779   18.2471 C   0  0  0  0  0  0
   -1.0795   50.6628   19.5437 C   0  0  0  0  0  0
   -2.0990   51.7726   19.6891 C   0  0  0  0  0  0
   -2.4947   52.0954   20.8340 O   0  0  0  0  0  0
    0.7059   48.7713   16.2569 Br  0  0  0  0  0  0
    7.6100   55.8011   24.8727 H   0  0  0  0  0  0
    7.1040   55.4692   27.2836 H   0  0  0  0  0  0
    5.0345   54.3501   27.9525 H   0  0  0  0  0  0
    3.9810   53.8480   23.8053 H   0  0  0  0  0  0
    6.0673   54.9705   23.1492 H   0  0  0  0  0  0
    2.7539   52.6440   25.4839 H   0  0  0  0  0  0
    2.7369   53.9600   28.2584 H   0  0  0  0  0  0
    1.0566   49.4963   25.6961 H   0  0  0  0  0  0
    0.3183   49.6755   27.2662 H   0  0  0  0  0  0
   -1.3302   48.6154   25.6470 H   0  0  0  0  0  0
   -1.8942   49.9817   26.4104 H   0  0  0  0  0  0
   -2.5221   50.2369   24.0545 H   0  0  0  0  0  0
   -1.9563   52.3202   25.1275 H   0  0  0  0  0  0
   -1.4537   52.4301   23.5392 H   0  0  0  0  0  0
    0.2833   53.2968   25.2030 H   0  0  0  0  0  0
    0.9655   52.0283   24.2266 H   0  0  0  0  0  0
   -1.5569   51.1089   21.9321 H   0  0  0  0  0  0
    0.9973   48.4965   21.2183 H   0  0  0  0  0  0
    1.6069   47.8944   18.9475 H   0  0  0  0  0  0
   -1.1329   50.7542   17.3807 H   0  0  0  0  0  0
   -2.4962   52.3720   18.6639 O   0  5  0  0  0  0
  1  6  2  0  0  0
  1  2  1  0  0  0
  1 30  1  0  0  0
  2  3  2  0  0  0
  2 31  1  0  0  0
  3  4  1  0  0  0
  3 32  1  0  0  0
  4  5  2  0  0  0
  4  7  1  0  0  0
  5  6  1  0  0  0
  5 33  1  0  0  0
  6 34  1  0  0  0
  7  8  2  0  0  0
  7 35  1  0  0  0
  8  9  1  0  0  0
  8 36  1  0  0  0
  9 10  2  0  0  0
  9 11  2  0  0  0
  9 12  1  0  0  0
 12 17  1  0  0  0
 12 13  1  0  0  0
 13 14  1  0  0  0
 13 37  1  0  0  0
 13 38  1  0  0  0
 14 15  1  0  0  0
 14 39  1  0  0  0
 14 40  1  0  0  0
 15 16  1  0  0  0
 15 18  1  0  0  0
 15 41  1  0  0  0
 16 17  1  0  0  0
 16 42  1  0  0  0
 16 43  1  0  0  0
 17 44  1  0  0  0
 17 45  1  0  0  0
 18 19  2  0  0  0
 18 20  1  0  0  0
 20 21  1  0  0  0
 20 46  1  0  0  0
 21 26  2  0  0  0
 21 22  1  0  0  0
 22 23  2  0  0  0
 22 47  1  0  0  0
 23 24  1  0  0  0
 23 48  1  0  0  0
 24 25  2  0  0  0
 24 29  1  0  0  0
 25 26  1  0  0  0
 25 49  1  0  0  0
 26 27  1  0  0  0
 27 28  2  0  0  0
 27 50  1  0  0  0
M  CHG  1  50  -1
M  END
> <i_i_glide_confnum>
364

> <i_i_glide_lignum>
5887

> <i_i_glide_posenum>
366

> <i_i_glide_rotatable_bonds>
7

> <i_m_Source_File_Index>
3276

> <b_m_subgroup_collapsed>
0

> <r_i_docking_score>
-4.59567

> <r_i_glide_ecoul>
-4.42336

> <r_i_glide_eff_state_penalty>
0

> <r_i_glide_einternal>
5.23662

> <r_i_glide_emodel>
-52.3406

> <r_i_glide_energy>
-39.008

> <r_i_glide_erotb>
0.420012

> <r_i_glide_esite>
-0.0354539

> <r_i_glide_evdw>
-34.5847

> <r_i_glide_gscore>
-4.59567

> <r_i_glide_hbond>
-0.198839

> <r_i_glide_ligand_efficiency>
-0.153189

> <r_i_glide_ligand_efficiency_ln>
-1.04419

> <r_i_glide_ligand_efficiency_sa>
-0.475994

> <r_i_glide_lipo>
-2.01735

> <r_i_glide_metal>
0

> <r_i_glide_rewards>
-0.3713

> <s_i_glide_gridfile>
wee1_glide-grid

> <s_m_Source_File>
wee1_decoys_glide_SP.sdf

> <s_m_Source_Path>
/Users/zhangxujun/Desktop

> <s_m_entry_id>
3551

> <s_m_entry_name>
wee1_decoys_glide_SP.3276

> <s_m_subgroup_title>
wee1_decoys_glide_SP

> <s_m_subgroupid>
wee1_decoys_glide_SP


$$$$
