ZINC51329889_3897
                    3D
 Schrodinger Suite 2024-2.
 46 49  0  0  1  0            999 V2000
    1.6593   53.0036   28.9200 C   0  0  0  0  0  0
    2.6418   53.6091   28.0853 O   0  0  0  0  0  0
    2.5113   53.5184   26.7135 C   0  0  0  0  0  0
    1.4409   52.8965   26.0585 C   0  0  0  0  0  0
    1.3894   52.8610   24.6682 C   0  0  0  0  0  0
    2.4208   53.4164   23.9041 C   0  0  0  0  0  0
    3.4842   54.0496   24.5624 C   0  0  0  0  0  0
    3.5242   54.0975   25.9530 C   0  0  0  0  0  0
    2.3811   53.3309   22.3670 C   0  0  2  0  0  0
    1.6579   54.0964   22.0826 H   0  0  0  0  0  0
    1.8818   51.9646   21.7734 C   0  0  2  0  0  0
    0.8511   51.8004   22.0873 H   0  0  0  0  0  0
    2.7037   50.7346   22.2531 C   0  0  0  0  0  0
    2.2587   49.4263   21.5823 C   0  0  0  0  0  0
    2.2835   49.5446   20.0477 C   0  0  0  0  0  0
    1.3716   50.7030   19.6244 C   0  0  0  0  0  0
    0.2724   50.5602   18.8407 C   0  0  0  0  0  0
   -0.8201   51.9043   18.3822 S   0  0  0  0  0  0
   -1.3917   51.1050   16.8710 C   0  0  0  0  0  0
   -1.7118   49.6701   17.2521 C   0  0  0  0  0  0
   -0.2838   49.0043   18.1373 S   0  0  0  0  0  0
    1.8281   52.0474   20.2091 C   0  0  2  0  0  0
    1.1307   52.8403   19.9402 H   0  0  0  0  0  0
    3.1457   52.4957   19.7328 N   0  0  0  0  0  0
    3.9494   53.3836   20.3759 C   0  0  0  0  0  0
    5.2371   54.0965   19.6281 S   0  0  0  0  0  0
    3.6286   53.6880   21.6617 N   0  0  0  0  0  0
    1.9250   53.1646   29.9628 H   0  0  0  0  0  0
    1.6074   51.9269   28.7549 H   0  0  0  0  0  0
    0.6726   53.4409   28.7603 H   0  0  0  0  0  0
    0.6312   52.4421   26.6112 H   0  0  0  0  0  0
    0.5431   52.3878   24.1906 H   0  0  0  0  0  0
    4.2922   54.5043   24.0142 H   0  0  0  0  0  0
    4.3514   54.5823   26.4483 H   0  0  0  0  0  0
    3.7587   50.8981   22.0284 H   0  0  0  0  0  0
    2.6566   50.6380   23.3389 H   0  0  0  0  0  0
    1.2504   49.1703   21.9175 H   0  0  0  0  0  0
    2.8964   48.6043   21.9070 H   0  0  0  0  0  0
    1.9800   48.5975   19.6064 H   0  0  0  0  0  0
    3.3003   49.7085   19.6882 H   0  0  0  0  0  0
   -2.2626   51.6304   16.4784 H   0  0  0  0  0  0
   -0.5938   51.1554   16.1295 H   0  0  0  0  0  0
   -1.9205   49.0572   16.3750 H   0  0  0  0  0  0
   -2.5772   49.6194   17.9137 H   0  0  0  0  0  0
    3.3998   52.3389   18.7670 H   0  0  0  0  0  0
    4.1710   54.4620   22.0174 H   0  0  0  0  0  0
  1  2  1  0  0  0
  1 28  1  0  0  0
  1 29  1  0  0  0
  1 30  1  0  0  0
  2  3  1  0  0  0
  3  8  2  0  0  0
  3  4  1  0  0  0
  4  5  2  0  0  0
  4 31  1  0  0  0
  5  6  1  0  0  0
  5 32  1  0  0  0
  6  7  2  0  0  0
  6  9  1  0  0  0
  7  8  1  0  0  0
  7 33  1  0  0  0
  8 34  1  0  0  0
  9 10  1  0  0  0
  9 27  1  0  0  0
  9 11  1  0  0  0
 11 12  1  0  0  0
 11 22  1  0  0  0
 11 13  1  0  0  0
 13 14  1  0  0  0
 13 35  1  0  0  0
 13 36  1  0  0  0
 14 15  1  0  0  0
 14 37  1  0  0  0
 14 38  1  0  0  0
 15 16  1  0  0  0
 15 39  1  0  0  0
 15 40  1  0  0  0
 16 17  2  0  0  0
 16 22  1  0  0  0
 17 21  1  0  0  0
 17 18  1  0  0  0
 18 19  1  0  0  0
 19 20  1  0  0  0
 19 41  1  0  0  0
 19 42  1  0  0  0
 20 21  1  0  0  0
 20 43  1  0  0  0
 20 44  1  0  0  0
 22 23  1  0  0  0
 22 24  1  0  0  0
 24 25  1  0  0  0
 24 45  1  0  0  0
 25 26  2  0  0  0
 25 27  1  0  0  0
 27 46  1  0  0  0
M  END
> <i_i_glide_confnum>
2

> <i_i_glide_lignum>
3898

> <i_i_glide_posenum>
54

> <i_i_glide_rotatable_bonds>
2

> <i_m_Source_File_Index>
4775

> <b_m_subgroup_collapsed>
0

> <r_i_docking_score>
-4.07932

> <r_i_glide_ecoul>
-0.829526

> <r_i_glide_eff_state_penalty>
0

> <r_i_glide_einternal>
1.54181

> <r_i_glide_emodel>
-36.6393

> <r_i_glide_energy>
-29.7651

> <r_i_glide_erotb>
0.135225

> <r_i_glide_esite>
-0.0390783

> <r_i_glide_evdw>
-28.9356

> <r_i_glide_gscore>
-4.07932

> <r_i_glide_hbond>
0

> <r_i_glide_ligand_efficiency>
-0.169972

> <r_i_glide_ligand_efficiency_ln>
-0.97637

> <r_i_glide_ligand_efficiency_sa>
-0.490284

> <r_i_glide_lipo>
-1.77639

> <r_i_glide_metal>
0

> <r_i_glide_rewards>
-0.827874

> <s_i_glide_gridfile>
wee1_glide-grid

> <s_m_Source_File>
wee1_decoys_glide_SP.sdf

> <s_m_Source_Path>
/Users/zhangxujun/Desktop

> <s_m_entry_id>
5050

> <s_m_entry_name>
wee1_decoys_glide_SP.4775

> <s_m_subgroup_title>
wee1_decoys_glide_SP

> <s_m_subgroupid>
wee1_decoys_glide_SP


$$$$
