ZINC13018846_556
                    3D
 Schrodinger Suite 2024-2.
 56 59  0  0  1  0            999 V2000
    1.1039   54.7863   30.4271 C   0  0  0  0  0  0
    1.9664   53.6764   30.2046 O   0  0  0  0  0  0
    2.7979   53.8054   29.1206 C   0  0  0  0  0  0
    4.0537   54.3813   29.3080 C   0  0  0  0  0  0
    4.9360   54.5279   28.2425 C   0  0  0  0  0  0
    4.5737   54.1330   26.9488 C   0  0  0  0  0  0
    3.3261   53.4955   26.7869 C   0  0  0  0  0  0
    2.4431   53.3173   27.8562 C   0  0  0  0  0  0
    0.9155   52.3771   27.6802 S   0  0  0  0  0  0
   -0.2097   53.2963   27.8521 O   0  0  0  0  0  0
    1.0756   51.2725   28.6253 O   0  0  0  0  0  0
    0.8175   51.7061   26.0259 N   0  0  0  0  0  0
    0.2994   50.3202   25.8806 C   0  0  0  0  0  0
   -1.2233   50.1966   26.0815 C   0  0  0  0  0  0
   -2.1255   50.8112   24.9966 C   0  0  0  0  0  0
   -1.8567   52.2851   24.6489 C   0  0  0  0  0  0
   -0.4967   52.5022   23.9637 C   0  0  0  0  0  0
    0.7119   52.6736   24.9021 C   0  0  0  0  0  0
    5.5160   54.4187   25.7837 C   0  0  0  0  0  0
    6.6190   54.9327   26.0253 O   0  0  0  0  0  0
    5.0234   54.1037   24.5962 N   0  5  0  0  0  0
    5.5844   54.4963   23.4246 C   0  0  0  0  0  0
    5.1552   54.2535   22.2103 N   0  0  0  0  0  0
    6.0063   54.8966   21.4142 C   0  0  0  0  0  0
    6.9888   55.5232   22.0283 N   0  0  0  0  0  0
    7.2740   55.5805   24.0787 H   0  0  0  0  0  0
    6.7055   55.2706   23.3027 N   0  0  0  0  0  0
    5.8670   54.8997   19.9189 C   0  0  0  0  0  0
    6.9265   55.3243   19.1059 C   0  0  0  0  0  0
    6.7949   55.3291   17.7205 C   0  0  0  0  0  0
    5.6026   54.9075   17.1383 C   0  0  0  0  0  0
    4.5429   54.4789   17.9319 C   0  0  0  0  0  0
    4.6753   54.4750   19.3176 C   0  0  0  0  0  0
    5.4733   54.9163   15.7921 F   0  0  0  0  0  0
    0.5562   54.6382   31.3593 H   0  0  0  0  0  0
    1.6614   55.7225   30.5122 H   0  0  0  0  0  0
    0.3683   54.9003   29.6304 H   0  0  0  0  0  0
    4.3529   54.7117   30.2902 H   0  0  0  0  0  0
    5.8945   54.9950   28.4314 H   0  0  0  0  0  0
    3.0593   53.1078   25.8187 H   0  0  0  0  0  0
    0.6729   49.8690   24.9613 H   0  0  0  0  0  0
    0.7581   49.7303   26.6746 H   0  0  0  0  0  0
   -1.4938   50.6014   27.0603 H   0  0  0  0  0  0
   -1.4663   49.1353   26.1429 H   0  0  0  0  0  0
   -3.1644   50.7114   25.3192 H   0  0  0  0  0  0
   -2.0469   50.2120   24.0876 H   0  0  0  0  0  0
   -2.6443   52.6247   23.9737 H   0  0  0  0  0  0
   -1.9388   52.9061   25.5428 H   0  0  0  0  0  0
   -0.3034   51.6822   23.2693 H   0  0  0  0  0  0
   -0.5523   53.3836   23.3317 H   0  0  0  0  0  0
    1.5633   52.4653   24.2530 H   0  0  0  0  0  0
    0.8751   53.6896   25.2534 H   0  0  0  0  0  0
    7.8588   55.6488   19.5452 H   0  0  0  0  0  0
    7.6129   55.6580   17.0964 H   0  0  0  0  0  0
    3.6235   54.1514   17.4719 H   0  0  0  0  0  0
    3.8421   54.1448   19.9219 H   0  0  0  0  0  0
  1  2  1  0  0  0
  1 35  1  0  0  0
  1 36  1  0  0  0
  1 37  1  0  0  0
  2  3  1  0  0  0
  3  8  2  0  0  0
  3  4  1  0  0  0
  4  5  2  0  0  0
  4 38  1  0  0  0
  5  6  1  0  0  0
  5 39  1  0  0  0
  6  7  2  0  0  0
  6 19  1  0  0  0
  7  8  1  0  0  0
  7 40  1  0  0  0
  8  9  1  0  0  0
  9 10  2  0  0  0
  9 11  2  0  0  0
  9 12  1  0  0  0
 12 18  1  0  0  0
 12 13  1  0  0  0
 13 14  1  0  0  0
 13 41  1  0  0  0
 13 42  1  0  0  0
 14 15  1  0  0  0
 14 43  1  0  0  0
 14 44  1  0  0  0
 15 16  1  0  0  0
 15 45  1  0  0  0
 15 46  1  0  0  0
 16 17  1  0  0  0
 16 47  1  0  0  0
 16 48  1  0  0  0
 17 18  1  0  0  0
 17 49  1  0  0  0
 17 50  1  0  0  0
 18 51  1  0  0  0
 18 52  1  0  0  0
 19 20  2  0  0  0
 19 21  1  0  0  0
 21 22  1  0  0  0
 22 23  2  0  0  0
 22 27  1  0  0  0
 23 24  1  0  0  0
 24 28  1  0  0  0
 24 25  2  0  0  0
 25 27  1  0  0  0
 26 27  1  0  0  0
 28 33  2  0  0  0
 28 29  1  0  0  0
 29 30  2  0  0  0
 29 53  1  0  0  0
 30 31  1  0  0  0
 30 54  1  0  0  0
 31 32  2  0  0  0
 31 34  1  0  0  0
 32 33  1  0  0  0
 32 55  1  0  0  0
 33 56  1  0  0  0
M  CHG  1  21  -1
M  END
> <i_i_glide_confnum>
576

> <i_i_glide_lignum>
557

> <i_i_glide_posenum>
197

> <i_i_glide_rotatable_bonds>
7

> <i_m_Source_File_Index>
2411

> <b_m_subgroup_collapsed>
0

> <r_i_docking_score>
-3.48598

> <r_i_glide_ecoul>
-6.68749

> <r_i_glide_eff_state_penalty>
0

> <r_i_glide_einternal>
12.8028

> <r_i_glide_emodel>
-48.6063

> <r_i_glide_energy>
-52.3149

> <r_i_glide_erotb>
0.543397

> <r_i_glide_esite>
0

> <r_i_glide_evdw>
-45.6274

> <r_i_glide_gscore>
-3.48598

> <r_i_glide_hbond>
-0.458517

> <r_i_glide_ligand_efficiency>
-0.105636

> <r_i_glide_ligand_efficiency_ln>
-0.775264

> <r_i_glide_ligand_efficiency_sa>
-0.33883

> <r_i_glide_lipo>
-1.88092

> <r_i_glide_metal>
0

> <r_i_glide_rewards>
1.59455

> <s_i_glide_gridfile>
wee1_glide-grid

> <s_m_Source_File>
wee1_decoys_glide_SP.sdf

> <s_m_Source_Path>
/Users/zhangxujun/Desktop

> <s_m_entry_id>
2686

> <s_m_entry_name>
wee1_decoys_glide_SP.2411

> <s_m_subgroup_title>
wee1_decoys_glide_SP

> <s_m_subgroupid>
wee1_decoys_glide_SP


$$$$
