ZINC63869538_199
                    3D
 Schrodinger Suite 2024-2.
 49 52  0  0  1  0            999 V2000
    2.6248   55.1703   28.8246 C   0  0  0  0  0  0
    1.8517   55.6513   29.9599 C   0  0  0  0  0  0
    0.8252   54.9297   30.4817 C   0  0  0  0  0  0
    0.4381   53.7219   29.8935 C   0  0  0  0  0  0
   -0.4955   52.8829   30.2547 N   0  3  0  0  0  0
   -0.6083   51.8133   29.2610 C   0  0  0  0  0  0
    0.5816   52.0788   28.3655 C   0  0  0  0  0  0
    1.1066   53.2516   28.7598 C   0  0  0  0  0  0
    2.2546   54.0092   28.2495 C   0  0  0  0  0  0
    1.0021   51.1358   27.2475 C   0  0  0  0  0  0
   -0.1373   50.4619   26.4364 C   0  0  1  0  0  0
   -0.9537   50.0984   27.0629 H   0  0  0  0  0  0
   -0.6566   51.3981   25.3666 C   0  0  0  0  0  0
   -1.1777   52.4964   25.5557 O   0  0  0  0  0  0
   -0.3747   50.7946   24.1928 N   0  0  0  0  0  0
    0.2293   49.5863   24.3160 C   0  0  0  0  0  0
    0.7029   48.8969   23.4175 O   0  0  0  0  0  0
    0.3486   49.3769   25.6307 N   0  0  0  0  0  0
   -0.5835   51.4386   22.8777 C   0  0  0  0  0  0
    0.6464   52.2250   22.3604 C   0  0  0  0  0  0
    0.6509   52.4964   21.1638 O   0  0  0  0  0  0
    1.6178   52.5967   23.2288 N   0  0  0  0  0  0
    2.8449   53.2529   22.9815 C   0  0  0  0  0  0
    3.4140   53.4242   21.7106 C   0  0  0  0  0  0
    4.6577   54.0363   21.5735 C   0  0  0  0  0  0
    5.3645   54.4742   22.6932 C   0  0  0  0  0  0
    4.8207   54.3001   23.9789 C   0  0  0  0  0  0
    3.5552   53.7007   24.1014 C   0  0  0  0  0  0
    5.5896   54.7519   25.2289 C   0  0  0  0  0  0
    4.8940   54.5671   26.3514 F   0  0  0  0  0  0
    5.9048   56.0446   25.1562 F   0  0  0  0  0  0
    6.7223   54.0605   25.3337 F   0  0  0  0  0  0
    6.9111   55.2103   22.4416 Cl  0  0  0  0  0  0
    3.5007   55.6962   28.4808 H   0  0  0  0  0  0
    2.1148   56.5985   30.4142 H   0  0  0  0  0  0
    0.3050   55.3054   31.3483 H   0  0  0  0  0  0
   -1.5704   51.8896   28.7559 H   0  0  0  0  0  0
   -0.5747   50.8967   29.8184 H   0  0  0  0  0  0
    2.8502   53.6402   27.4274 H   0  0  0  0  0  0
    1.6339   50.3661   27.6850 H   0  0  0  0  0  0
    1.6665   51.6972   26.5889 H   0  0  0  0  0  0
    0.4719   48.4518   26.0272 H   0  0  0  0  0  0
   -1.4430   52.1104   22.8998 H   0  0  0  0  0  0
   -0.8140   50.6612   22.1467 H   0  0  0  0  0  0
    1.4336   52.4001   24.1985 H   0  0  0  0  0  0
    2.9208   53.0828   20.8134 H   0  0  0  0  0  0
    5.0786   54.1593   20.5854 H   0  0  0  0  0  0
    3.1269   53.5563   25.0825 H   0  0  0  0  0  0
   -1.0759   52.9482   31.0907 H   0  0  0  0  0  0
  1  9  2  0  0  0
  1  2  1  0  0  0
  1 34  1  0  0  0
  2  3  2  0  0  0
  2 35  1  0  0  0
  3  4  1  0  0  0
  3 36  1  0  0  0
  4  8  1  0  0  0
  4  5  2  0  0  0
  5  6  1  0  0  0
  5 49  1  0  0  0
  6  7  1  0  0  0
  6 37  1  0  0  0
  6 38  1  0  0  0
  7  8  2  0  0  0
  7 10  1  0  0  0
  8  9  1  0  0  0
  9 39  1  0  0  0
 10 11  1  0  0  0
 10 40  1  0  0  0
 10 41  1  0  0  0
 11 12  1  0  0  0
 11 18  1  0  0  0
 11 13  1  0  0  0
 13 14  2  0  0  0
 13 15  1  0  0  0
 15 16  1  0  0  0
 15 19  1  0  0  0
 16 17  2  0  0  0
 16 18  1  0  0  0
 18 42  1  0  0  0
 19 20  1  0  0  0
 19 43  1  0  0  0
 19 44  1  0  0  0
 20 21  2  0  0  0
 20 22  1  0  0  0
 22 23  1  0  0  0
 22 45  1  0  0  0
 23 28  2  0  0  0
 23 24  1  0  0  0
 24 25  2  0  0  0
 24 46  1  0  0  0
 25 26  1  0  0  0
 25 47  1  0  0  0
 26 27  2  0  0  0
 26 33  1  0  0  0
 27 28  1  0  0  0
 27 29  1  0  0  0
 28 48  1  0  0  0
 29 30  1  0  0  0
 29 31  1  0  0  0
 29 32  1  0  0  0
M  CHG  1   5   1
M  END
> <i_i_glide_confnum>
79

> <i_i_glide_lignum>
200

> <i_i_glide_posenum>
63

> <i_i_glide_rotatable_bonds>
7

> <i_m_Source_File_Index>
1526

> <b_m_subgroup_collapsed>
0

> <r_i_docking_score>
-6.66852

> <r_i_glide_ecoul>
-3.07188

> <r_i_glide_eff_state_penalty>
0

> <r_i_glide_einternal>
2.9086

> <r_i_glide_emodel>
-63.8042

> <r_i_glide_energy>
-45.039

> <r_i_glide_erotb>
0.557699

> <r_i_glide_esite>
-0.14419

> <r_i_glide_evdw>
-41.9671

> <r_i_glide_gscore>
-6.66852

> <r_i_glide_hbond>
-0.0997969

> <r_i_glide_ligand_efficiency>
-0.208391

> <r_i_glide_ligand_efficiency_ln>
-1.49326

> <r_i_glide_ligand_efficiency_sa>
-0.661601

> <r_i_glide_lipo>
-2.95268

> <r_i_glide_metal>
0

> <r_i_glide_rewards>
-1.47042

> <s_i_glide_gridfile>
wee1_glide-grid

> <s_m_Source_File>
wee1_decoys_glide_SP.sdf

> <s_m_Source_Path>
/Users/zhangxujun/Desktop

> <s_m_entry_id>
1801

> <s_m_entry_name>
wee1_decoys_glide_SP.1526

> <s_m_subgroup_title>
wee1_decoys_glide_SP

> <s_m_subgroupid>
wee1_decoys_glide_SP


$$$$
