ZINC66091374_1503
                    3D
 Schrodinger Suite 2024-2.
 42 45  0  0  1  0            999 V2000
    9.1370   56.2375   18.2823 C   0  0  0  0  0  0
    7.7435   55.8272   18.3804 N   0  0  0  0  0  0
    7.0995   55.5268   19.5516 C   0  0  0  0  0  0
    7.5933   55.6962   20.7550 N   0  0  0  0  0  0
    6.7500   55.2730   21.6703 C   0  0  0  0  0  0
    5.5306   54.7693   21.2388 C   0  0  0  0  0  0
    5.4979   54.8443   19.4995 S   0  0  0  0  0  0
    4.4356   54.3631   22.2157 C   0  0  2  0  0  0
    3.8430   55.2745   22.3622 H   0  0  0  0  0  0
    5.1170   53.9807   23.5794 C   0  0  0  0  0  0
    6.3534   54.8250   24.0127 C   0  0  0  0  0  0
    6.7044   54.9733   25.1812 O   0  0  0  0  0  0
    7.1041   55.2942   22.9943 N   0  0  0  0  0  0
    3.4455   53.2631   21.7683 C   0  0  0  0  0  0
    3.8661   52.1892   20.9591 C   0  0  0  0  0  0
    2.9274   51.2268   20.5982 C   0  0  0  0  0  0
    1.6246   51.2879   21.0016 C   0  0  0  0  0  0
    1.1640   52.3181   21.8278 C   0  0  0  0  0  0
    2.1063   53.2917   22.2294 C   0  0  0  0  0  0
    1.7195   54.3183   23.0533 O   0  0  0  0  0  0
    1.3631   53.9278   24.3670 C   0  0  0  0  0  0
   -0.1484   52.4398   22.2578 O   0  0  0  0  0  0
   -1.1393   51.5145   21.8285 C   0  0  0  0  0  0
    0.9608   50.2050   20.5048 O   0  0  0  0  0  0
    1.8312   49.6078   19.5889 C   0  0  0  0  0  0
    3.1061   50.0973   19.8649 O   0  0  0  0  0  0
    9.7967   55.3918   18.4809 H   0  0  0  0  0  0
    9.3554   56.6053   17.2794 H   0  0  0  0  0  0
    9.3697   57.0252   19.0004 H   0  0  0  0  0  0
    7.4205   55.3778   17.5352 H   0  0  0  0  0  0
    4.3942   53.9887   24.3938 H   0  0  0  0  0  0
    5.5041   52.9647   23.4978 H   0  0  0  0  0  0
    7.9910   55.6965   23.2817 H   0  0  0  0  0  0
    4.8892   52.1096   20.6224 H   0  0  0  0  0  0
    0.4932   53.2750   24.4178 H   0  0  0  0  0  0
    2.1902   53.4544   24.8972 H   0  0  0  0  0  0
    1.1045   54.8394   24.8819 H   0  0  0  0  0  0
   -2.1035   51.8018   22.2479 H   0  0  0  0  0  0
   -1.2426   51.5154   20.7430 H   0  0  0  0  0  0
   -0.9212   50.5035   22.1761 H   0  0  0  0  0  0
    1.8117   48.5210   19.6718 H   0  0  0  0  0  0
    1.5560   49.8902   18.5703 H   0  0  0  0  0  0
  1  2  1  0  0  0
  1 27  1  0  0  0
  1 28  1  0  0  0
  1 29  1  0  0  0
  2  3  1  0  0  0
  2 30  1  0  0  0
  3  7  1  0  0  0
  3  4  2  0  0  0
  4  5  1  0  0  0
  5 13  1  0  0  0
  5  6  2  0  0  0
  6  7  1  0  0  0
  6  8  1  0  0  0
  8  9  1  0  0  0
  8 10  1  0  0  0
  8 14  1  0  0  0
 10 11  1  0  0  0
 10 31  1  0  0  0
 10 32  1  0  0  0
 11 12  2  0  0  0
 11 13  1  0  0  0
 13 33  1  0  0  0
 14 19  2  0  0  0
 14 15  1  0  0  0
 15 16  2  0  0  0
 15 34  1  0  0  0
 16 26  1  0  0  0
 16 17  1  0  0  0
 17 18  2  0  0  0
 17 24  1  0  0  0
 18 19  1  0  0  0
 18 22  1  0  0  0
 19 20  1  0  0  0
 20 21  1  0  0  0
 21 35  1  0  0  0
 21 36  1  0  0  0
 21 37  1  0  0  0
 22 23  1  0  0  0
 23 38  1  0  0  0
 23 39  1  0  0  0
 23 40  1  0  0  0
 24 25  1  0  0  0
 25 26  1  0  0  0
 25 41  1  0  0  0
 25 42  1  0  0  0
M  END
> <i_i_glide_confnum>
1

> <i_i_glide_lignum>
1504

> <i_i_glide_posenum>
318

> <i_i_glide_rotatable_bonds>
4

> <i_m_Source_File_Index>
3930

> <b_m_subgroup_collapsed>
0

> <r_i_docking_score>
-6.19121

> <r_i_glide_ecoul>
-5.34893

> <r_i_glide_eff_state_penalty>
0

> <r_i_glide_einternal>
0.398396

> <r_i_glide_emodel>
-50.2754

> <r_i_glide_energy>
-37.0743

> <r_i_glide_erotb>
0.101846

> <r_i_glide_esite>
-0.0608674

> <r_i_glide_evdw>
-31.7254

> <r_i_glide_gscore>
-6.19121

> <r_i_glide_hbond>
-0.387313

> <r_i_glide_ligand_efficiency>
-0.247648

> <r_i_glide_ligand_efficiency_ln>
-1.4675

> <r_i_glide_ligand_efficiency_sa>
-0.724128

> <r_i_glide_lipo>
-1.27983

> <r_i_glide_metal>
0

> <r_i_glide_rewards>
-2.17644

> <s_i_glide_gridfile>
wee1_glide-grid

> <s_m_Source_File>
wee1_decoys_glide_SP.sdf

> <s_m_Source_Path>
/Users/zhangxujun/Desktop

> <s_m_entry_id>
4205

> <s_m_entry_name>
wee1_decoys_glide_SP.3930

> <s_m_subgroup_title>
wee1_decoys_glide_SP

> <s_m_subgroupid>
wee1_decoys_glide_SP


$$$$
