ZINC38892985_5451
                    3D
 Schrodinger Suite 2024-2.
 78 82  0  0  1  0            999 V2000
   -6.5530   53.1658   14.9431 C   0  0  0  0  0  0
   -5.4642   53.1236   16.0275 C   0  0  0  0  0  0
   -5.1687   51.6989   16.5030 C   0  0  0  0  0  0
   -4.1347   51.6932   17.6489 C   0  0  0  0  0  0
   -2.8674   52.3963   17.3363 N   0  0  0  0  0  0
   -3.0750   53.7030   16.6677 C   0  0  0  0  0  0
   -4.1240   53.6789   15.5369 C   0  0  0  0  0  0
   -1.7211   52.1877   18.1061 C   0  0  0  0  0  0
   -0.4605   52.5362   17.6021 C   0  0  0  0  0  0
    0.6985   52.2676   18.3243 C   0  0  0  0  0  0
    0.6286   51.6455   19.5733 C   0  0  0  0  0  0
   -0.6279   51.3222   20.0998 C   0  0  0  0  0  0
   -1.7850   51.5864   19.3720 C   0  0  0  0  0  0
    1.9368   51.2740   20.2860 C   0  0  2  0  0  0
    2.5181   50.7483   19.5215 H   0  0  0  0  0  0
    1.7800   50.2808   21.4647 C   0  0  0  0  0  0
    2.6914   52.4698   20.6744 N   0  0  0  0  0  0
    4.0045   52.4745   20.9671 C   0  0  0  0  0  0
    4.7040   51.4629   20.9103 O   0  0  0  0  0  0
    4.6303   53.8091   21.4116 C   0  0  2  0  0  0
    3.7957   54.4777   21.6377 H   0  0  0  0  0  0
    5.4528   54.3946   20.2350 C   0  0  0  0  0  0
    6.2176   55.6503   20.6939 C   0  0  0  0  0  0
    7.0758   55.3945   21.9505 C   0  0  0  0  0  0
    6.1535   54.8964   23.0914 N   0  3  1  0  0  0
    5.4676   53.5675   22.6988 C   0  0  0  0  0  0
    6.9622   54.7910   24.4100 C   0  0  0  0  0  0
    6.0966   54.6358   25.6493 C   0  0  0  0  0  0
    4.8021   54.4933   25.7625 N   0  0  0  0  0  0
    4.6452   54.3792   27.0693 C   0  0  0  0  0  0
    5.7386   54.4973   27.7949 N   0  0  0  0  0  0
    6.7371   54.6709   26.8414 O   0  0  0  0  0  0
    3.3196   54.0751   27.6949 C   0  0  0  0  0  0
    2.9740   54.6043   28.9430 C   0  0  0  0  0  0
    1.7797   54.2299   29.5571 C   0  0  0  0  0  0
    0.9353   53.2987   28.9537 C   0  0  0  0  0  0
    1.2558   52.8079   27.6798 C   0  0  0  0  0  0
    2.4321   53.2066   27.0514 C   0  0  0  0  0  0
   -0.1720   52.9063   29.6794 O   0  0  0  0  0  0
   -0.8999   51.7544   29.2562 C   0  0  0  0  0  0
   -6.2651   52.5928   14.0596 H   0  0  0  0  0  0
   -6.7479   54.1896   14.6211 H   0  0  0  0  0  0
   -7.4923   52.7553   15.3147 H   0  0  0  0  0  0
   -5.8000   53.7149   16.8805 H   0  0  0  0  0  0
   -6.0947   51.2367   16.8492 H   0  0  0  0  0  0
   -4.8461   51.0497   15.6883 H   0  0  0  0  0  0
   -4.5721   52.0970   18.5602 H   0  0  0  0  0  0
   -3.8968   50.6487   17.8555 H   0  0  0  0  0  0
   -3.3394   54.4506   17.4122 H   0  0  0  0  0  0
   -2.1426   54.0448   16.2214 H   0  0  0  0  0  0
   -3.7477   53.1320   14.6716 H   0  0  0  0  0  0
   -4.2714   54.6896   15.1570 H   0  0  0  0  0  0
   -0.3587   52.9781   16.6227 H   0  0  0  0  0  0
    1.6594   52.5187   17.8963 H   0  0  0  0  0  0
   -0.7255   50.8446   21.0623 H   0  0  0  0  0  0
   -2.7314   51.2993   19.8042 H   0  0  0  0  0  0
    1.2391   49.3850   21.1597 H   0  0  0  0  0  0
    2.7474   49.9446   21.8365 H   0  0  0  0  0  0
    1.2509   50.7311   22.3044 H   0  0  0  0  0  0
    2.1993   53.3516   20.6037 H   0  0  0  0  0  0
    6.2194   53.6978   19.8916 H   0  0  0  0  0  0
    4.8066   54.6923   19.4056 H   0  0  0  0  0  0
    6.8564   56.0031   19.8824 H   0  0  0  0  0  0
    5.5078   56.4558   20.8818 H   0  0  0  0  0  0
    7.8580   54.6482   21.8002 H   0  0  0  0  0  0
    7.5385   56.3245   22.2794 H   0  0  0  0  0  0
    4.8116   53.2957   23.5245 H   0  0  0  0  0  0
    6.2710   52.8346   22.5887 H   0  0  0  0  0  0
    7.6687   53.9721   24.2699 H   0  0  0  0  0  0
    7.5057   55.7319   24.4750 H   0  0  0  0  0  0
    3.6376   55.2922   29.4458 H   0  0  0  0  0  0
    1.5142   54.6317   30.5241 H   0  0  0  0  0  0
    0.6133   52.1019   27.1743 H   0  0  0  0  0  0
    2.6755   52.7930   26.0831 H   0  0  0  0  0  0
   -1.6106   51.4616   30.0288 H   0  0  0  0  0  0
   -1.4622   51.9485   28.3420 H   0  0  0  0  0  0
   -0.2440   50.8968   29.0949 H   0  0  0  0  0  0
    5.4332   55.5903   23.2409 H   0  0  0  0  0  0
  1  2  1  0  0  0
  1 41  1  0  0  0
  1 42  1  0  0  0
  1 43  1  0  0  0
  2  7  1  0  0  0
  2  3  1  0  0  0
  2 44  1  0  0  0
  3  4  1  0  0  0
  3 45  1  0  0  0
  3 46  1  0  0  0
  4  5  1  0  0  0
  4 47  1  0  0  0
  4 48  1  0  0  0
  5  6  1  0  0  0
  5  8  1  0  0  0
  6  7  1  0  0  0
  6 49  1  0  0  0
  6 50  1  0  0  0
  7 51  1  0  0  0
  7 52  1  0  0  0
  8 13  2  0  0  0
  8  9  1  0  0  0
  9 10  2  0  0  0
  9 53  1  0  0  0
 10 11  1  0  0  0
 10 54  1  0  0  0
 11 12  2  0  0  0
 11 14  1  0  0  0
 12 13  1  0  0  0
 12 55  1  0  0  0
 13 56  1  0  0  0
 14 15  1  0  0  0
 14 16  1  0  0  0
 14 17  1  0  0  0
 16 57  1  0  0  0
 16 58  1  0  0  0
 16 59  1  0  0  0
 17 18  1  0  0  0
 17 60  1  0  0  0
 18 19  2  0  0  0
 18 20  1  0  0  0
 20 21  1  0  0  0
 20 26  1  0  0  0
 20 22  1  0  0  0
 22 23  1  0  0  0
 22 61  1  0  0  0
 22 62  1  0  0  0
 23 24  1  0  0  0
 23 63  1  0  0  0
 23 64  1  0  0  0
 24 25  1  0  0  0
 24 65  1  0  0  0
 24 66  1  0  0  0
 25 26  1  0  0  0
 25 27  1  0  0  0
 25 78  1  0  0  0
 26 67  1  0  0  0
 26 68  1  0  0  0
 27 28  1  0  0  0
 27 69  1  0  0  0
 27 70  1  0  0  0
 28 32  1  0  0  0
 28 29  2  0  0  0
 29 30  1  0  0  0
 30 31  2  0  0  0
 30 33  1  0  0  0
 31 32  1  0  0  0
 33 38  2  0  0  0
 33 34  1  0  0  0
 34 35  2  0  0  0
 34 71  1  0  0  0
 35 36  1  0  0  0
 35 72  1  0  0  0
 36 37  2  0  0  0
 36 39  1  0  0  0
 37 38  1  0  0  0
 37 73  1  0  0  0
 38 74  1  0  0  0
 39 40  1  0  0  0
 40 75  1  0  0  0
 40 76  1  0  0  0
 40 77  1  0  0  0
M  CHG  1  25   1
M  END
> <i_i_glide_confnum>
87

> <i_i_glide_lignum>
5452

> <i_i_glide_posenum>
65

> <i_i_glide_rotatable_bonds>
9

> <i_m_Source_File_Index>
662

> <b_m_subgroup_collapsed>
0

> <r_i_docking_score>
-5.26142

> <r_i_glide_ecoul>
-2.38601

> <r_i_glide_eff_state_penalty>
0

> <r_i_glide_einternal>
7.92208

> <r_i_glide_emodel>
-64.5854

> <r_i_glide_energy>
-50.6467

> <r_i_glide_erotb>
0.610809

> <r_i_glide_esite>
-0.0238113

> <r_i_glide_evdw>
-48.2607

> <r_i_glide_gscore>
-5.26142

> <r_i_glide_hbond>
-0.258015

> <r_i_glide_ligand_efficiency>
-0.138458

> <r_i_glide_ligand_efficiency_ln>
-1.13452

> <r_i_glide_ligand_efficiency_sa>
-0.465494

> <r_i_glide_lipo>
-2.35711

> <r_i_glide_metal>
0

> <r_i_glide_rewards>
-0.462363

> <s_i_glide_gridfile>
wee1_glide-grid

> <s_m_Source_File>
wee1_decoys_glide_SP.sdf

> <s_m_Source_Path>
/Users/zhangxujun/Desktop

> <s_m_entry_id>
937

> <s_m_entry_name>
wee1_decoys_glide_SP.662

> <s_m_subgroup_title>
wee1_decoys_glide_SP

> <s_m_subgroupid>
wee1_decoys_glide_SP


$$$$
