ZINC32527475_4540
                    3D
 Schrodinger Suite 2024-2.
 64 67  0  0  1  0            999 V2000
    5.5045   55.6289   20.1926 C   0  0  0  0  0  0
    4.5080   54.4871   20.4548 C   0  0  0  0  0  0
    4.8104   53.5451   21.6726 C   0  0  2  0  0  0
    5.8101   53.2151   21.3831 H   0  0  0  0  0  0
    4.1245   52.1558   21.5198 C   0  0  0  0  0  0
    4.7042   51.2844   20.8819 O   0  0  0  0  0  0
    2.9191   51.9628   22.0681 N   0  0  0  0  0  0
    2.0779   50.8738   21.9445 C   0  0  0  0  0  0
    1.5570   50.2058   20.8166 C   0  0  0  0  0  0
    0.6071   49.2139   21.1916 C   0  0  0  0  0  0
    0.3905   49.2156   22.5682 C   0  0  0  0  0  0
    1.3718   50.3392   23.4264 S   0  0  0  0  0  0
   -0.1511   48.2862   20.2967 C   0  0  0  0  0  0
    0.5174   47.3360   19.5181 C   0  0  0  0  0  0
   -0.2025   46.4659   18.7059 C   0  0  0  0  0  0
   -1.5961   46.5386   18.6706 C   0  0  0  0  0  0
   -2.2696   47.4848   19.4464 C   0  0  0  0  0  0
   -1.5477   48.3528   20.2620 C   0  0  0  0  0  0
   -2.3753   45.5991   17.7679 C   0  0  0  0  0  0
    1.9238   50.4930   19.4547 C   0  0  0  0  0  0
    1.5270   51.4983   18.8723 O   0  0  0  0  0  0
    2.7041   49.5725   18.8880 N   0  0  0  0  0  0
    4.9909   54.0974   23.0951 N   0  0  0  0  0  0
    6.2795   54.5318   23.3321 C   0  0  0  0  0  0
    7.1226   54.7908   22.4816 O   0  0  0  0  0  0
    6.6774   54.6117   24.7174 C   0  0  0  0  0  0
    5.8897   54.3139   25.7621 C   0  0  0  0  0  0
    4.4631   53.9998   25.5064 C   0  0  0  0  0  0
    3.9921   54.0573   24.1642 C   0  0  0  0  0  0
    2.5836   54.0513   24.0012 C   0  0  0  0  0  0
    1.7441   53.6967   25.0575 C   0  0  0  0  0  0
    2.2464   53.4961   26.3363 C   0  0  0  0  0  0
    3.5998   53.6974   26.5659 C   0  0  0  0  0  0
    1.3262   53.1115   27.4784 C   0  0  0  0  0  0
    1.8786   54.5663   22.7682 C   0  0  0  0  0  0
    6.4248   54.3408   27.1896 C   0  0  0  0  0  0
    5.2238   56.1859   19.2972 H   0  0  0  0  0  0
    5.5334   56.3334   21.0214 H   0  0  0  0  0  0
    6.5120   55.2472   20.0285 H   0  0  0  0  0  0
    4.5276   53.8778   19.5484 H   0  0  0  0  0  0
    3.5048   54.8926   20.4478 H   0  0  0  0  0  0
    2.6315   52.6589   22.7413 H   0  0  0  0  0  0
   -0.2872   48.5837   23.1225 H   0  0  0  0  0  0
    1.5944   47.2606   19.5494 H   0  0  0  0  0  0
    0.3250   45.7391   18.1049 H   0  0  0  0  0  0
   -3.3496   47.5486   19.4186 H   0  0  0  0  0  0
   -2.0737   49.0834   20.8602 H   0  0  0  0  0  0
   -1.8758   45.5014   16.8026 H   0  0  0  0  0  0
   -2.4441   44.6078   18.2164 H   0  0  0  0  0  0
   -3.3801   45.9727   17.5662 H   0  0  0  0  0  0
    3.0678   49.6984   17.9438 H   0  0  0  0  0  0
    3.1191   48.8549   19.4585 H   0  0  0  0  0  0
    7.7120   54.8633   24.8820 H   0  0  0  0  0  0
    0.6771   53.6420   24.8949 H   0  0  0  0  0  0
    3.9710   53.6066   27.5748 H   0  0  0  0  0  0
    0.4245   52.6155   27.1140 H   0  0  0  0  0  0
    1.0402   53.9929   28.0534 H   0  0  0  0  0  0
    1.8201   52.4073   28.1498 H   0  0  0  0  0  0
    1.3590   53.8263   22.1634 H   0  0  0  0  0  0
    1.1044   55.2627   23.0859 H   0  0  0  0  0  0
    2.5521   55.1758   22.1813 H   0  0  0  0  0  0
    7.4877   54.5869   27.2222 H   0  0  0  0  0  0
    5.9031   55.0880   27.7898 H   0  0  0  0  0  0
    6.3160   53.3613   27.6562 H   0  0  0  0  0  0
  1  2  1  0  0  0
  1 37  1  0  0  0
  1 38  1  0  0  0
  1 39  1  0  0  0
  2  3  1  0  0  0
  2 40  1  0  0  0
  2 41  1  0  0  0
  3  4  1  0  0  0
  3  5  1  0  0  0
  3 23  1  0  0  0
  5  6  2  0  0  0
  5  7  1  0  0  0
  7  8  1  0  0  0
  7 42  1  0  0  0
  8 12  1  0  0  0
  8  9  2  0  0  0
  9 10  1  0  0  0
  9 20  1  0  0  0
 10 11  2  0  0  0
 10 13  1  0  0  0
 11 12  1  0  0  0
 11 43  1  0  0  0
 13 18  2  0  0  0
 13 14  1  0  0  0
 14 15  2  0  0  0
 14 44  1  0  0  0
 15 16  1  0  0  0
 15 45  1  0  0  0
 16 17  2  0  0  0
 16 19  1  0  0  0
 17 18  1  0  0  0
 17 46  1  0  0  0
 18 47  1  0  0  0
 19 48  1  0  0  0
 19 49  1  0  0  0
 19 50  1  0  0  0
 20 21  2  0  0  0
 20 22  1  0  0  0
 22 51  1  0  0  0
 22 52  1  0  0  0
 23 29  1  0  0  0
 23 24  1  0  0  0
 24 25  2  0  0  0
 24 26  1  0  0  0
 26 27  2  0  0  0
 26 53  1  0  0  0
 27 28  1  0  0  0
 27 36  1  0  0  0
 28 33  2  0  0  0
 28 29  1  0  0  0
 29 30  2  0  0  0
 30 31  1  0  0  0
 30 35  1  0  0  0
 31 32  2  0  0  0
 31 54  1  0  0  0
 32 33  1  0  0  0
 32 34  1  0  0  0
 33 55  1  0  0  0
 34 56  1  0  0  0
 34 57  1  0  0  0
 34 58  1  0  0  0
 35 59  1  0  0  0
 35 60  1  0  0  0
 35 61  1  0  0  0
 36 62  1  0  0  0
 36 63  1  0  0  0
 36 64  1  0  0  0
M  END
> <i_i_glide_confnum>
12

> <i_i_glide_lignum>
4541

> <i_i_glide_posenum>
55

> <i_i_glide_rotatable_bonds>
7

> <i_m_Source_File_Index>
2671

> <b_m_subgroup_collapsed>
0

> <r_i_docking_score>
-6.04579

> <r_i_glide_ecoul>
-3.53648

> <r_i_glide_eff_state_penalty>
0

> <r_i_glide_einternal>
19.0223

> <r_i_glide_emodel>
-46.8477

> <r_i_glide_energy>
-42.3476

> <r_i_glide_erotb>
0.427531

> <r_i_glide_esite>
-0.145331

> <r_i_glide_evdw>
-38.8111

> <r_i_glide_gscore>
-6.04579

> <r_i_glide_hbond>
-0.251714

> <r_i_glide_ligand_efficiency>
-0.172737

> <r_i_glide_ligand_efficiency_ln>
-1.32718

> <r_i_glide_ligand_efficiency_sa>
-0.565034

> <r_i_glide_lipo>
-3.12709

> <r_i_glide_metal>
0

> <r_i_glide_rewards>
-0.47816

> <s_i_glide_gridfile>
wee1_glide-grid

> <s_m_Source_File>
wee1_decoys_glide_SP.sdf

> <s_m_Source_Path>
/Users/zhangxujun/Desktop

> <s_m_entry_id>
2946

> <s_m_entry_name>
wee1_decoys_glide_SP.2671

> <s_m_subgroup_title>
wee1_decoys_glide_SP

> <s_m_subgroupid>
wee1_decoys_glide_SP


$$$$
