ZINC13205930_5934
                    3D
 Schrodinger Suite 2024-2.
 50 52  0  0  1  0            999 V2000
    7.1044   55.5129   24.4965 C   0  0  0  0  0  0
    5.7757   54.9108   24.8724 C   0  0  0  0  0  0
    4.8850   54.4959   23.8860 C   0  0  0  0  0  0
    3.6529   53.9664   24.2518 C   0  0  0  0  0  0
    3.2972   53.8239   25.6030 C   0  0  0  0  0  0
    4.2095   54.2670   26.5731 C   0  0  0  0  0  0
    5.4390   54.7994   26.2145 C   0  0  0  0  0  0
    1.9556   53.1978   25.9212 C   0  0  0  0  0  0
    1.0827   52.9092   24.9796 N   0  0  0  0  0  0
   -0.0288   52.3375   25.5724 N   0  0  0  0  0  0
    0.1951   52.2884   26.8590 C   0  0  0  0  0  0
    1.4406   52.8076   27.1556 N   0  0  0  0  0  0
    2.0453   52.8638   28.4893 C   0  0  0  0  0  0
    1.9244   54.2514   29.1351 C   0  0  0  0  0  0
    1.1060   55.0772   28.6742 O   0  0  0  0  0  0
   -0.9462   51.6525   28.0475 S   0  0  0  0  0  0
   -2.5317   52.0942   27.2513 C   0  0  0  0  0  0
   -3.0472   51.1662   26.1458 C   0  0  0  0  0  0
   -3.8785   51.6140   25.3555 O   0  0  0  0  0  0
   -2.5525   49.9151   26.0634 N   0  0  0  0  0  0
   -2.8293   48.8961   25.0345 C   0  0  1  0  0  0
   -2.4114   47.9936   25.4857 H   0  0  0  0  0  0
   -4.3468   48.6452   24.8557 C   0  0  0  0  0  0
   -2.0996   49.0695   23.6802 C   0  0  0  0  0  0
   -1.5978   50.3174   23.2689 C   0  0  0  0  0  0
   -0.9404   50.4722   22.0503 C   0  0  0  0  0  0
   -0.7758   49.3798   21.2059 C   0  0  0  0  0  0
   -1.2682   48.1348   21.5874 C   0  0  0  0  0  0
   -1.9173   47.9721   22.8129 C   0  0  0  0  0  0
   -2.5102   46.2139   23.2537 Br  0  0  0  0  0  0
    7.2245   55.6289   23.4194 H   0  0  0  0  0  0
    7.2099   56.4922   24.9603 H   0  0  0  0  0  0
    7.9025   54.8785   24.8814 H   0  0  0  0  0  0
    5.1379   54.5839   22.8392 H   0  0  0  0  0  0
    2.9818   53.6511   23.4647 H   0  0  0  0  0  0
    4.0178   54.2277   27.6255 H   0  0  0  0  0  0
    6.1221   55.1293   26.9843 H   0  0  0  0  0  0
    1.5478   52.1463   29.1404 H   0  0  0  0  0  0
    3.0785   52.5280   28.4189 H   0  0  0  0  0  0
   -2.4772   53.1145   26.8733 H   0  0  0  0  0  0
   -3.2959   52.0748   28.0255 H   0  0  0  0  0  0
   -1.8976   49.6260   26.7854 H   0  0  0  0  0  0
   -4.5574   47.7236   24.3173 H   0  0  0  0  0  0
   -4.8462   48.5672   25.8220 H   0  0  0  0  0  0
   -4.8248   49.4537   24.3027 H   0  0  0  0  0  0
   -1.7054   51.1948   23.8828 H   0  0  0  0  0  0
   -0.5577   51.4410   21.7647 H   0  0  0  0  0  0
   -0.2648   49.4982   20.2619 H   0  0  0  0  0  0
   -1.1331   47.2872   20.9324 H   0  0  0  0  0  0
    2.7080   54.4719   30.0816 O   0  5  0  0  0  0
  1  2  1  0  0  0
  1 31  1  0  0  0
  1 32  1  0  0  0
  1 33  1  0  0  0
  2  7  2  0  0  0
  2  3  1  0  0  0
  3  4  2  0  0  0
  3 34  1  0  0  0
  4  5  1  0  0  0
  4 35  1  0  0  0
  5  6  2  0  0  0
  5  8  1  0  0  0
  6  7  1  0  0  0
  6 36  1  0  0  0
  7 37  1  0  0  0
  8 12  1  0  0  0
  8  9  2  0  0  0
  9 10  1  0  0  0
 10 11  2  0  0  0
 11 12  1  0  0  0
 11 16  1  0  0  0
 12 13  1  0  0  0
 13 14  1  0  0  0
 13 38  1  0  0  0
 13 39  1  0  0  0
 14 15  2  0  0  0
 14 50  1  0  0  0
 16 17  1  0  0  0
 17 18  1  0  0  0
 17 40  1  0  0  0
 17 41  1  0  0  0
 18 19  2  0  0  0
 18 20  1  0  0  0
 20 21  1  0  0  0
 20 42  1  0  0  0
 21 22  1  0  0  0
 21 23  1  0  0  0
 21 24  1  0  0  0
 23 43  1  0  0  0
 23 44  1  0  0  0
 23 45  1  0  0  0
 24 29  2  0  0  0
 24 25  1  0  0  0
 25 26  2  0  0  0
 25 46  1  0  0  0
 26 27  1  0  0  0
 26 47  1  0  0  0
 27 28  2  0  0  0
 27 48  1  0  0  0
 28 29  1  0  0  0
 28 49  1  0  0  0
 29 30  1  0  0  0
M  CHG  1  50  -1
M  END
> <i_i_glide_confnum>
65

> <i_i_glide_lignum>
5935

> <i_i_glide_posenum>
121

> <i_i_glide_rotatable_bonds>
9

> <i_m_Source_File_Index>
6024

> <b_m_subgroup_collapsed>
0

> <r_i_docking_score>
-4.90452

> <r_i_glide_ecoul>
-5.45584

> <r_i_glide_eff_state_penalty>
0

> <r_i_glide_einternal>
8.0379

> <r_i_glide_emodel>
-50.687

> <r_i_glide_energy>
-38.1167

> <r_i_glide_erotb>
0.59683

> <r_i_glide_esite>
-0.110017

> <r_i_glide_evdw>
-32.6609

> <r_i_glide_gscore>
-4.90452

> <r_i_glide_hbond>
-0.292882

> <r_i_glide_ligand_efficiency>
-0.163484

> <r_i_glide_ligand_efficiency_ln>
-1.11436

> <r_i_glide_ligand_efficiency_sa>
-0.507983

> <r_i_glide_lipo>
-1.69161

> <r_i_glide_metal>
0

> <r_i_glide_rewards>
-0.955416

> <s_i_glide_gridfile>
wee1_glide-grid

> <s_m_Source_File>
wee1_decoys_glide_SP.sdf

> <s_m_Source_Path>
/Users/zhangxujun/Desktop

> <s_m_entry_id>
6299

> <s_m_entry_name>
wee1_decoys_glide_SP.6024

> <s_m_subgroup_title>
wee1_decoys_glide_SP

> <s_m_subgroupid>
wee1_decoys_glide_SP


$$$$
