ZINC16805233_4199
                    3D
 Schrodinger Suite 2024-2.
 65 70  0  0  1  0            999 V2000
    6.4136   55.0349   25.7568 C   0  0  0  0  0  0
    5.2267   54.7875   25.0783 C   0  0  0  0  0  0
    4.0964   54.3873   25.7838 C   0  0  0  0  0  0
    4.1370   54.2129   27.1789 C   0  0  0  0  0  0
    5.3401   54.4969   27.8443 C   0  0  0  0  0  0
    6.4724   54.8946   27.1397 C   0  0  0  0  0  0
    2.9123   53.6827   27.9766 C   0  0  1  0  0  0
    3.3690   52.5848   28.9974 C   0  0  0  0  0  0
    2.1787   52.0171   29.7960 C   0  0  1  0  0  0
    2.5482   51.3026   30.5188 H   0  0  0  0  0  0
    1.4840   53.1406   30.5804 C   0  0  0  0  0  0
    1.0031   54.2404   29.6133 C   0  0  1  0  0  0
    0.5350   55.0440   30.1835 H   0  0  0  0  0  0
    2.2016   54.8111   28.7892 C   0  0  0  0  0  0
   -0.0410   53.5837   28.6846 C   0  0  0  0  0  0
    0.6346   52.4502   27.8396 C   0  0  2  0  0  0
    1.1817   51.3691   28.8191 C   0  0  0  0  0  0
    1.8276   53.0506   27.0399 C   0  0  0  0  0  0
   -0.3618   51.7447   26.8867 C   0  0  0  0  0  0
   -1.5674   52.0059   26.8692 O   0  0  0  0  0  0
    0.2519   50.7972   26.1264 O   0  0  0  0  0  0
   -0.4373   49.6469   25.6412 C   0  0  0  0  0  0
   -1.0198   49.8495   24.2272 C   0  0  0  0  0  0
   -0.5671   50.7516   23.5148 O   0  0  0  0  0  0
   -2.0137   49.0216   23.7982 N   0  0  0  0  0  0
   -2.9606   49.5645   22.8149 C   0  0  0  0  0  0
   -4.1159   48.5763   22.7421 C   0  0  0  0  0  0
   -3.9073   47.7289   23.9648 C   0  0  0  0  0  0
   -2.6360   47.9620   24.4943 C   0  0  0  0  0  0
   -2.1183   47.0777   25.4507 C   0  0  0  0  0  0
   -2.9337   46.1007   26.0124 C   0  0  0  0  0  0
   -4.2462   45.9476   25.5604 C   0  0  0  0  0  0
   -4.7204   46.7293   24.5022 C   0  0  0  0  0  0
   -5.3134   44.7663   26.3569 S   0  0  0  0  0  0
   -4.8956   43.4405   25.8937 O   0  0  0  0  0  0
   -6.6890   45.2442   26.1958 O   0  0  0  0  0  0
   -4.8956   44.8972   28.0383 N   0  0  0  0  0  0
    7.2868   55.3398   25.1998 H   0  0  0  0  0  0
    5.1829   54.8951   24.0047 H   0  0  0  0  0  0
    3.2057   54.1958   25.2081 H   0  0  0  0  0  0
    5.4228   54.4155   28.9164 H   0  0  0  0  0  0
    7.3872   55.0908   27.6808 H   0  0  0  0  0  0
    3.8850   51.7760   28.4822 H   0  0  0  0  0  0
    4.0892   52.9764   29.7146 H   0  0  0  0  0  0
    0.6541   52.7463   31.1715 H   0  0  0  0  0  0
    2.1922   53.5355   31.2817 H   0  0  0  0  0  0
    2.9126   55.2967   29.4596 H   0  0  0  0  0  0
    1.8500   55.5948   28.1158 H   0  0  0  0  0  0
   -0.4965   54.3590   28.0815 H   0  0  0  0  0  0
   -0.8530   53.1679   29.2864 H   0  0  0  0  0  0
    0.3604   50.8996   29.3628 H   0  0  0  0  0  0
    1.6892   50.5656   28.2801 H   0  0  0  0  0  0
    2.2985   52.2883   26.4189 H   0  0  0  0  0  0
    1.4386   53.8036   26.3531 H   0  0  0  0  0  0
   -1.2492   49.4085   26.3305 H   0  0  0  0  0  0
    0.2636   48.8134   25.6438 H   0  0  0  0  0  0
   -3.3821   50.4472   23.3014 H   0  0  0  0  0  0
   -2.5589   49.9428   21.8739 H   0  0  0  0  0  0
   -4.0128   47.9696   21.8415 H   0  0  0  0  0  0
   -5.0818   49.0793   22.6669 H   0  0  0  0  0  0
   -1.1112   47.1548   25.8231 H   0  0  0  0  0  0
   -2.5422   45.4890   26.8139 H   0  0  0  0  0  0
   -5.7132   46.5603   24.1096 H   0  0  0  0  0  0
   -3.9790   44.4383   28.1981 H   0  0  0  0  0  0
   -4.8670   45.8746   28.3413 H   0  0  0  0  0  0
  1  6  2  0  0  0
  1  2  1  0  0  0
  1 38  1  0  0  0
  2  3  2  0  0  0
  2 39  1  0  0  0
  3  4  1  0  0  0
  3 40  1  0  0  0
  4  5  2  0  0  0
  4  7  1  0  0  0
  5  6  1  0  0  0
  5 41  1  0  0  0
  6 42  1  0  0  0
  7 14  1  0  0  0
  7 18  1  0  0  0
  7  8  1  0  0  0
  8  9  1  0  0  0
  8 43  1  0  0  0
  8 44  1  0  0  0
  9 10  1  0  0  0
  9 17  1  0  0  0
  9 11  1  0  0  0
 11 12  1  0  0  0
 11 45  1  0  0  0
 11 46  1  0  0  0
 12 13  1  0  0  0
 12 14  1  0  0  0
 12 15  1  0  0  0
 14 47  1  0  0  0
 14 48  1  0  0  0
 15 16  1  0  0  0
 15 49  1  0  0  0
 15 50  1  0  0  0
 16 17  1  0  0  0
 16 18  1  0  0  0
 16 19  1  0  0  0
 17 51  1  0  0  0
 17 52  1  0  0  0
 18 53  1  0  0  0
 18 54  1  0  0  0
 19 20  2  0  0  0
 19 21  1  0  0  0
 21 22  1  0  0  0
 22 23  1  0  0  0
 22 55  1  0  0  0
 22 56  1  0  0  0
 23 24  2  0  0  0
 23 25  1  0  0  0
 25 29  1  0  0  0
 25 26  1  0  0  0
 26 27  1  0  0  0
 26 57  1  0  0  0
 26 58  1  0  0  0
 27 28  1  0  0  0
 27 59  1  0  0  0
 27 60  1  0  0  0
 28 33  2  0  0  0
 28 29  1  0  0  0
 29 30  2  0  0  0
 30 31  1  0  0  0
 30 61  1  0  0  0
 31 32  2  0  0  0
 31 62  1  0  0  0
 32 33  1  0  0  0
 32 34  1  0  0  0
 33 63  1  0  0  0
 34 35  2  0  0  0
 34 36  2  0  0  0
 34 37  1  0  0  0
 37 64  1  0  0  0
 37 65  1  0  0  0
M  END
> <i_i_glide_confnum>
1

> <i_i_glide_lignum>
4200

> <i_i_glide_posenum>
255

> <i_i_glide_rotatable_bonds>
7

> <i_m_Source_File_Index>
3939

> <b_m_subgroup_collapsed>
0

> <r_i_docking_score>
-5.19756

> <r_i_glide_ecoul>
-6.6669

> <r_i_glide_eff_state_penalty>
0

> <r_i_glide_einternal>
14.3452

> <r_i_glide_emodel>
-47.7394

> <r_i_glide_energy>
-43.062

> <r_i_glide_erotb>
0.499842

> <r_i_glide_esite>
-0.249964

> <r_i_glide_evdw>
-36.3951

> <r_i_glide_gscore>
-5.19756

> <r_i_glide_hbond>
-0.16

> <r_i_glide_ligand_efficiency>
-0.148502

> <r_i_glide_ligand_efficiency_ln>
-1.14098

> <r_i_glide_ligand_efficiency_sa>
-0.485759

> <r_i_glide_lipo>
-3.10882

> <r_i_glide_metal>
0

> <r_i_glide_rewards>
0.641168

> <s_i_glide_gridfile>
wee1_glide-grid

> <s_m_Source_File>
wee1_decoys_glide_SP.sdf

> <s_m_Source_Path>
/Users/zhangxujun/Desktop

> <s_m_entry_id>
4214

> <s_m_entry_name>
wee1_decoys_glide_SP.3939

> <s_m_subgroup_title>
wee1_decoys_glide_SP

> <s_m_subgroupid>
wee1_decoys_glide_SP


$$$$
