ZINC14482279_424
                    3D
 Schrodinger Suite 2024-2.
 58 61  0  0  1  0            999 V2000
   10.7678   51.1608   16.4224 C   0  0  0  0  0  0
    9.7557   52.2611   16.7086 C   0  0  0  0  0  0
    8.3968   51.9364   16.7301 C   0  0  0  0  0  0
    7.4393   52.9084   17.0098 C   0  0  0  0  0  0
    7.8342   54.2209   17.2716 C   0  0  0  0  0  0
    9.1915   54.5586   17.2496 C   0  0  0  0  0  0
   10.1583   53.5851   16.9649 C   0  0  0  0  0  0
   11.6295   53.9793   16.9415 C   0  0  0  0  0  0
    6.5833   55.4641   17.5596 S   0  0  0  0  0  0
    5.7819   55.5311   16.3304 O   0  0  0  0  0  0
    7.2197   56.6686   18.1066 O   0  0  0  0  0  0
    5.4971   54.7910   18.7869 N   0  0  0  0  0  0
    5.7186   54.7451   20.1701 C   0  0  0  0  0  0
    6.8362   55.3014   20.7994 C   0  0  0  0  0  0
    6.9536   55.2643   22.1890 C   0  0  0  0  0  0
    5.9698   54.6487   22.9782 C   0  0  0  0  0  0
    4.8713   54.0552   22.3302 C   0  0  0  0  0  0
    4.7461   54.1124   20.9439 C   0  0  0  0  0  0
    6.0898   54.6776   24.4919 C   0  0  0  0  0  0
    7.1037   55.1212   25.0334 O   0  0  0  0  0  0
    5.0109   54.2223   25.1674 N   0  0  0  0  0  0
    4.7833   54.1114   26.5506 C   0  0  0  0  0  0
    5.6039   54.6657   27.5401 C   0  0  0  0  0  0
    5.2786   54.4958   28.8817 C   0  0  0  0  0  0
    4.1594   53.7579   29.2549 C   0  0  0  0  0  0
    3.3212   53.1933   28.2852 C   0  0  0  0  0  0
    3.6422   53.3954   26.9314 C   0  0  0  0  0  0
    2.1324   52.3622   28.7141 C   0  0  0  0  0  0
    2.0498   51.9432   29.8695 O   0  0  0  0  0  0
    1.1840   52.1479   27.7854 N   0  0  0  0  0  0
   -0.0336   51.3646   27.9751 C   0  0  0  0  0  0
   -1.0049   51.7207   29.0831 C   0  0  0  0  0  0
   -1.3426   52.0311   27.6407 C   0  0  0  0  0  0
   11.4615   51.0652   17.2569 H   0  0  0  0  0  0
   10.2906   50.1913   16.2687 H   0  0  0  0  0  0
   11.3502   51.3996   15.5335 H   0  0  0  0  0  0
    8.0735   50.9243   16.5350 H   0  0  0  0  0  0
    6.3922   52.6361   17.0220 H   0  0  0  0  0  0
    9.4950   55.5792   17.4387 H   0  0  0  0  0  0
   12.0644   53.7606   15.9654 H   0  0  0  0  0  0
   11.7778   55.0403   17.1485 H   0  0  0  0  0  0
   12.1861   53.4067   17.6819 H   0  0  0  0  0  0
    4.6963   54.2934   18.4265 H   0  0  0  0  0  0
    7.6227   55.7823   20.2397 H   0  0  0  0  0  0
    7.8180   55.7264   22.6417 H   0  0  0  0  0  0
    4.0820   53.5605   22.8755 H   0  0  0  0  0  0
    3.8733   53.6802   20.4721 H   0  0  0  0  0  0
    4.2569   53.8765   24.5973 H   0  0  0  0  0  0
    6.4829   55.2446   27.3092 H   0  0  0  0  0  0
    5.9058   54.9282   29.6478 H   0  0  0  0  0  0
    3.9576   53.6236   30.3078 H   0  0  0  0  0  0
    3.0239   52.9589   26.1583 H   0  0  0  0  0  0
    1.4037   52.3837   26.8309 H   0  0  0  0  0  0
    0.0666   50.3185   27.6797 H   0  0  0  0  0  0
   -0.7628   52.5381   29.7633 H   0  0  0  0  0  0
   -1.5245   50.9046   29.5881 H   0  0  0  0  0  0
   -2.1042   51.4346   27.1374 H   0  0  0  0  0  0
   -1.3124   53.0618   27.2862 H   0  0  0  0  0  0
  1  2  1  0  0  0
  1 34  1  0  0  0
  1 35  1  0  0  0
  1 36  1  0  0  0
  2  7  2  0  0  0
  2  3  1  0  0  0
  3  4  2  0  0  0
  3 37  1  0  0  0
  4  5  1  0  0  0
  4 38  1  0  0  0
  5  6  2  0  0  0
  5  9  1  0  0  0
  6  7  1  0  0  0
  6 39  1  0  0  0
  7  8  1  0  0  0
  8 40  1  0  0  0
  8 41  1  0  0  0
  8 42  1  0  0  0
  9 10  2  0  0  0
  9 11  2  0  0  0
  9 12  1  0  0  0
 12 13  1  0  0  0
 12 43  1  0  0  0
 13 18  2  0  0  0
 13 14  1  0  0  0
 14 15  2  0  0  0
 14 44  1  0  0  0
 15 16  1  0  0  0
 15 45  1  0  0  0
 16 17  2  0  0  0
 16 19  1  0  0  0
 17 18  1  0  0  0
 17 46  1  0  0  0
 18 47  1  0  0  0
 19 20  2  0  0  0
 19 21  1  0  0  0
 21 22  1  0  0  0
 21 48  1  0  0  0
 22 27  2  0  0  0
 22 23  1  0  0  0
 23 24  2  0  0  0
 23 49  1  0  0  0
 24 25  1  0  0  0
 24 50  1  0  0  0
 25 26  2  0  0  0
 25 51  1  0  0  0
 26 27  1  0  0  0
 26 28  1  0  0  0
 27 52  1  0  0  0
 28 29  2  0  0  0
 28 30  1  0  0  0
 30 31  1  0  0  0
 30 53  1  0  0  0
 31 33  1  0  0  0
 31 32  1  0  0  0
 31 54  1  0  0  0
 32 33  1  0  0  0
 32 55  1  0  0  0
 32 56  1  0  0  0
 33 57  1  0  0  0
 33 58  1  0  0  0
M  END
> <i_i_glide_confnum>
48

> <i_i_glide_lignum>
425

> <i_i_glide_posenum>
322

> <i_i_glide_rotatable_bonds>
9

> <i_m_Source_File_Index>
1872

> <b_m_subgroup_collapsed>
0

> <r_i_docking_score>
-5.52754

> <r_i_glide_ecoul>
-6.56791

> <r_i_glide_eff_state_penalty>
0

> <r_i_glide_einternal>
1.87237

> <r_i_glide_emodel>
-67.8244

> <r_i_glide_energy>
-52.5364

> <r_i_glide_erotb>
0.844073

> <r_i_glide_esite>
0

> <r_i_glide_evdw>
-45.9685

> <r_i_glide_gscore>
-5.52754

> <r_i_glide_hbond>
-0.489766

> <r_i_glide_ligand_efficiency>
-0.167501

> <r_i_glide_ligand_efficiency_ln>
-1.2293

> <r_i_glide_ligand_efficiency_sa>
-0.537265

> <r_i_glide_lipo>
-2.35669

> <r_i_glide_metal>
0

> <r_i_glide_rewards>
-0.241542

> <s_i_glide_gridfile>
wee1_glide-grid

> <s_m_Source_File>
wee1_decoys_glide_SP.sdf

> <s_m_Source_Path>
/Users/zhangxujun/Desktop

> <s_m_entry_id>
2147

> <s_m_entry_name>
wee1_decoys_glide_SP.1872

> <s_m_subgroup_title>
wee1_decoys_glide_SP

> <s_m_subgroupid>
wee1_decoys_glide_SP


$$$$
