ZINC59566518_855
                    3D
 Schrodinger Suite 2024-2.
 58 61  0  0  1  0            999 V2000
    4.1152   54.1866   29.6381 C   0  0  0  0  0  0
    3.9434   54.1466   28.1378 C   0  0  0  0  0  0
    4.8483   54.4928   27.1573 C   0  0  0  0  0  0
    4.2889   54.2740   25.8987 C   0  0  0  0  0  0
    2.9949   53.7991   26.1338 C   0  0  0  0  0  0
    2.7906   53.7052   27.5069 N   0  0  0  0  0  0
    1.6324   53.2118   28.1626 C   0  0  0  0  0  0
    1.0506   53.9333   29.2153 C   0  0  0  0  0  0
    0.0044   53.3754   29.9444 C   0  0  0  0  0  0
   -0.4968   52.1276   29.5836 C   0  0  0  0  0  0
    0.0159   51.4474   28.4848 C   0  0  0  0  0  0
    1.0960   51.9746   27.7883 C   0  0  0  0  0  0
    1.9155   53.4211   25.1268 C   0  0  0  0  0  0
    4.9063   54.4967   24.6031 C   0  0  0  0  0  0
    6.1353   54.8298   24.4710 N   0  0  0  0  0  0
    6.7046   55.0347   23.2259 N   0  0  0  0  0  0
    6.2107   54.8987   21.9590 C   0  0  0  0  0  0
    5.0829   54.4902   21.6531 O   0  0  0  0  0  0
    7.2010   55.2968   20.9274 C   0  0  0  0  0  0
    8.2792   55.8199   21.2130 O   0  0  0  0  0  0
    6.8038   54.9460   19.6822 N   0  0  0  0  0  0
    7.5615   54.8179   18.5083 C   0  0  0  0  0  0
    8.9352   55.0894   18.4163 C   0  0  0  0  0  0
    9.6203   54.8055   17.2402 C   0  0  0  0  0  0
    8.9398   54.2543   16.1590 C   0  0  0  0  0  0
    7.5667   54.0226   16.2278 C   0  0  0  0  0  0
    6.8791   54.3017   17.4037 C   0  0  0  0  0  0
    9.6390   53.9122   15.0310 O   0  0  0  0  0  0
   10.0217   52.6027   14.8137 C   0  0  0  0  0  0
   10.7841   52.3647   13.6723 C   0  0  0  0  0  0
   11.2112   51.0772   13.3679 C   0  0  0  0  0  0
   10.8678   50.0169   14.2040 C   0  0  0  0  0  0
   10.1101   50.2363   15.3512 C   0  0  0  0  0  0
    9.6910   51.5287   15.6602 C   0  0  0  0  0  0
    5.1195   54.4992   29.9088 H   0  0  0  0  0  0
    3.4542   54.9164   30.0939 H   0  0  0  0  0  0
    3.9317   53.2187   30.1051 H   0  0  0  0  0  0
    5.8465   54.8647   27.3416 H   0  0  0  0  0  0
    1.4104   54.9137   29.4893 H   0  0  0  0  0  0
   -0.4148   53.9033   30.7884 H   0  0  0  0  0  0
   -1.2986   51.6824   30.1537 H   0  0  0  0  0  0
   -0.4067   50.4974   28.1931 H   0  0  0  0  0  0
    1.5130   51.4015   26.9747 H   0  0  0  0  0  0
    2.0357   53.9355   24.1744 H   0  0  0  0  0  0
    1.9264   52.3547   24.9017 H   0  0  0  0  0  0
    0.9148   53.6761   25.4675 H   0  0  0  0  0  0
    4.2031   54.3464   23.7927 H   0  0  0  0  0  0
    7.6755   55.3218   23.2864 H   0  0  0  0  0  0
    5.8639   54.5751   19.6260 H   0  0  0  0  0  0
    9.5046   55.4807   19.2435 H   0  0  0  0  0  0
   10.6835   54.9829   17.1787 H   0  0  0  0  0  0
    7.0462   53.5966   15.3830 H   0  0  0  0  0  0
    5.8227   54.0765   17.4551 H   0  0  0  0  0  0
   11.0471   53.1832   13.0203 H   0  0  0  0  0  0
   11.8039   50.8970   12.4817 H   0  0  0  0  0  0
   11.1978   49.0193   13.9513 H   0  0  0  0  0  0
    9.8502   49.4112   15.9978 H   0  0  0  0  0  0
    9.1070   51.6817   16.5550 H   0  0  0  0  0  0
  1  2  1  0  0  0
  1 35  1  0  0  0
  1 36  1  0  0  0
  1 37  1  0  0  0
  2  6  1  0  0  0
  2  3  2  0  0  0
  3  4  1  0  0  0
  3 38  1  0  0  0
  4  5  2  0  0  0
  4 14  1  0  0  0
  5  6  1  0  0  0
  5 13  1  0  0  0
  6  7  1  0  0  0
  7 12  2  0  0  0
  7  8  1  0  0  0
  8  9  2  0  0  0
  8 39  1  0  0  0
  9 10  1  0  0  0
  9 40  1  0  0  0
 10 11  2  0  0  0
 10 41  1  0  0  0
 11 12  1  0  0  0
 11 42  1  0  0  0
 12 43  1  0  0  0
 13 44  1  0  0  0
 13 45  1  0  0  0
 13 46  1  0  0  0
 14 15  2  0  0  0
 14 47  1  0  0  0
 15 16  1  0  0  0
 16 17  1  0  0  0
 16 48  1  0  0  0
 17 18  2  0  0  0
 17 19  1  0  0  0
 19 20  2  0  0  0
 19 21  1  0  0  0
 21 22  1  0  0  0
 21 49  1  0  0  0
 22 27  2  0  0  0
 22 23  1  0  0  0
 23 24  2  0  0  0
 23 50  1  0  0  0
 24 25  1  0  0  0
 24 51  1  0  0  0
 25 26  2  0  0  0
 25 28  1  0  0  0
 26 27  1  0  0  0
 26 52  1  0  0  0
 27 53  1  0  0  0
 28 29  1  0  0  0
 29 34  2  0  0  0
 29 30  1  0  0  0
 30 31  2  0  0  0
 30 54  1  0  0  0
 31 32  1  0  0  0
 31 55  1  0  0  0
 32 33  2  0  0  0
 32 56  1  0  0  0
 33 34  1  0  0  0
 33 57  1  0  0  0
 34 58  1  0  0  0
M  END
> <i_i_glide_confnum>
28

> <i_i_glide_lignum>
856

> <i_i_glide_posenum>
369

> <i_i_glide_rotatable_bonds>
9

> <i_m_Source_File_Index>
3435

> <b_m_subgroup_collapsed>
0

> <r_i_docking_score>
-5.97225

> <r_i_glide_ecoul>
-3.09037

> <r_i_glide_eff_state_penalty>
0

> <r_i_glide_einternal>
6.82582

> <r_i_glide_emodel>
-65.3522

> <r_i_glide_energy>
-49.8247

> <r_i_glide_erotb>
0.881962

> <r_i_glide_esite>
0

> <r_i_glide_evdw>
-46.7344

> <r_i_glide_gscore>
-5.97225

> <r_i_glide_hbond>
-0.318523

> <r_i_glide_ligand_efficiency>
-0.175655

> <r_i_glide_ligand_efficiency_ln>
-1.31944

> <r_i_glide_ligand_efficiency_sa>
-0.569052

> <r_i_glide_lipo>
-2.23757

> <r_i_glide_metal>
0

> <r_i_glide_rewards>
-1.49785

> <s_i_glide_gridfile>
wee1_glide-grid

> <s_m_Source_File>
wee1_decoys_glide_SP.sdf

> <s_m_Source_Path>
/Users/zhangxujun/Desktop

> <s_m_entry_id>
3710

> <s_m_entry_name>
wee1_decoys_glide_SP.3435

> <s_m_subgroup_title>
wee1_decoys_glide_SP

> <s_m_subgroupid>
wee1_decoys_glide_SP


$$$$
