ZINC39521343_1740
                    3D
 Schrodinger Suite 2024-2.
 43 45  0  0  1  0            999 V2000
    4.4635   53.1687   28.8435 C   0  0  0  0  0  0
    4.3997   54.5463   29.0253 C   0  0  0  0  0  0
    3.1765   55.2044   28.8979 C   0  0  0  0  0  0
    2.0303   54.4926   28.5612 C   0  0  0  0  0  0
    2.0780   53.1039   28.3717 C   0  0  0  0  0  0
    3.3028   52.4598   28.5405 C   0  0  0  0  0  0
    0.9207   52.3543   28.1781 N   0  0  0  0  0  0
    0.3465   51.6891   29.3536 C   0  0  2  0  0  0
    0.5680   50.6288   29.2817 H   0  0  0  0  0  0
   -1.1647   51.8788   29.3959 C   0  0  0  0  0  0
   -1.8962   51.6001   28.0703 C   0  0  0  0  0  0
   -1.1408   52.2196   26.8813 C   0  0  0  0  0  0
    0.3764   51.8580   26.8727 C   0  0  1  0  0  0
    1.1042   52.5456   25.6719 C   0  0  0  0  0  0
    0.6162   52.1012   24.2808 C   0  0  0  0  0  0
    0.7896   50.5846   24.0817 C   0  0  0  0  0  0
    0.2112   49.7346   25.2339 C   0  0  1  0  0  0
    0.6371   48.7306   25.1732 H   0  0  0  0  0  0
    0.4875   50.3065   26.6500 C   0  0  0  0  0  0
   -1.1838   49.5859   25.0648 O   0  0  0  0  0  0
    0.8475   52.0967   30.6211 O   0  0  0  0  0  0
    0.8603   55.1862   28.4817 O   0  0  0  0  0  0
    5.4021   52.6471   28.9595 H   0  0  0  0  0  0
    5.2924   55.1002   29.2817 H   0  0  0  0  0  0
    3.1044   56.2673   29.0743 H   0  0  0  0  0  0
    3.3338   51.3853   28.4817 H   0  0  0  0  0  0
   -1.6059   51.2752   30.1919 H   0  0  0  0  0  0
   -1.2956   52.9188   29.6817 H   0  0  0  0  0  0
   -2.0169   50.5259   27.9324 H   0  0  0  0  0  0
   -2.9162   51.9832   28.1055 H   0  0  0  0  0  0
   -1.6402   51.9523   25.9522 H   0  0  0  0  0  0
   -1.2521   53.2967   26.9616 H   0  0  0  0  0  0
    1.0632   53.6316   25.7581 H   0  0  0  0  0  0
    2.1687   52.3158   25.7236 H   0  0  0  0  0  0
    1.1738   52.6351   23.5099 H   0  0  0  0  0  0
   -0.4267   52.3803   24.1321 H   0  0  0  0  0  0
    1.8686   50.4230   24.0621 H   0  0  0  0  0  0
    0.3856   50.2771   23.1161 H   0  0  0  0  0  0
    1.5044   50.0575   26.8817 H   0  0  0  0  0  0
   -0.0956   49.7411   27.3637 H   0  0  0  0  0  0
   -1.5301   49.1694   25.8622 H   0  0  0  0  0  0
    0.1193   52.0669   31.2509 H   0  0  0  0  0  0
    0.9683   56.1139   28.6993 H   0  0  0  0  0  0
  1  6  2  0  0  0
  1  2  1  0  0  0
  1 23  1  0  0  0
  2  3  2  0  0  0
  2 24  1  0  0  0
  3  4  1  0  0  0
  3 25  1  0  0  0
  4  5  2  0  0  0
  4 22  1  0  0  0
  5  6  1  0  0  0
  5  7  1  0  0  0
  6 26  1  0  0  0
  7 13  1  0  0  0
  7  8  1  0  0  0
  8  9  1  0  0  0
  8 10  1  0  0  0
  8 21  1  0  0  0
 10 11  1  0  0  0
 10 27  1  0  0  0
 10 28  1  0  0  0
 11 12  1  0  0  0
 11 29  1  0  0  0
 11 30  1  0  0  0
 12 13  1  0  0  0
 12 31  1  0  0  0
 12 32  1  0  0  0
 13 19  1  0  0  0
 13 14  1  0  0  0
 14 15  1  0  0  0
 14 33  1  0  0  0
 14 34  1  0  0  0
 15 16  1  0  0  0
 15 35  1  0  0  0
 15 36  1  0  0  0
 16 17  1  0  0  0
 16 37  1  0  0  0
 16 38  1  0  0  0
 17 18  1  0  0  0
 17 19  1  0  0  0
 17 20  1  0  0  0
 19 39  1  0  0  0
 19 40  1  0  0  0
 20 41  1  0  0  0
 21 42  1  0  0  0
 22 43  1  0  0  0
M  END
> <i_i_glide_confnum>
5

> <i_i_glide_lignum>
1741

> <i_i_glide_posenum>
296

> <i_i_glide_rotatable_bonds>
4

> <i_m_Source_File_Index>
3996

> <b_m_subgroup_collapsed>
0

> <r_i_docking_score>
-4.78845

> <r_i_glide_ecoul>
-4.50572

> <r_i_glide_eff_state_penalty>
0

> <r_i_glide_einternal>
2.37984

> <r_i_glide_emodel>
-26.2102

> <r_i_glide_energy>
-22.2885

> <r_i_glide_erotb>
0.234083

> <r_i_glide_esite>
0

> <r_i_glide_evdw>
-17.7828

> <r_i_glide_gscore>
-4.78845

> <r_i_glide_hbond>
0

> <r_i_glide_ligand_efficiency>
-0.239422

> <r_i_glide_ligand_efficiency_ln>
-1.19839

> <r_i_glide_ligand_efficiency_sa>
-0.649893

> <r_i_glide_lipo>
-1.73404

> <r_i_glide_metal>
0

> <r_i_glide_rewards>
-1.7235

> <s_i_glide_gridfile>
wee1_glide-grid

> <s_m_Source_File>
wee1_decoys_glide_SP.sdf

> <s_m_Source_Path>
/Users/zhangxujun/Desktop

> <s_m_entry_id>
4271

> <s_m_entry_name>
wee1_decoys_glide_SP.3996

> <s_m_subgroup_title>
wee1_decoys_glide_SP

> <s_m_subgroupid>
wee1_decoys_glide_SP


$$$$
