ZINC00493301_4767
                    3D
 Schrodinger Suite 2024-2.
 33 34  0  0  1  0            999 V2000
    0.3435   49.6377   19.2878 C   0  0  0  0  0  0
    0.3882   50.6690   20.4102 C   0  0  0  0  0  0
   -0.7851   51.0808   21.0638 C   0  0  0  0  0  0
   -0.4362   52.0958   22.4160 S   0  0  0  0  0  0
    1.2710   52.0244   22.1134 C   0  0  0  0  0  0
    1.5707   51.2515   20.9786 C   0  0  0  0  0  0
    2.9497   51.0415   20.5286 C   0  0  0  0  0  0
    3.9298   51.2967   21.2300 O   0  0  0  0  0  0
    3.1044   50.6129   19.2817 N   0  0  0  0  0  0
    2.2086   52.6636   22.9230 N   0  0  0  0  0  0
    2.0208   53.4318   24.0134 C   0  0  0  0  0  0
    0.9219   53.7181   24.4817 O   0  0  0  0  0  0
    3.2866   53.8918   24.6985 C   0  0  0  0  0  0
    3.2852   54.0760   26.0880 C   0  0  0  0  0  0
    4.4602   54.4028   26.7567 C   0  0  0  0  0  0
    5.6411   54.5610   26.0387 C   0  0  0  0  0  0
    5.6520   54.4327   24.6523 C   0  0  0  0  0  0
    4.4781   54.0967   23.9819 C   0  0  0  0  0  0
    7.1044   54.8967   26.8817 Cl  0  0  0  0  0  0
   -2.2311   50.7375   20.7725 C   0  0  0  0  0  0
   -0.5648   49.0363   19.2960 H   0  0  0  0  0  0
    0.4342   50.0969   18.3032 H   0  0  0  0  0  0
    1.1460   48.9051   19.3770 H   0  0  0  0  0  0
    2.3094   50.4026   18.7015 H   0  0  0  0  0  0
    4.0462   50.4967   18.8728 H   0  0  0  0  0  0
    3.1646   52.4968   22.6385 H   0  0  0  0  0  0
    2.3811   53.9295   26.6632 H   0  0  0  0  0  0
    4.4591   54.5122   27.8313 H   0  0  0  0  0  0
    6.5714   54.5657   24.1002 H   0  0  0  0  0  0
    4.5147   53.9816   22.9074 H   0  0  0  0  0  0
   -2.3759   50.3042   19.7835 H   0  0  0  0  0  0
   -2.6234   50.0237   21.4972 H   0  0  0  0  0  0
   -2.8692   51.6200   20.8172 H   0  0  0  0  0  0
  1  2  1  0  0  0
  1 21  1  0  0  0
  1 22  1  0  0  0
  1 23  1  0  0  0
  2  6  1  0  0  0
  2  3  2  0  0  0
  3  4  1  0  0  0
  3 20  1  0  0  0
  4  5  1  0  0  0
  5  6  2  0  0  0
  5 10  1  0  0  0
  6  7  1  0  0  0
  7  8  2  0  0  0
  7  9  1  0  0  0
  9 24  1  0  0  0
  9 25  1  0  0  0
 10 11  1  0  0  0
 10 26  1  0  0  0
 11 12  2  0  0  0
 11 13  1  0  0  0
 13 18  2  0  0  0
 13 14  1  0  0  0
 14 15  2  0  0  0
 14 27  1  0  0  0
 15 16  1  0  0  0
 15 28  1  0  0  0
 16 17  2  0  0  0
 16 19  1  0  0  0
 17 18  1  0  0  0
 17 29  1  0  0  0
 18 30  1  0  0  0
 20 31  1  0  0  0
 20 32  1  0  0  0
 20 33  1  0  0  0
M  END
> <i_i_glide_confnum>
3

> <i_i_glide_lignum>
4768

> <i_i_glide_posenum>
391

> <i_i_glide_rotatable_bonds>
4

> <i_m_Source_File_Index>
4407

> <b_m_subgroup_collapsed>
0

> <r_i_docking_score>
-5.31846

> <r_i_glide_ecoul>
-6.58177

> <r_i_glide_eff_state_penalty>
0

> <r_i_glide_einternal>
5.39077

> <r_i_glide_emodel>
-43.6669

> <r_i_glide_energy>
-32.8285

> <r_i_glide_erotb>
0.582289

> <r_i_glide_esite>
-0.121577

> <r_i_glide_evdw>
-26.2467

> <r_i_glide_gscore>
-5.31846

> <r_i_glide_hbond>
-0.152936

> <r_i_glide_ligand_efficiency>
-0.265923

> <r_i_glide_ligand_efficiency_ln>
-1.33103

> <r_i_glide_ligand_efficiency_sa>
-0.721826

> <r_i_glide_lipo>
-1.61159

> <r_i_glide_metal>
0

> <r_i_glide_rewards>
-1.71504

> <s_i_glide_gridfile>
wee1_glide-grid

> <s_m_Source_File>
wee1_decoys_glide_SP.sdf

> <s_m_Source_Path>
/Users/zhangxujun/Desktop

> <s_m_entry_id>
4682

> <s_m_entry_name>
wee1_decoys_glide_SP.4407

> <s_m_subgroup_title>
wee1_decoys_glide_SP

> <s_m_subgroupid>
wee1_decoys_glide_SP


$$$$
