ZINC00719919_5441
                    3D
 Schrodinger Suite 2024-2.
 80 86  0  0  1  0            999 V2000
    2.0118   56.1011   29.3078 C   0  0  0  0  0  0
    2.7847   54.9729   28.9184 O   0  0  0  0  0  0
    2.0689   53.9345   28.3683 C   0  0  0  0  0  0
    2.2050   53.6959   27.0017 C   0  0  0  0  0  0
    1.5158   52.6456   26.3997 C   0  0  0  0  0  0
    0.7092   51.7855   27.1557 C   0  0  0  0  0  0
    0.5856   52.0278   28.5308 C   0  0  0  0  0  0
    1.2501   53.1053   29.1486 C   0  0  0  0  0  0
    1.1656   53.4124   30.4923 O   0  0  0  0  0  0
    0.3028   52.6684   31.3374 C   0  0  0  0  0  0
   -0.0662   50.6073   26.5236 C   0  0  1  0  0  0
   -0.0980   49.8237   27.2817 H   0  0  0  0  0  0
   -1.5104   51.0276   26.1685 C   0  0  0  0  0  0
   -1.5650   52.0413   24.9937 C   0  0  1  0  0  0
   -1.1357   52.9761   25.3442 H   0  0  0  0  0  0
   -0.6567   51.5366   23.9410 N   0  0  0  0  0  0
    0.3656   50.6226   24.1268 C   0  0  0  0  0  0
    0.9880   50.5095   22.8981 C   0  0  0  0  0  0
    0.3788   51.4597   22.0512 C   0  0  0  0  0  0
   -0.6120   52.0508   22.6991 N   0  0  0  0  0  0
    0.6236   51.6585   20.6260 C   0  0  0  0  0  0
   -0.3129   52.0349   19.9105 O   0  0  0  0  0  0
    1.8569   51.3694   20.1088 N   0  0  0  0  0  0
    3.1323   51.5240   20.8384 C   0  0  0  0  0  0
    3.8379   52.8250   20.3600 C   0  0  0  0  0  0
    3.9883   52.8967   18.8114 N   0  3  0  0  0  0
    2.5950   52.6575   18.1786 C   0  0  0  0  0  0
    2.0338   51.3038   18.6496 C   0  0  0  0  0  0
    4.6194   54.2736   18.4005 C   0  0  2  0  0  0
    4.4560   54.5724   16.8720 C   0  0  1  0  0  0
    4.9990   55.9997   16.5905 C   0  0  0  0  0  0
    6.5035   56.0752   16.9554 C   0  0  2  0  0  0
    7.2830   55.0499   16.0906 C   0  0  0  0  0  0
    6.7580   53.6169   16.3753 C   0  0  2  0  0  0
    5.2502   53.5409   16.0205 C   0  0  0  0  0  0
    6.9602   53.2955   17.8791 C   0  0  0  0  0  0
    6.1493   54.3039   18.7486 C   0  0  1  0  0  0
    6.6904   55.7318   18.4580 C   0  0  0  0  0  0
    0.5252   49.9723   25.3334 N   0  0  0  0  0  0
   -3.0009   52.3714   24.5256 C   0  0  0  0  0  0
   -3.5797   51.3256   23.9281 F   0  0  0  0  0  0
   -3.7720   52.7079   25.5588 F   0  0  0  0  0  0
   -3.0193   53.3975   23.6772 F   0  0  0  0  0  0
    2.6820   56.8959   29.6319 H   0  0  0  0  0  0
    1.4131   56.4860   28.4816 H   0  0  0  0  0  0
    1.3455   55.8860   30.1437 H   0  0  0  0  0  0
    2.8434   54.3283   26.4020 H   0  0  0  0  0  0
    1.6408   52.5054   25.3383 H   0  0  0  0  0  0
   -0.0369   51.3649   29.1157 H   0  0  0  0  0  0
    0.2007   53.1973   32.2860 H   0  0  0  0  0  0
   -0.6981   52.5507   30.9178 H   0  0  0  0  0  0
    0.7289   51.6969   31.5587 H   0  0  0  0  0  0
   -2.0073   51.4412   27.0474 H   0  0  0  0  0  0
   -2.1033   50.1412   25.9297 H   0  0  0  0  0  0
    1.7803   49.8204   22.6533 H   0  0  0  0  0  0
    3.7745   50.6656   20.6254 H   0  0  0  0  0  0
    3.0036   51.5663   21.9200 H   0  0  0  0  0  0
    4.8463   52.8279   20.7673 H   0  0  0  0  0  0
    3.3088   53.7142   20.7030 H   0  0  0  0  0  0
    1.9475   53.5059   18.4164 H   0  0  0  0  0  0
    2.7332   52.5770   17.1021 H   0  0  0  0  0  0
    1.1255   51.0030   18.1245 H   0  0  0  0  0  0
    2.7643   50.5201   18.4174 H   0  0  0  0  0  0
    4.0800   55.0321   18.9750 H   0  0  0  0  0  0
    3.4061   54.5794   16.5790 H   0  0  0  0  0  0
    4.4335   56.7409   17.1592 H   0  0  0  0  0  0
    4.8535   56.2585   15.5397 H   0  0  0  0  0  0
    6.8764   57.0809   16.7591 H   0  0  0  0  0  0
    8.3519   55.1095   16.3047 H   0  0  0  0  0  0
    7.1745   55.2879   15.0307 H   0  0  0  0  0  0
    7.3108   52.8940   15.7701 H   0  0  0  0  0  0
    5.1047   53.7426   14.9583 H   0  0  0  0  0  0
    4.8824   52.5274   16.1821 H   0  0  0  0  0  0
    6.6885   52.2648   18.0954 H   0  0  0  0  0  0
    8.0241   53.3608   18.1144 H   0  0  0  0  0  0
    6.3184   54.0931   19.8038 H   0  0  0  0  0  0
    7.7454   55.8025   18.7273 H   0  0  0  0  0  0
    6.1736   56.4657   19.0788 H   0  0  0  0  0  0
    1.3770   49.4718   25.5395 H   0  0  0  0  0  0
    4.5948   52.1448   18.4912 H   0  0  0  0  0  0
  1  2  1  0  0  0
  1 44  1  0  0  0
  1 45  1  0  0  0
  1 46  1  0  0  0
  2  3  1  0  0  0
  3  8  2  0  0  0
  3  4  1  0  0  0
  4  5  2  0  0  0
  4 47  1  0  0  0
  5  6  1  0  0  0
  5 48  1  0  0  0
  6  7  2  0  0  0
  6 11  1  0  0  0
  7  8  1  0  0  0
  7 49  1  0  0  0
  8  9  1  0  0  0
  9 10  1  0  0  0
 10 50  1  0  0  0
 10 51  1  0  0  0
 10 52  1  0  0  0
 11 12  1  0  0  0
 11 39  1  0  0  0
 11 13  1  0  0  0
 13 14  1  0  0  0
 13 53  1  0  0  0
 13 54  1  0  0  0
 14 15  1  0  0  0
 14 16  1  0  0  0
 14 40  1  0  0  0
 16 20  1  0  0  0
 16 17  1  0  0  0
 17 18  2  0  0  0
 17 39  1  0  0  0
 18 19  1  0  0  0
 18 55  1  0  0  0
 19 20  2  0  0  0
 19 21  1  0  0  0
 21 22  2  0  0  0
 21 23  1  0  0  0
 23 28  1  0  0  0
 23 24  1  0  0  0
 24 25  1  0  0  0
 24 56  1  0  0  0
 24 57  1  0  0  0
 25 26  1  0  0  0
 25 58  1  0  0  0
 25 59  1  0  0  0
 26 27  1  0  0  0
 26 29  1  0  0  0
 26 80  1  0  0  0
 27 28  1  0  0  0
 27 60  1  0  0  0
 27 61  1  0  0  0
 28 62  1  0  0  0
 28 63  1  0  0  0
 29 37  1  0  0  0
 29 30  1  0  0  0
 29 64  1  0  0  0
 30 35  1  0  0  0
 30 31  1  0  0  0
 30 65  1  0  0  0
 31 32  1  0  0  0
 31 66  1  0  0  0
 31 67  1  0  0  0
 32 38  1  0  0  0
 32 33  1  0  0  0
 32 68  1  0  0  0
 33 34  1  0  0  0
 33 69  1  0  0  0
 33 70  1  0  0  0
 34 35  1  0  0  0
 34 36  1  0  0  0
 34 71  1  0  0  0
 35 72  1  0  0  0
 35 73  1  0  0  0
 36 37  1  0  0  0
 36 74  1  0  0  0
 36 75  1  0  0  0
 37 38  1  0  0  0
 37 76  1  0  0  0
 38 77  1  0  0  0
 38 78  1  0  0  0
 39 79  1  0  0  0
 40 41  1  0  0  0
 40 42  1  0  0  0
 40 43  1  0  0  0
M  CHG  1  26   1
M  END
> <i_i_glide_confnum>
21

> <i_i_glide_lignum>
5442

> <i_i_glide_posenum>
221

> <i_i_glide_rotatable_bonds>
7

> <i_m_Source_File_Index>
1234

> <b_m_subgroup_collapsed>
0

> <r_i_docking_score>
-4.74498

> <r_i_glide_ecoul>
-6.69166

> <r_i_glide_eff_state_penalty>
0

> <r_i_glide_einternal>
10.7855

> <r_i_glide_emodel>
-56.5663

> <r_i_glide_energy>
-47.1262

> <r_i_glide_erotb>
0.158417

> <r_i_glide_esite>
-0.114863

> <r_i_glide_evdw>
-40.4345

> <r_i_glide_gscore>
-4.74498

> <r_i_glide_hbond>
-0.2

> <r_i_glide_ligand_efficiency>
-0.115731

> <r_i_glide_ligand_efficiency_ln>
-1.00666

> <r_i_glide_ligand_efficiency_sa>
-0.399066

> <r_i_glide_lipo>
-1.46734

> <r_i_glide_metal>
0

> <r_i_glide_rewards>
-0.0957225

> <s_i_glide_gridfile>
wee1_glide-grid

> <s_m_Source_File>
wee1_decoys_glide_SP.sdf

> <s_m_Source_Path>
/Users/zhangxujun/Desktop

> <s_m_entry_id>
1509

> <s_m_entry_name>
wee1_decoys_glide_SP.1234

> <s_m_subgroup_title>
wee1_decoys_glide_SP

> <s_m_subgroupid>
wee1_decoys_glide_SP


$$$$
