ZINC12621446_1570
                    3D
 Schrodinger Suite 2024-2.
 35 37  0  0  1  0            999 V2000
    5.8388   54.8838   26.0933 C   0  0  0  0  0  0
    6.5186   55.0622   24.8935 C   0  0  0  0  0  0
    5.9168   54.6846   23.6723 C   0  0  0  0  0  0
    6.5582   54.8965   22.4260 C   0  0  0  0  0  0
    5.9043   54.5384   21.2486 C   0  0  0  0  0  0
    4.6591   53.9306   21.3324 C   0  0  0  0  0  0
    4.0252   53.6969   22.5044 N   0  0  0  0  0  0
    4.6098   54.0977   23.6740 C   0  0  0  0  0  0
    3.9207   53.9544   24.9229 C   0  0  0  0  0  0
    4.5587   54.3419   26.1054 C   0  0  0  0  0  0
    2.5290   53.3179   25.0035 C   0  0  0  0  0  0
    1.2889   54.0943   23.9174 S   0  0  0  0  0  0
   -0.1796   53.0639   24.2698 C   0  0  0  0  0  0
    0.0116   51.5748   24.0187 C   0  0  0  0  0  0
    0.5541   51.2026   22.8320 N   0  0  0  0  0  0
    0.6831   49.8657   22.6835 C   0  0  0  0  0  0
    0.3076   48.9217   23.5764 N   0  0  0  0  0  0
   -0.2138   49.4206   24.7202 C   0  0  0  0  0  0
   -0.3934   50.7324   25.0051 N   0  0  0  0  0  0
   -0.5841   48.4992   25.6817 N   0  0  0  0  0  0
    1.2676   49.4293   21.5105 N   0  0  0  0  0  0
    6.3036   55.1732   27.0258 H   0  0  0  0  0  0
    7.5043   55.5011   24.8800 H   0  0  0  0  0  0
    7.5388   55.3508   22.3976 H   0  0  0  0  0  0
    6.3679   54.7090   20.2874 H   0  0  0  0  0  0
    4.1335   53.6252   20.4380 H   0  0  0  0  0  0
    4.0554   54.2200   27.0537 H   0  0  0  0  0  0
    2.6172   52.2588   24.7689 H   0  0  0  0  0  0
    2.1445   53.3729   26.0235 H   0  0  0  0  0  0
   -0.4563   53.2156   25.3094 H   0  0  0  0  0  0
   -1.0188   53.4175   23.6753 H   0  0  0  0  0  0
   -0.8956   48.8121   26.6017 H   0  0  0  0  0  0
   -0.2318   47.5599   25.5887 H   0  0  0  0  0  0
    1.4722   48.4495   21.4150 H   0  0  0  0  0  0
    1.6243   50.1199   20.8698 H   0  0  0  0  0  0
  1 10  2  0  0  0
  1  2  1  0  0  0
  1 22  1  0  0  0
  2  3  2  0  0  0
  2 23  1  0  0  0
  3  8  1  0  0  0
  3  4  1  0  0  0
  4  5  2  0  0  0
  4 24  1  0  0  0
  5  6  1  0  0  0
  5 25  1  0  0  0
  6  7  2  0  0  0
  6 26  1  0  0  0
  7  8  1  0  0  0
  8  9  2  0  0  0
  9 10  1  0  0  0
  9 11  1  0  0  0
 10 27  1  0  0  0
 11 12  1  0  0  0
 11 28  1  0  0  0
 11 29  1  0  0  0
 12 13  1  0  0  0
 13 14  1  0  0  0
 13 30  1  0  0  0
 13 31  1  0  0  0
 14 19  2  0  0  0
 14 15  1  0  0  0
 15 16  2  0  0  0
 16 17  1  0  0  0
 16 21  1  0  0  0
 17 18  2  0  0  0
 18 19  1  0  0  0
 18 20  1  0  0  0
 20 32  1  0  0  0
 20 33  1  0  0  0
 21 34  1  0  0  0
 21 35  1  0  0  0
M  END
> <i_i_glide_confnum>
16

> <i_i_glide_lignum>
1571

> <i_i_glide_posenum>
265

> <i_i_glide_rotatable_bonds>
4

> <i_m_Source_File_Index>
2291

> <b_m_subgroup_collapsed>
0

> <r_i_docking_score>
-6.36465

> <r_i_glide_ecoul>
-4.43079

> <r_i_glide_eff_state_penalty>
0

> <r_i_glide_einternal>
1.48082

> <r_i_glide_emodel>
-48.9631

> <r_i_glide_energy>
-33.9398

> <r_i_glide_erotb>
0.618376

> <r_i_glide_esite>
-0.13039

> <r_i_glide_evdw>
-29.5091

> <r_i_glide_gscore>
-6.36465

> <r_i_glide_hbond>
-0.349715

> <r_i_glide_ligand_efficiency>
-0.303078

> <r_i_glide_ligand_efficiency_ln>
-1.57365

> <r_i_glide_ligand_efficiency_sa>
-0.83617

> <r_i_glide_lipo>
-2.77561

> <r_i_glide_metal>
0

> <r_i_glide_rewards>
-1.58724

> <s_i_glide_gridfile>
wee1_glide-grid

> <s_m_Source_File>
wee1_decoys_glide_SP.sdf

> <s_m_Source_Path>
/Users/zhangxujun/Desktop

> <s_m_entry_id>
2566

> <s_m_entry_name>
wee1_decoys_glide_SP.2291

> <s_m_subgroup_title>
wee1_decoys_glide_SP

> <s_m_subgroupid>
wee1_decoys_glide_SP


$$$$
