ZINC33063317_4282
                    3D
 Schrodinger Suite 2024-2.
 47 50  0  0  1  0            999 V2000
    6.6974   54.7511   25.6715 C   0  0  0  0  0  0
    6.5229   54.3953   27.0081 C   0  0  0  0  0  0
    5.2521   54.0645   27.4750 C   0  0  0  0  0  0
    4.1572   54.0925   26.5967 C   0  0  0  0  0  0
    4.3408   54.4966   25.2721 C   0  0  0  0  0  0
    5.6113   54.8167   24.8071 C   0  0  0  0  0  0
    2.8498   53.6988   26.9293 N   0  0  0  0  0  0
    2.3983   52.9660   27.9719 C   0  0  0  0  0  0
    3.0715   52.6564   28.9578 O   0  0  0  0  0  0
    0.9529   52.5202   27.8606 C   0  0  0  0  0  0
    0.2568   52.1138   29.0068 C   0  0  0  0  0  0
   -1.0685   51.6965   28.9195 C   0  0  0  0  0  0
   -1.7333   51.6963   27.6891 C   0  0  0  0  0  0
   -1.0381   52.0693   26.5368 C   0  0  0  0  0  0
    0.2926   52.4693   26.6201 C   0  0  0  0  0  0
   -3.1942   51.2412   27.6239 C   0  0  2  0  0  0
   -3.5772   51.3557   28.6413 H   0  0  0  0  0  0
   -3.2956   49.8340   27.2815 N   0  0  0  0  0  0
   -4.5358   49.2364   27.0213 C   0  0  0  0  0  0
   -4.5872   47.8427   27.0468 C   0  0  0  0  0  0
   -5.7848   47.1641   26.7996 C   0  0  0  0  0  0
   -6.9414   47.9086   26.5300 C   0  0  0  0  0  0
   -6.9040   49.3038   26.5370 C   0  0  0  0  0  0
   -5.7085   49.9768   26.8021 C   0  0  0  0  0  0
   -5.7447   51.7612   26.9195 S   0  0  0  0  0  0
   -6.1903   52.1071   28.2738 O   0  0  0  0  0  0
   -6.4627   52.3054   25.7629 O   0  0  0  0  0  0
   -4.0346   52.0958   26.7723 N   0  0  0  0  0  0
   -5.8031   45.6349   26.8208 C   0  0  0  0  0  0
   -5.6954   45.2151   28.0822 F   0  0  0  0  0  0
   -6.9292   45.1380   26.3062 F   0  0  0  0  0  0
   -4.7783   45.1463   26.1171 F   0  0  0  0  0  0
    7.6785   54.9693   25.2820 H   0  0  0  0  0  0
    7.3687   54.3574   27.6796 H   0  0  0  0  0  0
    5.1468   53.7774   28.5093 H   0  0  0  0  0  0
    3.5101   54.5299   24.5820 H   0  0  0  0  0  0
    5.7585   55.0958   23.7741 H   0  0  0  0  0  0
    2.1666   53.8956   26.2168 H   0  0  0  0  0  0
    0.7359   52.1113   29.9759 H   0  0  0  0  0  0
   -1.5764   51.3671   29.8160 H   0  0  0  0  0  0
   -1.5233   52.0370   25.5729 H   0  0  0  0  0  0
    0.7940   52.7319   25.7000 H   0  0  0  0  0  0
   -2.5502   49.2532   27.6864 H   0  0  0  0  0  0
   -3.6844   47.2842   27.2588 H   0  0  0  0  0  0
   -7.8814   47.4117   26.3345 H   0  0  0  0  0  0
   -7.8128   49.8625   26.3593 H   0  0  0  0  0  0
   -3.7011   52.2322   25.8170 H   0  0  0  0  0  0
  1  6  2  0  0  0
  1  2  1  0  0  0
  1 33  1  0  0  0
  2  3  2  0  0  0
  2 34  1  0  0  0
  3  4  1  0  0  0
  3 35  1  0  0  0
  4  5  2  0  0  0
  4  7  1  0  0  0
  5  6  1  0  0  0
  5 36  1  0  0  0
  6 37  1  0  0  0
  7  8  1  0  0  0
  7 38  1  0  0  0
  8  9  2  0  0  0
  8 10  1  0  0  0
 10 15  2  0  0  0
 10 11  1  0  0  0
 11 12  2  0  0  0
 11 39  1  0  0  0
 12 13  1  0  0  0
 12 40  1  0  0  0
 13 14  2  0  0  0
 13 16  1  0  0  0
 14 15  1  0  0  0
 14 41  1  0  0  0
 15 42  1  0  0  0
 16 17  1  0  0  0
 16 28  1  0  0  0
 16 18  1  0  0  0
 18 19  1  0  0  0
 18 43  1  0  0  0
 19 24  2  0  0  0
 19 20  1  0  0  0
 20 21  2  0  0  0
 20 44  1  0  0  0
 21 22  1  0  0  0
 21 29  1  0  0  0
 22 23  2  0  0  0
 22 45  1  0  0  0
 23 24  1  0  0  0
 23 46  1  0  0  0
 24 25  1  0  0  0
 25 26  2  0  0  0
 25 27  2  0  0  0
 25 28  1  0  0  0
 28 47  1  0  0  0
 29 30  1  0  0  0
 29 31  1  0  0  0
 29 32  1  0  0  0
M  END
> <i_i_glide_confnum>
45

> <i_i_glide_lignum>
4283

> <i_i_glide_posenum>
283

> <i_i_glide_rotatable_bonds>
5

> <i_m_Source_File_Index>
1726

> <b_m_subgroup_collapsed>
0

> <r_i_docking_score>
-5.33773

> <r_i_glide_ecoul>
-6.885

> <r_i_glide_eff_state_penalty>
0

> <r_i_glide_einternal>
1.20102

> <r_i_glide_emodel>
-52.9601

> <r_i_glide_energy>
-39.073

> <r_i_glide_erotb>
0.400101

> <r_i_glide_esite>
-0.292267

> <r_i_glide_evdw>
-32.188

> <r_i_glide_gscore>
-5.33773

> <r_i_glide_hbond>
-0.16

> <r_i_glide_ligand_efficiency>
-0.172185

> <r_i_glide_ligand_efficiency_ln>
-1.20382

> <r_i_glide_ligand_efficiency_sa>
-0.540898

> <r_i_glide_lipo>
-1.94677

> <r_i_glide_metal>
0

> <r_i_glide_rewards>
-0.696636

> <s_i_glide_gridfile>
wee1_glide-grid

> <s_m_Source_File>
wee1_decoys_glide_SP.sdf

> <s_m_Source_Path>
/Users/zhangxujun/Desktop

> <s_m_entry_id>
2001

> <s_m_entry_name>
wee1_decoys_glide_SP.1726

> <s_m_subgroup_title>
wee1_decoys_glide_SP

> <s_m_subgroupid>
wee1_decoys_glide_SP


$$$$
