ZINC59919807_4354
                    3D
 Schrodinger Suite 2024-2.
 57 60  0  0  1  0            999 V2000
    0.9069   53.8530   30.5253 C   0  0  0  0  0  0
    1.4635   53.3752   29.1780 C   0  0  0  0  0  0
    0.7080   52.2039   28.5039 C   0  0  2  0  0  0
    1.3348   51.9152   27.1296 C   0  0  0  0  0  0
    0.6593   50.7444   26.3866 C   0  0  0  0  0  0
   -0.8935   50.8285   26.2879 C   0  0  1  0  0  0
   -1.5510   51.3619   27.5960 C   0  0  0  0  0  0
   -0.7898   52.4961   28.3093 C   0  0  0  0  0  0
   -1.3036   51.6962   25.0986 C   0  0  0  0  0  0
   -1.0713   52.8967   24.9494 O   0  0  0  0  0  0
   -1.9566   50.8808   24.2438 N   0  0  0  0  0  0
   -2.0003   49.5862   24.6399 C   0  0  0  0  0  0
   -2.2701   48.5977   23.9596 O   0  0  0  0  0  0
   -1.4781   49.5860   25.8699 N   0  0  0  0  0  0
   -2.4865   51.3464   22.9390 C   0  0  0  0  0  0
   -1.3916   51.5229   21.8596 C   0  0  0  0  0  0
   -1.6938   52.0964   20.8134 O   0  0  0  0  0  0
   -0.1556   51.0431   22.1117 N   0  0  0  0  0  0
    1.0251   51.0228   21.2351 C   0  0  0  0  0  0
    2.3130   51.1370   22.0865 C   0  0  0  0  0  0
    2.8562   52.1593   21.0847 C   0  0  0  0  0  0
    1.3927   52.4477   20.7291 C   0  0  0  0  0  0
    0.8963   49.8355   20.2440 C   0  0  0  0  0  0
    1.5668   49.8683   19.0103 C   0  0  0  0  0  0
    1.5041   48.7903   18.1291 C   0  0  0  0  0  0
    0.7711   47.6540   18.4629 C   0  0  0  0  0  0
    0.0983   47.5984   19.6801 C   0  0  0  0  0  0
    0.1614   48.6767   20.5620 C   0  0  0  0  0  0
   -0.8968   46.0444   20.1479 Br  0  0  0  0  0  0
    1.5040   54.6888   30.8839 H   0  0  0  0  0  0
   -0.1163   54.2187   30.4448 H   0  0  0  0  0  0
    0.9267   53.0606   31.2742 H   0  0  0  0  0  0
    2.5072   53.0895   29.3221 H   0  0  0  0  0  0
    1.4828   54.2301   28.5003 H   0  0  0  0  0  0
    0.7958   51.3041   29.1159 H   0  0  0  0  0  0
    2.3951   51.7185   27.2815 H   0  0  0  0  0  0
    1.2991   52.8092   26.5046 H   0  0  0  0  0  0
    0.9097   49.8046   26.8814 H   0  0  0  0  0  0
    1.1044   50.5673   25.4047 H   0  0  0  0  0  0
   -2.6067   51.5985   27.4479 H   0  0  0  0  0  0
   -1.6449   50.5181   28.2831 H   0  0  0  0  0  0
   -1.2499   52.6797   29.2803 H   0  0  0  0  0  0
   -0.8955   53.4183   27.7370 H   0  0  0  0  0  0
   -1.6605   48.8730   26.5751 H   0  0  0  0  0  0
   -2.9523   52.3207   23.0915 H   0  0  0  0  0  0
   -3.2640   50.6780   22.5679 H   0  0  0  0  0  0
   -0.0339   50.5421   22.9782 H   0  0  0  0  0  0
    2.1678   51.5757   23.0765 H   0  0  0  0  0  0
    2.8982   50.2207   22.1769 H   0  0  0  0  0  0
    3.4103   52.9962   21.5143 H   0  0  0  0  0  0
    3.4405   51.7220   20.2724 H   0  0  0  0  0  0
    1.1956   52.6513   19.6770 H   0  0  0  0  0  0
    0.9881   53.2664   21.3294 H   0  0  0  0  0  0
    2.1573   50.7244   18.7157 H   0  0  0  0  0  0
    2.0319   48.8383   17.1876 H   0  0  0  0  0  0
    0.7295   46.8197   17.7781 H   0  0  0  0  0  0
   -0.3584   48.5924   21.5062 H   0  0  0  0  0  0
  1  2  1  0  0  0
  1 30  1  0  0  0
  1 31  1  0  0  0
  1 32  1  0  0  0
  2  3  1  0  0  0
  2 33  1  0  0  0
  2 34  1  0  0  0
  3  8  1  0  0  0
  3  4  1  0  0  0
  3 35  1  0  0  0
  4  5  1  0  0  0
  4 36  1  0  0  0
  4 37  1  0  0  0
  5  6  1  0  0  0
  5 38  1  0  0  0
  5 39  1  0  0  0
  6 14  1  0  0  0
  6  7  1  0  0  0
  6  9  1  0  0  0
  7  8  1  0  0  0
  7 40  1  0  0  0
  7 41  1  0  0  0
  8 42  1  0  0  0
  8 43  1  0  0  0
  9 10  2  0  0  0
  9 11  1  0  0  0
 11 12  1  0  0  0
 11 15  1  0  0  0
 12 13  2  0  0  0
 12 14  1  0  0  0
 14 44  1  0  0  0
 15 16  1  0  0  0
 15 45  1  0  0  0
 15 46  1  0  0  0
 16 17  2  0  0  0
 16 18  1  0  0  0
 18 19  1  0  0  0
 18 47  1  0  0  0
 19 22  1  0  0  0
 19 20  1  0  0  0
 19 23  1  0  0  0
 20 21  1  0  0  0
 20 48  1  0  0  0
 20 49  1  0  0  0
 21 22  1  0  0  0
 21 50  1  0  0  0
 21 51  1  0  0  0
 22 52  1  0  0  0
 22 53  1  0  0  0
 23 28  2  0  0  0
 23 24  1  0  0  0
 24 25  2  0  0  0
 24 54  1  0  0  0
 25 26  1  0  0  0
 25 55  1  0  0  0
 26 27  2  0  0  0
 26 56  1  0  0  0
 27 28  1  0  0  0
 27 29  1  0  0  0
 28 57  1  0  0  0
M  END
> <i_i_glide_confnum>
107

> <i_i_glide_lignum>
4355

> <i_i_glide_posenum>
38

> <i_i_glide_rotatable_bonds>
6

> <i_m_Source_File_Index>
25

> <b_m_subgroup_collapsed>
0

> <r_i_docking_score>
-3.33808

> <r_i_glide_ecoul>
-8.49698

> <r_i_glide_eff_state_penalty>
0

> <r_i_glide_einternal>
1.85951

> <r_i_glide_emodel>
-39.5357

> <r_i_glide_energy>
-32.3319

> <r_i_glide_erotb>
0.471094

> <r_i_glide_esite>
-0.145109

> <r_i_glide_evdw>
-23.8349

> <r_i_glide_gscore>
-3.33808

> <r_i_glide_hbond>
-0.256208

> <r_i_glide_ligand_efficiency>
-0.115106

> <r_i_glide_ligand_efficiency_ln>
-0.764336

> <r_i_glide_ligand_efficiency_sa>
-0.353643

> <r_i_glide_lipo>
-0.685138

> <r_i_glide_metal>
0

> <r_i_glide_rewards>
-0.256431

> <s_i_glide_gridfile>
wee1_glide-grid

> <s_m_Source_File>
wee1_decoys_glide_SP.sdf

> <s_m_Source_Path>
/Users/zhangxujun/Desktop

> <s_m_entry_id>
300

> <s_m_entry_name>
wee1_decoys_glide_SP.25

> <s_m_subgroup_title>
wee1_decoys_glide_SP

> <s_m_subgroupid>
wee1_decoys_glide_SP


$$$$
