ZINC43757664_4048
                    3D
 Schrodinger Suite 2024-2.
 71 76  0  0  1  0            999 V2000
    3.5701   50.8759   21.6817 C   0  0  0  0  0  0
    2.5751   51.4647   22.7383 C   0  0  2  0  0  0
    2.1201   50.3087   23.6817 C   0  0  0  0  0  0
    1.1436   49.2650   23.0783 C   0  0  2  0  0  0
    1.7373   48.6630   22.3892 H   0  0  0  0  0  0
   -0.0427   49.8293   22.2416 C   0  0  2  0  0  0
    0.5014   50.8992   21.2294 C   0  0  2  0  0  0
    1.2132   50.4107   20.5603 H   0  0  0  0  0  0
    1.2635   51.9658   22.0641 C   0  0  2  0  0  0
    0.5583   52.2359   22.8498 H   0  0  0  0  0  0
    1.6795   53.2966   21.4389 C   0  0  0  0  0  0
    3.0326   53.6633   22.0560 C   0  0  2  0  0  0
    3.7631   53.3707   21.2976 H   0  0  0  0  0  0
    3.1043   52.8691   23.3451 C   0  0  2  0  0  0
    4.4669   53.2967   23.5874 O   0  0  0  0  0  0
    4.6831   54.5825   23.2619 C   0  0  0  0  0  0
    3.5116   54.8968   22.5373 O   0  0  0  0  0  0
    5.9288   54.6658   22.3787 C   0  0  0  0  0  0
    4.8815   55.2967   24.6059 C   0  0  0  0  0  0
    2.2067   53.3874   24.5378 C   0  0  0  0  0  0
    1.2097   54.0843   24.3429 O   0  0  0  0  0  0
    2.6393   53.0363   25.9730 C   0  0  0  0  0  0
    2.2939   54.0956   26.8690 O   0  0  0  0  0  0
    1.6652   53.9450   28.0650 C   0  0  0  0  0  0
    1.1075   54.8904   28.6237 O   0  0  0  0  0  0
    1.6686   52.5368   28.6951 C   0  0  0  0  0  0
    1.3378   52.4301   30.1804 C   0  0  0  0  0  0
    0.3359   51.9662   29.1637 C   0  0  0  0  0  0
   -0.6309   51.4923   20.3416 C   0  0  0  0  0  0
   -2.0682   51.2374   20.8300 C   0  0  1  0  0  0
   -2.3897   50.2329   20.5533 H   0  0  0  0  0  0
   -2.1030   51.3809   22.3546 C   0  0  0  0  0  0
   -2.7155   52.3875   23.0287 C   0  0  0  0  0  0
   -2.7329   52.5448   24.4792 C   0  0  0  0  0  0
   -3.5040   53.2967   25.0697 O   0  0  0  0  0  0
   -1.7370   51.7322   25.1482 C   0  0  0  0  0  0
   -1.0962   50.7170   24.5396 C   0  0  0  0  0  0
   -1.3493   50.2395   23.0867 C   0  0  2  0  0  0
   -2.3480   49.0521   23.2309 C   0  0  0  0  0  0
   -2.8955   52.0965   20.2375 F   0  0  0  0  0  0
   -0.4055   48.8149   21.4425 F   0  0  0  0  0  0
    0.7043   48.3887   24.0883 O   0  0  0  0  0  0
    3.4349   49.8092   21.5133 H   0  0  0  0  0  0
    3.4615   51.3192   20.6920 H   0  0  0  0  0  0
    4.6057   51.0314   21.9776 H   0  0  0  0  0  0
    2.9597   49.7444   24.0815 H   0  0  0  0  0  0
    1.5819   50.7671   24.5011 H   0  0  0  0  0  0
    1.0108   54.0965   21.6948 H   0  0  0  0  0  0
    1.8133   53.1976   20.3602 H   0  0  0  0  0  0
    5.8321   54.0487   21.4861 H   0  0  0  0  0  0
    6.1011   55.6976   22.0759 H   0  0  0  0  0  0
    6.8000   54.3228   22.9383 H   0  0  0  0  0  0
    3.9365   55.5107   25.1027 H   0  0  0  0  0  0
    5.4437   54.6467   25.2784 H   0  0  0  0  0  0
    5.5047   56.1801   24.4979 H   0  0  0  0  0  0
    3.7195   52.8961   25.9995 H   0  0  0  0  0  0
    2.1567   52.0971   26.2376 H   0  0  0  0  0  0
    2.4093   51.8580   28.2751 H   0  0  0  0  0  0
    1.1141   53.3290   30.7577 H   0  0  0  0  0  0
    1.8759   51.6968   30.7794 H   0  0  0  0  0  0
    0.1556   50.8968   29.0358 H   0  0  0  0  0  0
   -0.5772   52.5474   29.0224 H   0  0  0  0  0  0
   -0.4312   52.5198   20.0493 H   0  0  0  0  0  0
   -0.5747   50.9807   19.3800 H   0  0  0  0  0  0
   -3.2174   53.1589   22.4814 H   0  0  0  0  0  0
   -1.5172   51.9301   26.1868 H   0  0  0  0  0  0
   -0.4426   50.1577   25.1904 H   0  0  0  0  0  0
   -3.2394   49.3331   23.7948 H   0  0  0  0  0  0
   -2.7007   48.6798   22.2691 H   0  0  0  0  0  0
   -1.8984   48.2091   23.7568 H   0  0  0  0  0  0
    1.4908   47.9842   24.4819 H   0  0  0  0  0  0
  1  2  1  0  0  0
  1 43  1  0  0  0
  1 44  1  0  0  0
  1 45  1  0  0  0
  2  9  1  0  0  0
  2 14  1  0  0  0
  2  3  1  0  0  0
  3  4  1  0  0  0
  3 46  1  0  0  0
  3 47  1  0  0  0
  4  5  1  0  0  0
  4  6  1  0  0  0
  4 42  1  0  0  0
  6 38  1  0  0  0
  6  7  1  0  0  0
  6 41  1  0  0  0
  7  8  1  0  0  0
  7  9  1  0  0  0
  7 29  1  0  0  0
  9 10  1  0  0  0
  9 11  1  0  0  0
 11 12  1  0  0  0
 11 48  1  0  0  0
 11 49  1  0  0  0
 12 13  1  0  0  0
 12 17  1  0  0  0
 12 14  1  0  0  0
 14 15  1  0  0  0
 14 20  1  0  0  0
 15 16  1  0  0  0
 16 17  1  0  0  0
 16 18  1  0  0  0
 16 19  1  0  0  0
 18 50  1  0  0  0
 18 51  1  0  0  0
 18 52  1  0  0  0
 19 53  1  0  0  0
 19 54  1  0  0  0
 19 55  1  0  0  0
 20 21  2  0  0  0
 20 22  1  0  0  0
 22 23  1  0  0  0
 22 56  1  0  0  0
 22 57  1  0  0  0
 23 24  1  0  0  0
 24 25  2  0  0  0
 24 26  1  0  0  0
 26 28  1  0  0  0
 26 27  1  0  0  0
 26 58  1  0  0  0
 27 28  1  0  0  0
 27 59  1  0  0  0
 27 60  1  0  0  0
 28 61  1  0  0  0
 28 62  1  0  0  0
 29 30  1  0  0  0
 29 63  1  0  0  0
 29 64  1  0  0  0
 30 31  1  0  0  0
 30 32  1  0  0  0
 30 40  1  0  0  0
 32 38  1  0  0  0
 32 33  2  0  0  0
 33 34  1  0  0  0
 33 65  1  0  0  0
 34 35  2  0  0  0
 34 36  1  0  0  0
 36 37  2  0  0  0
 36 66  1  0  0  0
 37 38  1  0  0  0
 37 67  1  0  0  0
 38 39  1  0  0  0
 39 68  1  0  0  0
 39 69  1  0  0  0
 39 70  1  0  0  0
 42 71  1  0  0  0
M  END
> <i_i_glide_confnum>
6

> <i_i_glide_lignum>
4049

> <i_i_glide_posenum>
393

> <i_i_glide_rotatable_bonds>
6

> <i_m_Source_File_Index>
6058

> <b_m_subgroup_collapsed>
0

> <r_i_docking_score>
-0.50542

> <r_i_glide_ecoul>
-8.60668

> <r_i_glide_eff_state_penalty>
0

> <r_i_glide_einternal>
9.45779

> <r_i_glide_emodel>
-4.92267

> <r_i_glide_energy>
-17.4979

> <r_i_glide_erotb>
0.303367

> <r_i_glide_esite>
-0.0444069

> <r_i_glide_evdw>
-8.8912

> <r_i_glide_gscore>
-0.50542

> <r_i_glide_hbond>
-0.32

> <r_i_glide_ligand_efficiency>
-0.01366

> <r_i_glide_ligand_efficiency_ln>
-0.109614

> <r_i_glide_ligand_efficiency_sa>
-0.0455182

> <r_i_glide_lipo>
-1.02947

> <r_i_glide_metal>
0

> <r_i_glide_rewards>
2.32065

> <s_i_glide_gridfile>
wee1_glide-grid

> <s_m_Source_File>
wee1_decoys_glide_SP.sdf

> <s_m_Source_Path>
/Users/zhangxujun/Desktop

> <s_m_entry_id>
6333

> <s_m_entry_name>
wee1_decoys_glide_SP.6058

> <s_m_subgroup_title>
wee1_decoys_glide_SP

> <s_m_subgroupid>
wee1_decoys_glide_SP


$$$$
