ZINC13077350_513
                    3D
 Schrodinger Suite 2024-2.
 43 46  0  0  1  0            999 V2000
   -2.8890   47.0817   20.6947 C   0  0  0  0  0  0
   -1.6836   46.3809   21.3616 C   0  0  2  0  0  0
   -0.7447   46.7224   20.9224 H   0  0  0  0  0  0
   -1.7773   44.8475   21.1266 C   0  0  0  0  0  0
   -1.5021   44.4241   19.9808 O   0  0  0  0  0  0
   -1.7102   46.6078   22.7772 O   0  0  0  0  0  0
   -1.1794   47.7514   23.3429 C   0  0  0  0  0  0
   -0.7146   48.8774   22.6474 C   0  0  0  0  0  0
   -0.1885   49.9706   23.3455 C   0  0  0  0  0  0
   -0.1087   49.9705   24.7504 C   0  0  0  0  0  0
   -0.5552   48.8176   25.4114 C   0  0  0  0  0  0
   -1.0919   47.7379   24.7271 C   0  0  0  0  0  0
    0.4118   51.1388   25.5455 C   0  0  0  0  0  0
    1.1040   52.1668   24.9878 C   0  0  0  0  0  0
    1.6297   53.3940   25.7544 C   0  0  1  0  0  0
    1.1492   54.2734   25.3268 H   0  0  0  0  0  0
    1.1587   53.2778   27.1518 N   0  0  0  0  0  0
    0.5129   52.1947   27.7132 C   0  0  0  0  0  0
    0.2040   52.4266   28.9633 N   0  0  0  0  0  0
    0.6855   53.7070   29.2221 N   0  0  0  0  0  0
    1.2565   54.2424   28.0820 N   0  0  0  0  0  0
    0.1194   51.1460   26.9083 N   0  0  0  0  0  0
    3.1273   53.7177   25.5875 C   0  0  0  0  0  0
    3.6017   54.1061   24.3275 C   0  0  0  0  0  0
    4.9347   54.4833   24.1511 C   0  0  0  0  0  0
    5.8151   54.4803   25.2316 C   0  0  0  0  0  0
    5.3654   54.0765   26.4889 C   0  0  0  0  0  0
    4.0329   53.6968   26.6633 C   0  0  0  0  0  0
    6.5658   54.0149   27.9675 Br  0  0  0  0  0  0
    7.1019   54.8610   25.0541 F   0  0  0  0  0  0
   -2.9061   46.9082   19.6172 H   0  0  0  0  0  0
   -3.8355   46.7266   21.1052 H   0  0  0  0  0  0
   -2.8576   48.1599   20.8462 H   0  0  0  0  0  0
   -0.7589   48.9205   21.5706 H   0  0  0  0  0  0
    0.1358   50.8240   22.7713 H   0  0  0  0  0  0
   -0.4939   48.7280   26.4816 H   0  0  0  0  0  0
   -1.4261   46.8773   25.2875 H   0  0  0  0  0  0
    1.3510   52.1132   23.9394 H   0  0  0  0  0  0
   -0.6037   50.5211   27.2423 H   0  0  0  0  0  0
    2.9314   54.1352   23.4801 H   0  0  0  0  0  0
    5.2853   54.7861   23.1755 H   0  0  0  0  0  0
    3.7177   53.3816   27.6468 H   0  0  0  0  0  0
   -2.0963   44.0973   22.0816 O   0  5  0  0  0  0
  1  2  1  0  0  0
  1 31  1  0  0  0
  1 32  1  0  0  0
  1 33  1  0  0  0
  2  3  1  0  0  0
  2  4  1  0  0  0
  2  6  1  0  0  0
  4  5  2  0  0  0
  4 43  1  0  0  0
  6  7  1  0  0  0
  7 12  2  0  0  0
  7  8  1  0  0  0
  8  9  2  0  0  0
  8 34  1  0  0  0
  9 10  1  0  0  0
  9 35  1  0  0  0
 10 11  2  0  0  0
 10 13  1  0  0  0
 11 12  1  0  0  0
 11 36  1  0  0  0
 12 37  1  0  0  0
 13 22  1  0  0  0
 13 14  2  0  0  0
 14 15  1  0  0  0
 14 38  1  0  0  0
 15 16  1  0  0  0
 15 17  1  0  0  0
 15 23  1  0  0  0
 17 21  1  0  0  0
 17 18  1  0  0  0
 18 19  2  0  0  0
 18 22  1  0  0  0
 19 20  1  0  0  0
 20 21  2  0  0  0
 22 39  1  0  0  0
 23 28  2  0  0  0
 23 24  1  0  0  0
 24 25  2  0  0  0
 24 40  1  0  0  0
 25 26  1  0  0  0
 25 41  1  0  0  0
 26 27  2  0  0  0
 26 30  1  0  0  0
 27 28  1  0  0  0
 27 29  1  0  0  0
 28 42  1  0  0  0
M  CHG  1  43  -1
M  END
> <i_i_glide_confnum>
12

> <i_i_glide_lignum>
514

> <i_i_glide_posenum>
221

> <i_i_glide_rotatable_bonds>
5

> <i_m_Source_File_Index>
1797

> <b_m_subgroup_collapsed>
0

> <r_i_docking_score>
-5.26816

> <r_i_glide_ecoul>
-6.3911

> <r_i_glide_eff_state_penalty>
0

> <r_i_glide_einternal>
7.15651

> <r_i_glide_emodel>
-55.0436

> <r_i_glide_energy>
-41.1462

> <r_i_glide_erotb>
0.381569

> <r_i_glide_esite>
-0.0676768

> <r_i_glide_evdw>
-34.7551

> <r_i_glide_gscore>
-5.26816

> <r_i_glide_hbond>
-0.2

> <r_i_glide_ligand_efficiency>
-0.181661

> <r_i_glide_ligand_efficiency_ln>
-1.20627

> <r_i_glide_ligand_efficiency_sa>
-0.558119

> <r_i_glide_lipo>
-1.99297

> <r_i_glide_metal>
0

> <r_i_glide_rewards>
-0.692661

> <s_i_glide_gridfile>
wee1_glide-grid

> <s_m_Source_File>
wee1_decoys_glide_SP.sdf

> <s_m_Source_Path>
/Users/zhangxujun/Desktop

> <s_m_entry_id>
2072

> <s_m_entry_name>
wee1_decoys_glide_SP.1797

> <s_m_subgroup_title>
wee1_decoys_glide_SP

> <s_m_subgroupid>
wee1_decoys_glide_SP


$$$$
