ZINC24639400_435
                    3D
 Schrodinger Suite 2024-2.
 52 55  0  0  1  0            999 V2000
    7.1105   55.6685   20.8551 C   0  0  0  0  0  0
    6.2015   55.2640   19.8826 C   0  0  0  0  0  0
    5.1118   54.4735   20.2383 C   0  0  0  0  0  0
    4.9145   54.0844   21.5679 C   0  0  0  0  0  0
    5.8265   54.4966   22.5711 C   0  0  0  0  0  0
    6.9224   55.2912   22.1827 C   0  0  0  0  0  0
    5.6157   54.1016   23.9158 N   0  0  0  0  0  0
    5.9323   54.7849   25.0431 C   0  0  0  0  0  0
    6.7554   55.6990   25.0885 O   0  0  0  0  0  0
    5.2368   54.3647   26.3207 C   0  0  0  0  0  0
    5.8123   54.6979   27.5555 C   0  0  0  0  0  0
    5.1671   54.3857   28.7462 C   0  0  0  0  0  0
    3.9504   53.7123   28.7195 C   0  0  0  0  0  0
    3.3641   53.3679   27.5072 C   0  0  0  0  0  0
    4.0022   53.6969   26.3138 C   0  0  0  0  0  0
    3.1686   53.2956   30.1988 Cl  0  0  0  0  0  0
    3.7992   53.2592   21.7896 N   0  0  0  0  0  0
    2.7317   53.5675   22.5527 C   0  0  0  0  0  0
    2.7196   54.4967   23.3599 O   0  0  0  0  0  0
    1.5092   52.6964   22.3888 C   0  0  0  0  0  0
    1.2878   51.9347   21.2282 C   0  0  0  0  0  0
    0.1183   51.1888   21.0797 C   0  0  0  0  0  0
   -0.8485   51.1984   22.0827 C   0  0  0  0  0  0
   -0.6412   51.9479   23.2417 C   0  0  0  0  0  0
    0.5333   52.6865   23.3946 C   0  0  0  0  0  0
   -1.8867   51.9789   24.5183 S   0  0  0  0  0  0
   -3.0579   52.6369   23.9308 O   0  0  0  0  0  0
   -1.2691   52.4966   25.7454 O   0  0  0  0  0  0
   -2.3109   50.2986   24.7913 N   0  0  0  0  0  0
   -1.4806   49.4658   25.6768 C   0  0  0  0  0  0
   -1.3180   48.0192   25.2745 C   0  0  0  0  0  0
   -0.1610   48.9691   25.1157 C   0  0  0  0  0  0
    7.9726   56.2576   20.5787 H   0  0  0  0  0  0
    6.3462   55.5539   18.8530 H   0  0  0  0  0  0
    4.4189   54.1628   19.4682 H   0  0  0  0  0  0
    7.6596   55.6238   22.8921 H   0  0  0  0  0  0
    4.8824   53.4203   24.0314 H   0  0  0  0  0  0
    6.7534   55.2297   27.6088 H   0  0  0  0  0  0
    5.6151   54.6784   29.6815 H   0  0  0  0  0  0
    2.4162   52.8493   27.4854 H   0  0  0  0  0  0
    3.5160   53.4155   25.3946 H   0  0  0  0  0  0
    3.7111   52.4658   21.1740 H   0  0  0  0  0  0
    2.0004   51.9249   20.4154 H   0  0  0  0  0  0
   -0.0387   50.6110   20.1803 H   0  0  0  0  0  0
   -1.7549   50.6231   21.9604 H   0  0  0  0  0  0
    0.6699   53.2732   24.2927 H   0  0  0  0  0  0
   -3.3078   50.0635   24.7240 H   0  0  0  0  0  0
   -1.5412   49.7033   26.7402 H   0  0  0  0  0  0
   -1.8369   47.6562   24.3879 H   0  0  0  0  0  0
   -1.2964   47.2835   26.0802 H   0  0  0  0  0  0
    0.6875   48.8764   25.7968 H   0  0  0  0  0  0
    0.1440   49.2715   24.1140 H   0  0  0  0  0  0
  1  6  2  0  0  0
  1  2  1  0  0  0
  1 33  1  0  0  0
  2  3  2  0  0  0
  2 34  1  0  0  0
  3  4  1  0  0  0
  3 35  1  0  0  0
  4  5  2  0  0  0
  4 17  1  0  0  0
  5  6  1  0  0  0
  5  7  1  0  0  0
  6 36  1  0  0  0
  7  8  1  0  0  0
  7 37  1  0  0  0
  8  9  2  0  0  0
  8 10  1  0  0  0
 10 15  2  0  0  0
 10 11  1  0  0  0
 11 12  2  0  0  0
 11 38  1  0  0  0
 12 13  1  0  0  0
 12 39  1  0  0  0
 13 14  2  0  0  0
 13 16  1  0  0  0
 14 15  1  0  0  0
 14 40  1  0  0  0
 15 41  1  0  0  0
 17 18  1  0  0  0
 17 42  1  0  0  0
 18 19  2  0  0  0
 18 20  1  0  0  0
 20 25  2  0  0  0
 20 21  1  0  0  0
 21 22  2  0  0  0
 21 43  1  0  0  0
 22 23  1  0  0  0
 22 44  1  0  0  0
 23 24  2  0  0  0
 23 45  1  0  0  0
 24 25  1  0  0  0
 24 26  1  0  0  0
 25 46  1  0  0  0
 26 27  2  0  0  0
 26 28  2  0  0  0
 26 29  1  0  0  0
 29 30  1  0  0  0
 29 47  1  0  0  0
 30 32  1  0  0  0
 30 31  1  0  0  0
 30 48  1  0  0  0
 31 32  1  0  0  0
 31 49  1  0  0  0
 31 50  1  0  0  0
 32 51  1  0  0  0
 32 52  1  0  0  0
M  END
> <i_i_glide_confnum>
25

> <i_i_glide_lignum>
436

> <i_i_glide_posenum>
300

> <i_i_glide_rotatable_bonds>
9

> <i_m_Source_File_Index>
2314

> <b_m_subgroup_collapsed>
0

> <r_i_docking_score>
-5.46483

> <r_i_glide_ecoul>
-7.95399

> <r_i_glide_eff_state_penalty>
0

> <r_i_glide_einternal>
9.43262

> <r_i_glide_emodel>
-69.7078

> <r_i_glide_energy>
-57.1458

> <r_i_glide_erotb>
0.823256

> <r_i_glide_esite>
-0.0241199

> <r_i_glide_evdw>
-49.1918

> <r_i_glide_gscore>
-5.46483

> <r_i_glide_hbond>
-0.222058

> <r_i_glide_ligand_efficiency>
-0.170776

> <r_i_glide_ligand_efficiency_ln>
-1.22372

> <r_i_glide_ligand_efficiency_sa>
-0.54218

> <r_i_glide_lipo>
-2.36471

> <r_i_glide_metal>
0

> <r_i_glide_rewards>
-0.0245054

> <s_i_glide_gridfile>
wee1_glide-grid

> <s_m_Source_File>
wee1_decoys_glide_SP.sdf

> <s_m_Source_Path>
/Users/zhangxujun/Desktop

> <s_m_entry_id>
2589

> <s_m_entry_name>
wee1_decoys_glide_SP.2314

> <s_m_subgroup_title>
wee1_decoys_glide_SP

> <s_m_subgroupid>
wee1_decoys_glide_SP


$$$$
