ZINC03417564_1018
                    3D
 Schrodinger Suite 2024-2.
 63 66  0  0  1  0            999 V2000
   -6.9042   54.0611   26.6818 C   0  0  0  0  0  0
   -7.4693   52.6279   26.7260 C   0  0  0  0  0  0
   -6.6210   51.7533   27.4631 O   0  0  0  0  0  0
   -6.6156   51.7399   28.8225 C   0  0  0  0  0  0
   -7.3458   52.4406   29.5324 O   0  0  0  0  0  0
   -5.5441   50.8237   29.4704 C   0  0  1  0  0  0
   -4.8163   51.5390   29.8484 H   0  0  0  0  0  0
   -6.0541   50.0510   30.6986 C   0  0  0  0  0  0
   -5.6951   50.4389   31.9315 C   0  0  0  0  0  0
   -6.8380   48.9416   30.4657 N   0  0  0  0  0  0
   -7.4150   48.4997   29.2675 C   0  0  0  0  0  0
   -8.7464   48.0689   29.2484 C   0  0  0  0  0  0
   -9.3332   47.5722   28.0909 C   0  0  0  0  0  0
   -8.5825   47.4873   26.9269 C   0  0  0  0  0  0
   -7.2600   47.9205   26.9275 C   0  0  0  0  0  0
   -6.6534   48.4730   28.0631 C   0  0  0  0  0  0
   -5.2977   48.8469   27.9413 N   0  0  0  0  0  0
   -4.7796   49.8697   28.5130 C   0  0  0  0  0  0
   -3.4648   50.0972   28.2946 N   0  0  0  0  0  0
   -2.9275   51.2168   27.7608 C   0  0  0  0  0  0
   -3.5906   52.0963   27.2037 O   0  0  0  0  0  0
   -1.3834   51.3216   27.8096 C   0  0  0  0  0  0
   -0.8092   52.2640   26.7384 C   0  0  0  0  0  0
    0.7290   52.2108   26.8142 C   0  0  0  0  0  0
    1.2467   52.4872   28.1865 N   0  0  0  0  0  0
    0.6431   51.6967   29.2825 C   0  0  0  0  0  0
   -0.8991   51.6964   29.2371 C   0  0  0  0  0  0
    2.0101   54.0434   28.5724 S   0  0  0  0  0  0
    1.1049   55.0970   28.1059 O   0  0  0  0  0  0
    2.4385   54.0172   29.9788 O   0  0  0  0  0  0
    3.4928   54.1308   27.5689 C   0  0  0  0  0  0
    4.7581   53.9717   28.1416 C   0  0  0  0  0  0
    5.8946   54.0888   27.3427 C   0  0  0  0  0  0
    5.7534   54.3517   25.9798 C   0  0  0  0  0  0
    4.4972   54.4963   25.4058 C   0  0  0  0  0  0
    3.3689   54.3787   26.2014 C   0  0  0  0  0  0
    7.1327   54.5043   24.9693 Cl  0  0  0  0  0  0
   -7.5258   54.7013   26.0557 H   0  0  0  0  0  0
   -6.8681   54.4999   27.6797 H   0  0  0  0  0  0
   -5.8902   54.0682   26.2751 H   0  0  0  0  0  0
   -7.5402   52.2390   25.7083 H   0  0  0  0  0  0
   -8.4832   52.6204   27.1336 H   0  0  0  0  0  0
   -5.0573   51.2970   32.0821 H   0  0  0  0  0  0
   -6.0201   49.9074   32.8134 H   0  0  0  0  0  0
   -7.2399   48.5270   31.2926 H   0  0  0  0  0  0
   -9.3369   48.1082   30.1528 H   0  0  0  0  0  0
  -10.3605   47.2413   28.1015 H   0  0  0  0  0  0
   -9.0228   47.0861   26.0254 H   0  0  0  0  0  0
   -6.6914   47.8446   26.0118 H   0  0  0  0  0  0
   -2.8064   49.3354   28.4813 H   0  0  0  0  0  0
   -1.0415   50.3085   27.6008 H   0  0  0  0  0  0
   -1.0841   51.9423   25.7316 H   0  0  0  0  0  0
   -1.1171   53.2941   26.9228 H   0  0  0  0  0  0
    1.1030   51.2353   26.5020 H   0  0  0  0  0  0
    1.1394   52.9334   26.1185 H   0  0  0  0  0  0
    1.0509   50.6922   29.2238 H   0  0  0  0  0  0
    0.9750   52.0954   30.2411 H   0  0  0  0  0  0
   -1.2051   52.7014   29.5232 H   0  0  0  0  0  0
   -1.2279   50.9677   29.9831 H   0  0  0  0  0  0
    4.8678   53.7788   29.1989 H   0  0  0  0  0  0
    6.8767   53.9817   27.7811 H   0  0  0  0  0  0
    4.3976   54.6949   24.3484 H   0  0  0  0  0  0
    2.4030   54.4967   25.7412 H   0  0  0  0  0  0
  1  2  1  0  0  0
  1 38  1  0  0  0
  1 39  1  0  0  0
  1 40  1  0  0  0
  2  3  1  0  0  0
  2 41  1  0  0  0
  2 42  1  0  0  0
  3  4  1  0  0  0
  4  5  2  0  0  0
  4  6  1  0  0  0
  6  7  1  0  0  0
  6 18  1  0  0  0
  6  8  1  0  0  0
  8  9  2  0  0  0
  8 10  1  0  0  0
  9 43  1  0  0  0
  9 44  1  0  0  0
 10 11  1  0  0  0
 10 45  1  0  0  0
 11 16  2  0  0  0
 11 12  1  0  0  0
 12 13  2  0  0  0
 12 46  1  0  0  0
 13 14  1  0  0  0
 13 47  1  0  0  0
 14 15  2  0  0  0
 14 48  1  0  0  0
 15 16  1  0  0  0
 15 49  1  0  0  0
 16 17  1  0  0  0
 17 18  2  0  0  0
 18 19  1  0  0  0
 19 20  1  0  0  0
 19 50  1  0  0  0
 20 21  2  0  0  0
 20 22  1  0  0  0
 22 27  1  0  0  0
 22 23  1  0  0  0
 22 51  1  0  0  0
 23 24  1  0  0  0
 23 52  1  0  0  0
 23 53  1  0  0  0
 24 25  1  0  0  0
 24 54  1  0  0  0
 24 55  1  0  0  0
 25 26  1  0  0  0
 25 28  1  0  0  0
 26 27  1  0  0  0
 26 56  1  0  0  0
 26 57  1  0  0  0
 27 58  1  0  0  0
 27 59  1  0  0  0
 28 29  2  0  0  0
 28 30  2  0  0  0
 28 31  1  0  0  0
 31 36  2  0  0  0
 31 32  1  0  0  0
 32 33  2  0  0  0
 32 60  1  0  0  0
 33 34  1  0  0  0
 33 61  1  0  0  0
 34 35  2  0  0  0
 34 37  1  0  0  0
 35 36  1  0  0  0
 35 62  1  0  0  0
 36 63  1  0  0  0
M  END
> <i_i_glide_confnum>
216

> <i_i_glide_lignum>
1019

> <i_i_glide_posenum>
107

> <i_i_glide_rotatable_bonds>
8

> <i_m_Source_File_Index>
1851

> <b_m_subgroup_collapsed>
0

> <r_i_docking_score>
-4.76126

> <r_i_glide_ecoul>
-8.76559

> <r_i_glide_eff_state_penalty>
0

> <r_i_glide_einternal>
11.3506

> <r_i_glide_emodel>
-54.8571

> <r_i_glide_energy>
-45.2143

> <r_i_glide_erotb>
0.511804

> <r_i_glide_esite>
-0.282002

> <r_i_glide_evdw>
-36.4487

> <r_i_glide_gscore>
-4.76126

> <r_i_glide_hbond>
-0.16

> <r_i_glide_ligand_efficiency>
-0.132257

> <r_i_glide_ligand_efficiency_ln>
-1.03878

> <r_i_glide_ligand_efficiency_sa>
-0.436704

> <r_i_glide_lipo>
-1.85698

> <r_i_glide_metal>
0

> <r_i_glide_rewards>
0.163188

> <s_i_glide_gridfile>
wee1_glide-grid

> <s_m_Source_File>
wee1_decoys_glide_SP.sdf

> <s_m_Source_Path>
/Users/zhangxujun/Desktop

> <s_m_entry_id>
2126

> <s_m_entry_name>
wee1_decoys_glide_SP.1851

> <s_m_subgroup_title>
wee1_decoys_glide_SP

> <s_m_subgroupid>
wee1_decoys_glide_SP


$$$$
