ZINC09319047_3915
                    3D
 Schrodinger Suite 2024-2.
 47 49  0  0  1  0            999 V2000
    2.8393   53.2464   22.8549 C   0  0  0  0  0  0
    2.4887   52.7579   21.6020 C   0  0  0  0  0  0
    3.4227   52.7698   20.5693 C   0  0  0  0  0  0
    4.7077   53.2619   20.7833 C   0  0  0  0  0  0
    5.0688   53.7447   22.0408 C   0  0  0  0  0  0
    4.1297   53.7325   23.0824 C   0  0  0  0  0  0
    4.3955   54.1346   24.3999 N   0  0  0  0  0  0
    5.4735   54.7487   24.9357 C   0  0  0  0  0  0
    6.4114   55.1964   24.2838 O   0  0  0  0  0  0
    5.4755   54.8960   26.2807 N   0  0  0  0  0  0
    4.6282   54.3324   27.2347 C   0  0  0  0  0  0
    3.5105   53.6620   27.0498 N   0  0  0  0  0  0
    2.9960   53.1944   28.1824 C   0  0  0  0  0  0
    3.7274   53.5359   29.3232 C   0  0  0  0  0  0
    5.1047   54.4960   28.8815 S   0  0  0  0  0  0
    1.7892   52.3858   28.1903 C   0  0  0  0  0  0
    1.3027   51.9924   29.2540 O   0  0  0  0  0  0
    1.2568   52.0969   26.9868 N   0  0  0  0  0  0
    0.0751   51.2695   26.7283 C   0  0  0  0  0  0
   -1.2172   52.1092   26.8661 C   0  0  0  0  0  0
   -2.4946   51.2963   27.1593 C   0  0  0  0  0  0
   -3.0772   50.4961   25.9848 C   0  0  0  0  0  0
   -2.1224   49.4858   25.3253 C   0  0  0  0  0  0
   -0.9683   50.1366   24.5459 C   0  0  0  0  0  0
    0.2703   50.5334   25.3727 C   0  0  0  0  0  0
    2.9758   52.1745   19.0106 Cl  0  0  0  0  0  0
    2.1061   53.2265   23.6481 H   0  0  0  0  0  0
    1.4933   52.3755   21.4279 H   0  0  0  0  0  0
    5.4245   53.2605   19.9739 H   0  0  0  0  0  0
    6.0753   54.1036   22.1832 H   0  0  0  0  0  0
    3.6617   53.9132   25.0543 H   0  0  0  0  0  0
    6.2684   55.3948   26.6560 H   0  0  0  0  0  0
    3.5351   53.2594   30.3482 H   0  0  0  0  0  0
    1.7875   52.3614   26.1737 H   0  0  0  0  0  0
    0.0340   50.4943   27.4997 H   0  0  0  0  0  0
   -1.3666   52.7132   25.9703 H   0  0  0  0  0  0
   -1.0883   52.8235   27.6803 H   0  0  0  0  0  0
   -3.2664   51.9802   27.5143 H   0  0  0  0  0  0
   -2.3077   50.6207   27.9941 H   0  0  0  0  0  0
   -3.4563   51.1850   25.2289 H   0  0  0  0  0  0
   -3.9524   49.9536   26.3493 H   0  0  0  0  0  0
   -2.7041   48.8767   24.6329 H   0  0  0  0  0  0
   -1.7343   48.7907   26.0723 H   0  0  0  0  0  0
   -1.3402   51.0115   24.0093 H   0  0  0  0  0  0
   -0.6417   49.4480   23.7674 H   0  0  0  0  0  0
    0.8362   49.6201   25.5778 H   0  0  0  0  0  0
    0.9334   51.1053   24.7196 H   0  0  0  0  0  0
  1  6  2  0  0  0
  1  2  1  0  0  0
  1 27  1  0  0  0
  2  3  2  0  0  0
  2 28  1  0  0  0
  3  4  1  0  0  0
  3 26  1  0  0  0
  4  5  2  0  0  0
  4 29  1  0  0  0
  5  6  1  0  0  0
  5 30  1  0  0  0
  6  7  1  0  0  0
  7  8  1  0  0  0
  7 31  1  0  0  0
  8  9  2  0  0  0
  8 10  1  0  0  0
 10 11  1  0  0  0
 10 32  1  0  0  0
 11 15  1  0  0  0
 11 12  2  0  0  0
 12 13  1  0  0  0
 13 14  2  0  0  0
 13 16  1  0  0  0
 14 15  1  0  0  0
 14 33  1  0  0  0
 16 17  2  0  0  0
 16 18  1  0  0  0
 18 19  1  0  0  0
 18 34  1  0  0  0
 19 25  1  0  0  0
 19 20  1  0  0  0
 19 35  1  0  0  0
 20 21  1  0  0  0
 20 36  1  0  0  0
 20 37  1  0  0  0
 21 22  1  0  0  0
 21 38  1  0  0  0
 21 39  1  0  0  0
 22 23  1  0  0  0
 22 40  1  0  0  0
 22 41  1  0  0  0
 23 24  1  0  0  0
 23 42  1  0  0  0
 23 43  1  0  0  0
 24 25  1  0  0  0
 24 44  1  0  0  0
 24 45  1  0  0  0
 25 46  1  0  0  0
 25 47  1  0  0  0
M  END
> <i_i_glide_confnum>
725

> <i_i_glide_lignum>
3916

> <i_i_glide_posenum>
378

> <i_i_glide_rotatable_bonds>
7

> <i_m_Source_File_Index>
4619

> <b_m_subgroup_collapsed>
0

> <r_i_docking_score>
-3.23694

> <r_i_glide_ecoul>
0.705646

> <r_i_glide_eff_state_penalty>
0

> <r_i_glide_einternal>
7.70354

> <r_i_glide_emodel>
-46.0771

> <r_i_glide_energy>
-42.1948

> <r_i_glide_erotb>
0.759048

> <r_i_glide_esite>
0

> <r_i_glide_evdw>
-42.9005

> <r_i_glide_gscore>
-3.23694

> <r_i_glide_hbond>
0

> <r_i_glide_ligand_efficiency>
-0.124498

> <r_i_glide_ligand_efficiency_ln>
-0.760185

> <r_i_glide_ligand_efficiency_sa>
-0.368824

> <r_i_glide_lipo>
-1.33955

> <r_i_glide_metal>
0

> <r_i_glide_rewards>
-0.617265

> <s_i_glide_gridfile>
wee1_glide-grid

> <s_m_Source_File>
wee1_decoys_glide_SP.sdf

> <s_m_Source_Path>
/Users/zhangxujun/Desktop

> <s_m_entry_id>
4894

> <s_m_entry_name>
wee1_decoys_glide_SP.4619

> <s_m_subgroup_title>
wee1_decoys_glide_SP

> <s_m_subgroupid>
wee1_decoys_glide_SP


$$$$
