ZINC36052788_5658
                    3D
 Schrodinger Suite 2024-2.
 60 63  0  0  1  0            999 V2000
    6.2326   55.4120   25.1445 C   0  0  0  0  0  0
    5.7540   54.6407   26.3963 C   0  0  0  0  0  0
    4.3165   54.0729   26.4297 C   0  0  0  0  0  0
    3.7599   53.3188   27.4362 C   0  0  0  0  0  0
    2.2952   52.7788   27.2951 C   0  0  2  0  0  0
    2.3968   51.6959   27.2965 H   0  0  0  0  0  0
    1.7611   53.0343   25.9241 N   0  0  0  0  0  0
    0.6743   52.4141   25.3086 C   0  0  0  0  0  0
    0.4562   52.8960   24.0721 C   0  0  0  0  0  0
    1.6204   54.0961   23.5590 S   0  0  0  0  0  0
    2.5006   53.8505   25.0707 C   0  0  0  0  0  0
    3.6313   54.3894   25.2925 N   0  0  0  0  0  0
   -0.1422   51.3207   25.8228 C   0  0  0  0  0  0
   -0.3791   50.1704   25.1572 C   0  0  0  0  0  0
    0.0795   49.8013   24.0117 O   0  5  0  0  0  0
   -1.2194   49.2043   25.6815 N   0  0  0  0  0  0
   -1.6328   47.9212   25.1093 C   0  0  0  0  0  0
   -2.9542   47.3823   25.6978 C   0  0  1  0  0  0
   -2.8637   47.2625   26.7779 H   0  0  0  0  0  0
   -4.2169   48.1674   25.3320 C   0  0  0  0  0  0
   -4.7146   47.5589   24.0362 C   0  0  0  0  0  0
   -3.9573   46.2363   23.9174 C   0  0  0  0  0  0
   -3.2329   46.0962   25.1401 O   0  0  0  0  0  0
    1.3403   53.0896   28.4765 C   0  0  0  0  0  0
    0.6008   52.0155   28.9935 C   0  0  0  0  0  0
   -0.1218   52.1349   30.1751 C   0  0  0  0  0  0
   -0.0925   53.3256   30.8852 C   0  0  0  0  0  0
    0.6071   54.4164   30.3860 C   0  0  0  0  0  0
    1.3223   54.3175   29.1882 C   0  0  0  0  0  0
    2.0910   55.5572   28.7589 C   0  0  0  0  0  0
    4.5058   52.9502   28.6672 C   0  0  0  0  0  0
    5.6603   53.3058   28.8816 O   0  0  0  0  0  0
    3.7982   52.1918   29.5439 O   0  0  0  0  0  0
    4.2553   51.9528   30.8659 C   0  0  0  0  0  0
    7.2714   55.7209   25.2421 H   0  0  0  0  0  0
    6.1584   54.7931   24.2491 H   0  0  0  0  0  0
    5.6380   56.3113   24.9835 H   0  0  0  0  0  0
    5.8692   55.2960   27.2599 H   0  0  0  0  0  0
    6.4382   53.8051   26.5440 H   0  0  0  0  0  0
   -0.3102   52.5571   23.3919 H   0  0  0  0  0  0
   -0.6222   51.4538   26.7772 H   0  0  0  0  0  0
   -1.2952   49.1763   26.6932 H   0  0  0  0  0  0
   -0.8293   47.2047   25.2752 H   0  0  0  0  0  0
   -1.7475   48.0381   24.0327 H   0  0  0  0  0  0
   -4.0476   49.2435   25.2885 H   0  0  0  0  0  0
   -4.9538   48.0289   26.1251 H   0  0  0  0  0  0
   -4.4850   48.2056   23.1881 H   0  0  0  0  0  0
   -5.7955   47.4082   24.0549 H   0  0  0  0  0  0
   -3.2564   46.2506   23.0813 H   0  0  0  0  0  0
   -4.6226   45.3844   23.7748 H   0  0  0  0  0  0
    0.6225   51.0492   28.5108 H   0  0  0  0  0  0
   -0.6797   51.2967   30.5672 H   0  0  0  0  0  0
   -0.6063   53.3911   31.8329 H   0  0  0  0  0  0
    0.6130   55.3350   30.9537 H   0  0  0  0  0  0
    1.5896   56.4714   29.0867 H   0  0  0  0  0  0
    3.1020   55.5542   29.1688 H   0  0  0  0  0  0
    2.1551   55.6222   27.6815 H   0  0  0  0  0  0
    3.5547   51.2978   31.3851 H   0  0  0  0  0  0
    5.2297   51.4726   30.8805 H   0  0  0  0  0  0
    4.3046   52.8860   31.4287 H   0  0  0  0  0  0
  1  2  1  0  0  0
  1 35  1  0  0  0
  1 36  1  0  0  0
  1 37  1  0  0  0
  2  3  1  0  0  0
  2 38  1  0  0  0
  2 39  1  0  0  0
  3 12  1  0  0  0
  3  4  2  0  0  0
  4  5  1  0  0  0
  4 31  1  0  0  0
  5  6  1  0  0  0
  5  7  1  0  0  0
  5 24  1  0  0  0
  7 11  1  0  0  0
  7  8  1  0  0  0
  8  9  2  0  0  0
  8 13  1  0  0  0
  9 10  1  0  0  0
  9 40  1  0  0  0
 10 11  1  0  0  0
 11 12  2  0  0  0
 13 14  2  0  0  0
 13 41  1  0  0  0
 14 15  1  0  0  0
 14 16  1  0  0  0
 16 17  1  0  0  0
 16 42  1  0  0  0
 17 18  1  0  0  0
 17 43  1  0  0  0
 17 44  1  0  0  0
 18 19  1  0  0  0
 18 23  1  0  0  0
 18 20  1  0  0  0
 20 21  1  0  0  0
 20 45  1  0  0  0
 20 46  1  0  0  0
 21 22  1  0  0  0
 21 47  1  0  0  0
 21 48  1  0  0  0
 22 23  1  0  0  0
 22 49  1  0  0  0
 22 50  1  0  0  0
 24 29  2  0  0  0
 24 25  1  0  0  0
 25 26  2  0  0  0
 25 51  1  0  0  0
 26 27  1  0  0  0
 26 52  1  0  0  0
 27 28  2  0  0  0
 27 53  1  0  0  0
 28 29  1  0  0  0
 28 54  1  0  0  0
 29 30  1  0  0  0
 30 55  1  0  0  0
 30 56  1  0  0  0
 30 57  1  0  0  0
 31 32  2  0  0  0
 31 33  1  0  0  0
 33 34  1  0  0  0
 34 58  1  0  0  0
 34 59  1  0  0  0
 34 60  1  0  0  0
M  CHG  1  15  -1
M  END
> <i_i_glide_confnum>
541

> <i_i_glide_lignum>
5659

> <i_i_glide_posenum>
183

> <i_i_glide_rotatable_bonds>
8

> <i_m_Source_File_Index>
4907

> <b_m_subgroup_collapsed>
0

> <r_i_docking_score>
-7.15038

> <r_i_glide_ecoul>
-4.2964

> <r_i_glide_eff_state_penalty>
0

> <r_i_glide_einternal>
10.4727

> <r_i_glide_emodel>
-63.9878

> <r_i_glide_energy>
-48.7436

> <r_i_glide_erotb>
0.48595

> <r_i_glide_esite>
-0.1

> <r_i_glide_evdw>
-44.4472

> <r_i_glide_gscore>
-7.15038

> <r_i_glide_hbond>
-0.266047

> <r_i_glide_ligand_efficiency>
-0.223449

> <r_i_glide_ligand_efficiency_ln>
-1.60117

> <r_i_glide_ligand_efficiency_sa>
-0.709408

> <r_i_glide_lipo>
-3.07998

> <r_i_glide_metal>
0

> <r_i_glide_rewards>
-1.32348

> <s_i_glide_gridfile>
wee1_glide-grid

> <s_m_Source_File>
wee1_decoys_glide_SP.sdf

> <s_m_Source_Path>
/Users/zhangxujun/Desktop

> <s_m_entry_id>
5182

> <s_m_entry_name>
wee1_decoys_glide_SP.4907

> <s_m_subgroup_title>
wee1_decoys_glide_SP

> <s_m_subgroupid>
wee1_decoys_glide_SP


$$$$
