ZINC62061085_1343
                    3D
 Schrodinger Suite 2024-2.
 54 56  0  0  1  0            999 V2000
   -5.5013   46.9291   30.9205 C   0  0  0  0  0  0
   -5.5149   48.3401   30.3605 C   0  0  0  0  0  0
   -6.1600   49.3430   31.0959 C   0  0  0  0  0  0
   -6.1353   50.6685   30.6652 C   0  0  0  0  0  0
   -5.4672   51.0055   29.4914 C   0  0  0  0  0  0
   -4.8141   50.0211   28.7540 C   0  0  0  0  0  0
   -4.8388   48.6860   29.1709 C   0  0  0  0  0  0
   -4.0956   47.7948   28.3795 N   0  0  0  0  0  0
   -4.5692   46.7316   27.6821 C   0  0  0  0  0  0
   -5.6715   46.2174   27.9006 O   0  0  0  0  0  0
   -3.7139   46.2437   26.5343 C   0  0  0  0  0  0
   -4.0957   45.3281   25.7963 O   0  0  0  0  0  0
   -2.5469   46.8915   26.3030 N   0  0  0  0  0  0
   -1.7357   46.7528   25.0872 C   0  0  0  0  0  0
   -1.1602   48.0659   24.5754 C   0  0  0  0  0  0
   -1.2998   48.4483   23.2347 C   0  0  0  0  0  0
   -0.7392   49.6523   22.7930 C   0  0  0  0  0  0
   -0.0366   50.4723   23.6911 C   0  0  0  0  0  0
    0.0572   50.0642   24.9763 N   0  3  0  0  0  0
   -0.4584   48.9097   25.4396 C   0  0  0  0  0  0
    0.5444   51.7256   23.3041 N   0  0  0  0  0  0
    0.9542   52.0329   21.9084 C   0  0  0  0  0  0
    2.4236   52.5007   21.8588 C   0  0  0  0  0  0
    2.6908   53.6872   22.7999 C   0  0  0  0  0  0
    2.2527   53.2935   24.2210 C   0  0  0  0  0  0
    0.7801   52.8403   24.2600 C   0  0  0  0  0  0
    4.1642   54.1237   22.7561 C   0  0  0  0  0  0
   -6.7422   51.6356   31.3896 F   0  0  0  0  0  0
   -4.5136   46.4964   30.7752 H   0  0  0  0  0  0
   -5.6957   46.9126   31.9926 H   0  0  0  0  0  0
   -6.2473   46.3115   30.4229 H   0  0  0  0  0  0
   -6.6672   49.1045   32.0187 H   0  0  0  0  0  0
   -5.4468   52.0306   29.1564 H   0  0  0  0  0  0
   -4.2837   50.3029   27.8556 H   0  0  0  0  0  0
   -3.1307   48.0965   28.2291 H   0  0  0  0  0  0
   -2.1806   47.5329   27.0096 H   0  0  0  0  0  0
   -0.8953   46.0950   25.2852 H   0  0  0  0  0  0
   -2.2963   46.2642   24.2866 H   0  0  0  0  0  0
   -1.8382   47.8250   22.5355 H   0  0  0  0  0  0
   -0.8697   49.9401   21.7601 H   0  0  0  0  0  0
   -0.2783   48.6918   26.4819 H   0  0  0  0  0  0
    0.8657   51.1377   21.2948 H   0  0  0  0  0  0
    0.2614   52.7663   21.4946 H   0  0  0  0  0  0
    3.0796   51.6665   22.1188 H   0  0  0  0  0  0
    2.7062   52.7623   20.8382 H   0  0  0  0  0  0
    2.0551   54.5160   22.4830 H   0  0  0  0  0  0
    2.4130   54.1272   24.9067 H   0  0  0  0  0  0
    2.8914   52.4967   24.6017 H   0  0  0  0  0  0
    0.0877   53.6462   24.0079 H   0  0  0  0  0  0
    0.5172   52.5337   25.2726 H   0  0  0  0  0  0
    4.8375   53.2939   22.9727 H   0  0  0  0  0  0
    4.4289   54.5191   21.7739 H   0  0  0  0  0  0
    4.3682   54.8966   23.4942 H   0  0  0  0  0  0
    0.5619   50.6531   25.6250 H   0  0  0  0  0  0
  1  2  1  0  0  0
  1 29  1  0  0  0
  1 30  1  0  0  0
  1 31  1  0  0  0
  2  7  2  0  0  0
  2  3  1  0  0  0
  3  4  2  0  0  0
  3 32  1  0  0  0
  4  5  1  0  0  0
  4 28  1  0  0  0
  5  6  2  0  0  0
  5 33  1  0  0  0
  6  7  1  0  0  0
  6 34  1  0  0  0
  7  8  1  0  0  0
  8  9  1  0  0  0
  8 35  1  0  0  0
  9 10  2  0  0  0
  9 11  1  0  0  0
 11 12  2  0  0  0
 11 13  1  0  0  0
 13 14  1  0  0  0
 13 36  1  0  0  0
 14 15  1  0  0  0
 14 37  1  0  0  0
 14 38  1  0  0  0
 15 20  2  0  0  0
 15 16  1  0  0  0
 16 17  2  0  0  0
 16 39  1  0  0  0
 17 18  1  0  0  0
 17 40  1  0  0  0
 18 19  2  0  0  0
 18 21  1  0  0  0
 19 20  1  0  0  0
 19 54  1  0  0  0
 20 41  1  0  0  0
 21 26  1  0  0  0
 21 22  1  0  0  0
 22 23  1  0  0  0
 22 42  1  0  0  0
 22 43  1  0  0  0
 23 24  1  0  0  0
 23 44  1  0  0  0
 23 45  1  0  0  0
 24 25  1  0  0  0
 24 27  1  0  0  0
 24 46  1  0  0  0
 25 26  1  0  0  0
 25 47  1  0  0  0
 25 48  1  0  0  0
 26 49  1  0  0  0
 26 50  1  0  0  0
 27 51  1  0  0  0
 27 52  1  0  0  0
 27 53  1  0  0  0
M  CHG  1  19   1
M  END
> <i_i_glide_confnum>
116

> <i_i_glide_lignum>
1344

> <i_i_glide_posenum>
125

> <i_i_glide_rotatable_bonds>
7

> <i_m_Source_File_Index>
1139

> <b_m_subgroup_collapsed>
0

> <r_i_docking_score>
-5.02145

> <r_i_glide_ecoul>
-13.6644

> <r_i_glide_eff_state_penalty>
0

> <r_i_glide_einternal>
8.19796

> <r_i_glide_emodel>
-51.9003

> <r_i_glide_energy>
-40.2512

> <r_i_glide_erotb>
0.916518

> <r_i_glide_esite>
-0.407516

> <r_i_glide_evdw>
-26.5868

> <r_i_glide_gscore>
-5.02145

> <r_i_glide_hbond>
-0.456

> <r_i_glide_ligand_efficiency>
-0.179338

> <r_i_glide_ligand_efficiency_ln>
-1.1591

> <r_i_glide_ligand_efficiency_sa>
-0.544575

> <r_i_glide_lipo>
-0.869502

> <r_i_glide_metal>
0

> <r_i_glide_rewards>
-0.825951

> <s_i_glide_gridfile>
wee1_glide-grid

> <s_m_Source_File>
wee1_decoys_glide_SP.sdf

> <s_m_Source_Path>
/Users/zhangxujun/Desktop

> <s_m_entry_id>
1414

> <s_m_entry_name>
wee1_decoys_glide_SP.1139

> <s_m_subgroup_title>
wee1_decoys_glide_SP

> <s_m_subgroupid>
wee1_decoys_glide_SP


$$$$
