ZINC38547039_3479
                    3D
 Schrodinger Suite 2024-2.
 57 60  0  0  1  0            999 V2000
   -2.3944   46.0562   23.6250 C   0  0  0  0  0  0
   -1.6144   47.3377   23.7250 C   0  0  0  0  0  0
   -1.1914   47.9713   22.5522 C   0  0  0  0  0  0
   -0.4114   49.1217   22.6439 C   0  0  0  0  0  0
   -0.1285   49.6162   23.8626 N   0  3  0  0  0  0
   -0.5662   49.0776   25.0220 C   0  0  0  0  0  0
   -1.2964   47.8905   24.9708 C   0  0  0  0  0  0
   -0.3659   49.7535   26.2572 N   0  0  0  0  0  0
   -0.0915   51.1999   26.2794 C   0  0  2  0  0  0
    0.8150   51.2529   25.6797 H   0  0  0  0  0  0
    0.3258   51.7499   27.6470 C   0  0  0  0  0  0
   -0.4497   51.5483   28.7938 C   0  0  0  0  0  0
   -0.0687   52.0968   30.0102 C   0  0  0  0  0  0
    1.1171   52.8095   30.0932 C   0  0  0  0  0  0
    1.9208   52.9963   28.9754 C   0  0  0  0  0  0
    1.5234   52.4677   27.7533 C   0  0  0  0  0  0
    1.5045   53.2970   31.2815 F   0  0  0  0  0  0
   -1.1921   52.0098   25.5743 C   0  0  0  0  0  0
   -2.5652   52.1277   25.9658 C   0  0  0  0  0  0
   -3.3418   52.8614   25.0619 C   0  0  0  0  0  0
   -2.4228   53.2965   23.6815 S   0  0  0  0  0  0
   -0.9876   52.6317   24.3357 C   0  0  0  0  0  0
    0.1301   52.6736   23.5144 N   0  0  0  0  0  0
    1.3041   53.2589   23.8298 C   0  0  0  0  0  0
    1.5045   53.8664   24.8807 O   0  0  0  0  0  0
    2.3978   53.1596   22.7885 C   0  0  0  0  0  0
    2.4067   52.1371   21.8241 C   0  0  0  0  0  0
    3.4293   52.0620   20.8826 C   0  0  0  0  0  0
    4.4520   53.0039   20.8975 C   0  0  0  0  0  0
    4.4664   54.0187   21.8482 C   0  0  0  0  0  0
    3.4437   54.0940   22.7911 C   0  0  0  0  0  0
   -4.8073   53.2377   25.1148 C   0  0  0  0  0  0
   -3.2196   51.4568   27.1541 C   0  0  0  0  0  0
   -3.2144   46.1604   22.9116 H   0  0  0  0  0  0
   -1.7041   45.2952   23.2564 H   0  0  0  0  0  0
   -2.8178   45.7661   24.5876 H   0  0  0  0  0  0
   -1.4354   47.5592   21.5831 H   0  0  0  0  0  0
   -0.0194   49.6637   21.7951 H   0  0  0  0  0  0
   -1.6327   47.4331   25.8933 H   0  0  0  0  0  0
   -0.7090   49.3127   27.1115 H   0  0  0  0  0  0
   -1.3287   50.9288   28.7858 H   0  0  0  0  0  0
   -0.6691   51.9282   30.8936 H   0  0  0  0  0  0
    2.8469   53.5452   29.0559 H   0  0  0  0  0  0
    2.1612   52.6108   26.8958 H   0  0  0  0  0  0
   -0.0097   52.4427   22.5431 H   0  0  0  0  0  0
    1.6342   51.3844   21.7917 H   0  0  0  0  0  0
    3.4360   51.2785   20.1382 H   0  0  0  0  0  0
    5.2394   52.9462   20.1599 H   0  0  0  0  0  0
    5.2656   54.7449   21.8522 H   0  0  0  0  0  0
    3.4673   54.8919   23.5201 H   0  0  0  0  0  0
   -5.2005   53.2404   26.1335 H   0  0  0  0  0  0
   -4.9864   54.2350   24.7097 H   0  0  0  0  0  0
   -5.4176   52.5417   24.5364 H   0  0  0  0  0  0
   -2.7835   50.4861   27.3762 H   0  0  0  0  0  0
   -3.1862   52.0938   28.0387 H   0  0  0  0  0  0
   -4.2683   51.2291   26.9679 H   0  0  0  0  0  0
    0.4020   50.4718   23.9291 H   0  0  0  0  0  0
  1  2  1  0  0  0
  1 34  1  0  0  0
  1 35  1  0  0  0
  1 36  1  0  0  0
  2  7  2  0  0  0
  2  3  1  0  0  0
  3  4  2  0  0  0
  3 37  1  0  0  0
  4  5  1  0  0  0
  4 38  1  0  0  0
  5  6  2  0  0  0
  5 57  1  0  0  0
  6  7  1  0  0  0
  6  8  1  0  0  0
  7 39  1  0  0  0
  8  9  1  0  0  0
  8 40  1  0  0  0
  9 10  1  0  0  0
  9 11  1  0  0  0
  9 18  1  0  0  0
 11 16  2  0  0  0
 11 12  1  0  0  0
 12 13  2  0  0  0
 12 41  1  0  0  0
 13 14  1  0  0  0
 13 42  1  0  0  0
 14 15  2  0  0  0
 14 17  1  0  0  0
 15 16  1  0  0  0
 15 43  1  0  0  0
 16 44  1  0  0  0
 18 22  2  0  0  0
 18 19  1  0  0  0
 19 20  2  0  0  0
 19 33  1  0  0  0
 20 21  1  0  0  0
 20 32  1  0  0  0
 21 22  1  0  0  0
 22 23  1  0  0  0
 23 24  1  0  0  0
 23 45  1  0  0  0
 24 25  2  0  0  0
 24 26  1  0  0  0
 26 31  2  0  0  0
 26 27  1  0  0  0
 27 28  2  0  0  0
 27 46  1  0  0  0
 28 29  1  0  0  0
 28 47  1  0  0  0
 29 30  2  0  0  0
 29 48  1  0  0  0
 30 31  1  0  0  0
 30 49  1  0  0  0
 31 50  1  0  0  0
 32 51  1  0  0  0
 32 52  1  0  0  0
 32 53  1  0  0  0
 33 54  1  0  0  0
 33 55  1  0  0  0
 33 56  1  0  0  0
M  CHG  1   5   1
M  END
> <i_i_glide_confnum>
123

> <i_i_glide_lignum>
3480

> <i_i_glide_posenum>
383

> <i_i_glide_rotatable_bonds>
7

> <i_m_Source_File_Index>
608

> <b_m_subgroup_collapsed>
0

> <r_i_docking_score>
-3.86346

> <r_i_glide_ecoul>
-1.96927

> <r_i_glide_eff_state_penalty>
0

> <r_i_glide_einternal>
10.2941

> <r_i_glide_emodel>
-45.2496

> <r_i_glide_energy>
-38.7451

> <r_i_glide_erotb>
0.70266

> <r_i_glide_esite>
-0.152294

> <r_i_glide_evdw>
-36.7758

> <r_i_glide_gscore>
-3.86346

> <r_i_glide_hbond>
-0.2

> <r_i_glide_ligand_efficiency>
-0.120733

> <r_i_glide_ligand_efficiency_ln>
-0.865133

> <r_i_glide_ligand_efficiency_sa>
-0.383303

> <r_i_glide_lipo>
-1.43095

> <r_i_glide_metal>
0

> <r_i_glide_rewards>
-0.648694

> <s_i_glide_gridfile>
wee1_glide-grid

> <s_m_Source_File>
wee1_decoys_glide_SP.sdf

> <s_m_Source_Path>
/Users/zhangxujun/Desktop

> <s_m_entry_id>
883

> <s_m_entry_name>
wee1_decoys_glide_SP.608

> <s_m_subgroup_title>
wee1_decoys_glide_SP

> <s_m_subgroupid>
wee1_decoys_glide_SP


$$$$
