ZINC05149619_4593
                    3D
 Schrodinger Suite 2024-2.
 49 52  0  0  1  0            999 V2000
   -6.9423   50.2601   22.7409 C   0  0  0  0  0  0
   -5.9101   50.1766   23.8681 C   0  0  0  0  0  0
   -4.9200   51.1685   23.6280 O   0  0  0  0  0  0
   -3.8578   51.2977   24.4991 C   0  0  0  0  0  0
   -3.6738   50.5159   25.6497 C   0  0  0  0  0  0
   -2.5724   50.7290   26.4758 C   0  0  0  0  0  0
   -1.6424   51.7303   26.1648 C   0  0  0  0  0  0
   -1.8236   52.4971   25.0117 C   0  0  0  0  0  0
   -2.9231   52.2818   24.1882 C   0  0  0  0  0  0
   -0.4671   51.9830   27.0569 C   0  0  0  0  0  0
    0.7936   52.5693   26.8509 C   0  0  0  0  0  0
    1.4072   52.4755   28.1138 C   0  0  0  0  0  0
    0.6619   51.9291   29.0393 N   0  0  0  0  0  0
   -0.4634   51.6341   28.3875 N   0  0  0  0  0  0
   -1.2225   51.1508   28.8462 H   0  0  0  0  0  0
    2.6760   52.8942   28.4253 O   0  0  0  0  0  0
    3.3902   53.3991   27.3845 C   0  0  0  0  0  0
    2.9741   53.5286   26.0987 C   0  0  0  0  0  0
    1.5510   53.1474   25.6330 C   0  0  1  0  0  0
    1.1043   54.0964   25.3467 H   0  0  0  0  0  0
    1.4952   52.3154   24.3351 C   0  0  0  0  0  0
    1.8449   52.9181   23.1193 C   0  0  0  0  0  0
    1.8681   52.1738   21.9419 C   0  0  0  0  0  0
    1.5247   50.8204   21.9650 C   0  0  0  0  0  0
    1.1259   50.2236   23.1592 C   0  0  0  0  0  0
    1.1038   50.9668   24.3364 C   0  0  0  0  0  0
    1.5876   49.8196   20.5019 S   0  0  0  0  0  0
    2.5305   50.7170   19.2327 C   0  0  0  0  0  0
    3.8867   54.0733   25.1452 C   0  0  0  0  0  0
    4.6639   54.4965   24.4005 N   0  0  0  0  0  0
    4.6282   53.7246   27.8693 N   0  0  0  0  0  0
   -7.7302   49.5179   22.8752 H   0  0  0  0  0  0
   -7.4101   51.2460   22.7089 H   0  0  0  0  0  0
   -6.4757   50.0827   21.7703 H   0  0  0  0  0  0
   -5.4575   49.1834   23.8852 H   0  0  0  0  0  0
   -6.3943   50.3453   24.8320 H   0  0  0  0  0  0
   -4.3714   49.7382   25.9198 H   0  0  0  0  0  0
   -2.4443   50.0965   27.3433 H   0  0  0  0  0  0
   -1.1211   53.2774   24.7524 H   0  0  0  0  0  0
   -3.0530   52.8816   23.2987 H   0  0  0  0  0  0
    2.1242   53.9614   23.0864 H   0  0  0  0  0  0
    2.1636   52.6622   21.0250 H   0  0  0  0  0  0
    0.8596   49.1762   23.1815 H   0  0  0  0  0  0
    0.8214   50.4638   25.2522 H   0  0  0  0  0  0
    2.6999   50.0810   18.3628 H   0  0  0  0  0  0
    3.5057   51.0173   19.6162 H   0  0  0  0  0  0
    1.9905   51.6055   18.9047 H   0  0  0  0  0  0
    5.3179   54.1585   27.2732 H   0  0  0  0  0  0
    4.9596   53.3106   28.7283 H   0  0  0  0  0  0
  1  2  1  0  0  0
  1 32  1  0  0  0
  1 33  1  0  0  0
  1 34  1  0  0  0
  2  3  1  0  0  0
  2 35  1  0  0  0
  2 36  1  0  0  0
  3  4  1  0  0  0
  4  9  2  0  0  0
  4  5  1  0  0  0
  5  6  2  0  0  0
  5 37  1  0  0  0
  6  7  1  0  0  0
  6 38  1  0  0  0
  7  8  2  0  0  0
  7 10  1  0  0  0
  8  9  1  0  0  0
  8 39  1  0  0  0
  9 40  1  0  0  0
 10 14  1  0  0  0
 10 11  2  0  0  0
 11 19  1  0  0  0
 11 12  1  0  0  0
 12 13  2  0  0  0
 12 16  1  0  0  0
 13 14  1  0  0  0
 14 15  1  0  0  0
 16 17  1  0  0  0
 17 18  2  0  0  0
 17 31  1  0  0  0
 18 19  1  0  0  0
 18 29  1  0  0  0
 19 20  1  0  0  0
 19 21  1  0  0  0
 21 26  2  0  0  0
 21 22  1  0  0  0
 22 23  2  0  0  0
 22 41  1  0  0  0
 23 24  1  0  0  0
 23 42  1  0  0  0
 24 25  2  0  0  0
 24 27  1  0  0  0
 25 26  1  0  0  0
 25 43  1  0  0  0
 26 44  1  0  0  0
 27 28  1  0  0  0
 28 45  1  0  0  0
 28 46  1  0  0  0
 28 47  1  0  0  0
 29 30  3  0  0  0
 31 48  1  0  0  0
 31 49  1  0  0  0
M  END
> <i_i_glide_confnum>
7

> <i_i_glide_lignum>
4594

> <i_i_glide_posenum>
371

> <i_i_glide_rotatable_bonds>
6

> <i_m_Source_File_Index>
5204

> <b_m_subgroup_collapsed>
0

> <r_i_docking_score>
-4.30023

> <r_i_glide_ecoul>
-3.78538

> <r_i_glide_eff_state_penalty>
0

> <r_i_glide_einternal>
6.94082

> <r_i_glide_emodel>
-44.4146

> <r_i_glide_energy>
-37.424

> <r_i_glide_erotb>
0.360193

> <r_i_glide_esite>
-0.0549547

> <r_i_glide_evdw>
-33.6386

> <r_i_glide_gscore>
-4.30023

> <r_i_glide_hbond>
0

> <r_i_glide_ligand_efficiency>
-0.148284

> <r_i_glide_ligand_efficiency_ln>
-0.984644

> <r_i_glide_ligand_efficiency_sa>
-0.455575

> <r_i_glide_lipo>
-1.38525

> <r_i_glide_metal>
0

> <r_i_glide_rewards>
-0.970477

> <s_i_glide_gridfile>
wee1_glide-grid

> <s_m_Source_File>
wee1_decoys_glide_SP.sdf

> <s_m_Source_Path>
/Users/zhangxujun/Desktop

> <s_m_entry_id>
5479

> <s_m_entry_name>
wee1_decoys_glide_SP.5204

> <s_m_subgroup_title>
wee1_decoys_glide_SP

> <s_m_subgroupid>
wee1_decoys_glide_SP


$$$$
