ZINC39210897_2824
                    3D
 Schrodinger Suite 2024-2.
 45 49  0  0  1  0            999 V2000
   -0.4766   52.0979   19.0641 C   0  0  0  0  0  0
   -0.3023   51.9826   17.6878 C   0  0  0  0  0  0
   -1.1439   51.1547   16.9507 C   0  0  0  0  0  0
   -2.1601   50.4409   17.5788 C   0  0  0  0  0  0
   -2.3357   50.5531   18.9559 C   0  0  0  0  0  0
   -1.4922   51.3809   19.7114 C   0  0  0  0  0  0
   -1.6836   51.4979   21.1715 C   0  0  0  0  0  0
   -2.7807   51.2967   21.7757 N   0  0  0  0  0  0
   -2.7112   51.6074   23.0012 N   0  0  0  0  0  0
   -1.5514   52.0015   23.2951 C   0  0  0  0  0  0
   -0.5856   51.8978   22.1489 C   0  0  1  0  0  0
   -0.2137   52.8929   21.8941 H   0  0  0  0  0  0
    0.6244   50.9175   22.4042 C   0  0  2  0  0  0
    0.2689   50.1033   23.0402 H   0  0  0  0  0  0
    1.9044   51.5043   23.1040 C   0  0  2  0  0  0
    2.5396   50.6882   23.4501 H   0  0  0  0  0  0
    1.9043   52.6447   24.1074 C   0  0  0  0  0  0
    2.4588   53.6871   23.6198 N   0  0  0  0  0  0
    2.9073   53.4975   22.4402 N   0  0  0  0  0  0
    2.6407   52.3219   22.0803 C   0  0  0  0  0  0
    2.9021   51.8033   20.8341 O   0  0  0  0  0  0
    2.1735   50.7159   20.4444 C   0  0  0  0  0  0
    1.1076   50.2117   21.1160 C   0  0  0  0  0  0
    0.4386   49.0391   20.6511 C   0  0  0  0  0  0
   -0.1015   48.0952   20.2577 N   0  0  0  0  0  0
    2.7044   50.2386   19.2787 N   0  0  0  0  0  0
    1.4389   52.5025   25.5058 C   0  0  0  0  0  0
    0.6108   51.4415   25.9012 C   0  0  0  0  0  0
    0.2005   51.3184   27.2272 C   0  0  0  0  0  0
    0.6274   52.2486   28.1709 C   0  0  0  0  0  0
    1.4760   53.2886   27.8027 C   0  0  0  0  0  0
    1.8885   53.4095   26.4784 C   0  0  0  0  0  0
    0.0524   52.0975   29.9787 Br  0  0  0  0  0  0
   -0.9748   51.0448   15.6142 F   0  0  0  0  0  0
    0.1940   52.7454   19.6121 H   0  0  0  0  0  0
    0.4856   52.5307   17.1918 H   0  0  0  0  0  0
   -2.8063   49.7999   16.9973 H   0  0  0  0  0  0
   -3.1244   49.9847   19.4296 H   0  0  0  0  0  0
   -1.3055   52.3756   24.2831 H   0  0  0  0  0  0
    3.6396   50.4966   18.9703 H   0  0  0  0  0  0
    2.2546   49.4997   18.7575 H   0  0  0  0  0  0
    0.2765   50.6943   25.1990 H   0  0  0  0  0  0
   -0.4446   50.5012   27.5243 H   0  0  0  0  0  0
    1.8138   53.9998   28.5417 H   0  0  0  0  0  0
    2.5558   54.2190   26.2185 H   0  0  0  0  0  0
  1  6  2  0  0  0
  1  2  1  0  0  0
  1 35  1  0  0  0
  2  3  2  0  0  0
  2 36  1  0  0  0
  3  4  1  0  0  0
  3 34  1  0  0  0
  4  5  2  0  0  0
  4 37  1  0  0  0
  5  6  1  0  0  0
  5 38  1  0  0  0
  6  7  1  0  0  0
  7 11  1  0  0  0
  7  8  2  0  0  0
  8  9  1  0  0  0
  9 10  2  0  0  0
 10 11  1  0  0  0
 10 39  1  0  0  0
 11 12  1  0  0  0
 11 13  1  0  0  0
 13 14  1  0  0  0
 13 23  1  0  0  0
 13 15  1  0  0  0
 15 16  1  0  0  0
 15 20  1  0  0  0
 15 17  1  0  0  0
 17 18  2  0  0  0
 17 27  1  0  0  0
 18 19  1  0  0  0
 19 20  2  0  0  0
 20 21  1  0  0  0
 21 22  1  0  0  0
 22 23  2  0  0  0
 22 26  1  0  0  0
 23 24  1  0  0  0
 24 25  3  0  0  0
 26 40  1  0  0  0
 26 41  1  0  0  0
 27 32  2  0  0  0
 27 28  1  0  0  0
 28 29  2  0  0  0
 28 42  1  0  0  0
 29 30  1  0  0  0
 29 43  1  0  0  0
 30 31  2  0  0  0
 30 33  1  0  0  0
 31 32  1  0  0  0
 31 44  1  0  0  0
 32 45  1  0  0  0
M  END
> <i_i_glide_confnum>
3

> <i_i_glide_lignum>
2825

> <i_i_glide_posenum>
324

> <i_i_glide_rotatable_bonds>
4

> <i_m_Source_File_Index>
5327

> <b_m_subgroup_collapsed>
0

> <r_i_docking_score>
-3.48617

> <r_i_glide_ecoul>
-4.33657

> <r_i_glide_eff_state_penalty>
0

> <r_i_glide_einternal>
3.09089

> <r_i_glide_emodel>
-42.3332

> <r_i_glide_energy>
-35.7075

> <r_i_glide_erotb>
0.266755

> <r_i_glide_esite>
-0.119938

> <r_i_glide_evdw>
-31.3709

> <r_i_glide_gscore>
-3.48617

> <r_i_glide_hbond>
-0.16

> <r_i_glide_ligand_efficiency>
-0.112457

> <r_i_glide_ligand_efficiency_ln>
-0.786237

> <r_i_glide_ligand_efficiency_sa>
-0.35327

> <r_i_glide_lipo>
-0.722808

> <r_i_glide_metal>
0

> <r_i_glide_rewards>
-0.531145

> <s_i_glide_gridfile>
wee1_glide-grid

> <s_m_Source_File>
wee1_decoys_glide_SP.sdf

> <s_m_Source_Path>
/Users/zhangxujun/Desktop

> <s_m_entry_id>
5602

> <s_m_entry_name>
wee1_decoys_glide_SP.5327

> <s_m_subgroup_title>
wee1_decoys_glide_SP

> <s_m_subgroupid>
wee1_decoys_glide_SP


$$$$
