ZINC09634070_3045
                    3D
 Schrodinger Suite 2024-2.
 64 67  0  0  1  0            999 V2000
   15.3813   49.9977   11.9570 C   0  0  0  0  0  0
   15.0336   49.4348   13.3433 C   0  0  0  0  0  0
   16.0488   49.9166   14.3961 C   0  0  0  0  0  0
   13.6418   49.8103   13.6828 N   0  0  0  0  0  0
   12.9164   49.1224   15.1318 S   0  0  0  0  0  0
   12.7051   47.6943   14.8812 O   0  0  0  0  0  0
   13.6996   49.5540   16.2945 O   0  0  0  0  0  0
   11.3008   49.8867   15.2855 C   0  0  0  0  0  0
   10.4881   50.0712   14.1663 C   0  0  0  0  0  0
    9.2502   50.7006   14.3023 C   0  0  0  0  0  0
    8.8158   51.1403   15.5643 C   0  0  0  0  0  0
    9.6217   50.9177   16.6805 C   0  0  0  0  0  0
   10.8607   50.3001   16.5436 C   0  0  0  0  0  0
    7.5581   51.7246   15.8184 N   0  0  0  0  0  0
    6.6885   52.3006   14.9567 C   0  0  0  0  0  0
    6.9557   52.4982   13.7698 O   0  0  0  0  0  0
    5.2750   52.7109   15.4867 C   0  0  2  0  0  0
    4.6719   51.8068   15.3754 H   0  0  0  0  0  0
    4.6530   53.8319   14.6404 C   0  0  0  0  0  0
    3.8096   52.8834   17.5875 C   0  0  0  0  0  0
    3.8591   52.8980   19.1278 C   0  0  0  0  0  0
    4.6718   54.0802   19.7121 C   0  0  2  0  0  0
    6.0509   54.2217   19.0099 C   0  0  0  0  0  0
    5.9598   54.2091   17.4744 C   0  0  0  0  0  0
    4.7131   54.1091   21.2419 C   0  0  0  0  0  0
    5.7708   54.4872   21.9141 N   0  0  0  0  0  0
    5.5655   54.4829   23.2582 C   0  0  0  0  0  0
    6.5166   54.8601   24.2163 C   0  0  0  0  0  0
    6.1514   54.8457   25.5639 C   0  0  0  0  0  0
    4.8670   54.4736   25.9570 C   0  0  0  0  0  0
    3.9000   54.0967   25.0236 C   0  0  0  0  0  0
    4.2668   54.0983   23.6699 C   0  0  0  0  0  0
    3.3292   53.6944   22.2436 S   0  0  0  0  0  0
   16.3800   49.6872   11.6476 H   0  0  0  0  0  0
   15.3540   51.0881   11.9477 H   0  0  0  0  0  0
   14.6868   49.6396   11.1959 H   0  0  0  0  0  0
   15.0700   48.3450   13.2760 H   0  0  0  0  0  0
   17.0729   49.7720   14.0502 H   0  0  0  0  0  0
   15.9200   50.9760   14.6216 H   0  0  0  0  0  0
   15.9618   49.3575   15.3270 H   0  0  0  0  0  0
   13.0634   49.6377   12.8489 H   0  0  0  0  0  0
   10.8085   49.7285   13.1934 H   0  0  0  0  0  0
    8.6378   50.8132   13.4225 H   0  0  0  0  0  0
    9.3054   51.2245   17.6681 H   0  0  0  0  0  0
   11.4747   50.1468   17.4209 H   0  0  0  0  0  0
    7.2913   51.7044   16.7904 H   0  0  0  0  0  0
    4.5792   53.5292   13.5946 H   0  0  0  0  0  0
    3.6452   54.0659   14.9814 H   0  0  0  0  0  0
    5.2591   54.7369   14.6938 H   0  0  0  0  0  0
    3.2637   53.7318   17.1746 H   0  0  0  0  0  0
    3.3601   51.9481   17.2479 H   0  0  0  0  0  0
    2.8243   52.9461   19.4693 H   0  0  0  0  0  0
    4.3002   51.9539   19.4473 H   0  0  0  0  0  0
    4.1240   54.9634   19.3762 H   0  0  0  0  0  0
    6.7033   53.3934   19.2829 H   0  0  0  0  0  0
    6.5233   55.1646   19.2945 H   0  0  0  0  0  0
    6.9641   54.2041   17.0491 H   0  0  0  0  0  0
    5.3956   55.0532   17.0744 H   0  0  0  0  0  0
    7.5054   55.1611   23.9118 H   0  0  0  0  0  0
    6.8675   55.1333   26.3207 H   0  0  0  0  0  0
    4.6198   54.4702   27.0089 H   0  0  0  0  0  0
    2.9081   53.8005   25.3357 H   0  0  0  0  0  0
    5.2551   52.9025   17.0375 N   0  3  2  0  0  0
    5.7102   52.0943   17.4514 H   0  0  0  0  0  0
  1  2  1  0  0  0
  1 34  1  0  0  0
  1 35  1  0  0  0
  1 36  1  0  0  0
  2  3  1  0  0  0
  2  4  1  0  0  0
  2 37  1  0  0  0
  3 38  1  0  0  0
  3 39  1  0  0  0
  3 40  1  0  0  0
  4  5  1  0  0  0
  4 41  1  0  0  0
  5  6  2  0  0  0
  5  7  2  0  0  0
  5  8  1  0  0  0
  8 13  2  0  0  0
  8  9  1  0  0  0
  9 10  2  0  0  0
  9 42  1  0  0  0
 10 11  1  0  0  0
 10 43  1  0  0  0
 11 12  2  0  0  0
 11 14  1  0  0  0
 12 13  1  0  0  0
 12 44  1  0  0  0
 13 45  1  0  0  0
 14 15  1  0  0  0
 14 46  1  0  0  0
 15 16  2  0  0  0
 15 17  1  0  0  0
 17 18  1  0  0  0
 17 19  1  0  0  0
 17 63  1  0  0  0
 19 47  1  0  0  0
 19 48  1  0  0  0
 19 49  1  0  0  0
 20 21  1  0  0  0
 20 50  1  0  0  0
 20 51  1  0  0  0
 20 63  1  0  0  0
 21 22  1  0  0  0
 21 52  1  0  0  0
 21 53  1  0  0  0
 22 23  1  0  0  0
 22 25  1  0  0  0
 22 54  1  0  0  0
 23 24  1  0  0  0
 23 55  1  0  0  0
 23 56  1  0  0  0
 24 57  1  0  0  0
 24 58  1  0  0  0
 24 63  1  0  0  0
 25 33  1  0  0  0
 25 26  2  0  0  0
 26 27  1  0  0  0
 27 32  2  0  0  0
 27 28  1  0  0  0
 28 29  2  0  0  0
 28 59  1  0  0  0
 29 30  1  0  0  0
 29 60  1  0  0  0
 30 31  2  0  0  0
 30 61  1  0  0  0
 31 32  1  0  0  0
 31 62  1  0  0  0
 32 33  1  0  0  0
 63 64  1  0  0  0
M  CHG  1  63   1
M  END
> <i_i_glide_confnum>
123

> <i_i_glide_lignum>
3046

> <i_i_glide_posenum>
262

> <i_i_glide_rotatable_bonds>
8

> <i_m_Source_File_Index>
936

> <b_m_subgroup_collapsed>
0

> <r_i_docking_score>
-1.79577

> <r_i_glide_ecoul>
-7.3685

> <r_i_glide_eff_state_penalty>
0

> <r_i_glide_einternal>
9.95095

> <r_i_glide_emodel>
-34.6794

> <r_i_glide_energy>
-43.2247

> <r_i_glide_erotb>
0.59844

> <r_i_glide_esite>
-0.286418

> <r_i_glide_evdw>
-35.8562

> <r_i_glide_gscore>
-1.79577

> <r_i_glide_hbond>
-0.299241

> <r_i_glide_ligand_efficiency>
-0.0544171

> <r_i_glide_ligand_efficiency_ln>
-0.399369

> <r_i_glide_ligand_efficiency_sa>
-0.174545

> <r_i_glide_lipo>
-2.02723

> <r_i_glide_metal>
0

> <r_i_glide_rewards>
3.11677

> <s_i_glide_gridfile>
wee1_glide-grid

> <s_m_Source_File>
wee1_decoys_glide_SP.sdf

> <s_m_Source_Path>
/Users/zhangxujun/Desktop

> <s_m_entry_id>
1211

> <s_m_entry_name>
wee1_decoys_glide_SP.936

> <s_m_subgroup_title>
wee1_decoys_glide_SP

> <s_m_subgroupid>
wee1_decoys_glide_SP


$$$$
