ZINC13456981_1947
                    3D
 Schrodinger Suite 2024-2.
 44 47  0  0  1  0            999 V2000
    1.4937   52.7752   28.6729 C   0  0  0  0  0  0
    0.6862   52.4494   27.5883 C   0  0  0  0  0  0
    1.1041   52.7221   26.2874 C   0  0  0  0  0  0
    2.3632   53.3305   26.0509 C   0  0  0  0  0  0
    2.8237   53.6138   24.7435 C   0  0  0  0  0  0
    4.1011   54.1491   24.5236 C   0  0  0  0  0  0
    4.9245   54.4812   25.6190 C   0  0  0  0  0  0
    4.4621   54.2316   26.9208 C   0  0  0  0  0  0
    3.1949   53.6513   27.1611 C   0  0  0  0  0  0
    2.7373   53.3717   28.4755 C   0  0  0  0  0  0
    6.2973   55.0718   25.4386 C   0  0  0  0  0  0
    7.1022   54.9525   26.3910 O   0  0  0  0  0  0
    4.5296   54.3952   23.2342 O   0  0  0  0  0  0
    4.4255   53.3537   22.2598 C   0  0  0  0  0  0
    4.7980   53.9159   20.8786 C   0  0  0  0  0  0
    4.3371   53.3753   19.8730 O   0  0  0  0  0  0
    5.6529   54.9637   20.8410 N   0  0  0  0  0  0
    6.0366   55.6968   19.7023 C   0  0  0  0  0  0
    5.1043   56.0406   18.7077 C   0  0  0  0  0  0
    5.4923   56.8383   17.6347 C   0  0  0  0  0  0
    6.8180   57.2868   17.5356 C   0  0  0  0  0  0
    7.7552   56.9169   18.4944 C   0  0  0  0  0  0
    7.3682   56.1354   19.5833 C   0  0  0  0  0  0
    8.6951   55.6956   20.8828 Br  0  0  0  0  0  0
    7.2530   58.0595   16.4785 O   0  0  0  0  0  0
    6.1974   58.7802   15.8307 C   0  0  0  0  0  0
    5.0046   57.8315   15.5448 C   0  0  0  0  0  0
    4.5075   57.2430   16.7539 O   0  0  0  0  0  0
    1.1502   52.5573   29.6766 H   0  0  0  0  0  0
   -0.2717   51.9751   27.7561 H   0  0  0  0  0  0
    0.4726   52.4641   25.4489 H   0  0  0  0  0  0
    2.1699   53.3893   23.9129 H   0  0  0  0  0  0
    5.0807   54.4697   27.7749 H   0  0  0  0  0  0
    3.3651   53.6137   29.3211 H   0  0  0  0  0  0
    3.4203   52.9339   22.2033 H   0  0  0  0  0  0
    5.1189   52.5437   22.4907 H   0  0  0  0  0  0
    6.0883   55.2297   21.7157 H   0  0  0  0  0  0
    4.0717   55.7237   18.7858 H   0  0  0  0  0  0
    8.7780   57.2563   18.4067 H   0  0  0  0  0  0
    6.5722   59.2222   14.9062 H   0  0  0  0  0  0
    5.8633   59.5945   16.4795 H   0  0  0  0  0  0
    5.3324   57.0343   14.8735 H   0  0  0  0  0  0
    4.1988   58.3771   15.0526 H   0  0  0  0  0  0
    6.5663   55.6892   24.3830 O   0  5  0  0  0  0
  1 10  2  0  0  0
  1  2  1  0  0  0
  1 29  1  0  0  0
  2  3  2  0  0  0
  2 30  1  0  0  0
  3  4  1  0  0  0
  3 31  1  0  0  0
  4  9  2  0  0  0
  4  5  1  0  0  0
  5  6  2  0  0  0
  5 32  1  0  0  0
  6  7  1  0  0  0
  6 13  1  0  0  0
  7  8  2  0  0  0
  7 11  1  0  0  0
  8  9  1  0  0  0
  8 33  1  0  0  0
  9 10  1  0  0  0
 10 34  1  0  0  0
 11 12  2  0  0  0
 11 44  1  0  0  0
 13 14  1  0  0  0
 14 15  1  0  0  0
 14 35  1  0  0  0
 14 36  1  0  0  0
 15 16  2  0  0  0
 15 17  1  0  0  0
 17 18  1  0  0  0
 17 37  1  0  0  0
 18 23  2  0  0  0
 18 19  1  0  0  0
 19 20  2  0  0  0
 19 38  1  0  0  0
 20 28  1  0  0  0
 20 21  1  0  0  0
 21 22  2  0  0  0
 21 25  1  0  0  0
 22 23  1  0  0  0
 22 39  1  0  0  0
 23 24  1  0  0  0
 25 26  1  0  0  0
 26 27  1  0  0  0
 26 40  1  0  0  0
 26 41  1  0  0  0
 27 28  1  0  0  0
 27 42  1  0  0  0
 27 43  1  0  0  0
M  CHG  1  44  -1
M  END
> <i_i_glide_confnum>
36

> <i_i_glide_lignum>
1948

> <i_i_glide_posenum>
335

> <i_i_glide_rotatable_bonds>
6

> <i_m_Source_File_Index>
137

> <b_m_subgroup_collapsed>
0

> <r_i_docking_score>
-5.39083

> <r_i_glide_ecoul>
-2.5986

> <r_i_glide_eff_state_penalty>
0

> <r_i_glide_einternal>
5.32155

> <r_i_glide_emodel>
-54.9059

> <r_i_glide_energy>
-40.4441

> <r_i_glide_erotb>
0.38461

> <r_i_glide_esite>
0

> <r_i_glide_evdw>
-37.8455

> <r_i_glide_gscore>
-5.39083

> <r_i_glide_hbond>
-0.16

> <r_i_glide_ligand_efficiency>
-0.185891

> <r_i_glide_ligand_efficiency_ln>
-1.23436

> <r_i_glide_ligand_efficiency_sa>
-0.571115

> <r_i_glide_lipo>
-2.4109

> <r_i_glide_metal>
0

> <r_i_glide_rewards>
-0.922472

> <s_i_glide_gridfile>
wee1_glide-grid

> <s_m_Source_File>
wee1_decoys_glide_SP.sdf

> <s_m_Source_Path>
/Users/zhangxujun/Desktop

> <s_m_entry_id>
412

> <s_m_entry_name>
wee1_decoys_glide_SP.137

> <s_m_subgroup_title>
wee1_decoys_glide_SP

> <s_m_subgroupid>
wee1_decoys_glide_SP


$$$$
