ZINC03012150_2328
                    3D
 Schrodinger Suite 2024-2.
 59 62  0  0  1  0            999 V2000
    8.1401   56.1973   19.6369 C   0  0  0  0  0  0
    6.9918   55.5127   20.3566 C   0  0  0  0  0  0
    5.8976   55.0486   19.6291 C   0  0  0  0  0  0
    4.8579   54.3843   20.2751 C   0  0  0  0  0  0
    4.8976   54.1715   21.6567 C   0  0  0  0  0  0
    6.0207   54.6069   22.3970 C   0  0  0  0  0  0
    7.0441   55.2978   21.7371 C   0  0  0  0  0  0
    6.2061   54.2998   23.8773 C   0  0  0  0  0  0
    3.8084   53.4705   22.2002 N   0  0  0  0  0  0
    3.0377   53.8485   23.2412 C   0  0  0  0  0  0
    3.1803   54.8932   23.8769 O   0  0  0  0  0  0
    2.0066   52.9024   23.6035 C   0  0  0  0  0  0
    1.9043   51.5612   23.1782 C   0  0  0  0  0  0
    0.8878   51.0015   23.9135 C   0  0  0  0  0  0
    0.3726   52.0321   24.6740 N   0  0  0  0  0  0
    1.0617   53.1665   24.4865 N   0  0  0  0  0  0
   -0.6667   51.9189   25.6950 C   0  0  1  0  0  0
   -1.2744   52.8255   25.6583 H   0  0  0  0  0  0
   -1.5359   50.7040   25.2867 C   0  0  0  0  0  0
   -0.7190   49.4393   24.9089 C   0  0  2  0  0  0
   -0.2242   49.0561   25.8033 H   0  0  0  0  0  0
    0.3523   49.7311   23.9457 N   0  0  0  0  0  0
   -1.6502   48.3152   24.4706 C   0  0  0  0  0  0
   -1.9649   48.1074   23.1219 C   0  0  0  0  0  0
   -2.8459   47.0936   22.7561 C   0  0  0  0  0  0
   -3.4326   46.2875   23.7328 C   0  0  0  0  0  0
   -3.1233   46.4753   25.0911 C   0  0  0  0  0  0
   -2.2297   47.4958   25.4406 C   0  0  0  0  0  0
   -3.7049   45.6180   26.0097 O   0  0  0  0  0  0
   -3.4916   45.8479   27.4018 C   0  0  0  0  0  0
   -4.2849   45.2884   23.3309 O   0  0  0  0  0  0
   -5.6656   45.5825   23.5246 C   0  0  0  0  0  0
   -0.1001   51.8170   27.1341 C   0  0  0  0  0  0
    0.5997   52.8993   27.4680 F   0  0  0  0  0  0
   -1.0819   51.6957   28.0280 F   0  0  0  0  0  0
    0.7056   50.7676   27.2818 F   0  0  0  0  0  0
    8.3914   55.6447   18.7301 H   0  0  0  0  0  0
    9.0444   56.2337   20.2458 H   0  0  0  0  0  0
    7.8577   57.2071   19.3370 H   0  0  0  0  0  0
    5.8509   55.1967   18.5589 H   0  0  0  0  0  0
    4.0159   54.0398   19.6912 H   0  0  0  0  0  0
    7.9030   55.6378   22.2942 H   0  0  0  0  0  0
    5.8403   53.2970   24.1114 H   0  0  0  0  0  0
    7.2612   54.3178   24.1663 H   0  0  0  0  0  0
    5.6597   55.0192   24.4931 H   0  0  0  0  0  0
    3.4980   52.6679   21.6739 H   0  0  0  0  0  0
    2.5280   51.0382   22.4681 H   0  0  0  0  0  0
   -2.2216   50.4515   26.0988 H   0  0  0  0  0  0
   -2.1945   50.9923   24.4626 H   0  0  0  0  0  0
    0.9653   48.9346   23.8192 H   0  0  0  0  0  0
   -1.5349   48.7345   22.3543 H   0  0  0  0  0  0
   -3.0828   46.9344   21.7145 H   0  0  0  0  0  0
   -1.9722   47.6675   26.4751 H   0  0  0  0  0  0
   -4.0959   45.1459   27.9748 H   0  0  0  0  0  0
   -2.4465   45.6988   27.6798 H   0  0  0  0  0  0
   -3.7950   46.8528   27.7010 H   0  0  0  0  0  0
   -6.2674   44.7678   23.1257 H   0  0  0  0  0  0
   -5.9155   45.6935   24.5814 H   0  0  0  0  0  0
   -5.9565   46.4946   23.0008 H   0  0  0  0  0  0
  1  2  1  0  0  0
  1 37  1  0  0  0
  1 38  1  0  0  0
  1 39  1  0  0  0
  2  7  2  0  0  0
  2  3  1  0  0  0
  3  4  2  0  0  0
  3 40  1  0  0  0
  4  5  1  0  0  0
  4 41  1  0  0  0
  5  6  2  0  0  0
  5  9  1  0  0  0
  6  7  1  0  0  0
  6  8  1  0  0  0
  7 42  1  0  0  0
  8 43  1  0  0  0
  8 44  1  0  0  0
  8 45  1  0  0  0
  9 10  1  0  0  0
  9 46  1  0  0  0
 10 11  2  0  0  0
 10 12  1  0  0  0
 12 16  2  0  0  0
 12 13  1  0  0  0
 13 14  2  0  0  0
 13 47  1  0  0  0
 14 22  1  0  0  0
 14 15  1  0  0  0
 15 16  1  0  0  0
 15 17  1  0  0  0
 17 18  1  0  0  0
 17 19  1  0  0  0
 17 33  1  0  0  0
 19 20  1  0  0  0
 19 48  1  0  0  0
 19 49  1  0  0  0
 20 21  1  0  0  0
 20 22  1  0  0  0
 20 23  1  0  0  0
 22 50  1  0  0  0
 23 28  2  0  0  0
 23 24  1  0  0  0
 24 25  2  0  0  0
 24 51  1  0  0  0
 25 26  1  0  0  0
 25 52  1  0  0  0
 26 27  2  0  0  0
 26 31  1  0  0  0
 27 28  1  0  0  0
 27 29  1  0  0  0
 28 53  1  0  0  0
 29 30  1  0  0  0
 30 54  1  0  0  0
 30 55  1  0  0  0
 30 56  1  0  0  0
 31 32  1  0  0  0
 32 57  1  0  0  0
 32 58  1  0  0  0
 32 59  1  0  0  0
 33 34  1  0  0  0
 33 35  1  0  0  0
 33 36  1  0  0  0
M  END
> <i_i_glide_confnum>
20

> <i_i_glide_lignum>
2329

> <i_i_glide_posenum>
364

> <i_i_glide_rotatable_bonds>
7

> <i_m_Source_File_Index>
5637

> <b_m_subgroup_collapsed>
0

> <r_i_docking_score>
-5.05219

> <r_i_glide_ecoul>
-7.61044

> <r_i_glide_eff_state_penalty>
0

> <r_i_glide_einternal>
9.63856

> <r_i_glide_emodel>
-52.8692

> <r_i_glide_energy>
-43.6003

> <r_i_glide_erotb>
0.359535

> <r_i_glide_esite>
-0.106667

> <r_i_glide_evdw>
-35.9898

> <r_i_glide_gscore>
-5.05219

> <r_i_glide_hbond>
-0.160971

> <r_i_glide_ligand_efficiency>
-0.148594

> <r_i_glide_ligand_efficiency_ln>
-1.11617

> <r_i_glide_ligand_efficiency_sa>
-0.481386

> <r_i_glide_lipo>
-1.4633

> <r_i_glide_metal>
0

> <r_i_glide_rewards>
-0.73973

> <s_i_glide_gridfile>
wee1_glide-grid

> <s_m_Source_File>
wee1_decoys_glide_SP.sdf

> <s_m_Source_Path>
/Users/zhangxujun/Desktop

> <s_m_entry_id>
5912

> <s_m_entry_name>
wee1_decoys_glide_SP.5637

> <s_m_subgroup_title>
wee1_decoys_glide_SP

> <s_m_subgroupid>
wee1_decoys_glide_SP


$$$$
