ZINC39666000_339
                    3D
 Schrodinger Suite 2024-2.
 66 69  0  0  1  0            999 V2000
    2.7046   45.9241   15.6771 C   0  0  0  0  0  0
    1.6864   46.7326   16.4593 C   0  0  0  0  0  0
    0.3988   46.9237   15.9592 C   0  0  0  0  0  0
   -0.5144   47.6917   16.6771 C   0  0  0  0  0  0
   -0.1605   48.2668   17.8983 C   0  0  0  0  0  0
    1.1314   48.0544   18.4016 C   0  0  0  0  0  0
    2.0487   47.2967   17.6812 C   0  0  0  0  0  0
   -1.1458   49.0208   18.5128 O   0  0  0  0  0  0
   -0.9938   49.6158   19.8077 C   0  0  1  0  0  0
   -1.9840   50.0284   20.0074 H   0  0  0  0  0  0
   -0.7564   48.5593   20.9108 C   0  0  0  0  0  0
   -0.0186   50.8319   19.7860 C   0  0  0  0  0  0
    0.3457   51.3928   21.0942 N   0  0  0  0  0  0
   -0.5076   51.9908   21.9458 C   0  0  0  0  0  0
   -1.7091   52.0952   21.7005 O   0  0  0  0  0  0
    0.0177   52.5729   23.2839 C   0  0  2  0  0  0
   -0.5658   53.4776   23.4605 H   0  0  0  0  0  0
    1.4779   53.0354   23.1952 C   0  0  0  0  0  0
    1.8745   53.1122   24.6057 N   0  0  0  0  0  0
    0.9213   52.4088   25.4812 C   0  0  0  0  0  0
   -0.0342   51.6474   24.5221 C   0  0  0  0  0  0
   -1.4858   51.4919   25.0407 C   0  0  0  0  0  0
   -1.5410   50.7026   26.3556 C   0  0  0  0  0  0
   -0.9712   49.2973   26.0817 N   0  3  0  0  0  0
    0.4625   49.3006   25.5104 C   0  0  0  0  0  0
    0.4910   50.2000   24.2511 C   0  0  0  0  0  0
    3.0517   53.6967   24.9602 C   0  0  0  0  0  0
    3.8337   54.1218   24.1061 O   0  0  0  0  0  0
    3.4563   53.8235   26.4168 C   0  0  0  0  0  0
    2.5437   54.1543   27.4317 C   0  0  0  0  0  0
    2.9722   54.3402   28.7469 C   0  0  0  0  0  0
    4.3200   54.1932   29.0688 C   0  0  0  0  0  0
    5.2412   53.8700   28.0750 C   0  0  0  0  0  0
    4.8117   53.6971   26.7606 C   0  0  0  0  0  0
    6.9137   53.6952   28.4605 Cl  0  0  0  0  0  0
    1.8361   54.7779   29.9702 Cl  0  0  0  0  0  0
    3.1598   45.1698   16.3190 H   0  0  0  0  0  0
    3.5023   46.5767   15.3209 H   0  0  0  0  0  0
    2.2578   45.4090   14.8262 H   0  0  0  0  0  0
    0.1072   46.4943   15.0120 H   0  0  0  0  0  0
   -1.5065   47.8495   16.2806 H   0  0  0  0  0  0
    1.4631   48.4810   19.3319 H   0  0  0  0  0  0
    3.0544   47.1775   18.0589 H   0  0  0  0  0  0
   -1.2725   48.8459   21.8254 H   0  0  0  0  0  0
   -1.1525   47.5863   20.6192 H   0  0  0  0  0  0
    0.2972   48.4382   21.1558 H   0  0  0  0  0  0
    0.9091   50.5799   19.2761 H   0  0  0  0  0  0
   -0.4527   51.6207   19.1688 H   0  0  0  0  0  0
    1.3238   51.3500   21.3376 H   0  0  0  0  0  0
    2.1154   52.2774   22.7375 H   0  0  0  0  0  0
    1.5805   53.9799   22.6552 H   0  0  0  0  0  0
    0.3078   53.1654   25.9657 H   0  0  0  0  0  0
    1.3557   51.7727   26.2513 H   0  0  0  0  0  0
   -1.9128   52.4783   25.2297 H   0  0  0  0  0  0
   -2.1320   51.0444   24.2831 H   0  0  0  0  0  0
   -0.9421   51.1346   27.1592 H   0  0  0  0  0  0
   -2.5590   50.5475   26.7178 H   0  0  0  0  0  0
   -1.0123   48.7919   26.9827 H   0  0  0  0  0  0
    1.1040   49.6389   26.3228 H   0  0  0  0  0  0
    0.7051   48.2595   25.2880 H   0  0  0  0  0  0
   -0.0796   49.7184   23.4617 H   0  0  0  0  0  0
    1.5153   50.2339   23.8765 H   0  0  0  0  0  0
    1.5032   54.3287   27.2129 H   0  0  0  0  0  0
    4.6567   54.3464   30.0825 H   0  0  0  0  0  0
    5.5461   53.4566   26.0038 H   0  0  0  0  0  0
   -1.5901   48.7982   25.4599 H   0  0  0  0  0  0
  1  2  1  0  0  0
  1 37  1  0  0  0
  1 38  1  0  0  0
  1 39  1  0  0  0
  2  7  2  0  0  0
  2  3  1  0  0  0
  3  4  2  0  0  0
  3 40  1  0  0  0
  4  5  1  0  0  0
  4 41  1  0  0  0
  5  6  2  0  0  0
  5  8  1  0  0  0
  6  7  1  0  0  0
  6 42  1  0  0  0
  7 43  1  0  0  0
  8  9  1  0  0  0
  9 10  1  0  0  0
  9 11  1  0  0  0
  9 12  1  0  0  0
 11 44  1  0  0  0
 11 45  1  0  0  0
 11 46  1  0  0  0
 12 13  1  0  0  0
 12 47  1  0  0  0
 12 48  1  0  0  0
 13 14  1  0  0  0
 13 49  1  0  0  0
 14 15  2  0  0  0
 14 16  1  0  0  0
 16 17  1  0  0  0
 16 21  1  0  0  0
 16 18  1  0  0  0
 18 19  1  0  0  0
 18 50  1  0  0  0
 18 51  1  0  0  0
 19 20  1  0  0  0
 19 27  1  0  0  0
 20 21  1  0  0  0
 20 52  1  0  0  0
 20 53  1  0  0  0
 21 26  1  0  0  0
 21 22  1  0  0  0
 22 23  1  0  0  0
 22 54  1  0  0  0
 22 55  1  0  0  0
 23 24  1  0  0  0
 23 56  1  0  0  0
 23 57  1  0  0  0
 24 25  1  0  0  0
 24 58  1  0  0  0
 24 66  1  0  0  0
 25 26  1  0  0  0
 25 59  1  0  0  0
 25 60  1  0  0  0
 26 61  1  0  0  0
 26 62  1  0  0  0
 27 28  2  0  0  0
 27 29  1  0  0  0
 29 34  2  0  0  0
 29 30  1  0  0  0
 30 31  2  0  0  0
 30 63  1  0  0  0
 31 32  1  0  0  0
 31 36  1  0  0  0
 32 33  2  0  0  0
 32 64  1  0  0  0
 33 34  1  0  0  0
 33 35  1  0  0  0
 34 65  1  0  0  0
M  CHG  1  24   1
M  END
> <i_i_glide_confnum>
274

> <i_i_glide_lignum>
340

> <i_i_glide_posenum>
230

> <i_i_glide_rotatable_bonds>
8

> <i_m_Source_File_Index>
306

> <b_m_subgroup_collapsed>
0

> <r_i_docking_score>
-5.36439

> <r_i_glide_ecoul>
-7.04626

> <r_i_glide_eff_state_penalty>
0

> <r_i_glide_einternal>
7.59618

> <r_i_glide_emodel>
-58.8448

> <r_i_glide_energy>
-45.1587

> <r_i_glide_erotb>
0.640457

> <r_i_glide_esite>
-0.103817

> <r_i_glide_evdw>
-38.1124

> <r_i_glide_gscore>
-5.36439

> <r_i_glide_hbond>
-0.198208

> <r_i_glide_ligand_efficiency>
-0.157776

> <r_i_glide_ligand_efficiency_ln>
-1.18514

> <r_i_glide_ligand_efficiency_sa>
-0.511134

> <r_i_glide_lipo>
-2.12981

> <r_i_glide_metal>
0

> <r_i_glide_rewards>
-0.610457

> <s_i_glide_gridfile>
wee1_glide-grid

> <s_m_Source_File>
wee1_decoys_glide_SP.sdf

> <s_m_Source_Path>
/Users/zhangxujun/Desktop

> <s_m_entry_id>
581

> <s_m_entry_name>
wee1_decoys_glide_SP.306

> <s_m_subgroup_title>
wee1_decoys_glide_SP

> <s_m_subgroupid>
wee1_decoys_glide_SP


$$$$
