ZINC57310317_4052
                    3D
 Schrodinger Suite 2024-2.
 63 67  0  0  1  0            999 V2000
    7.4683   55.7043   22.3719 C   0  0  0  0  0  0
    7.0485   55.5163   20.9386 C   0  0  0  0  0  0
    5.9038   54.8544   20.3653 C   0  0  0  0  0  0
    4.7058   54.2129   20.7930 C   0  0  0  0  0  0
    3.9052   53.6835   19.7668 C   0  0  0  0  0  0
    4.2571   53.7979   18.4165 C   0  0  0  0  0  0
    5.4006   54.4076   18.0022 N   0  0  0  0  0  0
    6.1695   54.9084   18.9698 C   0  0  0  0  0  0
    7.3672   55.5809   18.8145 N   0  0  0  0  0  0
    7.8480   55.9662   20.0073 N   0  0  0  0  0  0
    8.0588   55.9751   17.5790 C   0  0  1  0  0  0
    7.7874   55.1935   16.8629 H   0  0  0  0  0  0
    7.5687   57.3415   17.0450 C   0  0  0  0  0  0
    8.4595   57.7476   15.8641 C   0  0  0  0  0  0
   10.1837   57.2110   16.3584 S   0  0  0  0  0  0
   10.8011   56.4847   15.2430 O   0  0  0  0  0  0
   10.8827   58.3251   17.0099 O   0  0  0  0  0  0
    9.6068   56.0089   17.6725 C   0  0  0  0  0  0
    3.3809   53.2454   17.3359 C   0  0  0  0  0  0
    1.9845   53.2426   17.4812 C   0  0  0  0  0  0
    1.1638   52.7160   16.4873 C   0  0  0  0  0  0
    1.7341   52.1850   15.3337 C   0  0  0  0  0  0
    3.1143   52.1864   15.1642 C   0  0  0  0  0  0
    3.9304   52.7147   16.1590 C   0  0  0  0  0  0
    0.9376   51.6724   14.3683 F   0  0  0  0  0  0
    4.1894   54.0975   22.2133 C   0  0  0  0  0  0
    2.9777   54.0114   22.4232 O   0  0  0  0  0  0
    5.1244   54.0933   23.1838 N   0  0  0  0  0  0
    4.9717   54.0976   24.5858 C   0  0  0  0  0  0
    6.1543   54.0975   25.3316 C   0  0  0  0  0  0
    6.1100   54.0335   26.7218 C   0  0  0  0  0  0
    4.8790   53.9686   27.3787 C   0  0  0  0  0  0
    3.6946   54.0223   26.6394 C   0  0  0  0  0  0
    3.7364   54.0966   25.2522 C   0  0  0  0  0  0
    4.8472   53.7867   28.8952 C   0  0  0  0  0  0
    3.7743   54.6312   29.5963 C   0  0  0  0  0  0
    4.6931   52.3032   29.2819 C   0  0  0  0  0  0
    6.6815   56.0981   23.0093 H   0  0  0  0  0  0
    7.7916   54.7486   22.7791 H   0  0  0  0  0  0
    8.3044   56.3981   22.4768 H   0  0  0  0  0  0
    2.9819   53.1786   20.0194 H   0  0  0  0  0  0
    6.5147   57.3106   16.7587 H   0  0  0  0  0  0
    7.6662   58.1006   17.8264 H   0  0  0  0  0  0
    8.1710   57.1340   15.0109 H   0  0  0  0  0  0
    8.4495   58.7878   15.5419 H   0  0  0  0  0  0
    9.9058   56.4784   18.6090 H   0  0  0  0  0  0
   10.1368   55.0585   17.6509 H   0  0  0  0  0  0
    1.5272   53.6582   18.3673 H   0  0  0  0  0  0
    0.0935   52.7186   16.6086 H   0  0  0  0  0  0
    3.5498   51.7610   14.2714 H   0  0  0  0  0  0
    5.0032   52.6827   16.0244 H   0  0  0  0  0  0
    6.0779   54.1313   22.8625 H   0  0  0  0  0  0
    7.1191   54.1056   24.8449 H   0  0  0  0  0  0
    7.0327   53.9927   27.2808 H   0  0  0  0  0  0
    2.7343   53.9690   27.1265 H   0  0  0  0  0  0
    2.7930   54.1105   24.7317 H   0  0  0  0  0  0
    5.8061   54.1397   29.2815 H   0  0  0  0  0  0
    3.8622   55.6942   29.3526 H   0  0  0  0  0  0
    3.9048   54.5030   30.6657 H   0  0  0  0  0  0
    2.7615   54.3119   29.3537 H   0  0  0  0  0  0
    5.5031   51.6970   28.8817 H   0  0  0  0  0  0
    4.7022   52.1638   30.3630 H   0  0  0  0  0  0
    3.7564   51.8869   28.9111 H   0  0  0  0  0  0
  1  2  1  0  0  0
  1 38  1  0  0  0
  1 39  1  0  0  0
  1 40  1  0  0  0
  2 10  2  0  0  0
  2  3  1  0  0  0
  3  8  2  0  0  0
  3  4  1  0  0  0
  4  5  2  0  0  0
  4 26  1  0  0  0
  5  6  1  0  0  0
  5 41  1  0  0  0
  6  7  2  0  0  0
  6 19  1  0  0  0
  7  8  1  0  0  0
  8  9  1  0  0  0
  9 10  1  0  0  0
  9 11  1  0  0  0
 11 12  1  0  0  0
 11 18  1  0  0  0
 11 13  1  0  0  0
 13 14  1  0  0  0
 13 42  1  0  0  0
 13 43  1  0  0  0
 14 15  1  0  0  0
 14 44  1  0  0  0
 14 45  1  0  0  0
 15 16  2  0  0  0
 15 17  2  0  0  0
 15 18  1  0  0  0
 18 46  1  0  0  0
 18 47  1  0  0  0
 19 24  2  0  0  0
 19 20  1  0  0  0
 20 21  2  0  0  0
 20 48  1  0  0  0
 21 22  1  0  0  0
 21 49  1  0  0  0
 22 23  2  0  0  0
 22 25  1  0  0  0
 23 24  1  0  0  0
 23 50  1  0  0  0
 24 51  1  0  0  0
 26 27  2  0  0  0
 26 28  1  0  0  0
 28 29  1  0  0  0
 28 52  1  0  0  0
 29 34  2  0  0  0
 29 30  1  0  0  0
 30 31  2  0  0  0
 30 53  1  0  0  0
 31 32  1  0  0  0
 31 54  1  0  0  0
 32 33  2  0  0  0
 32 35  1  0  0  0
 33 34  1  0  0  0
 33 55  1  0  0  0
 34 56  1  0  0  0
 35 36  1  0  0  0
 35 37  1  0  0  0
 35 57  1  0  0  0
 36 58  1  0  0  0
 36 59  1  0  0  0
 36 60  1  0  0  0
 37 61  1  0  0  0
 37 62  1  0  0  0
 37 63  1  0  0  0
M  END
> <i_i_glide_confnum>
73

> <i_i_glide_lignum>
4053

> <i_i_glide_posenum>
172

> <i_i_glide_rotatable_bonds>
6

> <i_m_Source_File_Index>
4689

> <b_m_subgroup_collapsed>
0

> <r_i_docking_score>
-4.46723

> <r_i_glide_ecoul>
-0.461906

> <r_i_glide_eff_state_penalty>
0

> <r_i_glide_einternal>
10.6205

> <r_i_glide_emodel>
-47.8767

> <r_i_glide_energy>
-39.2243

> <r_i_glide_erotb>
0.398639

> <r_i_glide_esite>
-0.00285673

> <r_i_glide_evdw>
-38.7624

> <r_i_glide_gscore>
-4.46723

> <r_i_glide_hbond>
0

> <r_i_glide_ligand_efficiency>
-0.12409

> <r_i_glide_ligand_efficiency_ln>
-0.974628

> <r_i_glide_ligand_efficiency_sa>
-0.409735

> <r_i_glide_lipo>
-2.44147

> <r_i_glide_metal>
0

> <r_i_glide_rewards>
-0.414135

> <s_i_glide_gridfile>
wee1_glide-grid

> <s_m_Source_File>
wee1_decoys_glide_SP.sdf

> <s_m_Source_Path>
/Users/zhangxujun/Desktop

> <s_m_entry_id>
4964

> <s_m_entry_name>
wee1_decoys_glide_SP.4689

> <s_m_subgroup_title>
wee1_decoys_glide_SP

> <s_m_subgroupid>
wee1_decoys_glide_SP


$$$$
