ZINC13958100_710
                    3D
 Schrodinger Suite 2024-2.
 55 58  0  0  1  0            999 V2000
    6.7764   54.9245   23.4555 C   0  0  0  0  0  0
    5.3825   54.4958   23.8797 C   0  0  0  0  0  0
    4.4664   54.1110   22.8976 C   0  0  0  0  0  0
    3.1869   53.6967   23.2514 C   0  0  0  0  0  0
    2.8111   53.6088   24.5965 C   0  0  0  0  0  0
    3.7208   54.0295   25.5787 C   0  0  0  0  0  0
    5.0057   54.4617   25.2327 C   0  0  0  0  0  0
    5.9792   54.8498   26.3379 C   0  0  0  0  0  0
    1.4547   52.9809   24.9344 C   0  0  2  0  0  0
    0.6983   53.6228   24.4789 H   0  0  0  0  0  0
    1.1301   52.8095   26.4351 C   0  0  0  0  0  0
   -0.1815   52.0260   26.7297 C   0  0  1  0  0  0
   -1.0237   52.5576   26.2858 H   0  0  0  0  0  0
   -0.0745   50.7550   25.9725 N   0  0  0  0  0  0
    0.5132   50.6717   24.7695 C   0  0  0  0  0  0
    1.2827   51.6632   24.3190 N   0  3  0  0  0  0
    0.0906   49.4930   24.2186 C   0  0  0  0  0  0
   -0.8990   48.9682   24.9632 C   0  0  0  0  0  0
   -1.0464   49.7683   26.0817 N   0  0  0  0  0  0
   -1.7240   47.7881   24.7137 C   0  0  0  0  0  0
   -2.0851   47.1045   25.6815 O   0  0  0  0  0  0
   -2.1417   47.5589   23.4165 N   0  0  0  0  0  0
   -3.4168   46.9382   22.9601 C   0  0  2  0  0  0
   -3.1484   46.6765   21.4771 C   0  0  0  0  0  0
   -1.7964   47.2833   21.2715 C   0  0  0  0  0  0
   -1.3061   47.7455   22.3448 N   0  0  0  0  0  0
   -1.1226   47.3363   19.9191 C   0  0  0  0  0  0
   -4.6370   47.8872   23.2130 C   0  0  0  0  0  0
   -4.4280   49.0867   22.6618 F   0  0  0  0  0  0
   -4.8690   48.1069   24.5096 F   0  0  0  0  0  0
   -5.7688   47.4209   22.6767 F   0  0  0  0  0  0
   -3.6934   45.6964   23.5634 O   0  5  0  0  0  0
   -0.4241   51.9166   28.2527 C   0  0  0  0  0  0
   -0.4953   53.1304   28.7957 F   0  0  0  0  0  0
   -1.5659   51.2967   28.5405 F   0  0  0  0  0  0
    0.5741   51.2962   28.8747 F   0  0  0  0  0  0
    6.9959   55.9344   23.8011 H   0  0  0  0  0  0
    7.5042   54.2529   23.9056 H   0  0  0  0  0  0
    6.9136   54.8992   22.3741 H   0  0  0  0  0  0
    4.7395   54.1380   21.8522 H   0  0  0  0  0  0
    2.5035   53.4006   22.4681 H   0  0  0  0  0  0
    3.4603   53.9803   26.6248 H   0  0  0  0  0  0
    6.4680   55.7936   26.1043 H   0  0  0  0  0  0
    5.4816   54.9763   27.3004 H   0  0  0  0  0  0
    6.7554   54.0905   26.4404 H   0  0  0  0  0  0
    1.1050   53.7902   26.9106 H   0  0  0  0  0  0
    1.9572   52.2773   26.9112 H   0  0  0  0  0  0
    0.4594   49.1141   23.2776 H   0  0  0  0  0  0
   -1.2568   49.3932   27.0207 H   0  0  0  0  0  0
   -3.1209   45.6182   21.2137 H   0  0  0  0  0  0
   -3.8854   47.1613   20.8379 H   0  0  0  0  0  0
   -1.1269   48.3533   19.5271 H   0  0  0  0  0  0
   -0.0852   47.0080   19.9883 H   0  0  0  0  0  0
   -1.6287   46.6956   19.1972 H   0  0  0  0  0  0
    1.7372   51.5254   23.4271 H   0  0  0  0  0  0
  1  2  1  0  0  0
  1 37  1  0  0  0
  1 38  1  0  0  0
  1 39  1  0  0  0
  2  7  2  0  0  0
  2  3  1  0  0  0
  3  4  2  0  0  0
  3 40  1  0  0  0
  4  5  1  0  0  0
  4 41  1  0  0  0
  5  6  2  0  0  0
  5  9  1  0  0  0
  6  7  1  0  0  0
  6 42  1  0  0  0
  7  8  1  0  0  0
  8 43  1  0  0  0
  8 44  1  0  0  0
  8 45  1  0  0  0
  9 10  1  0  0  0
  9 16  1  0  0  0
  9 11  1  0  0  0
 11 12  1  0  0  0
 11 46  1  0  0  0
 11 47  1  0  0  0
 12 13  1  0  0  0
 12 14  1  0  0  0
 12 33  1  0  0  0
 14 19  1  0  0  0
 14 15  1  0  0  0
 15 16  2  0  0  0
 15 17  1  0  0  0
 16 55  1  0  0  0
 17 18  2  0  0  0
 17 48  1  0  0  0
 18 19  1  0  0  0
 18 20  1  0  0  0
 19 49  1  0  0  0
 20 21  2  0  0  0
 20 22  1  0  0  0
 22 26  1  0  0  0
 22 23  1  0  0  0
 23 24  1  0  0  0
 23 28  1  0  0  0
 23 32  1  0  0  0
 24 25  1  0  0  0
 24 50  1  0  0  0
 24 51  1  0  0  0
 25 26  2  0  0  0
 25 27  1  0  0  0
 27 52  1  0  0  0
 27 53  1  0  0  0
 27 54  1  0  0  0
 28 29  1  0  0  0
 28 30  1  0  0  0
 28 31  1  0  0  0
 33 34  1  0  0  0
 33 35  1  0  0  0
 33 36  1  0  0  0
M  CHG  2  16   1  32  -1
M  END
> <i_i_glide_confnum>
15

> <i_i_glide_lignum>
711

> <i_i_glide_posenum>
225

> <i_i_glide_rotatable_bonds>
5

> <i_m_Source_File_Index>
2986

> <b_m_subgroup_collapsed>
0

> <r_i_docking_score>
-5.34155

> <r_i_glide_ecoul>
-6.56419

> <r_i_glide_eff_state_penalty>
0

> <r_i_glide_einternal>
9.54568

> <r_i_glide_emodel>
-49.6569

> <r_i_glide_energy>
-39.3056

> <r_i_glide_erotb>
0.254795

> <r_i_glide_esite>
-0.31752

> <r_i_glide_evdw>
-32.7414

> <r_i_glide_gscore>
-5.34155

> <r_i_glide_hbond>
-0.180349

> <r_i_glide_ligand_efficiency>
-0.157104

> <r_i_glide_ligand_efficiency_ln>
-1.1801

> <r_i_glide_ligand_efficiency_sa>
-0.508957

> <r_i_glide_lipo>
-2.19443

> <r_i_glide_metal>
0

> <r_i_glide_rewards>
-0.282347

> <s_i_glide_gridfile>
wee1_glide-grid

> <s_m_Source_File>
wee1_decoys_glide_SP.sdf

> <s_m_Source_Path>
/Users/zhangxujun/Desktop

> <s_m_entry_id>
3261

> <s_m_entry_name>
wee1_decoys_glide_SP.2986

> <s_m_subgroup_title>
wee1_decoys_glide_SP

> <s_m_subgroupid>
wee1_decoys_glide_SP


$$$$
