ZINC01129283_4211
                    3D
 Schrodinger Suite 2024-2.
 46 49  0  0  1  0            999 V2000
    6.7121   55.3918   24.6563 C   0  0  0  0  0  0
    6.2432   54.7930   23.4893 C   0  0  0  0  0  0
    5.0341   54.0972   23.5027 C   0  0  0  0  0  0
    4.2899   54.0238   24.6861 C   0  0  0  0  0  0
    4.7896   54.5897   25.8562 C   0  0  0  0  0  0
    6.0084   55.2638   25.8515 C   0  0  0  0  0  0
    3.9077   54.1974   27.0021 C   0  0  0  0  0  0
    2.6590   53.6919   26.2860 C   0  0  0  0  0  0
    3.0915   53.3365   24.9345 N   0  0  0  0  0  0
    1.8427   53.0332   23.7020 S   0  0  0  0  0  0
    2.5159   52.5700   22.4837 O   0  0  0  0  0  0
    0.9761   54.2138   23.6811 O   0  0  0  0  0  0
    0.8718   51.6631   24.3220 C   0  0  0  0  0  0
    1.1890   50.3618   23.9324 C   0  0  0  0  0  0
    0.4408   49.2966   24.4168 C   0  0  0  0  0  0
   -0.6501   49.5374   25.2603 C   0  0  0  0  0  0
   -0.9441   50.8324   25.6825 C   0  0  0  0  0  0
   -0.1827   51.8967   25.2102 C   0  0  0  0  0  0
   -1.4940   48.5002   25.6815 N   0  0  0  0  0  0
   -2.1200   47.5580   24.9151 C   0  0  0  0  0  0
   -3.1473   46.4968   25.6914 S   0  0  0  0  0  0
   -1.8477   47.6160   23.5711 N   0  0  0  0  0  0
   -2.0518   46.7626   22.5394 C   0  0  0  0  0  0
   -2.6703   45.6959   22.5802 O   0  0  0  0  0  0
   -1.4080   47.1997   21.3230 C   0  0  0  0  0  0
   -1.3540   46.6229   20.0589 C   0  0  0  0  0  0
   -0.5354   47.4387   19.2729 C   0  0  0  0  0  0
   -0.1190   48.4798   20.0847 C   0  0  0  0  0  0
   -0.6580   48.3396   21.3212 O   0  0  0  0  0  0
    1.0241   49.9708   19.7821 Br  0  0  0  0  0  0
    7.6427   55.9368   24.6296 H   0  0  0  0  0  0
    6.8160   54.8726   22.5765 H   0  0  0  0  0  0
    4.6958   53.6365   22.5884 H   0  0  0  0  0  0
    6.4136   55.6870   26.7601 H   0  0  0  0  0  0
    3.6727   55.0411   27.6509 H   0  0  0  0  0  0
    4.3476   53.4094   27.6155 H   0  0  0  0  0  0
    1.9254   54.4933   26.2202 H   0  0  0  0  0  0
    2.1549   52.8660   26.7890 H   0  0  0  0  0  0
    2.0192   50.1701   23.2682 H   0  0  0  0  0  0
    0.7028   48.2890   24.1242 H   0  0  0  0  0  0
   -1.7743   51.0134   26.3500 H   0  0  0  0  0  0
   -0.4259   52.8977   25.5260 H   0  0  0  0  0  0
   -1.6951   48.4952   26.6812 H   0  0  0  0  0  0
   -1.3472   48.4514   23.3017 H   0  0  0  0  0  0
   -1.8432   45.7104   19.7494 H   0  0  0  0  0  0
   -0.2634   47.2876   18.2377 H   0  0  0  0  0  0
  1  6  2  0  0  0
  1  2  1  0  0  0
  1 31  1  0  0  0
  2  3  2  0  0  0
  2 32  1  0  0  0
  3  4  1  0  0  0
  3 33  1  0  0  0
  4  9  1  0  0  0
  4  5  2  0  0  0
  5  6  1  0  0  0
  5  7  1  0  0  0
  6 34  1  0  0  0
  7  8  1  0  0  0
  7 35  1  0  0  0
  7 36  1  0  0  0
  8  9  1  0  0  0
  8 37  1  0  0  0
  8 38  1  0  0  0
  9 10  1  0  0  0
 10 11  2  0  0  0
 10 12  2  0  0  0
 10 13  1  0  0  0
 13 18  2  0  0  0
 13 14  1  0  0  0
 14 15  2  0  0  0
 14 39  1  0  0  0
 15 16  1  0  0  0
 15 40  1  0  0  0
 16 17  2  0  0  0
 16 19  1  0  0  0
 17 18  1  0  0  0
 17 41  1  0  0  0
 18 42  1  0  0  0
 19 20  1  0  0  0
 19 43  1  0  0  0
 20 21  2  0  0  0
 20 22  1  0  0  0
 22 23  1  0  0  0
 22 44  1  0  0  0
 23 24  2  0  0  0
 23 25  1  0  0  0
 25 29  1  0  0  0
 25 26  2  0  0  0
 26 27  1  0  0  0
 26 45  1  0  0  0
 27 28  2  0  0  0
 27 46  1  0  0  0
 28 29  1  0  0  0
 28 30  1  0  0  0
M  END
> <i_i_glide_confnum>
89

> <i_i_glide_lignum>
4212

> <i_i_glide_posenum>
335

> <i_i_glide_rotatable_bonds>
7

> <i_m_Source_File_Index>
4398

> <b_m_subgroup_collapsed>
0

> <r_i_docking_score>
-3.4563

> <r_i_glide_ecoul>
-4.8122

> <r_i_glide_eff_state_penalty>
0

> <r_i_glide_einternal>
7.68739

> <r_i_glide_emodel>
-41.7219

> <r_i_glide_energy>
-41.0828

> <r_i_glide_erotb>
0.47871

> <r_i_glide_esite>
-0.280621

> <r_i_glide_evdw>
-36.2706

> <r_i_glide_gscore>
-3.4563

> <r_i_glide_hbond>
-0.178024

> <r_i_glide_ligand_efficiency>
-0.11521

> <r_i_glide_ligand_efficiency_ln>
-0.785308

> <r_i_glide_ligand_efficiency_sa>
-0.357984

> <r_i_glide_lipo>
-2.12581

> <r_i_glide_metal>
0

> <r_i_glide_rewards>
1.18481

> <s_i_glide_gridfile>
wee1_glide-grid

> <s_m_Source_File>
wee1_decoys_glide_SP.sdf

> <s_m_Source_Path>
/Users/zhangxujun/Desktop

> <s_m_entry_id>
4673

> <s_m_entry_name>
wee1_decoys_glide_SP.4398

> <s_m_subgroup_title>
wee1_decoys_glide_SP

> <s_m_subgroupid>
wee1_decoys_glide_SP


$$$$
