ZINC49035037_2071
                    3D
 Schrodinger Suite 2024-2.
 65 69  0  0  1  0            999 V2000
    1.8736   53.0881   12.8944 C   0  0  0  0  0  0
    2.3952   54.4900   13.2216 C   0  0  0  0  0  0
    3.0380   54.4624   14.4880 O   0  0  0  0  0  0
    3.5800   55.5862   15.0186 C   0  0  0  0  0  0
    3.5472   56.6860   14.4591 O   0  0  0  0  0  0
    4.2183   55.3683   16.3315 C   0  0  0  0  0  0
    4.8286   56.3930   16.9627 C   0  0  0  0  0  0
    5.4750   56.2700   18.1842 N   0  0  0  0  0  0
    5.1972   55.1435   19.0044 C   0  0  0  0  0  0
    5.5129   55.1393   20.3703 C   0  0  0  0  0  0
    5.2856   54.0191   21.1818 C   0  0  0  0  0  0
    4.6982   52.8835   20.5845 C   0  0  0  0  0  0
    4.3476   52.8970   19.2382 C   0  0  0  0  0  0
    4.5771   54.0108   18.4297 C   0  0  0  0  0  0
    4.1595   53.9680   16.9535 C   0  0  0  0  0  0
    4.4602   51.6965   21.2816 N   0  0  0  0  0  0
    5.5544   54.0689   22.5550 N   0  0  0  0  0  0
    6.5982   54.9509   23.0807 C   0  0  0  0  0  0
    7.0146   54.5541   24.5003 C   0  0  0  0  0  0
    5.8321   54.3933   25.4403 C   0  0  0  0  0  0
    4.5632   54.1836   24.9790 C   0  0  0  0  0  0
    4.3819   54.1293   23.4459 C   0  0  0  0  0  0
    3.3823   53.9977   25.8588 C   0  0  0  0  0  0
    2.1678   53.6964   25.5509 N   0  0  0  0  0  0
    1.8748   53.5730   24.1870 O   0  0  0  0  0  0
    0.5728   53.0331   24.0435 C   0  0  0  0  0  0
    3.6254   54.2264   27.3826 C   0  0  2  0  0  0
    3.7482   55.2965   27.5216 H   0  0  0  0  0  0
    4.9198   53.5442   27.8411 C   0  0  0  0  0  0
    6.3646   54.3559   27.1466 S   0  0  0  0  0  0
    2.4462   53.8100   28.3069 C   0  0  0  0  0  0
    6.6104   57.1504   18.5345 C   0  0  0  0  0  0
    7.3508   57.9087   17.4389 C   0  0  0  0  0  0
    6.4394   58.6515   18.3756 C   0  0  0  0  0  0
    1.3900   53.0712   11.9169 H   0  0  0  0  0  0
    1.1446   52.7581   13.6358 H   0  0  0  0  0  0
    2.6873   52.3621   12.8777 H   0  0  0  0  0  0
    3.0984   54.8150   12.4530 H   0  0  0  0  0  0
    1.5690   55.2025   13.2365 H   0  0  0  0  0  0
    4.8398   57.3892   16.5398 H   0  0  0  0  0  0
    5.9187   56.0329   20.8142 H   0  0  0  0  0  0
    3.9014   52.0185   18.7928 H   0  0  0  0  0  0
    3.1467   53.5660   16.8949 H   0  0  0  0  0  0
    4.8085   53.2830   16.4059 H   0  0  0  0  0  0
    4.0585   50.9119   20.7882 H   0  0  0  0  0  0
    4.7903   51.6172   22.2308 H   0  0  0  0  0  0
    7.4826   54.8785   22.4433 H   0  0  0  0  0  0
    6.3051   55.9991   23.0493 H   0  0  0  0  0  0
    7.5770   53.6208   24.4797 H   0  0  0  0  0  0
    7.6842   55.3216   24.8818 H   0  0  0  0  0  0
    3.7372   54.9503   23.1336 H   0  0  0  0  0  0
    3.8429   53.2133   23.2212 H   0  0  0  0  0  0
    0.3583   52.8999   22.9833 H   0  0  0  0  0  0
    0.4880   52.0528   24.5186 H   0  0  0  0  0  0
   -0.1891   53.6966   24.4542 H   0  0  0  0  0  0
    4.9522   52.4966   27.5547 H   0  0  0  0  0  0
    5.0390   53.5893   28.9239 H   0  0  0  0  0  0
    1.5409   54.3787   28.0872 H   0  0  0  0  0  0
    2.2053   52.7510   28.2042 H   0  0  0  0  0  0
    2.6817   53.9897   29.3564 H   0  0  0  0  0  0
    7.2539   56.7762   19.3314 H   0  0  0  0  0  0
    8.4290   58.0323   17.5463 H   0  0  0  0  0  0
    7.0662   57.7937   16.3934 H   0  0  0  0  0  0
    5.5046   59.0570   17.9856 H   0  0  0  0  0  0
    6.8809   59.3130   19.1193 H   0  0  0  0  0  0
  1  2  1  0  0  0
  1 35  1  0  0  0
  1 36  1  0  0  0
  1 37  1  0  0  0
  2  3  1  0  0  0
  2 38  1  0  0  0
  2 39  1  0  0  0
  3  4  1  0  0  0
  4  5  2  0  0  0
  4  6  1  0  0  0
  6 15  1  0  0  0
  6  7  2  0  0  0
  7  8  1  0  0  0
  7 40  1  0  0  0
  8  9  1  0  0  0
  8 32  1  0  0  0
  9 14  2  0  0  0
  9 10  1  0  0  0
 10 11  2  0  0  0
 10 41  1  0  0  0
 11 12  1  0  0  0
 11 17  1  0  0  0
 12 13  2  0  0  0
 12 16  1  0  0  0
 13 14  1  0  0  0
 13 42  1  0  0  0
 14 15  1  0  0  0
 15 43  1  0  0  0
 15 44  1  0  0  0
 16 45  1  0  0  0
 16 46  1  0  0  0
 17 22  1  0  0  0
 17 18  1  0  0  0
 18 19  1  0  0  0
 18 47  1  0  0  0
 18 48  1  0  0  0
 19 20  1  0  0  0
 19 49  1  0  0  0
 19 50  1  0  0  0
 20 30  1  0  0  0
 20 21  2  0  0  0
 21 22  1  0  0  0
 21 23  1  0  0  0
 22 51  1  0  0  0
 22 52  1  0  0  0
 23 24  2  0  0  0
 23 27  1  0  0  0
 24 25  1  0  0  0
 25 26  1  0  0  0
 26 53  1  0  0  0
 26 54  1  0  0  0
 26 55  1  0  0  0
 27 28  1  0  0  0
 27 29  1  0  0  0
 27 31  1  0  0  0
 29 30  1  0  0  0
 29 56  1  0  0  0
 29 57  1  0  0  0
 31 58  1  0  0  0
 31 59  1  0  0  0
 31 60  1  0  0  0
 32 34  1  0  0  0
 32 33  1  0  0  0
 32 61  1  0  0  0
 33 34  1  0  0  0
 33 62  1  0  0  0
 33 63  1  0  0  0
 34 64  1  0  0  0
 34 65  1  0  0  0
M  END
> <i_i_glide_confnum>
10

> <i_i_glide_lignum>
2072

> <i_i_glide_posenum>
217

> <i_i_glide_rotatable_bonds>
6

> <i_m_Source_File_Index>
5972

> <b_m_subgroup_collapsed>
0

> <r_i_docking_score>
-5.06427

> <r_i_glide_ecoul>
0.78423

> <r_i_glide_eff_state_penalty>
0

> <r_i_glide_einternal>
9.70078

> <r_i_glide_emodel>
-47.9262

> <r_i_glide_energy>
-39.8646

> <r_i_glide_erotb>
0.459733

> <r_i_glide_esite>
0

> <r_i_glide_evdw>
-40.6489

> <r_i_glide_gscore>
-5.06427

> <r_i_glide_hbond>
0

> <r_i_glide_ligand_efficiency>
-0.153463

> <r_i_glide_ligand_efficiency_ln>
-1.12627

> <r_i_glide_ligand_efficiency_sa>
-0.492237

> <r_i_glide_lipo>
-2.58785

> <r_i_glide_metal>
0

> <r_i_glide_rewards>
-1.02135

> <s_i_glide_gridfile>
wee1_glide-grid

> <s_m_Source_File>
wee1_decoys_glide_SP.sdf

> <s_m_Source_Path>
/Users/zhangxujun/Desktop

> <s_m_entry_id>
6247

> <s_m_entry_name>
wee1_decoys_glide_SP.5972

> <s_m_subgroup_title>
wee1_decoys_glide_SP

> <s_m_subgroupid>
wee1_decoys_glide_SP


$$$$
