ZINC13592431_5578
                    3D
 Schrodinger Suite 2024-2.
 63 67  0  0  1  0            999 V2000
    2.1953   59.6044   14.8435 C   0  0  0  0  0  0
    2.9145   58.2656   14.6293 C   0  0  0  0  0  0
    2.0390   57.0380   14.9607 C   0  0  2  0  0  0
    1.0719   57.2037   14.4815 H   0  0  0  0  0  0
    1.7204   56.8178   16.4590 C   0  0  0  0  0  0
    0.7777   55.5990   16.6322 C   0  0  0  0  0  0
    1.2228   54.3415   15.8438 C   0  0  0  0  0  0
    1.6054   54.6861   14.3904 C   0  0  0  0  0  0
    2.5990   55.7886   14.3504 N   0  0  0  0  0  0
    4.3317   55.3323   14.5139 S   0  0  0  0  0  0
    5.1368   56.3946   13.8976 O   0  0  0  0  0  0
    4.4738   53.9534   14.0302 O   0  0  0  0  0  0
    4.7774   55.3088   16.2557 C   0  0  0  0  0  0
    5.3225   56.4508   16.8450 C   0  0  0  0  0  0
    5.6795   56.4380   18.1875 C   0  0  0  0  0  0
    5.5115   55.2803   18.9557 C   0  0  0  0  0  0
    4.9988   54.1234   18.3500 C   0  0  0  0  0  0
    4.6397   54.1374   17.0044 C   0  0  0  0  0  0
    5.9088   55.3021   20.4101 C   0  0  0  0  0  0
    6.8574   56.0027   20.7721 O   0  0  0  0  0  0
    5.1066   54.5920   21.2379 N   0  0  0  0  0  0
    5.2395   54.4644   22.6162 C   0  0  0  0  0  0
    4.2308   54.0964   23.3684 N   0  0  0  0  0  0
    4.5311   54.1034   24.6581 C   0  0  0  0  0  0
    5.8446   54.4662   24.9557 C   0  0  0  0  0  0
    6.7041   54.8047   23.4961 S   0  0  0  0  0  0
    3.5475   53.7460   25.6615 C   0  0  0  0  0  0
    2.1983   53.4135   25.6054 C   0  0  0  0  0  0
    1.7989   53.1210   26.9453 C   0  0  0  0  0  0
    0.6204   52.7232   27.5904 C   0  0  0  0  0  0
    0.6488   52.5264   28.9746 C   0  0  0  0  0  0
    1.8243   52.7026   29.7301 C   0  0  0  0  0  0
    3.0068   53.0896   29.1014 C   0  0  0  0  0  0
    2.9633   53.3016   27.7216 C   0  0  0  0  0  0
    4.0095   53.6961   26.9466 O   0  0  0  0  0  0
    1.9084   52.5054   31.0910 O   0  0  0  0  0  0
    0.7044   52.4772   31.8447 C   0  0  0  0  0  0
    2.8550   60.4351   14.5887 H   0  0  0  0  0  0
    1.3033   59.6872   14.2218 H   0  0  0  0  0  0
    1.8990   59.7364   15.8851 H   0  0  0  0  0  0
    3.8146   58.2734   15.2360 H   0  0  0  0  0  0
    3.2413   58.2208   13.5887 H   0  0  0  0  0  0
    1.2124   57.6905   16.8684 H   0  0  0  0  0  0
    2.6211   56.6447   17.0445 H   0  0  0  0  0  0
   -0.2202   55.8835   16.2939 H   0  0  0  0  0  0
    0.6735   55.3500   17.6852 H   0  0  0  0  0  0
    0.4222   53.6008   15.8458 H   0  0  0  0  0  0
    2.0587   53.8605   16.3475 H   0  0  0  0  0  0
    0.7020   55.0397   13.8907 H   0  0  0  0  0  0
    1.9622   53.8372   13.8056 H   0  0  0  0  0  0
    5.4855   57.3495   16.2684 H   0  0  0  0  0  0
    6.0898   57.3391   18.6223 H   0  0  0  0  0  0
    4.8924   53.1997   18.8997 H   0  0  0  0  0  0
    4.2695   53.2305   16.5468 H   0  0  0  0  0  0
    4.2368   54.2608   20.8449 H   0  0  0  0  0  0
    6.3195   54.5301   25.9227 H   0  0  0  0  0  0
    1.5990   53.3788   24.7088 H   0  0  0  0  0  0
   -0.2901   52.5635   27.0316 H   0  0  0  0  0  0
   -0.2686   52.2103   29.4471 H   0  0  0  0  0  0
    3.9198   53.2259   29.6592 H   0  0  0  0  0  0
    0.9404   52.2645   32.8818 H   0  0  0  0  0  0
    0.0220   51.6969   31.5142 H   0  0  0  0  0  0
    0.1888   53.4382   31.8084 H   0  0  0  0  0  0
  1  2  1  0  0  0
  1 38  1  0  0  0
  1 39  1  0  0  0
  1 40  1  0  0  0
  2  3  1  0  0  0
  2 41  1  0  0  0
  2 42  1  0  0  0
  3  4  1  0  0  0
  3  9  1  0  0  0
  3  5  1  0  0  0
  5  6  1  0  0  0
  5 43  1  0  0  0
  5 44  1  0  0  0
  6  7  1  0  0  0
  6 45  1  0  0  0
  6 46  1  0  0  0
  7  8  1  0  0  0
  7 47  1  0  0  0
  7 48  1  0  0  0
  8  9  1  0  0  0
  8 49  1  0  0  0
  8 50  1  0  0  0
  9 10  1  0  0  0
 10 11  2  0  0  0
 10 12  2  0  0  0
 10 13  1  0  0  0
 13 18  2  0  0  0
 13 14  1  0  0  0
 14 15  2  0  0  0
 14 51  1  0  0  0
 15 16  1  0  0  0
 15 52  1  0  0  0
 16 17  2  0  0  0
 16 19  1  0  0  0
 17 18  1  0  0  0
 17 53  1  0  0  0
 18 54  1  0  0  0
 19 20  2  0  0  0
 19 21  1  0  0  0
 21 22  1  0  0  0
 21 55  1  0  0  0
 22 26  1  0  0  0
 22 23  2  0  0  0
 23 24  1  0  0  0
 24 25  2  0  0  0
 24 27  1  0  0  0
 25 26  1  0  0  0
 25 56  1  0  0  0
 27 35  1  0  0  0
 27 28  2  0  0  0
 28 29  1  0  0  0
 28 57  1  0  0  0
 29 34  2  0  0  0
 29 30  1  0  0  0
 30 31  2  0  0  0
 30 58  1  0  0  0
 31 32  1  0  0  0
 31 59  1  0  0  0
 32 33  2  0  0  0
 32 36  1  0  0  0
 33 34  1  0  0  0
 33 60  1  0  0  0
 34 35  1  0  0  0
 36 37  1  0  0  0
 37 61  1  0  0  0
 37 62  1  0  0  0
 37 63  1  0  0  0
M  END
> <i_i_glide_confnum>
94

> <i_i_glide_lignum>
5579

> <i_i_glide_posenum>
367

> <i_i_glide_rotatable_bonds>
8

> <i_m_Source_File_Index>
5033

> <b_m_subgroup_collapsed>
0

> <r_i_docking_score>
-4.84384

> <r_i_glide_ecoul>
-4.74036

> <r_i_glide_eff_state_penalty>
0

> <r_i_glide_einternal>
6.39172

> <r_i_glide_emodel>
-57.4185

> <r_i_glide_energy>
-47.1424

> <r_i_glide_erotb>
0.446994

> <r_i_glide_esite>
0

> <r_i_glide_evdw>
-42.4021

> <r_i_glide_gscore>
-4.84384

> <r_i_glide_hbond>
-0.0286015

> <r_i_glide_ligand_efficiency>
-0.134551

> <r_i_glide_ligand_efficiency_ln>
-1.0568

> <r_i_glide_ligand_efficiency_sa>
-0.444278

> <r_i_glide_lipo>
-2.40529

> <r_i_glide_metal>
0

> <r_i_glide_rewards>
-0.0257875

> <s_i_glide_gridfile>
wee1_glide-grid

> <s_m_Source_File>
wee1_decoys_glide_SP.sdf

> <s_m_Source_Path>
/Users/zhangxujun/Desktop

> <s_m_entry_id>
5308

> <s_m_entry_name>
wee1_decoys_glide_SP.5033

> <s_m_subgroup_title>
wee1_decoys_glide_SP

> <s_m_subgroupid>
wee1_decoys_glide_SP


$$$$
