ZINC00687072_3556
                    3D
 Schrodinger Suite 2024-2.
 40 42  0  0  1  0            999 V2000
    3.6641   50.8968   20.7929 C   0  0  0  0  0  0
    3.0182   52.2510   20.4746 C   0  0  2  0  0  0
    2.5817   52.1622   19.4779 H   0  0  0  0  0  0
    4.0152   53.4281   20.4004 C   0  0  0  0  0  0
    4.7545   53.6555   21.7372 C   0  0  0  0  0  0
    3.7665   53.6207   22.9164 C   0  0  0  0  0  0
    2.4550   53.1380   22.7333 C   0  0  0  0  0  0
    1.4914   53.2820   24.1424 S   0  0  0  0  0  0
    2.8330   53.8888   25.0349 C   0  0  0  0  0  0
    4.0104   54.0437   24.2641 C   0  0  0  0  0  0
    5.2559   54.6236   24.7543 C   0  0  0  0  0  0
    5.2927   55.4238   25.6816 O   0  0  0  0  0  0
    6.3788   54.2484   24.1398 N   0  0  0  0  0  0
    2.4909   54.0967   26.3560 N   0  0  0  0  0  0
    3.1796   53.7410   27.4491 C   0  0  0  0  0  0
    4.3259   53.2966   27.4808 O   0  0  0  0  0  0
    2.3535   53.8546   28.6987 C   0  0  0  0  0  0
    1.9199   55.1087   29.1598 C   0  0  0  0  0  0
    1.1045   55.2008   30.2911 C   0  0  0  0  0  0
    0.7061   54.0393   30.9553 C   0  0  0  0  0  0
    1.0911   52.7982   30.4772 C   0  0  0  0  0  0
    1.9034   52.6943   29.3543 C   0  0  0  0  0  0
    2.3044   51.1054   28.8107 Cl  0  0  0  0  0  0
   -0.0956   54.0967   32.4714 Cl  0  0  0  0  0  0
    1.8675   52.5780   21.4445 C   0  0  0  0  0  0
    4.1044   50.8967   21.7883 H   0  0  0  0  0  0
    2.9402   50.0824   20.7448 H   0  0  0  0  0  0
    4.4548   50.6733   20.0817 H   0  0  0  0  0  0
    3.5044   54.3448   20.1054 H   0  0  0  0  0  0
    4.7626   53.2261   19.6312 H   0  0  0  0  0  0
    5.5048   52.8760   21.8634 H   0  0  0  0  0  0
    5.2859   54.6067   21.6884 H   0  0  0  0  0  0
    7.2617   54.6436   24.4253 H   0  0  0  0  0  0
    6.3496   53.5624   23.4035 H   0  0  0  0  0  0
    1.5100   54.2658   26.5159 H   0  0  0  0  0  0
    2.2299   56.0172   28.6620 H   0  0  0  0  0  0
    0.8221   56.1708   30.6748 H   0  0  0  0  0  0
    0.7742   51.9184   31.0118 H   0  0  0  0  0  0
    1.1893   53.2967   20.9869 H   0  0  0  0  0  0
    1.2715   51.6862   21.6426 H   0  0  0  0  0  0
  1  2  1  0  0  0
  1 26  1  0  0  0
  1 27  1  0  0  0
  1 28  1  0  0  0
  2  3  1  0  0  0
  2 25  1  0  0  0
  2  4  1  0  0  0
  4  5  1  0  0  0
  4 29  1  0  0  0
  4 30  1  0  0  0
  5  6  1  0  0  0
  5 31  1  0  0  0
  5 32  1  0  0  0
  6 10  1  0  0  0
  6  7  2  0  0  0
  7  8  1  0  0  0
  7 25  1  0  0  0
  8  9  1  0  0  0
  9 10  2  0  0  0
  9 14  1  0  0  0
 10 11  1  0  0  0
 11 12  2  0  0  0
 11 13  1  0  0  0
 13 33  1  0  0  0
 13 34  1  0  0  0
 14 15  1  0  0  0
 14 35  1  0  0  0
 15 16  2  0  0  0
 15 17  1  0  0  0
 17 22  2  0  0  0
 17 18  1  0  0  0
 18 19  2  0  0  0
 18 36  1  0  0  0
 19 20  1  0  0  0
 19 37  1  0  0  0
 20 21  2  0  0  0
 20 24  1  0  0  0
 21 22  1  0  0  0
 21 38  1  0  0  0
 22 23  1  0  0  0
 25 39  1  0  0  0
 25 40  1  0  0  0
M  END
> <i_i_glide_confnum>
36

> <i_i_glide_lignum>
3557

> <i_i_glide_posenum>
48

> <i_i_glide_rotatable_bonds>
4

> <i_m_Source_File_Index>
6001

> <b_m_subgroup_collapsed>
0

> <r_i_docking_score>
-5.29871

> <r_i_glide_ecoul>
-0.299335

> <r_i_glide_eff_state_penalty>
0

> <r_i_glide_einternal>
11.6908

> <r_i_glide_emodel>
-48.1643

> <r_i_glide_energy>
-39.5792

> <r_i_glide_erotb>
0.396777

> <r_i_glide_esite>
0

> <r_i_glide_evdw>
-39.2799

> <r_i_glide_gscore>
-5.29871

> <r_i_glide_hbond>
0

> <r_i_glide_ligand_efficiency>
-0.22078

> <r_i_glide_ligand_efficiency_ln>
-1.26823

> <r_i_glide_ligand_efficiency_sa>
-0.636839

> <r_i_glide_lipo>
-2.27085

> <r_i_glide_metal>
0

> <r_i_glide_rewards>
-1.41575

> <s_i_glide_gridfile>
wee1_glide-grid

> <s_m_Source_File>
wee1_decoys_glide_SP.sdf

> <s_m_Source_Path>
/Users/zhangxujun/Desktop

> <s_m_entry_id>
6276

> <s_m_entry_name>
wee1_decoys_glide_SP.6001

> <s_m_subgroup_title>
wee1_decoys_glide_SP

> <s_m_subgroupid>
wee1_decoys_glide_SP


$$$$
