ZINC33939919_3391
                    3D
 Schrodinger Suite 2024-2.
 67 71  0  0  1  0            999 V2000
   -5.4514   44.2165   26.1601 C   0  0  0  0  0  0
   -4.4958   45.2972   25.7229 C   0  0  0  0  0  0
   -3.5942   46.1062   26.3706 C   0  0  0  0  0  0
   -3.0520   46.9256   25.3844 C   0  0  0  0  0  0
   -3.5155   46.6054   24.1890 N   0  0  0  0  0  0
   -4.4376   45.5738   24.3965 O   0  0  0  0  0  0
   -2.1721   47.9459   25.6818 N   0  0  0  0  0  0
   -1.7786   48.9740   24.9050 C   0  0  0  0  0  0
   -2.0329   49.0896   23.7049 O   0  0  0  0  0  0
   -1.0165   50.0787   25.6855 C   0  0  1  0  0  0
   -0.6905   49.6416   26.6321 H   0  0  0  0  0  0
    0.1980   50.7753   25.0451 C   0  0  1  0  0  0
    0.9771   50.6733   25.7991 H   0  0  0  0  0  0
    0.9326   50.4474   23.7614 C   0  0  0  0  0  0
    1.0549   49.3224   23.2799 O   0  0  0  0  0  0
    1.4208   51.6660   23.3355 N   0  0  0  0  0  0
    0.9957   52.7942   24.2485 C   0  0  1  0  0  0
    0.7352   53.6722   23.6577 H   0  0  0  0  0  0
   -0.2852   52.1865   24.8341 C   0  0  1  0  0  0
   -1.5590   52.4066   24.0152 C   0  0  0  0  0  0
   -2.5526   51.9026   24.7563 C   0  0  0  0  0  0
   -1.8668   51.3581   25.9977 C   0  0  2  0  0  0
   -0.8148   52.3273   26.1412 O   0  0  0  0  0  0
   -2.7530   51.2961   27.2489 C   0  0  0  0  0  0
    2.0139   53.3176   25.3188 C   0  0  0  0  0  0
    2.8399   54.1628   24.9899 O   0  0  0  0  0  0
    1.8897   52.9063   26.5981 N   0  0  0  0  0  0
    2.5951   53.3211   27.8238 C   0  0  0  0  0  0
    2.3052   52.2425   28.8877 C   0  0  0  0  0  0
    2.0441   54.6695   28.3385 C   0  0  0  0  0  0
    4.1303   53.4280   27.6527 C   0  0  0  0  0  0
    2.1793   51.8269   22.1354 C   0  0  0  0  0  0
    1.9800   50.9747   21.0311 C   0  0  0  0  0  0
    2.7008   51.1353   19.8538 C   0  0  0  0  0  0
    3.6343   52.1565   19.7458 C   0  0  0  0  0  0
    3.8650   53.0280   20.8146 C   0  0  0  0  0  0
    3.1207   52.8617   21.9951 C   0  0  0  0  0  0
    4.9061   54.0991   20.7243 C   0  0  0  0  0  0
    5.2813   54.7686   21.6848 O   0  0  0  0  0  0
    5.5021   54.4141   19.3533 C   0  0  0  0  0  0
   -5.3968   44.0402   27.2358 H   0  0  0  0  0  0
   -6.4834   44.4849   25.9288 H   0  0  0  0  0  0
   -5.2481   43.2630   25.6699 H   0  0  0  0  0  0
   -3.3865   46.1368   27.4319 H   0  0  0  0  0  0
   -1.9008   48.0001   26.6641 H   0  0  0  0  0  0
   -1.5977   52.8374   23.0264 H   0  0  0  0  0  0
   -3.6039   51.8063   24.5303 H   0  0  0  0  0  0
   -3.5061   50.5115   27.1560 H   0  0  0  0  0  0
   -2.1583   51.0766   28.1400 H   0  0  0  0  0  0
   -3.2718   52.2388   27.4105 H   0  0  0  0  0  0
    1.0773   52.3299   26.7764 H   0  0  0  0  0  0
    2.7842   52.4765   29.8384 H   0  0  0  0  0  0
    2.6730   51.2690   28.5703 H   0  0  0  0  0  0
    1.2370   52.1372   29.0797 H   0  0  0  0  0  0
    2.3028   55.4962   27.6816 H   0  0  0  0  0  0
    0.9573   54.6507   28.4321 H   0  0  0  0  0  0
    2.4491   54.9177   29.3195 H   0  0  0  0  0  0
    4.4153   54.2198   26.9598 H   0  0  0  0  0  0
    4.6245   53.6457   28.6014 H   0  0  0  0  0  0
    4.5565   52.4980   27.2750 H   0  0  0  0  0  0
    1.2480   50.1825   21.0485 H   0  0  0  0  0  0
    2.5449   50.4656   19.0201 H   0  0  0  0  0  0
    4.1863   52.2273   18.8186 H   0  0  0  0  0  0
    3.3026   53.5429   22.8072 H   0  0  0  0  0  0
    6.0737   53.5634   18.9819 H   0  0  0  0  0  0
    4.7053   54.6249   18.6397 H   0  0  0  0  0  0
    6.1559   55.2838   19.4039 H   0  0  0  0  0  0
  1  2  1  0  0  0
  1 41  1  0  0  0
  1 42  1  0  0  0
  1 43  1  0  0  0
  2  6  1  0  0  0
  2  3  2  0  0  0
  3  4  1  0  0  0
  3 44  1  0  0  0
  4  5  2  0  0  0
  4  7  1  0  0  0
  5  6  1  0  0  0
  7  8  1  0  0  0
  7 45  1  0  0  0
  8  9  2  0  0  0
  8 10  1  0  0  0
 10 11  1  0  0  0
 10 22  1  0  0  0
 10 12  1  0  0  0
 12 13  1  0  0  0
 12 19  1  0  0  0
 12 14  1  0  0  0
 14 15  2  0  0  0
 14 16  1  0  0  0
 16 17  1  0  0  0
 16 32  1  0  0  0
 17 18  1  0  0  0
 17 19  1  0  0  0
 17 25  1  0  0  0
 19 23  1  0  0  0
 19 20  1  0  0  0
 20 21  2  0  0  0
 20 46  1  0  0  0
 21 22  1  0  0  0
 21 47  1  0  0  0
 22 23  1  0  0  0
 22 24  1  0  0  0
 24 48  1  0  0  0
 24 49  1  0  0  0
 24 50  1  0  0  0
 25 26  2  0  0  0
 25 27  1  0  0  0
 27 28  1  0  0  0
 27 51  1  0  0  0
 28 29  1  0  0  0
 28 30  1  0  0  0
 28 31  1  0  0  0
 29 52  1  0  0  0
 29 53  1  0  0  0
 29 54  1  0  0  0
 30 55  1  0  0  0
 30 56  1  0  0  0
 30 57  1  0  0  0
 31 58  1  0  0  0
 31 59  1  0  0  0
 31 60  1  0  0  0
 32 37  2  0  0  0
 32 33  1  0  0  0
 33 34  2  0  0  0
 33 61  1  0  0  0
 34 35  1  0  0  0
 34 62  1  0  0  0
 35 36  2  0  0  0
 35 63  1  0  0  0
 36 37  1  0  0  0
 36 38  1  0  0  0
 37 64  1  0  0  0
 38 39  2  0  0  0
 38 40  1  0  0  0
 40 65  1  0  0  0
 40 66  1  0  0  0
 40 67  1  0  0  0
M  END
> <i_i_glide_confnum>
82

> <i_i_glide_lignum>
3392

> <i_i_glide_posenum>
248

> <i_i_glide_rotatable_bonds>
8

> <i_m_Source_File_Index>
4579

> <b_m_subgroup_collapsed>
0

> <r_i_docking_score>
-5.12248

> <r_i_glide_ecoul>
-6.60081

> <r_i_glide_eff_state_penalty>
0

> <r_i_glide_einternal>
11.1988

> <r_i_glide_emodel>
-63.3711

> <r_i_glide_energy>
-51.8599

> <r_i_glide_erotb>
0.478441

> <r_i_glide_esite>
-0.247783

> <r_i_glide_evdw>
-45.2591

> <r_i_glide_gscore>
-5.12248

> <r_i_glide_hbond>
-0.16

> <r_i_glide_ligand_efficiency>
-0.138445

> <r_i_glide_ligand_efficiency_ln>
-1.11094

> <r_i_glide_ligand_efficiency_sa>
-0.46133

> <r_i_glide_lipo>
-1.37472

> <r_i_glide_metal>
0

> <r_i_glide_rewards>
-0.565339

> <s_i_glide_gridfile>
wee1_glide-grid

> <s_m_Source_File>
wee1_decoys_glide_SP.sdf

> <s_m_Source_Path>
/Users/zhangxujun/Desktop

> <s_m_entry_id>
4854

> <s_m_entry_name>
wee1_decoys_glide_SP.4579

> <s_m_subgroup_title>
wee1_decoys_glide_SP

> <s_m_subgroupid>
wee1_decoys_glide_SP


$$$$
