ZINC64921775_3242
                    3D
 Schrodinger Suite 2024-2.
 68 71  0  0  1  0            999 V2000
    6.6666   54.1260   27.0013 C   0  0  0  0  0  0
    5.5787   53.4906   27.8748 C   0  0  0  0  0  0
    4.2693   54.3074   27.9366 C   0  0  2  0  0  0
    4.4960   55.2837   28.3707 H   0  0  0  0  0  0
    3.3050   53.5905   28.9385 C   0  0  0  0  0  0
    3.5011   53.5241   30.1503 O   0  0  0  0  0  0
    2.2391   53.0201   28.3580 N   0  0  0  0  0  0
    1.9101   53.0437   27.0113 C   0  0  0  0  0  0
    0.7802   52.3777   26.5338 C   0  0  0  0  0  0
    0.4191   52.4958   25.1848 C   0  0  0  0  0  0
    1.2102   53.2601   24.3173 C   0  0  0  0  0  0
    2.3664   53.8839   24.7855 C   0  0  0  0  0  0
    2.7028   53.7827   26.1340 C   0  0  0  0  0  0
    3.7733   54.5237   26.5869 O   0  0  0  0  0  0
   -1.0979   51.7438   24.5969 S   0  0  0  0  0  0
   -1.8742   52.8048   23.9393 O   0  0  0  0  0  0
   -1.6788   51.0065   25.7258 O   0  0  0  0  0  0
   -0.6474   50.5420   23.3696 N   0  0  0  0  0  0
    0.4763   49.6100   23.5813 C   0  0  0  0  0  0
    1.7197   50.0968   22.7987 C   0  0  0  0  0  0
    1.3925   50.4973   21.3161 C   0  0  0  0  0  0
    0.0552   51.2954   21.1356 C   0  0  0  0  0  0
   -1.0816   50.6896   21.9691 C   0  0  0  0  0  0
    2.6006   51.2101   20.6546 C   0  0  0  0  0  0
    3.7488   50.8967   20.9675 O   0  0  0  0  0  0
    2.3421   52.1375   19.7137 N   0  0  0  0  0  0
    3.3256   52.8363   18.8822 C   0  0  0  0  0  0
    2.5856   53.5073   17.6969 C   0  0  0  0  0  0
    3.4317   54.1437   16.5719 C   0  0  0  0  0  0
    4.6337   53.3059   16.0768 C   0  0  0  0  0  0
    6.0128   53.7661   16.5980 C   0  0  0  0  0  0
    6.2846   53.6010   18.1090 C   0  0  0  0  0  0
    5.4183   54.4859   19.0345 C   0  0  0  0  0  0
    4.2459   53.7633   19.7321 C   0  0  0  0  0  0
    7.5076   53.4420   26.9172 H   0  0  0  0  0  0
    6.3086   54.3260   25.9903 H   0  0  0  0  0  0
    7.0261   55.0626   27.4299 H   0  0  0  0  0  0
    5.9872   53.3382   28.8783 H   0  0  0  0  0  0
    5.3631   52.5016   27.4711 H   0  0  0  0  0  0
    1.6320   52.5347   29.0021 H   0  0  0  0  0  0
    0.1636   51.8079   27.2162 H   0  0  0  0  0  0
    0.9314   53.3757   23.2832 H   0  0  0  0  0  0
    2.9715   54.4812   24.1197 H   0  0  0  0  0  0
    0.1686   48.6184   23.2489 H   0  0  0  0  0  0
    0.6900   49.5443   24.6504 H   0  0  0  0  0  0
    2.4605   49.2968   22.8416 H   0  0  0  0  0  0
    2.0830   50.9599   23.3526 H   0  0  0  0  0  0
    1.3103   49.5501   20.7811 H   0  0  0  0  0  0
    0.1573   52.3223   21.4881 H   0  0  0  0  0  0
   -0.2786   51.2795   20.0972 H   0  0  0  0  0  0
   -1.3573   49.7037   21.5871 H   0  0  0  0  0  0
   -1.9787   51.3132   21.9314 H   0  0  0  0  0  0
    1.3787   52.3482   19.5105 H   0  0  0  0  0  0
    3.9070   52.0299   18.4493 H   0  0  0  0  0  0
    1.8905   54.2543   18.0820 H   0  0  0  0  0  0
    1.9581   52.7485   17.2247 H   0  0  0  0  0  0
    3.7468   55.1487   16.8467 H   0  0  0  0  0  0
    2.7647   54.3107   15.7258 H   0  0  0  0  0  0
    4.6630   53.3761   14.9888 H   0  0  0  0  0  0
    4.4869   52.2436   16.2743 H   0  0  0  0  0  0
    6.1741   54.8078   16.3151 H   0  0  0  0  0  0
    6.7778   53.2028   16.0602 H   0  0  0  0  0  0
    7.3305   53.8601   18.2779 H   0  0  0  0  0  0
    6.2115   52.5494   18.3943 H   0  0  0  0  0  0
    5.0740   55.3788   18.5166 H   0  0  0  0  0  0
    6.0620   54.8791   19.8231 H   0  0  0  0  0  0
    4.6924   53.1739   20.5318 H   0  0  0  0  0  0
    3.6289   54.5002   20.2451 H   0  0  0  0  0  0
  1  2  1  0  0  0
  1 35  1  0  0  0
  1 36  1  0  0  0
  1 37  1  0  0  0
  2  3  1  0  0  0
  2 38  1  0  0  0
  2 39  1  0  0  0
  3  4  1  0  0  0
  3 14  1  0  0  0
  3  5  1  0  0  0
  5  6  2  0  0  0
  5  7  1  0  0  0
  7  8  1  0  0  0
  7 40  1  0  0  0
  8 13  2  0  0  0
  8  9  1  0  0  0
  9 10  2  0  0  0
  9 41  1  0  0  0
 10 11  1  0  0  0
 10 15  1  0  0  0
 11 12  2  0  0  0
 11 42  1  0  0  0
 12 13  1  0  0  0
 12 43  1  0  0  0
 13 14  1  0  0  0
 15 16  2  0  0  0
 15 17  2  0  0  0
 15 18  1  0  0  0
 18 23  1  0  0  0
 18 19  1  0  0  0
 19 20  1  0  0  0
 19 44  1  0  0  0
 19 45  1  0  0  0
 20 21  1  0  0  0
 20 46  1  0  0  0
 20 47  1  0  0  0
 21 22  1  0  0  0
 21 24  1  0  0  0
 21 48  1  0  0  0
 22 23  1  0  0  0
 22 49  1  0  0  0
 22 50  1  0  0  0
 23 51  1  0  0  0
 23 52  1  0  0  0
 24 25  2  0  0  0
 24 26  1  0  0  0
 26 27  1  0  0  0
 26 53  1  0  0  0
 27 34  1  0  0  0
 27 28  1  0  0  0
 27 54  1  0  0  0
 28 29  1  0  0  0
 28 55  1  0  0  0
 28 56  1  0  0  0
 29 30  1  0  0  0
 29 57  1  0  0  0
 29 58  1  0  0  0
 30 31  1  0  0  0
 30 59  1  0  0  0
 30 60  1  0  0  0
 31 32  1  0  0  0
 31 61  1  0  0  0
 31 62  1  0  0  0
 32 33  1  0  0  0
 32 63  1  0  0  0
 32 64  1  0  0  0
 33 34  1  0  0  0
 33 65  1  0  0  0
 33 66  1  0  0  0
 34 67  1  0  0  0
 34 68  1  0  0  0
M  END
> <i_i_glide_confnum>
911

> <i_i_glide_lignum>
3243

> <i_i_glide_posenum>
307

> <i_i_glide_rotatable_bonds>
6

> <i_m_Source_File_Index>
4459

> <b_m_subgroup_collapsed>
0

> <r_i_docking_score>
-4.43383

> <r_i_glide_ecoul>
-5.11601

> <r_i_glide_eff_state_penalty>
0

> <r_i_glide_einternal>
5.22299

> <r_i_glide_emodel>
-60.7041

> <r_i_glide_energy>
-50.9374

> <r_i_glide_erotb>
0.444033

> <r_i_glide_esite>
-0.0677323

> <r_i_glide_evdw>
-45.8214

> <r_i_glide_gscore>
-4.43383

> <r_i_glide_hbond>
-0.32

> <r_i_glide_ligand_efficiency>
-0.134359

> <r_i_glide_ligand_efficiency_ln>
-0.986062

> <r_i_glide_ligand_efficiency_sa>
-0.43096

> <r_i_glide_lipo>
-2.08374

> <r_i_glide_metal>
0

> <r_i_glide_rewards>
0.652078

> <s_i_glide_gridfile>
wee1_glide-grid

> <s_m_Source_File>
wee1_decoys_glide_SP.sdf

> <s_m_Source_Path>
/Users/zhangxujun/Desktop

> <s_m_entry_id>
4734

> <s_m_entry_name>
wee1_decoys_glide_SP.4459

> <s_m_subgroup_title>
wee1_decoys_glide_SP

> <s_m_subgroupid>
wee1_decoys_glide_SP


$$$$
