ZINC08835699_4519
                    3D
 Schrodinger Suite 2024-2.
 64 69  0  0  1  0            999 V2000
    8.9509   57.1284   16.1628 C   0  0  0  0  0  0
    9.9042   57.4172   17.1412 C   0  0  0  0  0  0
    9.6846   57.0983   18.4817 C   0  0  0  0  0  0
    8.4711   56.4788   18.7992 C   0  0  0  0  0  0
    7.4903   56.1779   17.8265 C   0  0  0  0  0  0
    7.7394   56.5083   16.4854 C   0  0  0  0  0  0
    6.4271   55.5702   18.5559 C   0  0  0  0  0  0
    6.8150   55.5517   19.8938 C   0  0  0  0  0  0
    8.0628   56.0954   20.0486 O   0  0  0  0  0  0
    6.0887   55.0606   21.0382 C   0  0  0  0  0  0
    4.9804   54.5481   20.8765 O   0  0  0  0  0  0
    6.7047   55.2297   22.2336 N   0  0  0  0  0  0
    6.2043   54.8930   23.5089 C   0  0  0  0  0  0
    6.7437   55.5461   24.6180 C   0  0  0  0  0  0
    6.2680   55.2883   25.9037 C   0  0  0  0  0  0
    5.2288   54.3754   26.0927 C   0  0  0  0  0  0
    4.7157   53.6969   24.9823 C   0  0  0  0  0  0
    5.1943   53.9483   23.7069 C   0  0  0  0  0  0
    4.7764   54.1407   27.4117 N   0  0  0  0  0  0
    3.5851   53.6462   27.8710 C   0  0  0  0  0  0
    3.4917   53.2717   29.4949 S   0  0  0  0  0  0
    2.5714   53.5627   26.9509 N   0  0  0  0  0  0
    1.5561   52.6825   26.7908 C   0  0  0  0  0  0
    1.1273   51.9212   27.6577 O   0  0  0  0  0  0
    0.9945   52.6775   25.3508 C   0  0  0  0  0  0
   -0.1573   51.7086   24.9400 C   0  0  0  0  0  0
   -1.4571   51.9318   25.7809 C   0  0  0  0  0  0
   -2.6018   51.0070   25.2853 C   0  0  2  0  0  0
   -2.1646   49.5277   25.4345 C   0  0  0  0  0  0
   -0.8857   49.2690   24.5995 C   0  0  2  0  0  0
    0.2521   50.2054   25.0919 C   0  0  0  0  0  0
   -1.1875   49.5599   23.1071 C   0  0  0  0  0  0
   -1.6319   51.0368   22.9443 C   0  0  1  0  0  0
   -2.9034   51.2994   23.7923 C   0  0  0  0  0  0
   -0.4976   51.9691   23.4361 C   0  0  0  0  0  0
    9.1581   57.3892   15.1341 H   0  0  0  0  0  0
   10.8319   57.8911   16.8521 H   0  0  0  0  0  0
   10.4209   57.3053   19.2443 H   0  0  0  0  0  0
    7.0093   56.2922   15.7190 H   0  0  0  0  0  0
    5.4885   55.1959   18.1710 H   0  0  0  0  0  0
    7.6038   55.6906   22.2170 H   0  0  0  0  0  0
    7.5462   56.2533   24.4823 H   0  0  0  0  0  0
    6.7046   55.7989   26.7498 H   0  0  0  0  0  0
    3.9704   52.9270   25.0780 H   0  0  0  0  0  0
    4.7750   53.3738   22.8962 H   0  0  0  0  0  0
    5.4732   54.3093   28.1218 H   0  0  0  0  0  0
    2.7263   54.1400   26.1392 H   0  0  0  0  0  0
    1.8359   52.4638   24.6911 H   0  0  0  0  0  0
    0.7026   53.6970   25.1088 H   0  0  0  0  0  0
   -1.7755   52.9721   25.7165 H   0  0  0  0  0  0
   -1.2786   51.7423   26.8394 H   0  0  0  0  0  0
   -3.4977   51.1835   25.8824 H   0  0  0  0  0  0
   -2.9659   48.8589   25.1175 H   0  0  0  0  0  0
   -1.9806   49.2976   26.4822 H   0  0  0  0  0  0
   -0.5753   48.2296   24.7184 H   0  0  0  0  0  0
    0.4896   49.9607   26.1278 H   0  0  0  0  0  0
    1.1605   50.0025   24.5209 H   0  0  0  0  0  0
   -1.9658   48.8871   22.7421 H   0  0  0  0  0  0
   -0.3048   49.3592   22.4975 H   0  0  0  0  0  0
   -1.8434   51.2390   21.8938 H   0  0  0  0  0  0
   -3.2384   52.3299   23.6689 H   0  0  0  0  0  0
   -3.7257   50.6721   23.4439 H   0  0  0  0  0  0
    0.3895   51.8214   22.8168 H   0  0  0  0  0  0
   -0.7907   53.0094   23.2857 H   0  0  0  0  0  0
  1  6  2  0  0  0
  1  2  1  0  0  0
  1 36  1  0  0  0
  2  3  2  0  0  0
  2 37  1  0  0  0
  3  4  1  0  0  0
  3 38  1  0  0  0
  4  9  1  0  0  0
  4  5  2  0  0  0
  5  6  1  0  0  0
  5  7  1  0  0  0
  6 39  1  0  0  0
  7  8  2  0  0  0
  7 40  1  0  0  0
  8  9  1  0  0  0
  8 10  1  0  0  0
 10 11  2  0  0  0
 10 12  1  0  0  0
 12 13  1  0  0  0
 12 41  1  0  0  0
 13 18  2  0  0  0
 13 14  1  0  0  0
 14 15  2  0  0  0
 14 42  1  0  0  0
 15 16  1  0  0  0
 15 43  1  0  0  0
 16 17  2  0  0  0
 16 19  1  0  0  0
 17 18  1  0  0  0
 17 44  1  0  0  0
 18 45  1  0  0  0
 19 20  1  0  0  0
 19 46  1  0  0  0
 20 21  2  0  0  0
 20 22  1  0  0  0
 22 23  1  0  0  0
 22 47  1  0  0  0
 23 24  2  0  0  0
 23 25  1  0  0  0
 25 26  1  0  0  0
 25 48  1  0  0  0
 25 49  1  0  0  0
 26 31  1  0  0  0
 26 35  1  0  0  0
 26 27  1  0  0  0
 27 28  1  0  0  0
 27 50  1  0  0  0
 27 51  1  0  0  0
 28 34  1  0  0  0
 28 29  1  0  0  0
 28 52  1  0  0  0
 29 30  1  0  0  0
 29 53  1  0  0  0
 29 54  1  0  0  0
 30 31  1  0  0  0
 30 32  1  0  0  0
 30 55  1  0  0  0
 31 56  1  0  0  0
 31 57  1  0  0  0
 32 33  1  0  0  0
 32 58  1  0  0  0
 32 59  1  0  0  0
 33 34  1  0  0  0
 33 35  1  0  0  0
 33 60  1  0  0  0
 34 61  1  0  0  0
 34 62  1  0  0  0
 35 63  1  0  0  0
 35 64  1  0  0  0
M  END
> <i_i_glide_confnum>
137

> <i_i_glide_lignum>
4520

> <i_i_glide_posenum>
346

> <i_i_glide_rotatable_bonds>
9

> <i_m_Source_File_Index>
3765

> <b_m_subgroup_collapsed>
0

> <r_i_docking_score>
-4.51697

> <r_i_glide_ecoul>
-2.24147

> <r_i_glide_eff_state_penalty>
0

> <r_i_glide_einternal>
11.8649

> <r_i_glide_emodel>
-48.9723

> <r_i_glide_energy>
-42.166

> <r_i_glide_erotb>
0.684049

> <r_i_glide_esite>
0

> <r_i_glide_evdw>
-39.9245

> <r_i_glide_gscore>
-4.51697

> <r_i_glide_hbond>
-0.0208352

> <r_i_glide_ligand_efficiency>
-0.129056

> <r_i_glide_ligand_efficiency_ln>
-0.991575

> <r_i_glide_ligand_efficiency_sa>
-0.422152

> <r_i_glide_lipo>
-1.9004

> <r_i_glide_metal>
0

> <r_i_glide_rewards>
-0.947338

> <s_i_glide_gridfile>
wee1_glide-grid

> <s_m_Source_File>
wee1_decoys_glide_SP.sdf

> <s_m_Source_Path>
/Users/zhangxujun/Desktop

> <s_m_entry_id>
4040

> <s_m_entry_name>
wee1_decoys_glide_SP.3765

> <s_m_subgroup_title>
wee1_decoys_glide_SP

> <s_m_subgroupid>
wee1_decoys_glide_SP


$$$$
