ZINC30017796_26
                    3D
 Schrodinger Suite 2024-2.
 65 69  0  0  1  0            999 V2000
    0.8525   52.1751   28.4425 C   0  0  0  0  0  0
    1.1563   53.3387   29.4109 C   0  0  2  0  0  0
    0.2041   53.7109   29.7941 H   0  0  0  0  0  0
    1.9279   54.5276   28.7937 C   0  0  0  0  0  0
    3.3029   54.1464   28.4157 N   0  0  0  0  0  0
    4.0090   53.6587   29.6110 C   0  0  0  0  0  0
    3.2235   52.4963   30.2684 C   0  0  2  0  0  0
    3.1678   51.6329   29.6050 H   0  0  0  0  0  0
    1.9047   52.9548   30.5678 O   0  0  0  0  0  0
    3.9038   52.0422   31.5585 C   0  0  0  0  0  0
    3.8026   54.1015   27.1215 C   0  0  0  0  0  0
    5.1791   54.0990   26.8564 C   0  0  0  0  0  0
    5.6175   54.1027   25.5339 C   0  0  0  0  0  0
    4.6870   54.0967   24.4860 C   0  0  0  0  0  0
    3.3268   54.0943   24.8333 C   0  0  0  0  0  0
    2.8890   54.0960   26.1157 N   0  0  0  0  0  0
    5.1568   54.1287   23.0527 C   0  0  0  0  0  0
    6.3451   54.3633   22.8077 O   0  0  0  0  0  0
    4.2130   53.9211   22.1065 N   0  0  0  0  0  0
    4.5692   54.0986   20.7696 N   0  0  0  0  0  0
    5.0038   53.0533   20.0430 C   0  0  0  0  0  0
    5.0979   51.9097   20.4877 O   0  0  0  0  0  0
    5.4169   53.3340   18.5806 C   0  0  0  0  0  0
    6.1640   54.6681   18.2260 C   0  0  0  0  0  0
    7.3133   55.0068   19.2392 C   0  0  0  0  0  0
    8.0634   56.3025   18.8353 C   0  0  1  0  0  0
    8.7000   56.1087   17.4363 C   0  0  0  0  0  0
    7.5866   55.8009   16.4037 C   0  0  1  0  0  0
    6.8362   54.5096   16.8242 C   0  0  0  0  0  0
    6.5895   56.9872   16.3541 C   0  0  0  0  0  0
    5.9492   57.1866   17.7501 C   0  0  2  0  0  0
    7.0582   57.4852   18.7921 C   0  0  0  0  0  0
    5.1939   55.8958   18.1625 C   0  0  0  0  0  0
    0.1415   52.4897   27.6797 H   0  0  0  0  0  0
    1.7403   51.8155   27.9243 H   0  0  0  0  0  0
    0.4079   51.3328   28.9736 H   0  0  0  0  0  0
    2.0280   55.2944   29.5677 H   0  0  0  0  0  0
    1.3503   55.0488   28.0301 H   0  0  0  0  0  0
    4.9806   53.2716   29.3071 H   0  0  0  0  0  0
    4.1447   54.4975   30.2919 H   0  0  0  0  0  0
    4.7626   51.4220   31.3211 H   0  0  0  0  0  0
    4.2627   52.8847   32.1500 H   0  0  0  0  0  0
    3.2307   51.4488   32.1799 H   0  0  0  0  0  0
    5.9133   54.1317   27.6480 H   0  0  0  0  0  0
    6.6791   54.1130   25.3324 H   0  0  0  0  0  0
    2.5413   54.1046   24.0913 H   0  0  0  0  0  0
    3.2289   54.0829   22.2520 H   0  0  0  0  0  0
    4.4238   55.0324   20.4233 H   0  0  0  0  0  0
    4.5191   53.2316   17.9706 H   0  0  0  0  0  0
    6.0511   52.4971   18.2819 H   0  0  0  0  0  0
    8.0201   54.1762   19.2807 H   0  0  0  0  0  0
    6.9372   55.1298   20.2532 H   0  0  0  0  0  0
    8.8497   56.5106   19.5646 H   0  0  0  0  0  0
    9.4276   55.2951   17.4627 H   0  0  0  0  0  0
    9.2548   57.0009   17.1448 H   0  0  0  0  0  0
    8.0342   55.6603   15.4179 H   0  0  0  0  0  0
    6.0847   54.2611   16.0738 H   0  0  0  0  0  0
    7.5356   53.6700   16.8326 H   0  0  0  0  0  0
    5.8146   56.8001   15.6067 H   0  0  0  0  0  0
    7.0973   57.8980   16.0403 H   0  0  0  0  0  0
    5.2500   58.0256   17.7110 H   0  0  0  0  0  0
    7.5752   58.4108   18.5354 H   0  0  0  0  0  0
    6.6155   57.6439   19.7779 H   0  0  0  0  0  0
    4.7093   56.0724   19.1189 H   0  0  0  0  0  0
    4.3876   55.7007   17.4556 H   0  0  0  0  0  0
  1  2  1  0  0  0
  1 34  1  0  0  0
  1 35  1  0  0  0
  1 36  1  0  0  0
  2  3  1  0  0  0
  2  9  1  0  0  0
  2  4  1  0  0  0
  4  5  1  0  0  0
  4 37  1  0  0  0
  4 38  1  0  0  0
  5  6  1  0  0  0
  5 11  1  0  0  0
  6  7  1  0  0  0
  6 39  1  0  0  0
  6 40  1  0  0  0
  7  8  1  0  0  0
  7  9  1  0  0  0
  7 10  1  0  0  0
 10 41  1  0  0  0
 10 42  1  0  0  0
 10 43  1  0  0  0
 11 16  2  0  0  0
 11 12  1  0  0  0
 12 13  2  0  0  0
 12 44  1  0  0  0
 13 14  1  0  0  0
 13 45  1  0  0  0
 14 15  2  0  0  0
 14 17  1  0  0  0
 15 16  1  0  0  0
 15 46  1  0  0  0
 17 18  2  0  0  0
 17 19  1  0  0  0
 19 20  1  0  0  0
 19 47  1  0  0  0
 20 21  1  0  0  0
 20 48  1  0  0  0
 21 22  2  0  0  0
 21 23  1  0  0  0
 23 24  1  0  0  0
 23 49  1  0  0  0
 23 50  1  0  0  0
 24 29  1  0  0  0
 24 33  1  0  0  0
 24 25  1  0  0  0
 25 26  1  0  0  0
 25 51  1  0  0  0
 25 52  1  0  0  0
 26 32  1  0  0  0
 26 27  1  0  0  0
 26 53  1  0  0  0
 27 28  1  0  0  0
 27 54  1  0  0  0
 27 55  1  0  0  0
 28 29  1  0  0  0
 28 30  1  0  0  0
 28 56  1  0  0  0
 29 57  1  0  0  0
 29 58  1  0  0  0
 30 31  1  0  0  0
 30 59  1  0  0  0
 30 60  1  0  0  0
 31 32  1  0  0  0
 31 33  1  0  0  0
 31 61  1  0  0  0
 32 62  1  0  0  0
 32 63  1  0  0  0
 33 64  1  0  0  0
 33 65  1  0  0  0
M  END
> <i_i_glide_confnum>
53

> <i_i_glide_lignum>
27

> <i_i_glide_posenum>
122

> <i_i_glide_rotatable_bonds>
7

> <i_m_Source_File_Index>
735

> <b_m_subgroup_collapsed>
0

> <r_i_docking_score>
-5.86373

> <r_i_glide_ecoul>
-2.57639

> <r_i_glide_eff_state_penalty>
0

> <r_i_glide_einternal>
3.44257

> <r_i_glide_emodel>
-66.8092

> <r_i_glide_energy>
-50.2941

> <r_i_glide_erotb>
0.654492

> <r_i_glide_esite>
-0.0389491

> <r_i_glide_evdw>
-47.7177

> <r_i_glide_gscore>
-5.86373

> <r_i_glide_hbond>
-0.118183

> <r_i_glide_ligand_efficiency>
-0.189153

> <r_i_glide_ligand_efficiency_ln>
-1.32245

> <r_i_glide_ligand_efficiency_sa>
-0.5942

> <r_i_glide_lipo>
-2.4205

> <r_i_glide_metal>
0

> <r_i_glide_rewards>
-1.16825

> <s_i_glide_gridfile>
wee1_glide-grid

> <s_m_Source_File>
wee1_decoys_glide_SP.sdf

> <s_m_Source_Path>
/Users/zhangxujun/Desktop

> <s_m_entry_id>
1010

> <s_m_entry_name>
wee1_decoys_glide_SP.735

> <s_m_subgroup_title>
wee1_decoys_glide_SP

> <s_m_subgroupid>
wee1_decoys_glide_SP


$$$$
