ZINC35337840_167
                    3D
 Schrodinger Suite 2024-2.
 59 62  0  0  1  0            999 V2000
    2.9242   52.5141   29.2210 C   0  0  0  0  0  0
    1.8623   52.3603   28.1465 C   0  0  0  0  0  0
    0.6686   51.6965   28.4348 C   0  0  0  0  0  0
   -0.3079   51.5587   27.4516 C   0  0  0  0  0  0
   -0.0966   52.1074   26.1845 C   0  0  0  0  0  0
    1.1042   52.7586   25.8886 C   0  0  0  0  0  0
    2.0771   52.8968   26.8748 C   0  0  0  0  0  0
   -1.3932   52.0378   24.9495 S   0  0  0  0  0  0
   -1.2486   53.2078   24.0750 O   0  0  0  0  0  0
   -2.6544   51.7711   25.6476 O   0  0  0  0  0  0
   -1.0524   50.5912   23.9896 N   0  0  0  0  0  0
    0.0471   50.5109   23.1275 C   0  0  0  0  0  0
    0.9118   49.4238   23.2433 C   0  0  0  0  0  0
    1.9998   49.2968   22.3806 C   0  0  0  0  0  0
    2.2351   50.2486   21.3980 C   0  0  0  0  0  0
    1.3857   51.3501   21.2799 C   0  0  0  0  0  0
    0.2841   51.4691   22.1348 C   0  0  0  0  0  0
    1.6940   52.4441   20.2583 C   0  0  2  0  0  0
    1.0787   53.2967   20.5436 H   0  0  0  0  0  0
    1.3125   52.0661   18.8132 C   0  0  0  0  0  0
    2.2281   52.0707   17.8124 C   0  0  0  0  0  0
    3.5023   52.4966   18.0911 N   0  3  0  0  0  0
    3.9213   52.9875   19.2587 C   0  0  0  0  0  0
    3.1042   52.9261   20.3293 N   0  0  0  0  0  0
    3.4257   53.5415   21.6385 C   0  0  0  0  0  0
    4.9412   53.7262   21.8345 C   0  0  0  0  0  0
    5.6087   54.5637   20.7395 C   0  0  0  0  0  0
    5.5004   53.6981   19.1606 S   0  0  0  0  0  0
    1.9985   51.7563   16.3352 C   0  0  0  0  0  0
   -0.0757   51.6954   18.5993 C   0  0  0  0  0  0
   -1.0099   52.4451   18.8889 O   0  0  0  0  0  0
   -0.2463   50.4572   18.1074 N   0  0  0  0  0  0
   -1.5439   49.8573   17.8315 C   0  0  0  0  0  0
    2.4848   52.4896   30.2191 H   0  0  0  0  0  0
    3.6670   51.7197   29.1415 H   0  0  0  0  0  0
    3.4348   53.4733   29.1263 H   0  0  0  0  0  0
    0.4890   51.2863   29.4174 H   0  0  0  0  0  0
   -1.2304   51.0437   27.6867 H   0  0  0  0  0  0
    1.2699   53.1828   24.9084 H   0  0  0  0  0  0
    2.9991   53.4128   26.6486 H   0  0  0  0  0  0
   -1.3289   49.7351   24.4473 H   0  0  0  0  0  0
    0.7540   48.6756   24.0072 H   0  0  0  0  0  0
    2.6813   48.4699   22.4811 H   0  0  0  0  0  0
    3.0885   50.1386   20.7426 H   0  0  0  0  0  0
   -0.3860   52.3055   22.0116 H   0  0  0  0  0  0
    3.0237   52.9267   22.4438 H   0  0  0  0  0  0
    2.9109   54.5018   21.6817 H   0  0  0  0  0  0
    5.4239   52.7476   21.9014 H   0  0  0  0  0  0
    5.1157   54.2045   22.8006 H   0  0  0  0  0  0
    6.6610   54.7602   20.9527 H   0  0  0  0  0  0
    5.1102   55.5243   20.6169 H   0  0  0  0  0  0
    2.3257   50.7398   16.1146 H   0  0  0  0  0  0
    0.9498   51.8336   16.0511 H   0  0  0  0  0  0
    2.5473   52.4413   15.6870 H   0  0  0  0  0  0
    0.5738   49.8998   17.9185 H   0  0  0  0  0  0
   -1.4234   48.9806   17.1935 H   0  0  0  0  0  0
   -2.0234   49.5440   18.7611 H   0  0  0  0  0  0
   -2.2053   50.5606   17.3213 H   0  0  0  0  0  0
    4.2092   52.3957   17.3741 H   0  0  0  0  0  0
  1  2  1  0  0  0
  1 34  1  0  0  0
  1 35  1  0  0  0
  1 36  1  0  0  0
  2  7  2  0  0  0
  2  3  1  0  0  0
  3  4  2  0  0  0
  3 37  1  0  0  0
  4  5  1  0  0  0
  4 38  1  0  0  0
  5  6  2  0  0  0
  5  8  1  0  0  0
  6  7  1  0  0  0
  6 39  1  0  0  0
  7 40  1  0  0  0
  8  9  2  0  0  0
  8 10  2  0  0  0
  8 11  1  0  0  0
 11 12  1  0  0  0
 11 41  1  0  0  0
 12 17  2  0  0  0
 12 13  1  0  0  0
 13 14  2  0  0  0
 13 42  1  0  0  0
 14 15  1  0  0  0
 14 43  1  0  0  0
 15 16  2  0  0  0
 15 44  1  0  0  0
 16 17  1  0  0  0
 16 18  1  0  0  0
 17 45  1  0  0  0
 18 19  1  0  0  0
 18 24  1  0  0  0
 18 20  1  0  0  0
 20 21  2  0  0  0
 20 30  1  0  0  0
 21 22  1  0  0  0
 21 29  1  0  0  0
 22 23  2  0  0  0
 22 59  1  0  0  0
 23 28  1  0  0  0
 23 24  1  0  0  0
 24 25  1  0  0  0
 25 26  1  0  0  0
 25 46  1  0  0  0
 25 47  1  0  0  0
 26 27  1  0  0  0
 26 48  1  0  0  0
 26 49  1  0  0  0
 27 28  1  0  0  0
 27 50  1  0  0  0
 27 51  1  0  0  0
 29 52  1  0  0  0
 29 53  1  0  0  0
 29 54  1  0  0  0
 30 31  2  0  0  0
 30 32  1  0  0  0
 32 33  1  0  0  0
 32 55  1  0  0  0
 33 56  1  0  0  0
 33 57  1  0  0  0
 33 58  1  0  0  0
M  CHG  1  22   1
M  END
> <i_i_glide_confnum>
25

> <i_i_glide_lignum>
168

> <i_i_glide_posenum>
353

> <i_i_glide_rotatable_bonds>
6

> <i_m_Source_File_Index>
2176

> <b_m_subgroup_collapsed>
0

> <r_i_docking_score>
-3.42411

> <r_i_glide_ecoul>
-3.93856

> <r_i_glide_eff_state_penalty>
0

> <r_i_glide_einternal>
1.78036

> <r_i_glide_emodel>
-42.7938

> <r_i_glide_energy>
-35.3683

> <r_i_glide_erotb>
0.454402

> <r_i_glide_esite>
-0.171421

> <r_i_glide_evdw>
-31.4297

> <r_i_glide_gscore>
-3.42411

> <r_i_glide_hbond>
0

> <r_i_glide_ligand_efficiency>
-0.107003

> <r_i_glide_ligand_efficiency_ln>
-0.766751

> <r_i_glide_ligand_efficiency_sa>
-0.339715

> <r_i_glide_lipo>
-1.39304

> <r_i_glide_metal>
0

> <r_i_glide_rewards>
-0.151777

> <s_i_glide_gridfile>
wee1_glide-grid

> <s_m_Source_File>
wee1_decoys_glide_SP.sdf

> <s_m_Source_Path>
/Users/zhangxujun/Desktop

> <s_m_entry_id>
2451

> <s_m_entry_name>
wee1_decoys_glide_SP.2176

> <s_m_subgroup_title>
wee1_decoys_glide_SP

> <s_m_subgroupid>
wee1_decoys_glide_SP


$$$$
