ZINC59466901_2534
                    3D
 Schrodinger Suite 2024-2.
 52 54  0  0  1  0            999 V2000
    1.1022   52.7600   30.5508 C   0  0  0  0  0  0
    1.2850   52.8255   29.0383 C   0  0  0  0  0  0
    2.4626   53.2731   28.3694 C   0  0  0  0  0  0
    2.3456   53.2570   26.9638 C   0  0  0  0  0  0
    0.8377   52.4967   26.5118 S   0  0  0  0  0  0
    0.3249   52.3288   28.1498 C   0  0  0  0  0  0
   -1.0189   51.6944   28.4225 C   0  0  0  0  0  0
    3.2750   53.6965   26.0517 N   0  0  0  0  0  0
    3.0754   53.6968   24.7912 C   0  0  0  0  0  0
    4.0864   54.0983   23.8065 C   0  0  0  0  0  0
    5.3811   54.4968   24.1736 C   0  0  0  0  0  0
    6.3046   54.8926   23.2066 C   0  0  0  0  0  0
    5.9547   54.8967   21.8522 C   0  0  0  0  0  0
    4.6652   54.4860   21.4875 C   0  0  0  0  0  0
    3.7427   54.0965   22.4518 C   0  0  0  0  0  0
    6.9406   55.2972   20.8446 C   0  0  0  0  0  0
    6.8618   54.8973   19.6374 N   0  0  0  0  0  0
    7.8101   55.1696   18.6889 C   0  0  0  0  0  0
    8.7530   56.6326   18.7124 S   0  0  0  0  0  0
    9.6142   56.1989   17.2789 C   0  0  0  0  0  0
    9.1826   54.9626   16.7792 C   0  0  0  0  0  0
    8.1297   54.3930   17.5541 C   0  0  0  0  0  0
    7.5686   53.0732   17.2815 C   0  0  0  0  0  0
    8.2440   52.1510   16.8313 O   0  0  0  0  0  0
    6.2887   52.8967   17.6149 N   0  0  0  0  0  0
    9.7287   54.3775   15.4827 C   0  0  0  0  0  0
   10.6798   57.1404   16.7588 C   0  0  0  0  0  0
    3.6139   53.8030   29.0758 C   0  0  0  0  0  0
    3.5052   54.4961   30.0816 O   0  0  0  0  0  0
    4.8054   53.4528   28.5906 N   0  0  0  0  0  0
    2.0247   52.4860   31.0638 H   0  0  0  0  0  0
    0.7910   53.7217   30.9612 H   0  0  0  0  0  0
    0.3756   52.0129   30.8678 H   0  0  0  0  0  0
   -1.3563   51.8151   29.4509 H   0  0  0  0  0  0
   -1.8013   52.0965   27.7804 H   0  0  0  0  0  0
   -0.9865   50.6233   28.2243 H   0  0  0  0  0  0
    2.1320   53.3834   24.3527 H   0  0  0  0  0  0
    5.6799   54.5070   25.2125 H   0  0  0  0  0  0
    7.2950   55.1911   23.5211 H   0  0  0  0  0  0
    4.3606   54.4729   20.4495 H   0  0  0  0  0  0
    2.7543   53.8004   22.1258 H   0  0  0  0  0  0
    7.7571   55.9154   21.2110 H   0  0  0  0  0  0
    5.7764   53.6501   18.0456 H   0  0  0  0  0  0
    5.9047   51.9470   17.6458 H   0  0  0  0  0  0
   10.1087   55.1365   14.7999 H   0  0  0  0  0  0
   10.5272   53.6592   15.6688 H   0  0  0  0  0  0
    8.9590   53.8565   14.9127 H   0  0  0  0  0  0
   11.2673   56.7146   15.9456 H   0  0  0  0  0  0
   10.2453   58.0691   16.3892 H   0  0  0  0  0  0
   11.3875   57.4075   17.5438 H   0  0  0  0  0  0
    4.8622   52.9559   27.7127 H   0  0  0  0  0  0
    5.6435   53.7778   29.0481 H   0  0  0  0  0  0
  1  2  1  0  0  0
  1 31  1  0  0  0
  1 32  1  0  0  0
  1 33  1  0  0  0
  2  6  2  0  0  0
  2  3  1  0  0  0
  3  4  2  0  0  0
  3 28  1  0  0  0
  4  5  1  0  0  0
  4  8  1  0  0  0
  5  6  1  0  0  0
  6  7  1  0  0  0
  7 34  1  0  0  0
  7 35  1  0  0  0
  7 36  1  0  0  0
  8  9  2  0  0  0
  9 10  1  0  0  0
  9 37  1  0  0  0
 10 15  2  0  0  0
 10 11  1  0  0  0
 11 12  2  0  0  0
 11 38  1  0  0  0
 12 13  1  0  0  0
 12 39  1  0  0  0
 13 14  2  0  0  0
 13 16  1  0  0  0
 14 15  1  0  0  0
 14 40  1  0  0  0
 15 41  1  0  0  0
 16 17  2  0  0  0
 16 42  1  0  0  0
 17 18  1  0  0  0
 18 22  2  0  0  0
 18 19  1  0  0  0
 19 20  1  0  0  0
 20 21  2  0  0  0
 20 27  1  0  0  0
 21 22  1  0  0  0
 21 26  1  0  0  0
 22 23  1  0  0  0
 23 24  2  0  0  0
 23 25  1  0  0  0
 25 43  1  0  0  0
 25 44  1  0  0  0
 26 45  1  0  0  0
 26 46  1  0  0  0
 26 47  1  0  0  0
 27 48  1  0  0  0
 27 49  1  0  0  0
 27 50  1  0  0  0
 28 29  2  0  0  0
 28 30  1  0  0  0
 30 51  1  0  0  0
 30 52  1  0  0  0
M  END
> <i_i_glide_confnum>
5

> <i_i_glide_lignum>
2535

> <i_i_glide_posenum>
177

> <i_i_glide_rotatable_bonds>
6

> <i_m_Source_File_Index>
3259

> <b_m_subgroup_collapsed>
0

> <r_i_docking_score>
-6.82796

> <r_i_glide_ecoul>
-8.15517

> <r_i_glide_eff_state_penalty>
0

> <r_i_glide_einternal>
2.26794

> <r_i_glide_emodel>
-71.0009

> <r_i_glide_energy>
-50.4932

> <r_i_glide_erotb>
0.414905

> <r_i_glide_esite>
-0.103098

> <r_i_glide_evdw>
-42.3381

> <r_i_glide_gscore>
-6.82796

> <r_i_glide_hbond>
-0.456

> <r_i_glide_ligand_efficiency>
-0.227599

> <r_i_glide_ligand_efficiency_ln>
-1.55139

> <r_i_glide_ligand_efficiency_sa>
-0.707202

> <r_i_glide_lipo>
-2.06859

> <r_i_glide_metal>
0

> <r_i_glide_rewards>
-1.275

> <s_i_glide_gridfile>
wee1_glide-grid

> <s_m_Source_File>
wee1_decoys_glide_SP.sdf

> <s_m_Source_Path>
/Users/zhangxujun/Desktop

> <s_m_entry_id>
3534

> <s_m_entry_name>
wee1_decoys_glide_SP.3259

> <s_m_subgroup_title>
wee1_decoys_glide_SP

> <s_m_subgroupid>
wee1_decoys_glide_SP


$$$$
