ZINC50633927_1650
                    3D
 Schrodinger Suite 2024-2.
 35 36  0  0  1  0            999 V2000
    5.9407   53.9231   23.5784 C   0  0  0  0  0  0
    6.5941   54.4776   24.8612 C   0  0  0  0  0  0
    6.9585   55.9525   24.6537 C   0  0  0  0  0  0
    5.7138   54.3303   26.0994 C   0  0  0  0  0  0
    4.4496   54.8963   26.0808 C   0  0  0  0  0  0
    3.6407   54.8201   27.1961 C   0  0  0  0  0  0
    3.9986   54.1129   28.3464 C   0  0  0  0  0  0
    5.2851   53.5593   28.3566 C   0  0  0  0  0  0
    6.1477   53.6807   27.2596 C   0  0  0  0  0  0
    3.1677   53.9111   29.4306 N   0  5  0  0  0  0
    1.6581   54.3738   29.5337 S   0  0  0  0  0  0
    1.1044   54.1957   30.8793 O   0  0  0  0  0  0
    1.3361   55.6408   28.8710 O   0  0  0  0  0  0
    0.8324   53.1083   28.5619 C   0  0  0  0  0  0
    1.0336   52.9225   27.1861 C   0  0  0  0  0  0
    0.4086   51.9592   26.4669 N   0  0  0  0  0  0
   -0.4435   51.1734   27.1574 C   0  0  0  0  0  0
   -0.7525   51.2967   28.4704 N   0  0  0  0  0  0
   -0.0965   52.2566   29.1648 C   0  0  0  0  0  0
   -0.9888   50.0967   26.4817 N   0  0  0  0  0  0
    5.6107   52.8968   23.6988 H   0  0  0  0  0  0
    6.6450   53.9401   22.7465 H   0  0  0  0  0  0
    5.0706   54.5062   23.2764 H   0  0  0  0  0  0
    7.5044   53.9064   25.0227 H   0  0  0  0  0  0
    7.5044   56.3512   25.5050 H   0  0  0  0  0  0
    7.5521   56.0962   23.7543 H   0  0  0  0  0  0
    6.0656   56.5627   24.5310 H   0  0  0  0  0  0
    4.0889   55.4118   25.2068 H   0  0  0  0  0  0
    2.7031   55.3132   27.1090 H   0  0  0  0  0  0
    5.6140   53.0086   29.2239 H   0  0  0  0  0  0
    7.1311   53.2365   27.3041 H   0  0  0  0  0  0
    1.6767   53.5414   26.5938 H   0  0  0  0  0  0
   -0.3347   52.3229   30.2182 H   0  0  0  0  0  0
   -1.2973   49.3527   27.1219 H   0  0  0  0  0  0
   -0.6144   49.8708   25.5756 H   0  0  0  0  0  0
  1  2  1  0  0  0
  1 21  1  0  0  0
  1 22  1  0  0  0
  1 23  1  0  0  0
  2  3  1  0  0  0
  2  4  1  0  0  0
  2 24  1  0  0  0
  3 25  1  0  0  0
  3 26  1  0  0  0
  3 27  1  0  0  0
  4  9  2  0  0  0
  4  5  1  0  0  0
  5  6  2  0  0  0
  5 28  1  0  0  0
  6  7  1  0  0  0
  6 29  1  0  0  0
  7  8  2  0  0  0
  7 10  1  0  0  0
  8  9  1  0  0  0
  8 30  1  0  0  0
  9 31  1  0  0  0
 10 11  1  0  0  0
 11 12  2  0  0  0
 11 13  2  0  0  0
 11 14  1  0  0  0
 14 19  2  0  0  0
 14 15  1  0  0  0
 15 16  2  0  0  0
 15 32  1  0  0  0
 16 17  1  0  0  0
 17 18  2  0  0  0
 17 20  1  0  0  0
 18 19  1  0  0  0
 19 33  1  0  0  0
 20 34  1  0  0  0
 20 35  1  0  0  0
M  CHG  1  10  -1
M  END
> <i_i_glide_confnum>
5

> <i_i_glide_lignum>
1651

> <i_i_glide_posenum>
315

> <i_i_glide_rotatable_bonds>
4

> <i_m_Source_File_Index>
1422

> <b_m_subgroup_collapsed>
0

> <r_i_docking_score>
-5.85902

> <r_i_glide_ecoul>
-5.59884

> <r_i_glide_eff_state_penalty>
0

> <r_i_glide_einternal>
1.56309

> <r_i_glide_emodel>
-45.7126

> <r_i_glide_energy>
-34.0488

> <r_i_glide_erotb>
0.644626

> <r_i_glide_esite>
-0.164941

> <r_i_glide_evdw>
-28.4499

> <r_i_glide_gscore>
-5.85902

> <r_i_glide_hbond>
-0.16

> <r_i_glide_ligand_efficiency>
-0.292951

> <r_i_glide_ligand_efficiency_ln>
-1.46632

> <r_i_glide_ligand_efficiency_sa>
-0.795192

> <r_i_glide_lipo>
-2.70577

> <r_i_glide_metal>
0

> <r_i_glide_rewards>
-1.21062

> <s_i_glide_gridfile>
wee1_glide-grid

> <s_m_Source_File>
wee1_decoys_glide_SP.sdf

> <s_m_Source_Path>
/Users/zhangxujun/Desktop

> <s_m_entry_id>
1697

> <s_m_entry_name>
wee1_decoys_glide_SP.1422

> <s_m_subgroup_title>
wee1_decoys_glide_SP

> <s_m_subgroupid>
wee1_decoys_glide_SP


$$$$
