ZINC02889368_2507
                    3D
 Schrodinger Suite 2024-2.
 57 59  0  0  1  0            999 V2000
   10.5869   54.7583   17.6299 C   0  0  0  0  0  0
    9.1723   55.3308   17.6378 C   0  0  0  0  0  0
    9.0347   56.6997   17.8245 C   0  0  0  0  0  0
    7.7859   57.3111   17.8039 C   0  0  0  0  0  0
    6.6268   56.5364   17.5989 C   0  0  0  0  0  0
    6.7401   55.1254   17.4428 C   0  0  0  0  0  0
    8.0315   54.5296   17.4486 C   0  0  0  0  0  0
    8.2250   53.0157   17.2822 C   0  0  0  0  0  0
    5.2697   54.0549   17.1773 S   0  0  0  0  0  0
    5.6326   53.0026   16.2226 O   0  0  0  0  0  0
    4.0739   54.8585   16.9018 O   0  0  0  0  0  0
    5.0384   53.2967   18.7491 N   0  0  0  0  0  0
    4.1418   53.9510   19.6908 C   0  0  0  0  0  0
    4.2682   53.4017   21.1208 C   0  0  0  0  0  0
    4.2073   52.1852   21.3335 O   0  0  0  0  0  0
    4.3947   54.3331   22.0922 N   0  0  0  0  0  0
    4.2204   54.0966   23.4497 C   0  0  0  0  0  0
    5.0888   54.3765   24.5301 C   0  0  0  0  0  0
    4.4422   54.1500   25.7822 C   0  0  0  0  0  0
    3.1215   53.6969   25.6272 C   0  0  0  0  0  0
    2.6436   53.5965   23.9718 S   0  0  0  0  0  0
    2.1557   53.3878   26.7610 C   0  0  0  0  0  0
    2.9485   53.1816   28.0661 C   0  0  0  0  0  0
    3.9721   54.3053   28.2857 C   0  0  0  0  0  0
    5.0523   54.3465   27.1822 C   0  0  0  0  0  0
    6.4443   54.8961   24.4096 C   0  0  0  0  0  0
    6.9988   55.5457   25.2937 O   0  0  0  0  0  0
    7.1041   54.5997   23.2926 N   0  0  0  0  0  0
    5.2709   57.2516   17.5582 C   0  0  0  0  0  0
    7.7431   58.8249   17.9976 C   0  0  0  0  0  0
   10.7401   54.0997   18.4807 H   0  0  0  0  0  0
   10.7561   54.1762   16.7228 H   0  0  0  0  0  0
   11.3519   55.5337   17.6623 H   0  0  0  0  0  0
    9.9210   57.3001   17.9764 H   0  0  0  0  0  0
    9.1659   52.6433   17.6821 H   0  0  0  0  0  0
    7.4630   52.4535   17.8189 H   0  0  0  0  0  0
    8.1759   52.7393   16.2287 H   0  0  0  0  0  0
    4.8988   52.2779   18.6747 H   0  0  0  0  0  0
    3.1056   53.8454   19.3640 H   0  0  0  0  0  0
    4.3345   55.0249   19.6894 H   0  0  0  0  0  0
    4.5455   55.2948   21.8174 H   0  0  0  0  0  0
    1.5565   52.5056   26.5412 H   0  0  0  0  0  0
    1.4638   54.2182   26.8878 H   0  0  0  0  0  0
    3.4619   52.2187   28.0445 H   0  0  0  0  0  0
    2.2582   53.1359   28.9082 H   0  0  0  0  0  0
    4.4522   54.1935   29.2603 H   0  0  0  0  0  0
    3.4488   55.2622   28.3175 H   0  0  0  0  0  0
    5.5804   55.2966   27.2725 H   0  0  0  0  0  0
    5.7900   53.5623   27.3645 H   0  0  0  0  0  0
    6.6698   54.0655   22.5545 H   0  0  0  0  0  0
    8.0773   54.8935   23.2376 H   0  0  0  0  0  0
    5.3033   58.3169   17.7727 H   0  0  0  0  0  0
    4.8278   57.1569   16.5685 H   0  0  0  0  0  0
    4.5860   56.8208   18.2866 H   0  0  0  0  0  0
    8.7363   59.2604   18.1117 H   0  0  0  0  0  0
    7.2723   59.3057   17.1391 H   0  0  0  0  0  0
    7.1605   59.0846   18.8822 H   0  0  0  0  0  0
  1  2  1  0  0  0
  1 31  1  0  0  0
  1 32  1  0  0  0
  1 33  1  0  0  0
  2  7  2  0  0  0
  2  3  1  0  0  0
  3  4  2  0  0  0
  3 34  1  0  0  0
  4  5  1  0  0  0
  4 30  1  0  0  0
  5  6  2  0  0  0
  5 29  1  0  0  0
  6  7  1  0  0  0
  6  9  1  0  0  0
  7  8  1  0  0  0
  8 35  1  0  0  0
  8 36  1  0  0  0
  8 37  1  0  0  0
  9 10  2  0  0  0
  9 11  2  0  0  0
  9 12  1  0  0  0
 12 13  1  0  0  0
 12 38  1  0  0  0
 13 14  1  0  0  0
 13 39  1  0  0  0
 13 40  1  0  0  0
 14 15  2  0  0  0
 14 16  1  0  0  0
 16 17  1  0  0  0
 16 41  1  0  0  0
 17 21  1  0  0  0
 17 18  2  0  0  0
 18 19  1  0  0  0
 18 26  1  0  0  0
 19 25  1  0  0  0
 19 20  2  0  0  0
 20 21  1  0  0  0
 20 22  1  0  0  0
 22 23  1  0  0  0
 22 42  1  0  0  0
 22 43  1  0  0  0
 23 24  1  0  0  0
 23 44  1  0  0  0
 23 45  1  0  0  0
 24 25  1  0  0  0
 24 46  1  0  0  0
 24 47  1  0  0  0
 25 48  1  0  0  0
 25 49  1  0  0  0
 26 27  2  0  0  0
 26 28  1  0  0  0
 28 50  1  0  0  0
 28 51  1  0  0  0
 29 52  1  0  0  0
 29 53  1  0  0  0
 29 54  1  0  0  0
 30 55  1  0  0  0
 30 56  1  0  0  0
 30 57  1  0  0  0
M  END
> <i_i_glide_confnum>
206

> <i_i_glide_lignum>
2508

> <i_i_glide_posenum>
262

> <i_i_glide_rotatable_bonds>
7

> <i_m_Source_File_Index>
3899

> <b_m_subgroup_collapsed>
0

> <r_i_docking_score>
-6.68315

> <r_i_glide_ecoul>
-8.59034

> <r_i_glide_eff_state_penalty>
0

> <r_i_glide_einternal>
10.8663

> <r_i_glide_emodel>
-62.2715

> <r_i_glide_energy>
-48.6917

> <r_i_glide_erotb>
0.594927

> <r_i_glide_esite>
-0.133263

> <r_i_glide_evdw>
-40.1014

> <r_i_glide_gscore>
-6.68315

> <r_i_glide_hbond>
-0.717152

> <r_i_glide_ligand_efficiency>
-0.222772

> <r_i_glide_ligand_efficiency_ln>
-1.51848

> <r_i_glide_ligand_efficiency_sa>
-0.692203

> <r_i_glide_lipo>
-2.18742

> <r_i_glide_metal>
0

> <r_i_glide_rewards>
-0.946624

> <s_i_glide_gridfile>
wee1_glide-grid

> <s_m_Source_File>
wee1_decoys_glide_SP.sdf

> <s_m_Source_Path>
/Users/zhangxujun/Desktop

> <s_m_entry_id>
4174

> <s_m_entry_name>
wee1_decoys_glide_SP.3899

> <s_m_subgroup_title>
wee1_decoys_glide_SP

> <s_m_subgroupid>
wee1_decoys_glide_SP


$$$$
