ZINC38796911_739
                    3D
 Schrodinger Suite 2024-2.
 54 57  0  0  1  0            999 V2000
   -0.0970   53.7699   29.9439 C   0  0  0  0  0  0
    0.3184   53.4087   28.5935 N   0  0  0  0  0  0
    1.4393   54.1303   27.9532 C   0  0  0  0  0  0
    2.7527   54.2420   28.7917 C   0  0  0  0  0  0
    2.7046   54.2738   30.0205 O   0  0  0  0  0  0
    3.9869   54.3136   28.2430 N   0  0  0  0  0  0
    4.4872   54.3168   26.9229 C   0  0  0  0  0  0
    3.7228   54.5734   25.7765 C   0  0  0  0  0  0
    4.2855   54.4972   24.5031 C   0  0  0  0  0  0
    5.6508   54.2793   24.3584 C   0  0  0  0  0  0
    6.4393   54.0966   25.4891 C   0  0  0  0  0  0
    5.8647   54.0770   26.7615 C   0  0  0  0  0  0
    7.0030   53.6967   28.2450 Br  0  0  0  0  0  0
   -0.2106   52.0782   28.1340 C   0  0  1  0  0  0
   -0.3331   51.5200   29.0645 H   0  0  0  0  0  0
   -1.5803   51.9580   27.4819 C   0  0  0  0  0  0
   -2.5494   51.1419   28.0794 C   0  0  0  0  0  0
   -3.8091   50.9914   27.5080 C   0  0  0  0  0  0
   -4.1169   51.6699   26.3327 C   0  0  0  0  0  0
   -3.1738   52.4972   25.7304 C   0  0  0  0  0  0
   -1.9140   52.6402   26.3069 C   0  0  0  0  0  0
    0.8511   51.2179   27.4707 C   0  0  0  0  0  0
    1.8986   50.9925   28.0817 O   0  0  0  0  0  0
    0.6082   50.5952   26.1642 C   0  0  0  0  0  0
    0.6958   51.0955   24.9111 C   0  0  0  0  0  0
    0.9880   52.4418   24.3861 C   0  0  0  0  0  0
    1.0727   52.6671   23.0596 C   0  0  0  0  0  0
    0.8647   51.5419   22.1618 C   0  0  0  0  0  0
    0.5907   50.2933   22.6233 C   0  0  0  0  0  0
    0.5135   50.0471   23.9996 C   0  0  0  0  0  0
    0.3042   48.9118   24.6258 N   0  3  0  0  0  0
    0.3413   49.1108   26.0821 C   0  0  0  0  0  0
   -0.0316   54.8451   30.1127 H   0  0  0  0  0  0
   -1.1234   53.4542   30.0975 H   0  0  0  0  0  0
    0.5140   53.2591   30.6889 H   0  0  0  0  0  0
    1.6646   53.6262   27.0265 H   0  0  0  0  0  0
    1.1119   55.1339   27.6816 H   0  0  0  0  0  0
    4.7223   54.3374   28.9341 H   0  0  0  0  0  0
    2.7044   54.8943   25.8338 H   0  0  0  0  0  0
    3.6772   54.6839   23.6299 H   0  0  0  0  0  0
    6.1005   54.2666   23.3756 H   0  0  0  0  0  0
    7.4952   53.9266   25.3690 H   0  0  0  0  0  0
   -2.3239   50.5891   28.9835 H   0  0  0  0  0  0
   -4.5395   50.3435   27.9737 H   0  0  0  0  0  0
   -5.0945   51.5515   25.8857 H   0  0  0  0  0  0
   -3.4174   53.0251   24.8208 H   0  0  0  0  0  0
   -1.2034   53.2917   25.8293 H   0  0  0  0  0  0
    1.1221   53.2897   25.0341 H   0  0  0  0  0  0
    1.2831   53.6531   22.6692 H   0  0  0  0  0  0
    0.9335   51.7062   21.0948 H   0  0  0  0  0  0
    0.4471   49.4978   21.9062 H   0  0  0  0  0  0
   -0.6239   48.7995   26.4816 H   0  0  0  0  0  0
    1.1433   48.4965   26.4924 H   0  0  0  0  0  0
    0.1581   48.0105   24.1844 H   0  0  0  0  0  0
  1  2  1  0  0  0
  1 33  1  0  0  0
  1 34  1  0  0  0
  1 35  1  0  0  0
  2  3  1  0  0  0
  2 14  1  0  0  0
  3  4  1  0  0  0
  3 36  1  0  0  0
  3 37  1  0  0  0
  4  5  2  0  0  0
  4  6  1  0  0  0
  6  7  1  0  0  0
  6 38  1  0  0  0
  7 12  2  0  0  0
  7  8  1  0  0  0
  8  9  2  0  0  0
  8 39  1  0  0  0
  9 10  1  0  0  0
  9 40  1  0  0  0
 10 11  2  0  0  0
 10 41  1  0  0  0
 11 12  1  0  0  0
 11 42  1  0  0  0
 12 13  1  0  0  0
 14 15  1  0  0  0
 14 16  1  0  0  0
 14 22  1  0  0  0
 16 21  2  0  0  0
 16 17  1  0  0  0
 17 18  2  0  0  0
 17 43  1  0  0  0
 18 19  1  0  0  0
 18 44  1  0  0  0
 19 20  2  0  0  0
 19 45  1  0  0  0
 20 21  1  0  0  0
 20 46  1  0  0  0
 21 47  1  0  0  0
 22 23  2  0  0  0
 22 24  1  0  0  0
 24 32  1  0  0  0
 24 25  2  0  0  0
 25 30  1  0  0  0
 25 26  1  0  0  0
 26 27  2  0  0  0
 26 48  1  0  0  0
 27 28  1  0  0  0
 27 49  1  0  0  0
 28 29  2  0  0  0
 28 50  1  0  0  0
 29 30  1  0  0  0
 29 51  1  0  0  0
 30 31  2  0  0  0
 31 32  1  0  0  0
 31 54  1  0  0  0
 32 52  1  0  0  0
 32 53  1  0  0  0
M  CHG  1  31   1
M  END
> <i_i_glide_confnum>
105

> <i_i_glide_lignum>
740

> <i_i_glide_posenum>
5

> <i_i_glide_rotatable_bonds>
8

> <i_m_Source_File_Index>
2829

> <b_m_subgroup_collapsed>
0

> <r_i_docking_score>
-4.18423

> <r_i_glide_ecoul>
-5.8572

> <r_i_glide_eff_state_penalty>
0

> <r_i_glide_einternal>
21.4006

> <r_i_glide_emodel>
-41.5793

> <r_i_glide_energy>
-42.3757

> <r_i_glide_erotb>
0.622228

> <r_i_glide_esite>
-0.0515325

> <r_i_glide_evdw>
-36.5185

> <r_i_glide_gscore>
-4.18423

> <r_i_glide_hbond>
-0.32

> <r_i_glide_ligand_efficiency>
-0.134975

> <r_i_glide_ligand_efficiency_ln>
-0.943672

> <r_i_glide_ligand_efficiency_sa>
-0.424009

> <r_i_glide_lipo>
-2.60866

> <r_i_glide_metal>
0

> <r_i_glide_rewards>
0.878241

> <s_i_glide_gridfile>
wee1_glide-grid

> <s_m_Source_File>
wee1_decoys_glide_SP.sdf

> <s_m_Source_Path>
/Users/zhangxujun/Desktop

> <s_m_entry_id>
3104

> <s_m_entry_name>
wee1_decoys_glide_SP.2829

> <s_m_subgroup_title>
wee1_decoys_glide_SP

> <s_m_subgroupid>
wee1_decoys_glide_SP


$$$$
