ZINC63067335_1920
                    3D
 Schrodinger Suite 2024-2.
 39 40  0  0  1  0            999 V2000
    3.5029   53.3150   29.8753 C   0  0  0  0  0  0
    2.0026   53.6344   29.6231 C   0  0  0  0  0  0
    1.1734   52.8624   30.6725 C   0  0  0  0  0  0
   -0.1390   52.5863   29.9878 C   0  0  0  0  0  0
    0.3000   52.3750   28.5481 C   0  0  0  0  0  0
    1.5148   53.1655   28.3031 N   0  0  0  0  0  0
    2.0635   53.3768   27.0175 C   0  0  0  0  0  0
    3.1678   54.2034   26.8114 C   0  0  0  0  0  0
    3.7304   54.3585   25.5528 C   0  0  0  0  0  0
    3.2195   53.7032   24.4198 C   0  0  0  0  0  0
    2.0580   52.8968   24.5975 C   0  0  0  0  0  0
    1.5124   52.7587   25.8880 C   0  0  0  0  0  0
    1.4022   52.0762   23.4658 C   0  0  0  0  0  0
    2.3042   51.4718   22.6966 F   0  0  0  0  0  0
    0.5940   51.1183   23.9250 F   0  0  0  0  0  0
    0.6739   52.8966   22.7084 F   0  0  0  0  0  0
    3.9572   53.9309   23.1414 C   0  0  0  0  0  0
    5.2360   53.9333   23.1731 N   0  0  0  0  0  0
    5.8516   54.2905   21.9574 O   0  0  0  0  0  0
    3.1044   54.1631   22.0821 N   0  0  0  0  0  0
    1.7376   55.1577   29.7569 C   0  0  0  0  0  0
    3.7367   53.2875   30.9378 H   0  0  0  0  0  0
    3.7700   52.3336   29.4764 H   0  0  0  0  0  0
    4.1928   54.0385   29.4461 H   0  0  0  0  0  0
    1.0822   53.3735   31.6320 H   0  0  0  0  0  0
    1.6438   51.9047   30.9026 H   0  0  0  0  0  0
   -0.8230   53.4314   30.0657 H   0  0  0  0  0  0
   -0.6469   51.7116   30.3984 H   0  0  0  0  0  0
   -0.4952   52.7370   27.8954 H   0  0  0  0  0  0
    0.4633   51.3159   28.3378 H   0  0  0  0  0  0
    3.6177   54.7587   27.6119 H   0  0  0  0  0  0
    4.5937   55.0058   25.4748 H   0  0  0  0  0  0
    0.6529   52.1216   26.0217 H   0  0  0  0  0  0
    5.1013   54.4582   21.3854 H   0  0  0  0  0  0
    3.4078   54.2862   21.1295 H   0  0  0  0  0  0
    2.1065   54.0932   22.2267 H   0  0  0  0  0  0
    1.9047   55.5224   30.7708 H   0  0  0  0  0  0
    2.3545   55.7571   29.0891 H   0  0  0  0  0  0
    0.7048   55.3973   29.5087 H   0  0  0  0  0  0
  1  2  1  0  0  0
  1 22  1  0  0  0
  1 23  1  0  0  0
  1 24  1  0  0  0
  2  6  1  0  0  0
  2  3  1  0  0  0
  2 21  1  0  0  0
  3  4  1  0  0  0
  3 25  1  0  0  0
  3 26  1  0  0  0
  4  5  1  0  0  0
  4 27  1  0  0  0
  4 28  1  0  0  0
  5  6  1  0  0  0
  5 29  1  0  0  0
  5 30  1  0  0  0
  6  7  1  0  0  0
  7 12  2  0  0  0
  7  8  1  0  0  0
  8  9  2  0  0  0
  8 31  1  0  0  0
  9 10  1  0  0  0
  9 32  1  0  0  0
 10 11  2  0  0  0
 10 17  1  0  0  0
 11 12  1  0  0  0
 11 13  1  0  0  0
 12 33  1  0  0  0
 13 14  1  0  0  0
 13 15  1  0  0  0
 13 16  1  0  0  0
 17 18  2  0  0  0
 17 20  1  0  0  0
 18 19  1  0  0  0
 19 34  1  0  0  0
 20 35  1  0  0  0
 20 36  1  0  0  0
 21 37  1  0  0  0
 21 38  1  0  0  0
 21 39  1  0  0  0
M  END
> <i_i_glide_confnum>
6

> <i_i_glide_lignum>
1921

> <i_i_glide_posenum>
146

> <i_i_glide_rotatable_bonds>
4

> <i_m_Source_File_Index>
1881

> <b_m_subgroup_collapsed>
0

> <r_i_docking_score>
-5.23025

> <r_i_glide_ecoul>
-1.42822

> <r_i_glide_eff_state_penalty>
0

> <r_i_glide_einternal>
1.41803

> <r_i_glide_emodel>
-43.8761

> <r_i_glide_energy>
-32.9555

> <r_i_glide_erotb>
0.607855

> <r_i_glide_esite>
-0.00112645

> <r_i_glide_evdw>
-31.5273

> <r_i_glide_gscore>
-5.23025

> <r_i_glide_hbond>
0

> <r_i_glide_ligand_efficiency>
-0.24906

> <r_i_glide_ligand_efficiency_ln>
-1.29317

> <r_i_glide_ligand_efficiency_sa>
-0.687136

> <r_i_glide_lipo>
-1.87682

> <r_i_glide_metal>
0

> <r_i_glide_rewards>
-2.16957

> <s_i_glide_gridfile>
wee1_glide-grid

> <s_m_Source_File>
wee1_decoys_glide_SP.sdf

> <s_m_Source_Path>
/Users/zhangxujun/Desktop

> <s_m_entry_id>
2156

> <s_m_entry_name>
wee1_decoys_glide_SP.1881

> <s_m_subgroup_title>
wee1_decoys_glide_SP

> <s_m_subgroupid>
wee1_decoys_glide_SP


$$$$
