ZINC22076331_5238
                    3D
 Schrodinger Suite 2024-2.
 46 48  0  0  1  0            999 V2000
    3.9320   51.9726   31.4882 C   0  0  0  0  0  0
    3.6633   51.6988   30.1184 O   0  0  0  0  0  0
    2.6012   52.4033   29.6111 C   0  0  0  0  0  0
    1.4622   51.6972   29.2400 C   0  0  0  0  0  0
    0.3294   52.3590   28.7731 C   0  0  0  0  0  0
    0.3336   53.7540   28.7085 C   0  0  0  0  0  0
    1.4882   54.4724   29.0284 C   0  0  0  0  0  0
    2.6478   53.7927   29.4124 C   0  0  0  0  0  0
    3.8334   54.4880   29.4522 O   0  0  0  0  0  0
    4.8859   54.0382   28.5758 C   0  0  0  0  0  0
    4.6149   54.1909   27.0568 C   0  0  0  0  0  0
    3.4420   53.6976   26.4602 C   0  0  0  0  0  0
    3.2214   53.7956   25.0887 C   0  0  0  0  0  0
    4.1859   54.3752   24.2727 C   0  0  0  0  0  0
    5.3707   54.8451   24.8320 C   0  0  0  0  0  0
    5.5889   54.7456   26.2069 C   0  0  0  0  0  0
    7.1039   55.2963   26.8080 Cl  0  0  0  0  0  0
    3.9144   54.4960   22.5721 Cl  0  0  0  0  0  0
    1.5042   56.3723   28.8817 Br  0  0  0  0  0  0
   -0.8768   51.5371   28.3517 C   0  0  0  0  0  0
   -0.6530   50.8089   27.0166 N   0  3  0  0  0  0
   -0.7697   51.7105   25.7757 C   0  0  0  0  0  0
   -0.2565   50.9323   24.5908 C   0  0  0  0  0  0
   -0.8590   50.2659   23.5331 C   0  0  0  0  0  0
    0.1673   49.7329   22.7513 C   0  0  0  0  0  0
    1.3522   50.0956   23.3663 C   0  0  0  0  0  0
    1.0938   50.8268   24.4799 O   0  0  0  0  0  0
    4.7035   51.2991   31.8508 H   0  0  0  0  0  0
    4.3046   52.9862   31.6312 H   0  0  0  0  0  0
    3.0480   51.8319   32.1129 H   0  0  0  0  0  0
    1.4749   50.6215   29.2819 H   0  0  0  0  0  0
   -0.5365   54.2858   28.3611 H   0  0  0  0  0  0
    5.7395   54.6427   28.8800 H   0  0  0  0  0  0
    5.1879   53.0104   28.7766 H   0  0  0  0  0  0
    2.6874   53.1788   27.0223 H   0  0  0  0  0  0
    2.3123   53.4040   24.6589 H   0  0  0  0  0  0
    6.1284   55.2771   24.1938 H   0  0  0  0  0  0
   -1.8017   52.0968   28.2328 H   0  0  0  0  0  0
   -1.0654   50.7451   29.0762 H   0  0  0  0  0  0
   -1.2948   50.0223   26.9663 H   0  0  0  0  0  0
   -0.1808   52.6064   25.9812 H   0  0  0  0  0  0
   -1.8264   51.9736   25.7083 H   0  0  0  0  0  0
   -1.9192   50.1738   23.3513 H   0  0  0  0  0  0
    0.0612   49.1501   21.8478 H   0  0  0  0  0  0
    2.3937   49.9078   23.1477 H   0  0  0  0  0  0
    0.2712   50.4012   27.0372 H   0  0  0  0  0  0
  1  2  1  0  0  0
  1 28  1  0  0  0
  1 29  1  0  0  0
  1 30  1  0  0  0
  2  3  1  0  0  0
  3  8  2  0  0  0
  3  4  1  0  0  0
  4  5  2  0  0  0
  4 31  1  0  0  0
  5  6  1  0  0  0
  5 20  1  0  0  0
  6  7  2  0  0  0
  6 32  1  0  0  0
  7  8  1  0  0  0
  7 19  1  0  0  0
  8  9  1  0  0  0
  9 10  1  0  0  0
 10 11  1  0  0  0
 10 33  1  0  0  0
 10 34  1  0  0  0
 11 16  2  0  0  0
 11 12  1  0  0  0
 12 13  2  0  0  0
 12 35  1  0  0  0
 13 14  1  0  0  0
 13 36  1  0  0  0
 14 15  2  0  0  0
 14 18  1  0  0  0
 15 16  1  0  0  0
 15 37  1  0  0  0
 16 17  1  0  0  0
 20 21  1  0  0  0
 20 38  1  0  0  0
 20 39  1  0  0  0
 21 22  1  0  0  0
 21 40  1  0  0  0
 21 46  1  0  0  0
 22 23  1  0  0  0
 22 41  1  0  0  0
 22 42  1  0  0  0
 23 27  1  0  0  0
 23 24  2  0  0  0
 24 25  1  0  0  0
 24 43  1  0  0  0
 25 26  2  0  0  0
 25 44  1  0  0  0
 26 27  1  0  0  0
 26 45  1  0  0  0
M  CHG  1  21   1
M  END
> <i_i_glide_confnum>
29

> <i_i_glide_lignum>
5239

> <i_i_glide_posenum>
347

> <i_i_glide_rotatable_bonds>
8

> <i_m_Source_File_Index>
5600

> <b_m_subgroup_collapsed>
0

> <r_i_docking_score>
-5.86273

> <r_i_glide_ecoul>
-2.91161

> <r_i_glide_eff_state_penalty>
0

> <r_i_glide_einternal>
8.84509

> <r_i_glide_emodel>
-58.5364

> <r_i_glide_energy>
-43.6282

> <r_i_glide_erotb>
0.5441

> <r_i_glide_esite>
-0.0866374

> <r_i_glide_evdw>
-40.7166

> <r_i_glide_gscore>
-5.86273

> <r_i_glide_hbond>
-0.384205

> <r_i_glide_ligand_efficiency>
-0.217138

> <r_i_glide_ligand_efficiency_ln>
-1.36475

> <r_i_glide_ligand_efficiency_sa>
-0.651415

> <r_i_glide_lipo>
-3.1904

> <r_i_glide_metal>
0

> <r_i_glide_rewards>
-0.273021

> <s_i_glide_gridfile>
wee1_glide-grid

> <s_m_Source_File>
wee1_decoys_glide_SP.sdf

> <s_m_Source_Path>
/Users/zhangxujun/Desktop

> <s_m_entry_id>
5875

> <s_m_entry_name>
wee1_decoys_glide_SP.5600

> <s_m_subgroup_title>
wee1_decoys_glide_SP

> <s_m_subgroupid>
wee1_decoys_glide_SP


$$$$
