ZINC32971178_5950
                    3D
 Schrodinger Suite 2024-2.
 62 65  0  0  1  0            999 V2000
    5.8600   53.7093   28.6457 C   0  0  0  0  0  0
    5.0186   53.9540   27.4098 C   0  0  0  0  0  0
    5.5529   54.6912   26.3582 C   0  0  0  0  0  0
    4.8007   54.8965   25.2102 C   0  0  0  0  0  0
    3.5174   54.3614   25.1048 C   0  0  0  0  0  0
    2.9555   53.5841   26.1343 C   0  0  0  0  0  0
    3.7344   53.4109   27.2969 C   0  0  0  0  0  0
    1.7069   52.9574   25.9722 N   0  0  0  0  0  0
    0.9392   52.3132   27.0635 C   0  0  0  0  0  0
    0.3153   50.9648   26.6294 C   0  0  0  0  0  0
   -0.6367   51.1039   25.5243 N   0  0  0  0  0  0
   -0.4642   52.3527   24.7697 C   0  0  0  0  0  0
    1.0157   52.8330   24.6578 C   0  0  2  0  0  0
    0.9606   53.8382   24.2389 H   0  0  0  0  0  0
    1.7850   51.9460   23.6562 C   0  0  0  0  0  0
   -1.2322   49.9795   24.9725 C   0  0  0  0  0  0
   -0.5489   49.2470   23.9960 C   0  0  0  0  0  0
   -1.0856   48.0762   23.4664 C   0  0  0  0  0  0
   -2.3263   47.5992   23.9096 C   0  0  0  0  0  0
   -3.0179   48.3375   24.8790 C   0  0  0  0  0  0
   -2.4797   49.5061   25.4187 C   0  0  0  0  0  0
   -3.1711   50.0925   26.4817 N   0  0  0  0  0  0
   -4.1131   51.5633   26.2395 S   0  0  0  0  0  0
   -4.8139   51.4166   24.9589 O   0  0  0  0  0  0
   -3.2268   52.7048   26.4812 O   0  0  0  0  0  0
   -5.3552   51.5850   27.5457 C   0  0  0  0  0  0
   -6.6461   51.9992   27.1979 C   0  0  0  0  0  0
   -7.6528   52.0681   28.1576 C   0  0  0  0  0  0
   -7.3825   51.7104   29.4757 C   0  0  0  0  0  0
   -6.1038   51.2902   29.8339 C   0  0  0  0  0  0
   -5.0782   51.2282   28.8834 C   0  0  0  0  0  0
   -3.6982   50.7892   29.3544 C   0  0  0  0  0  0
   -8.8909   52.4852   27.8078 F   0  0  0  0  0  0
   -2.8858   46.3056   23.4052 C   0  0  0  0  0  0
   -3.6951   45.6968   24.1426 O   0  0  0  0  0  0
   -2.4823   45.8646   22.3072 O   0  5  0  0  0  0
    6.8909   53.4880   28.3676 H   0  0  0  0  0  0
    5.8670   54.5944   29.2824 H   0  0  0  0  0  0
    5.4997   52.8526   29.2163 H   0  0  0  0  0  0
    6.5484   55.1051   26.4302 H   0  0  0  0  0  0
    5.2247   55.4609   24.3963 H   0  0  0  0  0  0
    2.9791   54.5460   24.1895 H   0  0  0  0  0  0
    3.3854   52.8120   28.1194 H   0  0  0  0  0  0
    0.1488   52.9985   27.3761 H   0  0  0  0  0  0
    1.5288   52.1375   27.9590 H   0  0  0  0  0  0
   -0.2308   50.5648   27.4859 H   0  0  0  0  0  0
    1.1039   50.2634   26.3627 H   0  0  0  0  0  0
   -0.9145   52.2763   23.7782 H   0  0  0  0  0  0
   -1.0511   53.1131   25.2834 H   0  0  0  0  0  0
    1.2094   51.7846   22.7432 H   0  0  0  0  0  0
    2.7225   52.4021   23.3521 H   0  0  0  0  0  0
    2.0199   50.9693   24.0794 H   0  0  0  0  0  0
    0.4216   49.5635   23.6514 H   0  0  0  0  0  0
   -0.5006   47.5372   22.7342 H   0  0  0  0  0  0
   -3.9649   47.9736   25.2573 H   0  0  0  0  0  0
   -2.5109   50.2491   27.2298 H   0  0  0  0  0  0
   -6.8755   52.2813   26.1795 H   0  0  0  0  0  0
   -8.1671   51.7583   30.2160 H   0  0  0  0  0  0
   -5.9102   51.0070   30.8581 H   0  0  0  0  0  0
   -2.9101   51.3892   28.9005 H   0  0  0  0  0  0
   -3.5841   50.8967   30.4344 H   0  0  0  0  0  0
   -3.5202   49.7395   29.1112 H   0  0  0  0  0  0
  1  2  1  0  0  0
  1 37  1  0  0  0
  1 38  1  0  0  0
  1 39  1  0  0  0
  2  7  2  0  0  0
  2  3  1  0  0  0
  3  4  2  0  0  0
  3 40  1  0  0  0
  4  5  1  0  0  0
  4 41  1  0  0  0
  5  6  2  0  0  0
  5 42  1  0  0  0
  6  7  1  0  0  0
  6  8  1  0  0  0
  7 43  1  0  0  0
  8 13  1  0  0  0
  8  9  1  0  0  0
  9 10  1  0  0  0
  9 44  1  0  0  0
  9 45  1  0  0  0
 10 11  1  0  0  0
 10 46  1  0  0  0
 10 47  1  0  0  0
 11 12  1  0  0  0
 11 16  1  0  0  0
 12 13  1  0  0  0
 12 48  1  0  0  0
 12 49  1  0  0  0
 13 14  1  0  0  0
 13 15  1  0  0  0
 15 50  1  0  0  0
 15 51  1  0  0  0
 15 52  1  0  0  0
 16 21  2  0  0  0
 16 17  1  0  0  0
 17 18  2  0  0  0
 17 53  1  0  0  0
 18 19  1  0  0  0
 18 54  1  0  0  0
 19 20  2  0  0  0
 19 34  1  0  0  0
 20 21  1  0  0  0
 20 55  1  0  0  0
 21 22  1  0  0  0
 22 23  1  0  0  0
 22 56  1  0  0  0
 23 24  2  0  0  0
 23 25  2  0  0  0
 23 26  1  0  0  0
 26 31  2  0  0  0
 26 27  1  0  0  0
 27 28  2  0  0  0
 27 57  1  0  0  0
 28 29  1  0  0  0
 28 33  1  0  0  0
 29 30  2  0  0  0
 29 58  1  0  0  0
 30 31  1  0  0  0
 30 59  1  0  0  0
 31 32  1  0  0  0
 32 60  1  0  0  0
 32 61  1  0  0  0
 32 62  1  0  0  0
 34 35  2  0  0  0
 34 36  1  0  0  0
M  CHG  1  36  -1
M  END
> <i_i_glide_confnum>
765

> <i_i_glide_lignum>
5951

> <i_i_glide_posenum>
229

> <i_i_glide_rotatable_bonds>
6

> <i_m_Source_File_Index>
3211

> <b_m_subgroup_collapsed>
0

> <r_i_docking_score>
-1.95315

> <r_i_glide_ecoul>
-3.45237

> <r_i_glide_eff_state_penalty>
0

> <r_i_glide_einternal>
15.5836

> <r_i_glide_emodel>
-28.3529

> <r_i_glide_energy>
-37.1764

> <r_i_glide_erotb>
0.413511

> <r_i_glide_esite>
-0.152637

> <r_i_glide_evdw>
-33.7241

> <r_i_glide_gscore>
-1.95315

> <r_i_glide_hbond>
-0.107122

> <r_i_glide_ligand_efficiency>
-0.0558042

> <r_i_glide_ligand_efficiency_ln>
-0.428759

> <r_i_glide_ligand_efficiency_sa>
-0.182539

> <r_i_glide_lipo>
-2.04491

> <r_i_glide_metal>
0

> <r_i_glide_rewards>
2.14207

> <s_i_glide_gridfile>
wee1_glide-grid

> <s_m_Source_File>
wee1_decoys_glide_SP.sdf

> <s_m_Source_Path>
/Users/zhangxujun/Desktop

> <s_m_entry_id>
3486

> <s_m_entry_name>
wee1_decoys_glide_SP.3211

> <s_m_subgroup_title>
wee1_decoys_glide_SP

> <s_m_subgroupid>
wee1_decoys_glide_SP


$$$$
