ZINC13094874_1930
                    3D
 Schrodinger Suite 2024-2.
 52 54  0  0  1  0            999 V2000
   -1.9962   51.1245   25.9907 C   0  0  0  0  0  0
   -0.6177   50.4832   26.2483 C   0  0  2  0  0  0
   -0.7839   49.4317   26.4816 H   0  0  0  0  0  0
    0.1550   51.0947   27.4424 C   0  0  0  0  0  0
    0.5716   52.5510   27.1613 C   0  0  2  0  0  0
   -0.3333   53.1165   26.9467 H   0  0  0  0  0  0
    1.4816   52.5787   25.9096 C   0  0  0  0  0  0
    0.8774   51.8437   24.7587 N   0  0  0  0  0  0
    0.2947   50.4968   25.0067 C   0  0  0  0  0  0
    0.4995   52.6762   23.2494 S   0  0  0  0  0  0
    1.1044   54.0140   23.2973 O   0  0  0  0  0  0
   -0.9388   52.4983   23.0079 O   0  0  0  0  0  0
    1.3455   51.7542   21.9677 C   0  0  0  0  0  0
    2.5931   52.1606   21.4905 C   0  0  0  0  0  0
    3.2216   51.4306   20.4839 C   0  0  0  0  0  0
    2.6152   50.2902   19.9548 C   0  0  0  0  0  0
    1.3641   49.8579   20.4326 C   0  0  0  0  0  0
    0.7421   50.6105   21.4405 C   0  0  0  0  0  0
    0.6879   48.6010   19.9211 C   0  0  0  0  0  0
   -0.3267   48.1857   20.4853 O   0  0  0  0  0  0
    1.2521   47.9982   18.8503 N   0  0  0  0  0  0
    0.9633   46.7328   18.3087 C   0  0  0  0  0  0
    1.4467   46.4851   17.0228 C   0  0  0  0  0  0
    1.3004   45.2238   16.4508 C   0  0  0  0  0  0
    0.7044   44.1906   17.1747 C   0  0  0  0  0  0
    0.2293   44.4040   18.4790 C   0  0  0  0  0  0
    0.3201   45.6984   19.0144 C   0  0  0  0  0  0
   -0.3001   43.2618   19.2991 C   0  0  0  0  0  0
   -0.8948   43.4969   20.3761 O   0  0  0  0  0  0
    1.2682   53.2046   28.3698 C   0  0  0  0  0  0
   -1.9205   52.1671   25.6824 H   0  0  0  0  0  0
   -2.5307   50.5902   25.2037 H   0  0  0  0  0  0
   -2.6176   51.0832   26.8847 H   0  0  0  0  0  0
    1.0362   50.4965   27.6817 H   0  0  0  0  0  0
   -0.4655   51.0603   28.3422 H   0  0  0  0  0  0
    2.4463   52.1197   26.1072 H   0  0  0  0  0  0
    1.6861   53.6079   25.6172 H   0  0  0  0  0  0
   -0.2755   50.2021   24.1292 H   0  0  0  0  0  0
    1.1078   49.7803   25.0956 H   0  0  0  0  0  0
    3.0694   53.0465   21.8824 H   0  0  0  0  0  0
    4.1832   51.7428   20.1009 H   0  0  0  0  0  0
    3.1417   49.7590   19.1722 H   0  0  0  0  0  0
   -0.2218   50.3065   21.8212 H   0  0  0  0  0  0
    1.9965   48.4983   18.3826 H   0  0  0  0  0  0
    1.9581   47.2598   16.4661 H   0  0  0  0  0  0
    1.6790   45.0338   15.4553 H   0  0  0  0  0  0
    0.6434   43.2102   16.7248 H   0  0  0  0  0  0
   -0.0335   45.8592   20.0226 H   0  0  0  0  0  0
    2.1938   52.6886   28.6256 H   0  0  0  0  0  0
    1.5153   54.2452   28.1614 H   0  0  0  0  0  0
    0.6258   53.1949   29.2507 H   0  0  0  0  0  0
   -0.0950   42.0968   18.8811 O   0  5  0  0  0  0
  1  2  1  0  0  0
  1 31  1  0  0  0
  1 32  1  0  0  0
  1 33  1  0  0  0
  2  3  1  0  0  0
  2  9  1  0  0  0
  2  4  1  0  0  0
  4  5  1  0  0  0
  4 34  1  0  0  0
  4 35  1  0  0  0
  5  6  1  0  0  0
  5  7  1  0  0  0
  5 30  1  0  0  0
  7  8  1  0  0  0
  7 36  1  0  0  0
  7 37  1  0  0  0
  8  9  1  0  0  0
  8 10  1  0  0  0
  9 38  1  0  0  0
  9 39  1  0  0  0
 10 11  2  0  0  0
 10 12  2  0  0  0
 10 13  1  0  0  0
 13 18  2  0  0  0
 13 14  1  0  0  0
 14 15  2  0  0  0
 14 40  1  0  0  0
 15 16  1  0  0  0
 15 41  1  0  0  0
 16 17  2  0  0  0
 16 42  1  0  0  0
 17 18  1  0  0  0
 17 19  1  0  0  0
 18 43  1  0  0  0
 19 20  2  0  0  0
 19 21  1  0  0  0
 21 22  1  0  0  0
 21 44  1  0  0  0
 22 27  2  0  0  0
 22 23  1  0  0  0
 23 24  2  0  0  0
 23 45  1  0  0  0
 24 25  1  0  0  0
 24 46  1  0  0  0
 25 26  2  0  0  0
 25 47  1  0  0  0
 26 27  1  0  0  0
 26 28  1  0  0  0
 27 48  1  0  0  0
 28 29  2  0  0  0
 28 52  1  0  0  0
 30 49  1  0  0  0
 30 50  1  0  0  0
 30 51  1  0  0  0
M  CHG  1  52  -1
M  END
> <i_i_glide_confnum>
24

> <i_i_glide_lignum>
1931

> <i_i_glide_posenum>
137

> <i_i_glide_rotatable_bonds>
6

> <i_m_Source_File_Index>
1873

> <b_m_subgroup_collapsed>
0

> <r_i_docking_score>
-3.72318

> <r_i_glide_ecoul>
-8.49397

> <r_i_glide_eff_state_penalty>
0

> <r_i_glide_einternal>
2.96608

> <r_i_glide_emodel>
-47.7329

> <r_i_glide_energy>
-36.9964

> <r_i_glide_erotb>
0.571962

> <r_i_glide_esite>
-0.106548

> <r_i_glide_evdw>
-28.5025

> <r_i_glide_gscore>
-3.72318

> <r_i_glide_hbond>
-0.35679

> <r_i_glide_ligand_efficiency>
-0.128386

> <r_i_glide_ligand_efficiency_ln>
-0.852515

> <r_i_glide_ligand_efficiency_sa>
-0.394441

> <r_i_glide_lipo>
-0.485502

> <r_i_glide_metal>
0

> <r_i_glide_rewards>
-0.647087

> <s_i_glide_gridfile>
wee1_glide-grid

> <s_m_Source_File>
wee1_decoys_glide_SP.sdf

> <s_m_Source_Path>
/Users/zhangxujun/Desktop

> <s_m_entry_id>
2148

> <s_m_entry_name>
wee1_decoys_glide_SP.1873

> <s_m_subgroup_title>
wee1_decoys_glide_SP

> <s_m_subgroupid>
wee1_decoys_glide_SP


$$$$
