ZINC36637599_5700
                    3D
 Schrodinger Suite 2024-2.
 73 76  0  0  1  0            999 V2000
    4.8344   54.6782   28.0245 C   0  0  0  0  0  0
    5.1091   54.6641   26.5259 C   0  0  0  0  0  0
    6.3010   55.2424   26.0793 C   0  0  0  0  0  0
    6.6512   55.2704   24.7317 C   0  0  0  0  0  0
    5.7753   54.6694   23.8248 C   0  0  0  0  0  0
    4.5544   54.0971   24.2531 C   0  0  0  0  0  0
    4.1915   54.0986   25.6178 C   0  0  0  0  0  0
    2.8806   53.4703   26.0981 C   0  0  0  0  0  0
    3.8186   53.5406   23.2544 N   0  0  0  0  0  0
    4.3989   53.5706   22.0821 C   0  0  0  0  0  0
    5.9034   54.4967   22.0802 S   0  0  0  0  0  0
    3.9306   52.9287   20.8979 N   0  0  0  0  0  0
    4.6917   53.1450   19.6465 C   0  0  0  0  0  0
    4.2004   54.3693   18.8539 C   0  0  0  0  0  0
    4.6455   54.2766   17.3747 N   0  3  0  0  0  0
    3.9893   55.3914   16.5307 C   0  0  0  0  0  0
    6.1821   54.2780   17.2007 C   0  0  0  0  0  0
    2.7877   52.1613   20.7779 C   0  0  0  0  0  0
    2.3953   51.7086   19.6992 O   0  0  0  0  0  0
    1.9637   51.7860   21.9776 C   0  0  0  0  0  0
    2.0683   50.4990   22.5126 C   0  0  0  0  0  0
    1.3838   50.1826   23.6802 C   0  0  0  0  0  0
    0.5956   51.1477   24.3093 C   0  0  0  0  0  0
    0.4168   52.4031   23.7278 C   0  0  0  0  0  0
    1.0934   52.7151   22.5529 C   0  0  0  0  0  0
   -0.1070   50.8043   25.9196 S   0  0  0  0  0  0
    0.6727   49.6967   26.4817 O   0  0  0  0  0  0
   -0.1774   52.0917   26.6225 O   0  0  0  0  0  0
   -1.7672   50.2471   25.6266 N   0  0  0  0  0  0
   -2.7451   51.2733   25.1779 C   0  0  0  0  0  0
   -1.9524   48.8279   25.1926 C   0  0  0  0  0  0
   -3.2710   48.2724   25.7759 C   0  0  0  0  0  0
   -3.3928   46.7773   25.4176 C   0  0  0  0  0  0
   -3.3180   46.5619   23.8854 C   0  0  0  0  0  0
   -2.0814   47.2361   23.2445 C   0  0  0  0  0  0
   -1.9774   48.7216   23.6499 C   0  0  0  0  0  0
    5.5739   55.2550   28.5824 H   0  0  0  0  0  0
    3.8587   55.1201   28.2272 H   0  0  0  0  0  0
    4.8279   53.6597   28.4155 H   0  0  0  0  0  0
    6.9677   55.6865   26.8039 H   0  0  0  0  0  0
    7.5675   55.7324   24.3953 H   0  0  0  0  0  0
    2.7242   52.5149   25.5992 H   0  0  0  0  0  0
    2.0306   54.0976   25.8348 H   0  0  0  0  0  0
    2.8462   53.2615   27.1659 H   0  0  0  0  0  0
    5.7588   53.2256   19.8432 H   0  0  0  0  0  0
    4.6214   52.2559   19.0164 H   0  0  0  0  0  0
    3.1090   54.4131   18.8349 H   0  0  0  0  0  0
    4.5880   55.3097   19.2482 H   0  0  0  0  0  0
    4.3084   56.3577   16.9303 H   0  0  0  0  0  0
    4.3146   55.2634   15.4950 H   0  0  0  0  0  0
    2.9048   55.2711   16.6105 H   0  0  0  0  0  0
    6.5731   55.1930   17.6517 H   0  0  0  0  0  0
    6.5785   53.3874   17.6906 H   0  0  0  0  0  0
    6.4006   54.2417   16.1328 H   0  0  0  0  0  0
    2.7105   49.7570   22.0587 H   0  0  0  0  0  0
    1.5042   49.2046   24.1225 H   0  0  0  0  0  0
   -0.1971   53.1504   24.2099 H   0  0  0  0  0  0
    1.0084   53.7012   22.1267 H   0  0  0  0  0  0
   -3.7607   50.9827   25.4420 H   0  0  0  0  0  0
   -2.5305   52.2246   25.6652 H   0  0  0  0  0  0
   -2.6602   51.4287   24.1030 H   0  0  0  0  0  0
   -1.1418   48.2079   25.5837 H   0  0  0  0  0  0
   -3.2963   48.4031   26.8597 H   0  0  0  0  0  0
   -4.1365   48.8054   25.3800 H   0  0  0  0  0  0
   -2.5933   46.2240   25.9138 H   0  0  0  0  0  0
   -4.3307   46.3795   25.8072 H   0  0  0  0  0  0
   -3.3304   45.4995   23.6487 H   0  0  0  0  0  0
   -4.2197   46.9749   23.4291 H   0  0  0  0  0  0
   -1.1779   46.7125   23.5575 H   0  0  0  0  0  0
   -2.1263   47.1444   22.1582 H   0  0  0  0  0  0
   -2.8292   49.2649   23.2380 H   0  0  0  0  0  0
   -1.0891   49.1683   23.2075 H   0  0  0  0  0  0
    4.3057   53.3874   17.0212 H   0  0  0  0  0  0
  1  2  1  0  0  0
  1 37  1  0  0  0
  1 38  1  0  0  0
  1 39  1  0  0  0
  2  7  2  0  0  0
  2  3  1  0  0  0
  3  4  2  0  0  0
  3 40  1  0  0  0
  4  5  1  0  0  0
  4 41  1  0  0  0
  5 11  1  0  0  0
  5  6  2  0  0  0
  6  7  1  0  0  0
  6  9  1  0  0  0
  7  8  1  0  0  0
  8 42  1  0  0  0
  8 43  1  0  0  0
  8 44  1  0  0  0
  9 10  2  0  0  0
 10 11  1  0  0  0
 10 12  1  0  0  0
 12 13  1  0  0  0
 12 18  1  0  0  0
 13 14  1  0  0  0
 13 45  1  0  0  0
 13 46  1  0  0  0
 14 15  1  0  0  0
 14 47  1  0  0  0
 14 48  1  0  0  0
 15 16  1  0  0  0
 15 17  1  0  0  0
 15 73  1  0  0  0
 16 49  1  0  0  0
 16 50  1  0  0  0
 16 51  1  0  0  0
 17 52  1  0  0  0
 17 53  1  0  0  0
 17 54  1  0  0  0
 18 19  2  0  0  0
 18 20  1  0  0  0
 20 25  2  0  0  0
 20 21  1  0  0  0
 21 22  2  0  0  0
 21 55  1  0  0  0
 22 23  1  0  0  0
 22 56  1  0  0  0
 23 24  2  0  0  0
 23 26  1  0  0  0
 24 25  1  0  0  0
 24 57  1  0  0  0
 25 58  1  0  0  0
 26 27  2  0  0  0
 26 28  2  0  0  0
 26 29  1  0  0  0
 29 30  1  0  0  0
 29 31  1  0  0  0
 30 59  1  0  0  0
 30 60  1  0  0  0
 30 61  1  0  0  0
 31 36  1  0  0  0
 31 32  1  0  0  0
 31 62  1  0  0  0
 32 33  1  0  0  0
 32 63  1  0  0  0
 32 64  1  0  0  0
 33 34  1  0  0  0
 33 65  1  0  0  0
 33 66  1  0  0  0
 34 35  1  0  0  0
 34 67  1  0  0  0
 34 68  1  0  0  0
 35 36  1  0  0  0
 35 69  1  0  0  0
 35 70  1  0  0  0
 36 71  1  0  0  0
 36 72  1  0  0  0
M  CHG  1  15   1
M  END
> <i_i_glide_confnum>
104

> <i_i_glide_lignum>
5701

> <i_i_glide_posenum>
237

> <i_i_glide_rotatable_bonds>
9

> <i_m_Source_File_Index>
2086

> <b_m_subgroup_collapsed>
0

> <r_i_docking_score>
-4.88062

> <r_i_glide_ecoul>
-1.66776

> <r_i_glide_eff_state_penalty>
0

> <r_i_glide_einternal>
7.90451

> <r_i_glide_emodel>
-56.2392

> <r_i_glide_energy>
-44.7017

> <r_i_glide_erotb>
0.587533

> <r_i_glide_esite>
-0.172706

> <r_i_glide_evdw>
-43.034

> <r_i_glide_gscore>
-4.88062

> <r_i_glide_hbond>
0

> <r_i_glide_ligand_efficiency>
-0.135573

> <r_i_glide_ligand_efficiency_ln>
-1.06482

> <r_i_glide_ligand_efficiency_sa>
-0.447652

> <r_i_glide_lipo>
-2.83418

> <r_i_glide_metal>
0

> <r_i_glide_rewards>
-0.0594036

> <s_i_glide_gridfile>
wee1_glide-grid

> <s_m_Source_File>
wee1_decoys_glide_SP.sdf

> <s_m_Source_Path>
/Users/zhangxujun/Desktop

> <s_m_entry_id>
2361

> <s_m_entry_name>
wee1_decoys_glide_SP.2086

> <s_m_subgroup_title>
wee1_decoys_glide_SP

> <s_m_subgroupid>
wee1_decoys_glide_SP


$$$$
