ZINC23449540_3434
                    3D
 Schrodinger Suite 2024-2.
 55 59  0  0  1  0            999 V2000
    1.4251   53.6784   22.9587 C   0  0  0  0  0  0
    2.9224   54.0334   23.0829 C   0  0  1  0  0  0
    3.0437   55.0223   22.6411 H   0  0  0  0  0  0
    3.4086   54.1641   24.5494 C   0  0  0  0  0  0
    4.3737   54.8859   24.7927 O   0  0  0  0  0  0
    2.7306   53.5077   25.5174 N   0  0  0  0  0  0
    2.9646   53.5363   26.9727 C   0  0  0  0  0  0
    2.0814   52.4495   27.6703 C   0  0  0  0  0  0
    2.2564   52.4467   29.2140 C   0  0  2  0  0  0
    1.8557   53.8336   29.7735 C   0  0  0  0  0  0
    2.7638   54.9192   29.1400 C   0  0  2  0  0  0
    2.5423   54.8957   27.6061 C   0  0  0  0  0  0
    4.2565   54.6142   29.4418 C   0  0  0  0  0  0
    4.6439   53.2305   28.9004 C   0  0  1  0  0  0
    3.7366   52.1679   29.5710 C   0  0  0  0  0  0
    4.4584   53.2961   27.3703 C   0  0  0  0  0  0
    3.9436   52.8965   22.0811 S   0  0  0  0  0  0
    5.1370   53.9901   21.3614 C   0  0  0  0  0  0
    5.8308   54.8861   22.0225 N   0  0  0  0  0  0
    6.6426   55.5528   21.1128 N   0  0  0  0  0  0
    6.4085   55.0415   19.9284 C   0  0  0  0  0  0
    5.4502   54.0477   20.0194 N   0  0  0  0  0  0
    4.8940   53.2967   18.9881 N   0  0  0  0  0  0
    7.1204   55.4674   18.6787 C   0  0  0  0  0  0
    7.6313   54.4686   17.8387 C   0  0  0  0  0  0
    8.3322   54.7950   16.6773 C   0  0  0  0  0  0
    8.5283   56.1317   16.3364 C   0  0  0  0  0  0
    8.0233   57.1380   17.1599 C   0  0  0  0  0  0
    7.3244   56.8161   18.3255 C   0  0  0  0  0  0
    6.7043   58.1200   19.2774 Cl  0  0  0  0  0  0
    9.3913   56.5398   14.8988 Cl  0  0  0  0  0  0
    0.7980   54.3793   23.5118 H   0  0  0  0  0  0
    1.1049   53.6995   21.9167 H   0  0  0  0  0  0
    1.2165   52.6744   23.3317 H   0  0  0  0  0  0
    1.9794   52.9041   25.2221 H   0  0  0  0  0  0
    2.3032   51.4602   27.2827 H   0  0  0  0  0  0
    1.0286   52.6158   27.4322 H   0  0  0  0  0  0
    1.6154   51.6803   29.6550 H   0  0  0  0  0  0
    0.8058   54.0395   29.5527 H   0  0  0  0  0  0
    1.9257   53.8395   30.8608 H   0  0  0  0  0  0
    2.4961   55.9006   29.5354 H   0  0  0  0  0  0
    1.4856   55.0712   27.4049 H   0  0  0  0  0  0
    3.1043   55.6963   27.1318 H   0  0  0  0  0  0
    4.4487   54.6375   30.4989 H   0  0  0  0  0  0
    4.9187   55.3565   29.0089 H   0  0  0  0  0  0
    5.6893   53.0238   29.1228 H   0  0  0  0  0  0
    4.0257   51.1649   29.2814 H   0  0  0  0  0  0
    3.8700   52.1972   30.6549 H   0  0  0  0  0  0
    5.0821   54.1107   26.9998 H   0  0  0  0  0  0
    4.8796   52.4329   26.8820 H   0  0  0  0  0  0
    5.1288   52.3072   19.0013 H   0  0  0  0  0  0
    3.9084   53.4751   18.8643 H   0  0  0  0  0  0
    7.4886   53.4269   18.0813 H   0  0  0  0  0  0
    8.7208   54.0089   16.0446 H   0  0  0  0  0  0
    8.1684   58.1749   16.8891 H   0  0  0  0  0  0
  1  2  1  0  0  0
  1 32  1  0  0  0
  1 33  1  0  0  0
  1 34  1  0  0  0
  2  3  1  0  0  0
  2  4  1  0  0  0
  2 17  1  0  0  0
  4  5  2  0  0  0
  4  6  1  0  0  0
  6  7  1  0  0  0
  6 35  1  0  0  0
  7 12  1  0  0  0
  7 16  1  0  0  0
  7  8  1  0  0  0
  8  9  1  0  0  0
  8 36  1  0  0  0
  8 37  1  0  0  0
  9 15  1  0  0  0
  9 10  1  0  0  0
  9 38  1  0  0  0
 10 11  1  0  0  0
 10 39  1  0  0  0
 10 40  1  0  0  0
 11 12  1  0  0  0
 11 13  1  0  0  0
 11 41  1  0  0  0
 12 42  1  0  0  0
 12 43  1  0  0  0
 13 14  1  0  0  0
 13 44  1  0  0  0
 13 45  1  0  0  0
 14 15  1  0  0  0
 14 16  1  0  0  0
 14 46  1  0  0  0
 15 47  1  0  0  0
 15 48  1  0  0  0
 16 49  1  0  0  0
 16 50  1  0  0  0
 17 18  1  0  0  0
 18 22  1  0  0  0
 18 19  2  0  0  0
 19 20  1  0  0  0
 20 21  2  0  0  0
 21 22  1  0  0  0
 21 24  1  0  0  0
 22 23  1  0  0  0
 23 51  1  0  0  0
 23 52  1  0  0  0
 24 29  2  0  0  0
 24 25  1  0  0  0
 25 26  2  0  0  0
 25 53  1  0  0  0
 26 27  1  0  0  0
 26 54  1  0  0  0
 27 28  2  0  0  0
 27 31  1  0  0  0
 28 29  1  0  0  0
 28 55  1  0  0  0
 29 30  1  0  0  0
M  END
> <i_i_glide_confnum>
3

> <i_i_glide_lignum>
3435

> <i_i_glide_posenum>
230

> <i_i_glide_rotatable_bonds>
6

> <i_m_Source_File_Index>
968

> <b_m_subgroup_collapsed>
0

> <r_i_docking_score>
-5.28194

> <r_i_glide_ecoul>
-4.04846

> <r_i_glide_eff_state_penalty>
0

> <r_i_glide_einternal>
3.8841

> <r_i_glide_emodel>
-48.2805

> <r_i_glide_energy>
-37.7559

> <r_i_glide_erotb>
0.463669

> <r_i_glide_esite>
-0.0725402

> <r_i_glide_evdw>
-33.7074

> <r_i_glide_gscore>
-5.28194

> <r_i_glide_hbond>
-0.119186

> <r_i_glide_ligand_efficiency>
-0.176065

> <r_i_glide_ligand_efficiency_ln>
-1.20011

> <r_i_glide_ligand_efficiency_sa>
-0.547074

> <r_i_glide_lipo>
-2.38133

> <r_i_glide_metal>
0

> <r_i_glide_rewards>
-0.879912

> <s_i_glide_gridfile>
wee1_glide-grid

> <s_m_Source_File>
wee1_decoys_glide_SP.sdf

> <s_m_Source_Path>
/Users/zhangxujun/Desktop

> <s_m_entry_id>
1243

> <s_m_entry_name>
wee1_decoys_glide_SP.968

> <s_m_subgroup_title>
wee1_decoys_glide_SP

> <s_m_subgroupid>
wee1_decoys_glide_SP


$$$$
