ZINC20459039_4180
                    3D
 Schrodinger Suite 2024-2.
 52 55  0  0  1  0            999 V2000
    3.7891   51.9001   31.3763 C   0  0  0  0  0  0
    3.1048   51.9545   30.1301 O   0  0  0  0  0  0
    1.8620   52.4954   30.0338 C   0  0  0  0  0  0
    1.2379   52.9264   31.0052 O   0  0  0  0  0  0
    1.2944   52.4768   28.6576 C   0  0  0  0  0  0
    2.0465   52.8722   27.5950 C   0  0  0  0  0  0
    1.5779   53.0052   26.3156 N   0  0  0  0  0  0
    2.3732   53.5974   25.3843 C   0  0  0  0  0  0
    1.9767   53.9788   24.2840 O   0  0  0  0  0  0
    3.7273   53.6899   25.8854 C   0  0  0  0  0  0
    4.8619   53.9278   25.1856 C   0  0  0  0  0  0
    5.1884   54.1602   23.7551 C   0  0  0  0  0  0
    4.4281   53.6941   22.6724 C   0  0  0  0  0  0
    4.7753   54.0194   21.3607 C   0  0  0  0  0  0
    5.9044   54.7957   21.1081 C   0  0  0  0  0  0
    6.7040   55.2190   22.1684 C   0  0  0  0  0  0
    6.3439   54.9052   23.4796 C   0  0  0  0  0  0
    7.1041   55.3841   24.4938 F   0  0  0  0  0  0
    3.7269   53.4323   27.6168 S   0  0  0  0  0  0
    0.2000   52.5402   25.9503 C   0  0  2  0  0  0
   -0.2691   53.2940   25.3124 H   0  0  0  0  0  0
   -0.6719   52.3495   27.2215 C   0  0  0  0  0  0
   -0.1370   52.1700   28.4687 C   0  0  0  0  0  0
   -0.8957   51.7200   29.5317 N   0  0  0  0  0  0
   -2.0937   52.0946   26.8816 C   0  0  0  0  0  0
   -2.7049   52.7922   26.0681 O   0  0  0  0  0  0
   -2.6187   51.0042   27.4822 O   0  0  0  0  0  0
   -3.9460   50.5828   27.2099 C   0  0  0  0  0  0
    0.2366   51.2787   25.0593 C   0  0  0  0  0  0
    0.3043   49.9978   25.6305 C   0  0  0  0  0  0
    0.1974   48.8597   24.8336 C   0  0  0  0  0  0
    0.0129   48.9810   23.4590 C   0  0  0  0  0  0
   -0.0534   50.2448   22.8783 C   0  0  0  0  0  0
    0.0432   51.3865   23.6724 C   0  0  0  0  0  0
   -0.1023   52.5948   23.0856 F   0  0  0  0  0  0
    4.7050   51.3183   31.2737 H   0  0  0  0  0  0
    4.0660   52.8975   31.7125 H   0  0  0  0  0  0
    3.1769   51.4325   32.1495 H   0  0  0  0  0  0
    5.7428   53.9343   25.8130 H   0  0  0  0  0  0
    3.5688   53.0606   22.8192 H   0  0  0  0  0  0
    4.1687   53.6643   20.5393 H   0  0  0  0  0  0
    6.1721   55.0449   20.0912 H   0  0  0  0  0  0
    7.5942   55.8019   21.9817 H   0  0  0  0  0  0
   -0.5186   51.7002   30.4703 H   0  0  0  0  0  0
   -1.7470   51.1991   29.3642 H   0  0  0  0  0  0
   -4.1750   49.6918   27.7951 H   0  0  0  0  0  0
   -4.6670   51.3588   27.4719 H   0  0  0  0  0  0
   -4.0677   50.3359   26.1544 H   0  0  0  0  0  0
    0.4121   49.8734   26.6995 H   0  0  0  0  0  0
    0.2439   47.8788   25.2826 H   0  0  0  0  0  0
   -0.0945   48.0971   22.8484 H   0  0  0  0  0  0
   -0.2090   50.3441   21.8143 H   0  0  0  0  0  0
  1  2  1  0  0  0
  1 36  1  0  0  0
  1 37  1  0  0  0
  1 38  1  0  0  0
  2  3  1  0  0  0
  3  4  2  0  0  0
  3  5  1  0  0  0
  5 23  1  0  0  0
  5  6  2  0  0  0
  6 19  1  0  0  0
  6  7  1  0  0  0
  7  8  1  0  0  0
  7 20  1  0  0  0
  8  9  2  0  0  0
  8 10  1  0  0  0
 10 11  2  0  0  0
 10 19  1  0  0  0
 11 12  1  0  0  0
 11 39  1  0  0  0
 12 17  2  0  0  0
 12 13  1  0  0  0
 13 14  2  0  0  0
 13 40  1  0  0  0
 14 15  1  0  0  0
 14 41  1  0  0  0
 15 16  2  0  0  0
 15 42  1  0  0  0
 16 17  1  0  0  0
 16 43  1  0  0  0
 17 18  1  0  0  0
 20 21  1  0  0  0
 20 22  1  0  0  0
 20 29  1  0  0  0
 22 23  2  0  0  0
 22 25  1  0  0  0
 23 24  1  0  0  0
 24 44  1  0  0  0
 24 45  1  0  0  0
 25 26  2  0  0  0
 25 27  1  0  0  0
 27 28  1  0  0  0
 28 46  1  0  0  0
 28 47  1  0  0  0
 28 48  1  0  0  0
 29 34  2  0  0  0
 29 30  1  0  0  0
 30 31  2  0  0  0
 30 49  1  0  0  0
 31 32  1  0  0  0
 31 50  1  0  0  0
 32 33  2  0  0  0
 32 51  1  0  0  0
 33 34  1  0  0  0
 33 52  1  0  0  0
 34 35  1  0  0  0
M  END
> <i_i_glide_confnum>
19

> <i_i_glide_lignum>
4181

> <i_i_glide_posenum>
3

> <i_i_glide_rotatable_bonds>
6

> <i_m_Source_File_Index>
5757

> <b_m_subgroup_collapsed>
0

> <r_i_docking_score>
-6.11843

> <r_i_glide_ecoul>
-3.14297

> <r_i_glide_eff_state_penalty>
0

> <r_i_glide_einternal>
4.98441

> <r_i_glide_emodel>
-62.2815

> <r_i_glide_energy>
-48.2366

> <r_i_glide_erotb>
0.259569

> <r_i_glide_esite>
-0.090489

> <r_i_glide_evdw>
-45.0936

> <r_i_glide_gscore>
-6.11843

> <r_i_glide_hbond>
-0.32

> <r_i_glide_ligand_efficiency>
-0.179954

> <r_i_glide_ligand_efficiency_ln>
-1.35173

> <r_i_glide_ligand_efficiency_sa>
-0.582981

> <r_i_glide_lipo>
-2.71275

> <r_i_glide_metal>
0

> <r_i_glide_rewards>
-0.528639

> <s_i_glide_gridfile>
wee1_glide-grid

> <s_m_Source_File>
wee1_decoys_glide_SP.sdf

> <s_m_Source_Path>
/Users/zhangxujun/Desktop

> <s_m_entry_id>
6032

> <s_m_entry_name>
wee1_decoys_glide_SP.5757

> <s_m_subgroup_title>
wee1_decoys_glide_SP

> <s_m_subgroupid>
wee1_decoys_glide_SP


$$$$
