ZINC15230737_1995
                    3D
 Schrodinger Suite 2024-2.
 54 56  0  0  1  0            999 V2000
   -0.6470   48.4537   21.9220 C   0  0  0  0  0  0
   -1.1120   49.4562   22.9595 C   0  0  0  0  0  0
   -1.9634   50.4558   22.6416 C   0  0  0  0  0  0
   -2.5248   51.4771   23.6270 C   0  0  0  0  0  0
   -2.3951   50.9917   25.1236 C   0  0  2  0  0  0
   -0.9299   50.4200   25.3424 C   0  0  1  0  0  0
   -0.8499   50.0061   26.3513 H   0  0  0  0  0  0
   -0.6407   49.2118   24.3954 C   0  0  0  0  0  0
    0.2116   51.4682   25.3449 C   0  0  0  0  0  0
    0.8324   51.8813   24.1578 C   0  0  0  0  0  0
    1.8795   52.8000   24.1900 C   0  0  0  0  0  0
    2.3249   53.2981   25.4113 C   0  0  0  0  0  0
    1.7202   52.8980   26.6000 C   0  0  0  0  0  0
    0.6734   51.9816   26.5662 C   0  0  0  0  0  0
    3.8049   54.4965   25.4615 Br  0  0  0  0  0  0
   -3.4928   49.9138   25.4399 C   0  0  0  0  0  0
   -4.5232   49.8753   24.7544 O   0  0  0  0  0  0
   -3.2963   49.0671   26.4815 N   0  0  0  0  0  0
   -4.2433   48.0646   26.8079 N   0  0  0  0  0  0
   -4.5342   46.9831   25.9725 C   0  0  0  0  0  0
   -5.1133   45.7992   26.3000 C   0  0  0  0  0  0
   -5.4842   45.4546   27.6814 C   0  0  0  0  0  0
   -5.2920   46.0967   28.7133 O   0  0  0  0  0  0
   -6.0921   44.2456   27.8730 O   0  0  0  0  0  0
   -6.6479   43.5434   26.7799 C   0  0  0  0  0  0
   -5.8920   43.6280   25.5893 O   0  0  0  0  0  0
   -5.2951   44.8022   25.2398 C   0  0  0  0  0  0
   -4.8966   44.8613   24.0759 O   0  0  0  0  0  0
   -8.0604   44.0754   26.5172 C   0  0  0  0  0  0
   -6.5862   42.0753   27.1796 C   0  0  0  0  0  0
   -2.6846   52.1898   26.0806 C   0  0  0  0  0  0
   -3.3085   53.1859   25.6429 O   0  0  0  0  0  0
   -0.9206   47.4432   22.2266 H   0  0  0  0  0  0
   -1.0923   48.6388   20.9429 H   0  0  0  0  0  0
    0.4356   48.5014   21.8091 H   0  0  0  0  0  0
   -2.2684   50.5448   21.6093 H   0  0  0  0  0  0
   -1.9819   52.4091   23.4656 H   0  0  0  0  0  0
   -3.5594   51.7068   23.3626 H   0  0  0  0  0  0
    0.4137   48.9295   24.4089 H   0  0  0  0  0  0
   -1.1797   48.3284   24.7424 H   0  0  0  0  0  0
    0.5166   51.5029   23.1977 H   0  0  0  0  0  0
    2.3575   53.1106   23.2715 H   0  0  0  0  0  0
    2.0736   53.2849   27.5439 H   0  0  0  0  0  0
    0.2159   51.6736   27.4963 H   0  0  0  0  0  0
   -2.4315   48.9869   27.0139 H   0  0  0  0  0  0
   -4.4820   48.0910   27.7966 H   0  0  0  0  0  0
   -4.2612   47.1725   24.9411 H   0  0  0  0  0  0
   -8.0406   45.1320   26.2514 H   0  0  0  0  0  0
   -8.5146   43.5167   25.6990 H   0  0  0  0  0  0
   -8.6719   43.9507   27.4124 H   0  0  0  0  0  0
   -5.5533   41.7755   27.3662 H   0  0  0  0  0  0
   -7.1693   41.9027   28.0845 H   0  0  0  0  0  0
   -6.9905   41.4474   26.3856 H   0  0  0  0  0  0
   -2.2982   52.0875   27.2669 O   0  5  0  0  0  0
  1  2  1  0  0  0
  1 33  1  0  0  0
  1 34  1  0  0  0
  1 35  1  0  0  0
  2  8  1  0  0  0
  2  3  2  0  0  0
  3  4  1  0  0  0
  3 36  1  0  0  0
  4  5  1  0  0  0
  4 37  1  0  0  0
  4 38  1  0  0  0
  5  6  1  0  0  0
  5 16  1  0  0  0
  5 31  1  0  0  0
  6  7  1  0  0  0
  6  8  1  0  0  0
  6  9  1  0  0  0
  8 39  1  0  0  0
  8 40  1  0  0  0
  9 14  2  0  0  0
  9 10  1  0  0  0
 10 11  2  0  0  0
 10 41  1  0  0  0
 11 12  1  0  0  0
 11 42  1  0  0  0
 12 13  2  0  0  0
 12 15  1  0  0  0
 13 14  1  0  0  0
 13 43  1  0  0  0
 14 44  1  0  0  0
 16 17  2  0  0  0
 16 18  1  0  0  0
 18 19  1  0  0  0
 18 45  1  0  0  0
 19 20  1  0  0  0
 19 46  1  0  0  0
 20 21  2  0  0  0
 20 47  1  0  0  0
 21 27  1  0  0  0
 21 22  1  0  0  0
 22 23  2  0  0  0
 22 24  1  0  0  0
 24 25  1  0  0  0
 25 26  1  0  0  0
 25 29  1  0  0  0
 25 30  1  0  0  0
 26 27  1  0  0  0
 27 28  2  0  0  0
 29 48  1  0  0  0
 29 49  1  0  0  0
 29 50  1  0  0  0
 30 51  1  0  0  0
 30 52  1  0  0  0
 30 53  1  0  0  0
 31 32  2  0  0  0
 31 54  1  0  0  0
M  CHG  1  54  -1
M  END
> <i_i_glide_confnum>
184

> <i_i_glide_lignum>
1996

> <i_i_glide_posenum>
366

> <i_i_glide_rotatable_bonds>
6

> <i_m_Source_File_Index>
3246

> <b_m_subgroup_collapsed>
0

> <r_i_docking_score>
-4.24364

> <r_i_glide_ecoul>
-9.49853

> <r_i_glide_eff_state_penalty>
0

> <r_i_glide_einternal>
6.67038

> <r_i_glide_emodel>
-42.3053

> <r_i_glide_energy>
-34.7721

> <r_i_glide_erotb>
0.399029

> <r_i_glide_esite>
-0.284114

> <r_i_glide_evdw>
-25.2736

> <r_i_glide_gscore>
-4.24364

> <r_i_glide_hbond>
-0.44395

> <r_i_glide_ligand_efficiency>
-0.132614

> <r_i_glide_ligand_efficiency_ln>
-0.950267

> <r_i_glide_ligand_efficiency_sa>
-0.421023

> <r_i_glide_lipo>
-1.16418

> <r_i_glide_metal>
0

> <r_i_glide_rewards>
-0.0619652

> <s_i_glide_gridfile>
wee1_glide-grid

> <s_m_Source_File>
wee1_decoys_glide_SP.sdf

> <s_m_Source_Path>
/Users/zhangxujun/Desktop

> <s_m_entry_id>
3521

> <s_m_entry_name>
wee1_decoys_glide_SP.3246

> <s_m_subgroup_title>
wee1_decoys_glide_SP

> <s_m_subgroupid>
wee1_decoys_glide_SP


$$$$
