ZINC39677001_591
                    3D
 Schrodinger Suite 2024-2.
 74 77  0  0  1  0            999 V2000
   -5.4162   47.1404   20.6030 C   0  0  0  0  0  0
   -4.3133   48.1277   20.1878 C   0  0  0  0  0  0
   -4.6274   49.6076   20.5562 C   0  0  2  0  0  0
   -4.8821   49.6268   21.6157 H   0  0  0  0  0  0
   -5.8531   50.1573   19.7919 C   0  0  0  0  0  0
   -5.9259   50.0679   18.3935 C   0  0  0  0  0  0
   -7.0241   50.5809   17.7082 C   0  0  0  0  0  0
   -8.0567   51.1897   18.4164 C   0  0  0  0  0  0
   -7.9973   51.2914   19.8044 C   0  0  0  0  0  0
   -6.8991   50.7760   20.4885 C   0  0  0  0  0  0
   -3.3707   50.5089   20.3898 C   0  0  0  0  0  0
   -3.2430   51.1726   19.3569 O   0  0  0  0  0  0
   -2.4538   50.6033   21.3889 N   0  0  0  0  0  0
   -1.2056   51.3475   21.2001 C   0  0  0  0  0  0
   -0.1915   50.4646   21.9457 C   0  0  2  0  0  0
    0.0694   49.6524   21.2641 H   0  0  0  0  0  0
   -0.9878   49.9721   23.1884 C   0  0  0  0  0  0
   -2.4187   49.7820   22.6120 C   0  0  0  0  0  0
   -1.0082   51.0363   24.3465 C   0  0  0  0  0  0
   -1.6909   50.5402   25.6373 C   0  0  0  0  0  0
   -0.9633   49.2583   26.0816 N   0  3  0  0  0  0
   -1.0530   48.1494   25.0194 C   0  0  0  0  0  0
   -0.3634   48.6674   23.7509 C   0  0  0  0  0  0
    1.1304   51.2208   22.2503 C   0  0  0  0  0  0
    2.0307   50.6078   22.8211 O   0  0  0  0  0  0
    1.2798   52.4986   21.8647 N   0  0  0  0  0  0
    2.4598   53.3045   22.1623 C   0  0  0  0  0  0
    3.6605   52.9976   21.2441 C   0  0  0  0  0  0
    4.8710   53.8959   21.5014 C   0  0  0  0  0  0
    5.3683   53.9840   22.8072 C   0  0  0  0  0  0
    6.4644   54.7896   23.1064 C   0  0  0  0  0  0
    7.1043   55.4878   22.0815 C   0  0  0  0  0  0
    6.6264   55.4061   20.7747 C   0  0  0  0  0  0
    5.5095   54.6177   20.4728 C   0  0  0  0  0  0
    5.0285   54.5601   19.0295 C   0  0  0  0  0  0
    6.9197   54.9295   24.5457 C   0  0  0  0  0  0
   -5.1446   46.1172   20.3426 H   0  0  0  0  0  0
   -5.5923   47.1725   21.6782 H   0  0  0  0  0  0
   -6.3607   47.3652   20.1049 H   0  0  0  0  0  0
   -4.1335   48.0311   19.1170 H   0  0  0  0  0  0
   -3.3799   47.8027   20.6456 H   0  0  0  0  0  0
   -5.1232   49.6137   17.8317 H   0  0  0  0  0  0
   -7.0698   50.5117   16.6316 H   0  0  0  0  0  0
   -8.9073   51.5921   17.8853 H   0  0  0  0  0  0
   -8.7976   51.7734   20.3474 H   0  0  0  0  0  0
   -6.8619   50.8714   21.5643 H   0  0  0  0  0  0
   -0.9051   51.5018   20.1609 H   0  0  0  0  0  0
   -1.3140   52.2945   21.7299 H   0  0  0  0  0  0
   -3.2048   49.9855   23.3396 H   0  0  0  0  0  0
   -2.4838   48.7390   22.3076 H   0  0  0  0  0  0
    0.0045   51.3331   24.6232 H   0  0  0  0  0  0
   -1.4854   51.9580   24.0118 H   0  0  0  0  0  0
   -1.5884   51.2461   26.4631 H   0  0  0  0  0  0
   -2.7448   50.2860   25.5178 H   0  0  0  0  0  0
    0.0122   49.4665   26.2410 H   0  0  0  0  0  0
   -0.5225   47.2965   25.4383 H   0  0  0  0  0  0
   -2.1075   47.9017   24.8920 H   0  0  0  0  0  0
   -0.3986   47.8922   22.9867 H   0  0  0  0  0  0
    0.6991   48.8029   23.9615 H   0  0  0  0  0  0
    0.5707   52.9379   21.3001 H   0  0  0  0  0  0
    2.2056   54.3617   22.0820 H   0  0  0  0  0  0
    2.7345   53.2172   23.2146 H   0  0  0  0  0  0
    3.9762   51.9616   21.3771 H   0  0  0  0  0  0
    3.3220   53.0663   20.2119 H   0  0  0  0  0  0
    4.9010   53.4262   23.6044 H   0  0  0  0  0  0
    7.9664   56.0989   22.2991 H   0  0  0  0  0  0
    7.1308   55.9549   19.9923 H   0  0  0  0  0  0
    5.6528   55.1512   18.3563 H   0  0  0  0  0  0
    5.0367   53.5302   18.6696 H   0  0  0  0  0  0
    4.0058   54.9312   18.9558 H   0  0  0  0  0  0
    7.5039   54.0604   24.8443 H   0  0  0  0  0  0
    7.5048   55.8385   24.6922 H   0  0  0  0  0  0
    6.0587   54.9985   25.2112 H   0  0  0  0  0  0
   -1.2959   48.9062   26.9978 H   0  0  0  0  0  0
  1  2  1  0  0  0
  1 37  1  0  0  0
  1 38  1  0  0  0
  1 39  1  0  0  0
  2  3  1  0  0  0
  2 40  1  0  0  0
  2 41  1  0  0  0
  3  4  1  0  0  0
  3  5  1  0  0  0
  3 11  1  0  0  0
  5 10  2  0  0  0
  5  6  1  0  0  0
  6  7  2  0  0  0
  6 42  1  0  0  0
  7  8  1  0  0  0
  7 43  1  0  0  0
  8  9  2  0  0  0
  8 44  1  0  0  0
  9 10  1  0  0  0
  9 45  1  0  0  0
 10 46  1  0  0  0
 11 12  2  0  0  0
 11 13  1  0  0  0
 13 18  1  0  0  0
 13 14  1  0  0  0
 14 15  1  0  0  0
 14 47  1  0  0  0
 14 48  1  0  0  0
 15 16  1  0  0  0
 15 17  1  0  0  0
 15 24  1  0  0  0
 17 23  1  0  0  0
 17 18  1  0  0  0
 17 19  1  0  0  0
 18 49  1  0  0  0
 18 50  1  0  0  0
 19 20  1  0  0  0
 19 51  1  0  0  0
 19 52  1  0  0  0
 20 21  1  0  0  0
 20 53  1  0  0  0
 20 54  1  0  0  0
 21 22  1  0  0  0
 21 55  1  0  0  0
 21 74  1  0  0  0
 22 23  1  0  0  0
 22 56  1  0  0  0
 22 57  1  0  0  0
 23 58  1  0  0  0
 23 59  1  0  0  0
 24 25  2  0  0  0
 24 26  1  0  0  0
 26 27  1  0  0  0
 26 60  1  0  0  0
 27 28  1  0  0  0
 27 61  1  0  0  0
 27 62  1  0  0  0
 28 29  1  0  0  0
 28 63  1  0  0  0
 28 64  1  0  0  0
 29 34  2  0  0  0
 29 30  1  0  0  0
 30 31  2  0  0  0
 30 65  1  0  0  0
 31 32  1  0  0  0
 31 36  1  0  0  0
 32 33  2  0  0  0
 32 66  1  0  0  0
 33 34  1  0  0  0
 33 67  1  0  0  0
 34 35  1  0  0  0
 35 68  1  0  0  0
 35 69  1  0  0  0
 35 70  1  0  0  0
 36 71  1  0  0  0
 36 72  1  0  0  0
 36 73  1  0  0  0
M  CHG  1  21   1
M  END
> <i_i_glide_confnum>
35

> <i_i_glide_lignum>
592

> <i_i_glide_posenum>
400

> <i_i_glide_rotatable_bonds>
9

> <i_m_Source_File_Index>
4338

> <b_m_subgroup_collapsed>
0

> <r_i_docking_score>
-3.85102

> <r_i_glide_ecoul>
-8.10366

> <r_i_glide_eff_state_penalty>
0

> <r_i_glide_einternal>
6.21072

> <r_i_glide_emodel>
-44.2277

> <r_i_glide_energy>
-35.8092

> <r_i_glide_erotb>
0.752958

> <r_i_glide_esite>
-0.103286

> <r_i_glide_evdw>
-27.7056

> <r_i_glide_gscore>
-3.85102

> <r_i_glide_hbond>
-0.183044

> <r_i_glide_ligand_efficiency>
-0.113265

> <r_i_glide_ligand_efficiency_ln>
-0.850797

> <r_i_glide_ligand_efficiency_sa>
-0.366935

> <r_i_glide_lipo>
-1.37665

> <r_i_glide_metal>
0

> <r_i_glide_rewards>
-0.340168

> <s_i_glide_gridfile>
wee1_glide-grid

> <s_m_Source_File>
wee1_decoys_glide_SP.sdf

> <s_m_Source_Path>
/Users/zhangxujun/Desktop

> <s_m_entry_id>
4613

> <s_m_entry_name>
wee1_decoys_glide_SP.4338

> <s_m_subgroup_title>
wee1_decoys_glide_SP

> <s_m_subgroupid>
wee1_decoys_glide_SP


$$$$
