ZINC35955598_4137
                    3D
 Schrodinger Suite 2024-2.
 75 78  0  0  1  0            999 V2000
    3.0243   57.8295   16.2146 C   0  0  0  0  0  0
    4.4848   57.5933   16.6444 C   0  0  0  0  0  0
    4.7958   56.1842   17.2300 C   0  0  2  0  0  0
    4.0989   56.0417   18.0577 H   0  0  0  0  0  0
    6.2247   56.1539   17.7976 C   0  0  0  0  0  0
    7.3374   56.0779   16.9501 C   0  0  0  0  0  0
    8.6186   56.0001   17.4877 C   0  0  0  0  0  0
    8.7856   56.0001   18.8693 C   0  0  0  0  0  0
    7.6912   56.0969   19.7223 C   0  0  0  0  0  0
    6.4121   56.1982   19.1854 C   0  0  0  0  0  0
    4.5331   54.9940   16.2531 C   0  0  0  0  0  0
    4.4208   55.2324   15.0489 O   0  0  0  0  0  0
    4.3329   53.7422   16.7500 N   0  0  0  0  0  0
    3.8410   52.6365   15.9083 C   0  0  0  0  0  0
    2.4868   52.1997   16.5165 C   0  0  0  0  0  0
    2.5842   51.8099   18.0107 C   0  0  0  0  0  0
    3.3641   52.8893   18.8036 C   0  0  2  0  0  0
    2.7283   53.7734   18.8825 H   0  0  0  0  0  0
    4.6761   53.3285   18.1191 C   0  0  0  0  0  0
    3.6758   52.4096   20.2320 C   0  0  0  0  0  0
    4.6189   51.6563   20.4816 O   0  0  0  0  0  0
    2.8722   52.8833   21.1875 N   0  0  0  0  0  0
    2.9491   52.5235   22.6028 C   0  0  2  0  0  0
    4.0150   52.4969   22.8373 H   0  0  0  0  0  0
    2.3044   51.1372   22.9314 C   0  0  0  0  0  0
    0.7676   51.1282   22.8449 C   0  0  0  0  0  0
    0.1637   52.2702   23.6841 C   0  0  0  0  0  0
    0.8134   53.6051   23.2812 C   0  0  0  0  0  0
    2.3339   53.6504   23.4713 C   0  0  1  0  0  0
    2.6652   54.6108   23.0624 H   0  0  0  0  0  0
    2.7479   53.6179   24.8708 N   0  0  0  0  0  0
    3.8239   54.2573   25.3660 C   0  0  0  0  0  0
    4.5992   54.8965   24.6546 O   0  0  0  0  0  0
    3.9970   54.1939   26.8670 C   0  0  0  0  0  0
    2.8621   54.0243   27.6846 C   0  0  0  0  0  0
    2.9696   53.9896   29.0708 C   0  0  0  0  0  0
    4.2134   54.1484   29.6662 C   0  0  0  0  0  0
    5.3437   54.3459   28.8768 C   0  0  0  0  0  0
    5.2603   54.3524   27.4856 C   0  0  0  0  0  0
    6.5694   54.5134   26.7126 C   0  0  0  0  0  0
    2.8722   58.8747   15.9428 H   0  0  0  0  0  0
    2.7538   57.2256   15.3483 H   0  0  0  0  0  0
    2.3248   57.5951   17.0139 H   0  0  0  0  0  0
    4.7321   58.3499   17.3907 H   0  0  0  0  0  0
    5.1379   57.8017   15.7954 H   0  0  0  0  0  0
    7.2087   56.0598   15.8768 H   0  0  0  0  0  0
    9.4784   55.9288   16.8379 H   0  0  0  0  0  0
    9.7811   55.9276   19.2814 H   0  0  0  0  0  0
    7.8387   56.0938   20.7925 H   0  0  0  0  0  0
    5.5640   56.2693   19.8497 H   0  0  0  0  0  0
    3.7750   52.8918   14.8487 H   0  0  0  0  0  0
    4.5633   51.8192   15.9735 H   0  0  0  0  0  0
    1.7567   53.0001   16.3847 H   0  0  0  0  0  0
    2.0997   51.3530   15.9480 H   0  0  0  0  0  0
    1.5655   51.6964   18.3841 H   0  0  0  0  0  0
    3.1048   50.8529   18.0312 H   0  0  0  0  0  0
    5.3739   52.4967   18.0379 H   0  0  0  0  0  0
    5.2019   54.0799   18.6941 H   0  0  0  0  0  0
    2.1097   53.4834   20.9037 H   0  0  0  0  0  0
    2.7189   50.3661   22.2802 H   0  0  0  0  0  0
    2.5627   50.8292   23.9407 H   0  0  0  0  0  0
    0.4618   51.2281   21.8027 H   0  0  0  0  0  0
    0.3796   50.1667   23.1818 H   0  0  0  0  0  0
   -0.9149   52.3165   23.5277 H   0  0  0  0  0  0
    0.3129   52.0796   24.7475 H   0  0  0  0  0  0
    0.7044   53.6970   22.2052 H   0  0  0  0  0  0
    0.3265   54.4611   23.7487 H   0  0  0  0  0  0
    2.2652   52.9665   25.4701 H   0  0  0  0  0  0
    1.8743   53.9220   27.2585 H   0  0  0  0  0  0
    2.0891   53.8451   29.6797 H   0  0  0  0  0  0
    4.3047   54.1183   30.7397 H   0  0  0  0  0  0
    6.3031   54.4966   29.3467 H   0  0  0  0  0  0
    7.4445   54.4033   27.3540 H   0  0  0  0  0  0
    6.6511   53.7484   25.9395 H   0  0  0  0  0  0
    6.6115   55.4919   26.2312 H   0  0  0  0  0  0
  1  2  1  0  0  0
  1 41  1  0  0  0
  1 42  1  0  0  0
  1 43  1  0  0  0
  2  3  1  0  0  0
  2 44  1  0  0  0
  2 45  1  0  0  0
  3  4  1  0  0  0
  3  5  1  0  0  0
  3 11  1  0  0  0
  5 10  2  0  0  0
  5  6  1  0  0  0
  6  7  2  0  0  0
  6 46  1  0  0  0
  7  8  1  0  0  0
  7 47  1  0  0  0
  8  9  2  0  0  0
  8 48  1  0  0  0
  9 10  1  0  0  0
  9 49  1  0  0  0
 10 50  1  0  0  0
 11 12  2  0  0  0
 11 13  1  0  0  0
 13 19  1  0  0  0
 13 14  1  0  0  0
 14 15  1  0  0  0
 14 51  1  0  0  0
 14 52  1  0  0  0
 15 16  1  0  0  0
 15 53  1  0  0  0
 15 54  1  0  0  0
 16 17  1  0  0  0
 16 55  1  0  0  0
 16 56  1  0  0  0
 17 18  1  0  0  0
 17 19  1  0  0  0
 17 20  1  0  0  0
 19 57  1  0  0  0
 19 58  1  0  0  0
 20 21  2  0  0  0
 20 22  1  0  0  0
 22 23  1  0  0  0
 22 59  1  0  0  0
 23 24  1  0  0  0
 23 29  1  0  0  0
 23 25  1  0  0  0
 25 26  1  0  0  0
 25 60  1  0  0  0
 25 61  1  0  0  0
 26 27  1  0  0  0
 26 62  1  0  0  0
 26 63  1  0  0  0
 27 28  1  0  0  0
 27 64  1  0  0  0
 27 65  1  0  0  0
 28 29  1  0  0  0
 28 66  1  0  0  0
 28 67  1  0  0  0
 29 30  1  0  0  0
 29 31  1  0  0  0
 31 32  1  0  0  0
 31 68  1  0  0  0
 32 33  2  0  0  0
 32 34  1  0  0  0
 34 39  2  0  0  0
 34 35  1  0  0  0
 35 36  2  0  0  0
 35 69  1  0  0  0
 36 37  1  0  0  0
 36 70  1  0  0  0
 37 38  2  0  0  0
 37 71  1  0  0  0
 38 39  1  0  0  0
 38 72  1  0  0  0
 39 40  1  0  0  0
 40 73  1  0  0  0
 40 74  1  0  0  0
 40 75  1  0  0  0
M  END
> <i_i_glide_confnum>
43

> <i_i_glide_lignum>
4138

> <i_i_glide_posenum>
203

> <i_i_glide_rotatable_bonds>
10

> <i_m_Source_File_Index>
1233

> <b_m_subgroup_collapsed>
0

> <r_i_docking_score>
-4.65105

> <r_i_glide_ecoul>
-3.64824

> <r_i_glide_eff_state_penalty>
0

> <r_i_glide_einternal>
5.19189

> <r_i_glide_emodel>
-51.3018

> <r_i_glide_energy>
-41.3124

> <r_i_glide_erotb>
0.763713

> <r_i_glide_esite>
-0.0488069

> <r_i_glide_evdw>
-37.6642

> <r_i_glide_gscore>
-4.65105

> <r_i_glide_hbond>
-0.303503

> <r_i_glide_ligand_efficiency>
-0.129196

> <r_i_glide_ligand_efficiency_ln>
-1.01473

> <r_i_glide_ligand_efficiency_sa>
-0.426596

> <r_i_glide_lipo>
-2.24559

> <r_i_glide_metal>
0

> <r_i_glide_rewards>
-0.386415

> <s_i_glide_gridfile>
wee1_glide-grid

> <s_m_Source_File>
wee1_decoys_glide_SP.sdf

> <s_m_Source_Path>
/Users/zhangxujun/Desktop

> <s_m_entry_id>
1508

> <s_m_entry_name>
wee1_decoys_glide_SP.1233

> <s_m_subgroup_title>
wee1_decoys_glide_SP

> <s_m_subgroupid>
wee1_decoys_glide_SP


$$$$
