ZINC04095454_1886
                    3D
 Schrodinger Suite 2024-2.
 28 29  0  0  1  0            999 V2000
    1.7017   53.4873   24.8818 C   0  0  0  0  0  0
    0.8634   53.1575   23.8251 C   0  0  0  0  0  0
   -0.1683   52.2325   23.9943 C   0  0  0  0  0  0
   -0.3793   51.6087   25.2506 C   0  0  0  0  0  0
    0.4807   51.9681   26.3149 C   0  0  0  0  0  0
    1.5048   52.8978   26.1243 C   0  0  0  0  0  0
    0.3395   51.2867   27.9001 Cl  0  0  0  0  0  0
   -1.4668   50.5158   25.4606 C   0  0  2  0  0  0
   -1.6954   50.5300   26.5269 H   0  0  0  0  0  0
   -0.8895   49.0798   25.1620 C   0  0  1  0  0  0
   -0.1209   48.8689   25.9075 H   0  0  0  0  0  0
   -1.9008   47.9402   25.1900 C   0  0  0  0  0  0
   -1.6958   46.7955   25.6817 N   0  0  0  0  0  0
   -3.4767   48.1822   24.4017 S   0  0  0  0  0  0
   -3.7455   49.9295   24.4244 C   0  0  0  0  0  0
   -2.8700   50.8419   24.9002 C   0  0  0  0  0  0
   -3.2977   52.2089   24.9563 C   0  0  0  0  0  0
   -3.6943   53.2966   24.9842 N   0  0  0  0  0  0
   -4.9941   50.2252   23.9398 N   0  0  0  0  0  0
   -0.2195   48.9866   23.8538 C   0  0  0  0  0  0
    0.3048   48.9026   22.8258 N   0  0  0  0  0  0
   -1.1248   51.8979   22.5885 Cl  0  0  0  0  0  0
    2.5004   54.2008   24.7381 H   0  0  0  0  0  0
    1.0248   53.6167   22.8598 H   0  0  0  0  0  0
    2.1586   53.1565   26.9444 H   0  0  0  0  0  0
   -0.7804   46.7135   26.1250 H   0  0  0  0  0  0
   -5.3351   51.1761   23.9121 H   0  0  0  0  0  0
   -5.6171   49.4939   23.6258 H   0  0  0  0  0  0
  1  6  2  0  0  0
  1  2  1  0  0  0
  1 23  1  0  0  0
  2  3  2  0  0  0
  2 24  1  0  0  0
  3  4  1  0  0  0
  3 22  1  0  0  0
  4  5  2  0  0  0
  4  8  1  0  0  0
  5  6  1  0  0  0
  5  7  1  0  0  0
  6 25  1  0  0  0
  8  9  1  0  0  0
  8 16  1  0  0  0
  8 10  1  0  0  0
 10 11  1  0  0  0
 10 12  1  0  0  0
 10 20  1  0  0  0
 12 13  2  0  0  0
 12 14  1  0  0  0
 13 26  1  0  0  0
 14 15  1  0  0  0
 15 16  2  0  0  0
 15 19  1  0  0  0
 16 17  1  0  0  0
 17 18  3  0  0  0
 19 27  1  0  0  0
 19 28  1  0  0  0
 20 21  3  0  0  0
M  END
> <i_i_glide_confnum>
2

> <i_i_glide_lignum>
1887

> <i_i_glide_posenum>
360

> <i_i_glide_rotatable_bonds>
3

> <i_m_Source_File_Index>
2241

> <b_m_subgroup_collapsed>
0

> <r_i_docking_score>
-4.27116

> <r_i_glide_ecoul>
-6.59514

> <r_i_glide_eff_state_penalty>
0

> <r_i_glide_einternal>
3.36656

> <r_i_glide_emodel>
-33.515

> <r_i_glide_energy>
-27.5366

> <r_i_glide_erotb>
0.179121

> <r_i_glide_esite>
-0.0986761

> <r_i_glide_evdw>
-20.9414

> <r_i_glide_gscore>
-4.27116

> <r_i_glide_hbond>
-0.32

> <r_i_glide_ligand_efficiency>
-0.213558

> <r_i_glide_ligand_efficiency_ln>
-1.06893

> <r_i_glide_ligand_efficiency_sa>
-0.579686

> <r_i_glide_lipo>
-0.746921

> <r_i_glide_metal>
0

> <r_i_glide_rewards>
-1.24835

> <s_i_glide_gridfile>
wee1_glide-grid

> <s_m_Source_File>
wee1_decoys_glide_SP.sdf

> <s_m_Source_Path>
/Users/zhangxujun/Desktop

> <s_m_entry_id>
2516

> <s_m_entry_name>
wee1_decoys_glide_SP.2241

> <s_m_subgroup_title>
wee1_decoys_glide_SP

> <s_m_subgroupid>
wee1_decoys_glide_SP


$$$$
