ZINC40973220_348
                    3D
 Schrodinger Suite 2024-2.
 60 63  0  0  1  0            999 V2000
   -2.6116   46.1087   26.3423 C   0  0  0  0  0  0
   -2.4587   47.2068   25.2785 C   0  0  0  0  0  0
   -1.2788   48.1111   25.6817 N   0  3  0  0  0  0
   -1.2334   49.5601   25.1294 C   0  0  0  0  0  0
    0.1128   50.1429   25.6116 C   0  0  0  0  0  0
    0.5243   51.4344   24.8853 C   0  0  0  0  0  0
    0.5943   51.2865   23.4155 N   0  0  0  0  0  0
   -0.6922   50.8035   22.8803 C   0  0  0  0  0  0
   -1.2412   49.5268   23.5744 C   0  0  0  0  0  0
    1.5031   52.0265   22.6482 C   0  0  0  0  0  0
    1.6369   51.9014   21.2626 C   0  0  0  0  0  0
    2.6513   52.4956   20.5855 N   0  0  0  0  0  0
    3.6051   53.1905   21.2755 C   0  0  0  0  0  0
    3.5054   53.2965   22.6860 C   0  0  0  0  0  0
    2.4283   52.7558   23.3212 N   0  0  0  0  0  0
    4.5411   53.8176   23.6458 C   0  0  0  0  0  0
    5.9152   53.7010   23.3869 C   0  0  0  0  0  0
    6.8405   54.0982   24.3497 C   0  0  0  0  0  0
    6.4858   54.5187   25.5863 N   0  0  0  0  0  0
    5.1628   54.5723   25.8731 C   0  0  0  0  0  0
    4.1784   54.2859   24.9246 C   0  0  0  0  0  0
    4.6869   54.8962   27.4972 Cl  0  0  0  0  0  0
    4.7077   53.7396   20.4139 C   0  0  0  0  0  0
    5.1462   53.0427   19.2809 C   0  0  0  0  0  0
    6.1763   53.5290   18.4805 C   0  0  0  0  0  0
    6.8006   54.7367   18.7993 C   0  0  0  0  0  0
    6.3628   55.4550   19.9141 C   0  0  0  0  0  0
    5.3278   54.9596   20.7009 C   0  0  0  0  0  0
    7.9634   55.2417   17.9458 C   0  0  0  0  0  0
    8.8212   54.2516   17.7011 F   0  0  0  0  0  0
    7.4931   55.6960   16.7855 F   0  0  0  0  0  0
    8.6327   56.2275   18.5447 F   0  0  0  0  0  0
   -2.3899   50.4382   25.7121 C   0  0  0  0  0  0
   -2.7957   51.4347   25.1189 O   0  0  0  0  0  0
   -2.9305   50.0974   26.8820 N   0  0  0  0  0  0
   -3.4172   45.4207   26.0905 H   0  0  0  0  0  0
   -2.8600   46.5326   27.3171 H   0  0  0  0  0  0
   -1.6960   45.5341   26.4762 H   0  0  0  0  0  0
   -2.2181   46.8280   24.2844 H   0  0  0  0  0  0
   -3.3479   47.8380   25.2268 H   0  0  0  0  0  0
   -1.2951   48.1855   26.7025 H   0  0  0  0  0  0
    0.0682   50.3638   26.6814 H   0  0  0  0  0  0
    0.9246   49.4159   25.5327 H   0  0  0  0  0  0
   -0.1442   52.2616   25.1292 H   0  0  0  0  0  0
    1.4985   51.6988   25.2946 H   0  0  0  0  0  0
   -1.4193   51.6160   22.9099 H   0  0  0  0  0  0
   -0.5751   50.5447   21.8300 H   0  0  0  0  0  0
   -0.7238   48.6463   23.1910 H   0  0  0  0  0  0
   -2.2619   49.3708   23.2199 H   0  0  0  0  0  0
    0.9734   51.3020   20.6608 H   0  0  0  0  0  0
    6.2809   53.2727   22.4698 H   0  0  0  0  0  0
    7.8993   54.0180   24.1514 H   0  0  0  0  0  0
    3.1406   54.3478   25.2168 H   0  0  0  0  0  0
    4.6939   52.0974   19.0174 H   0  0  0  0  0  0
    6.4934   52.9500   17.6233 H   0  0  0  0  0  0
    6.8208   56.3959   20.1797 H   0  0  0  0  0  0
    5.0110   55.5347   21.5549 H   0  0  0  0  0  0
   -2.4781   49.4135   27.4945 H   0  0  0  0  0  0
   -3.6881   50.6513   27.2498 H   0  0  0  0  0  0
   -0.4062   47.6431   25.4766 H   0  0  0  0  0  0
  1  2  1  0  0  0
  1 36  1  0  0  0
  1 37  1  0  0  0
  1 38  1  0  0  0
  2  3  1  0  0  0
  2 39  1  0  0  0
  2 40  1  0  0  0
  3  4  1  0  0  0
  3 41  1  0  0  0
  3 60  1  0  0  0
  4  9  1  0  0  0
  4  5  1  0  0  0
  4 33  1  0  0  0
  5  6  1  0  0  0
  5 42  1  0  0  0
  5 43  1  0  0  0
  6  7  1  0  0  0
  6 44  1  0  0  0
  6 45  1  0  0  0
  7  8  1  0  0  0
  7 10  1  0  0  0
  8  9  1  0  0  0
  8 46  1  0  0  0
  8 47  1  0  0  0
  9 48  1  0  0  0
  9 49  1  0  0  0
 10 15  2  0  0  0
 10 11  1  0  0  0
 11 12  2  0  0  0
 11 50  1  0  0  0
 12 13  1  0  0  0
 13 14  2  0  0  0
 13 23  1  0  0  0
 14 15  1  0  0  0
 14 16  1  0  0  0
 16 21  2  0  0  0
 16 17  1  0  0  0
 17 18  2  0  0  0
 17 51  1  0  0  0
 18 19  1  0  0  0
 18 52  1  0  0  0
 19 20  2  0  0  0
 20 21  1  0  0  0
 20 22  1  0  0  0
 21 53  1  0  0  0
 23 28  2  0  0  0
 23 24  1  0  0  0
 24 25  2  0  0  0
 24 54  1  0  0  0
 25 26  1  0  0  0
 25 55  1  0  0  0
 26 27  2  0  0  0
 26 29  1  0  0  0
 27 28  1  0  0  0
 27 56  1  0  0  0
 28 57  1  0  0  0
 29 30  1  0  0  0
 29 31  1  0  0  0
 29 32  1  0  0  0
 33 34  2  0  0  0
 33 35  1  0  0  0
 35 58  1  0  0  0
 35 59  1  0  0  0
M  CHG  1   3   1
M  END
> <i_i_glide_confnum>
74

> <i_i_glide_lignum>
349

> <i_i_glide_posenum>
283

> <i_i_glide_rotatable_bonds>
7

> <i_m_Source_File_Index>
6036

> <b_m_subgroup_collapsed>
0

> <r_i_docking_score>
-6.65757

> <r_i_glide_ecoul>
-9.0396

> <r_i_glide_eff_state_penalty>
0

> <r_i_glide_einternal>
11.3804

> <r_i_glide_emodel>
-59.7488

> <r_i_glide_energy>
-43.3491

> <r_i_glide_erotb>
0.319663

> <r_i_glide_esite>
-0.24783

> <r_i_glide_evdw>
-34.3095

> <r_i_glide_gscore>
-6.65757

> <r_i_glide_hbond>
-0.36

> <r_i_glide_ligand_efficiency>
-0.190216

> <r_i_glide_ligand_efficiency_ln>
-1.46148

> <r_i_glide_ligand_efficiency_sa>
-0.62221

> <r_i_glide_lipo>
-2.20299

> <r_i_glide_metal>
0

> <r_i_glide_rewards>
-1.095

> <s_i_glide_gridfile>
wee1_glide-grid

> <s_m_Source_File>
wee1_decoys_glide_SP.sdf

> <s_m_Source_Path>
/Users/zhangxujun/Desktop

> <s_m_entry_id>
6311

> <s_m_entry_name>
wee1_decoys_glide_SP.6036

> <s_m_subgroup_title>
wee1_decoys_glide_SP

> <s_m_subgroupid>
wee1_decoys_glide_SP


$$$$
