ZINC20504555_680
                    3D
 Schrodinger Suite 2024-2.
 79 82  0  0  1  0            999 V2000
    1.1418   51.2500   21.0764 C   0  0  0  0  0  0
    0.0899   52.0081   21.9240 C   0  0  2  0  0  0
   -0.2209   52.8808   21.3527 H   0  0  0  0  0  0
    0.7336   52.5035   23.2277 C   0  0  0  0  0  0
    0.2403   52.1726   24.4888 C   0  0  0  0  0  0
    1.2165   52.8957   25.7061 S   0  0  0  0  0  0
    2.2338   53.5455   24.4467 C   0  0  0  0  0  0
    1.8078   53.2808   23.2342 N   0  0  0  0  0  0
    3.3899   54.3037   24.6443 N   0  0  0  0  0  0
    4.1200   54.5168   25.7638 C   0  0  0  0  0  0
    5.0696   55.2949   25.7024 O   0  0  0  0  0  0
    3.7797   53.8049   27.0936 C   0  0  0  0  0  0
    4.8127   53.6690   28.2495 C   0  0  0  0  0  0
    5.1345   55.0108   28.9188 C   0  0  0  0  0  0
    6.1263   53.0594   27.7267 C   0  0  0  0  0  0
    4.1527   52.7236   29.2913 C   0  0  0  0  0  0
   -0.9434   51.2829   24.7591 C   0  0  0  0  0  0
   -1.9468   51.4510   23.5891 C   0  0  1  0  0  0
   -1.1988   51.1432   22.2297 C   0  0  1  0  0  0
   -0.7927   50.1454   22.3791 H   0  0  0  0  0  0
   -2.2509   51.0403   21.0619 C   0  0  2  0  0  0
   -2.8164   51.9708   21.0399 H   0  0  0  0  0  0
   -3.2745   49.8803   21.2994 C   0  0  2  0  0  0
   -4.0314   49.9567   20.5167 H   0  0  0  0  0  0
   -4.0324   50.2574   22.6107 C   0  0  0  0  0  0
   -3.0686   50.3913   23.8054 C   0  0  0  0  0  0
   -2.6821   48.4126   21.2587 C   0  0  2  0  0  0
   -1.7714   48.3944   21.8325 H   0  0  0  0  0  0
   -2.2498   47.9797   19.8337 C   0  0  0  0  0  0
   -3.6725   47.3498   21.8185 C   0  0  0  0  0  0
   -4.7140   47.1889   21.1771 O   0  0  0  0  0  0
   -3.4764   46.7526   23.0330 N   0  0  0  0  0  0
   -2.1470   46.6466   23.6812 C   0  0  0  0  0  0
   -2.3048   46.6603   25.2194 C   0  0  0  0  0  0
   -3.2976   45.6972   25.6959 N   0  0  0  0  0  0
   -4.6023   45.9494   25.0873 C   0  0  0  0  0  0
   -4.5503   45.8682   23.5459 C   0  0  0  0  0  0
   -3.4034   45.8071   27.1516 C   0  0  0  0  0  0
   -1.6984   51.0178   19.7630 O   0  0  0  0  0  0
   -2.5417   52.8909   23.6390 C   0  0  0  0  0  0
    1.9780   51.8985   20.8118 H   0  0  0  0  0  0
    1.5486   50.3976   21.6232 H   0  0  0  0  0  0
    0.7430   50.8671   20.1400 H   0  0  0  0  0  0
    3.7747   54.7184   23.8087 H   0  0  0  0  0  0
    3.5426   52.7790   26.8257 H   0  0  0  0  0  0
    2.8751   54.2750   27.4813 H   0  0  0  0  0  0
    5.8070   54.8968   29.7660 H   0  0  0  0  0  0
    4.2301   55.5015   29.2815 H   0  0  0  0  0  0
    5.6504   55.6770   28.2257 H   0  0  0  0  0  0
    5.9042   52.1007   27.2825 H   0  0  0  0  0  0
    6.6064   53.6694   26.9622 H   0  0  0  0  0  0
    6.8719   52.8990   28.4983 H   0  0  0  0  0  0
    4.0277   51.7154   28.8964 H   0  0  0  0  0  0
    4.7043   52.6289   30.2210 H   0  0  0  0  0  0
    3.1590   53.0773   29.5693 H   0  0  0  0  0  0
   -0.5776   50.2567   24.8285 H   0  0  0  0  0  0
   -1.4003   51.5052   25.7262 H   0  0  0  0  0  0
   -4.5828   51.1883   22.4817 H   0  0  0  0  0  0
   -4.8023   49.5243   22.8519 H   0  0  0  0  0  0
   -2.6149   49.4174   23.9822 H   0  0  0  0  0  0
   -3.6236   50.6062   24.7206 H   0  0  0  0  0  0
   -1.9544   46.9293   19.8017 H   0  0  0  0  0  0
   -3.0529   48.1143   19.1077 H   0  0  0  0  0  0
   -1.3818   48.5363   19.4845 H   0  0  0  0  0  0
   -1.6962   45.6946   23.4088 H   0  0  0  0  0  0
   -1.4510   47.4540   23.4802 H   0  0  0  0  0  0
   -2.6305   47.6572   25.5242 H   0  0  0  0  0  0
   -1.3356   46.4556   25.6786 H   0  0  0  0  0  0
   -4.9260   46.9539   25.3692 H   0  0  0  0  0  0
   -5.3371   45.2320   25.4563 H   0  0  0  0  0  0
   -5.5383   46.1456   23.1764 H   0  0  0  0  0  0
   -4.3379   44.8342   23.2723 H   0  0  0  0  0  0
   -2.4307   45.6848   27.6313 H   0  0  0  0  0  0
   -3.7887   46.7807   27.4581 H   0  0  0  0  0  0
   -4.0694   45.0411   27.5509 H   0  0  0  0  0  0
   -2.4053   50.9106   19.1252 H   0  0  0  0  0  0
   -3.2957   53.0690   22.8817 H   0  0  0  0  0  0
   -3.0199   53.0830   24.6005 H   0  0  0  0  0  0
   -1.7840   53.6633   23.5079 H   0  0  0  0  0  0
  1  2  1  0  0  0
  1 41  1  0  0  0
  1 42  1  0  0  0
  1 43  1  0  0  0
  2  3  1  0  0  0
  2 19  1  0  0  0
  2  4  1  0  0  0
  4  8  1  0  0  0
  4  5  2  0  0  0
  5  6  1  0  0  0
  5 17  1  0  0  0
  6  7  1  0  0  0
  7  8  2  0  0  0
  7  9  1  0  0  0
  9 10  1  0  0  0
  9 44  1  0  0  0
 10 11  2  0  0  0
 10 12  1  0  0  0
 12 13  1  0  0  0
 12 45  1  0  0  0
 12 46  1  0  0  0
 13 14  1  0  0  0
 13 15  1  0  0  0
 13 16  1  0  0  0
 14 47  1  0  0  0
 14 48  1  0  0  0
 14 49  1  0  0  0
 15 50  1  0  0  0
 15 51  1  0  0  0
 15 52  1  0  0  0
 16 53  1  0  0  0
 16 54  1  0  0  0
 16 55  1  0  0  0
 17 18  1  0  0  0
 17 56  1  0  0  0
 17 57  1  0  0  0
 18 26  1  0  0  0
 18 19  1  0  0  0
 18 40  1  0  0  0
 19 20  1  0  0  0
 19 21  1  0  0  0
 21 22  1  0  0  0
 21 23  1  0  0  0
 21 39  1  0  0  0
 23 24  1  0  0  0
 23 25  1  0  0  0
 23 27  1  0  0  0
 25 26  1  0  0  0
 25 58  1  0  0  0
 25 59  1  0  0  0
 26 60  1  0  0  0
 26 61  1  0  0  0
 27 28  1  0  0  0
 27 29  1  0  0  0
 27 30  1  0  0  0
 29 62  1  0  0  0
 29 63  1  0  0  0
 29 64  1  0  0  0
 30 31  2  0  0  0
 30 32  1  0  0  0
 32 37  1  0  0  0
 32 33  1  0  0  0
 33 34  1  0  0  0
 33 65  1  0  0  0
 33 66  1  0  0  0
 34 35  1  0  0  0
 34 67  1  0  0  0
 34 68  1  0  0  0
 35 36  1  0  0  0
 35 38  1  0  0  0
 36 37  1  0  0  0
 36 69  1  0  0  0
 36 70  1  0  0  0
 37 71  1  0  0  0
 37 72  1  0  0  0
 38 73  1  0  0  0
 38 74  1  0  0  0
 38 75  1  0  0  0
 39 76  1  0  0  0
 40 77  1  0  0  0
 40 78  1  0  0  0
 40 79  1  0  0  0
M  END
> <i_i_glide_confnum>
74

> <i_i_glide_lignum>
681

> <i_i_glide_posenum>
175

> <i_i_glide_rotatable_bonds>
8

> <i_m_Source_File_Index>
2424

> <b_m_subgroup_collapsed>
0

> <r_i_docking_score>
-2.51416

> <r_i_glide_ecoul>
-4.86092

> <r_i_glide_eff_state_penalty>
0

> <r_i_glide_einternal>
8.56711

> <r_i_glide_emodel>
-30.628

> <r_i_glide_energy>
-33.6302

> <r_i_glide_erotb>
0.481613

> <r_i_glide_esite>
-0.0114332

> <r_i_glide_evdw>
-28.7692

> <r_i_glide_gscore>
-2.51416

> <r_i_glide_hbond>
-0.16

> <r_i_glide_ligand_efficiency>
-0.0718331

> <r_i_glide_ligand_efficiency_ln>
-0.551914

> <r_i_glide_ligand_efficiency_sa>
-0.234971

> <r_i_glide_lipo>
-1.75874

> <r_i_glide_metal>
0

> <r_i_glide_rewards>
1.102

> <s_i_glide_gridfile>
wee1_glide-grid

> <s_m_Source_File>
wee1_decoys_glide_SP.sdf

> <s_m_Source_Path>
/Users/zhangxujun/Desktop

> <s_m_entry_id>
2699

> <s_m_entry_name>
wee1_decoys_glide_SP.2424

> <s_m_subgroup_title>
wee1_decoys_glide_SP

> <s_m_subgroupid>
wee1_decoys_glide_SP


$$$$
