ZINC64117483_3700
                    3D
 Schrodinger Suite 2024-2.
 60 63  0  0  1  0            999 V2000
    3.8008   56.5954   17.5552 C   0  0  0  0  0  0
    5.1436   56.1110   18.0770 C   0  0  0  0  0  0
    6.1115   57.0620   18.4261 C   0  0  0  0  0  0
    7.3663   56.6604   18.8824 C   0  0  0  0  0  0
    7.6635   55.3064   18.9983 C   0  0  0  0  0  0
    6.7030   54.3533   18.6593 C   0  0  0  0  0  0
    5.4383   54.7387   18.2039 C   0  0  0  0  0  0
    4.4346   53.6457   17.8290 C   0  0  0  0  0  0
    4.0004   52.7223   18.9923 C   0  0  2  0  0  0
    4.8856   52.1488   19.2816 H   0  0  0  0  0  0
    2.9507   51.6956   18.5353 C   0  0  0  0  0  0
    3.5051   53.4381   20.1700 N   0  0  0  0  0  0
    4.0083   53.3504   21.4112 C   0  0  0  0  0  0
    5.0391   52.7283   21.6839 O   0  0  0  0  0  0
    3.1776   54.0311   22.5330 C   0  0  1  0  0  0
    3.1262   55.0826   22.2538 H   0  0  0  0  0  0
    1.7017   53.4977   22.6257 C   0  0  0  0  0  0
    1.5387   52.0140   22.9591 C   0  0  0  0  0  0
    0.8621   51.4061   23.9549 C   0  0  0  0  0  0
    0.0926   51.9596   25.0801 C   0  0  0  0  0  0
   -0.5225   51.1482   25.9639 C   0  0  0  0  0  0
   -0.3965   49.7095   25.7743 C   0  0  0  0  0  0
    0.3053   49.1787   24.7410 C   0  0  0  0  0  0
    0.9336   50.0168   23.8118 C   0  0  0  0  0  0
    1.6351   49.6973   22.7538 N   0  3  0  0  0  0
    2.0770   50.9118   22.0647 C   0  0  0  0  0  0
    3.9480   54.0361   23.7895 N   0  0  0  0  0  0
    3.5424   54.0920   25.0704 C   0  0  0  0  0  0
    2.3667   54.0963   25.4254 O   0  0  0  0  0  0
    4.5954   54.1208   26.0545 C   0  0  0  0  0  0
    4.4333   53.9529   27.4314 C   0  0  0  0  0  0
    5.6242   54.0986   28.1457 C   0  0  0  0  0  0
    6.7034   54.3893   27.3305 C   0  0  0  0  0  0
    6.2605   54.4998   25.6603 S   0  0  0  0  0  0
    3.7009   56.3573   16.4981 H   0  0  0  0  0  0
    2.9861   56.0990   18.0824 H   0  0  0  0  0  0
    3.6662   57.6714   17.6805 H   0  0  0  0  0  0
    5.9018   58.1189   18.3251 H   0  0  0  0  0  0
    8.1156   57.3976   19.1265 H   0  0  0  0  0  0
    8.6390   54.9916   19.3435 H   0  0  0  0  0  0
    6.9502   53.3063   18.7410 H   0  0  0  0  0  0
    3.5504   54.0638   17.3508 H   0  0  0  0  0  0
    4.8932   53.0372   17.0470 H   0  0  0  0  0  0
    3.1923   51.2960   17.5500 H   0  0  0  0  0  0
    2.9350   50.8328   19.1989 H   0  0  0  0  0  0
    1.9486   52.1199   18.4688 H   0  0  0  0  0  0
    2.6924   54.0280   20.0263 H   0  0  0  0  0  0
    1.1207   54.0972   23.3220 H   0  0  0  0  0  0
    1.1938   53.6590   21.6791 H   0  0  0  0  0  0
    0.0080   53.0259   25.2327 H   0  0  0  0  0  0
   -1.0867   51.5450   26.7952 H   0  0  0  0  0  0
   -0.8684   49.0433   26.4810 H   0  0  0  0  0  0
    0.3810   48.1043   24.6703 H   0  0  0  0  0  0
    1.6385   50.9096   21.0658 H   0  0  0  0  0  0
    3.1613   50.8675   21.9972 H   0  0  0  0  0  0
    4.9406   53.9408   23.6353 H   0  0  0  0  0  0
    3.4831   53.7349   27.8986 H   0  0  0  0  0  0
    5.6916   54.0076   29.2208 H   0  0  0  0  0  0
    7.7210   54.5588   27.6450 H   0  0  0  0  0  0
    1.8530   48.7519   22.4497 H   0  0  0  0  0  0
  1  2  1  0  0  0
  1 35  1  0  0  0
  1 36  1  0  0  0
  1 37  1  0  0  0
  2  7  2  0  0  0
  2  3  1  0  0  0
  3  4  2  0  0  0
  3 38  1  0  0  0
  4  5  1  0  0  0
  4 39  1  0  0  0
  5  6  2  0  0  0
  5 40  1  0  0  0
  6  7  1  0  0  0
  6 41  1  0  0  0
  7  8  1  0  0  0
  8  9  1  0  0  0
  8 42  1  0  0  0
  8 43  1  0  0  0
  9 10  1  0  0  0
  9 11  1  0  0  0
  9 12  1  0  0  0
 11 44  1  0  0  0
 11 45  1  0  0  0
 11 46  1  0  0  0
 12 13  1  0  0  0
 12 47  1  0  0  0
 13 14  2  0  0  0
 13 15  1  0  0  0
 15 16  1  0  0  0
 15 17  1  0  0  0
 15 27  1  0  0  0
 17 18  1  0  0  0
 17 48  1  0  0  0
 17 49  1  0  0  0
 18 26  1  0  0  0
 18 19  2  0  0  0
 19 24  1  0  0  0
 19 20  1  0  0  0
 20 21  2  0  0  0
 20 50  1  0  0  0
 21 22  1  0  0  0
 21 51  1  0  0  0
 22 23  2  0  0  0
 22 52  1  0  0  0
 23 24  1  0  0  0
 23 53  1  0  0  0
 24 25  2  0  0  0
 25 26  1  0  0  0
 25 60  1  0  0  0
 26 54  1  0  0  0
 26 55  1  0  0  0
 27 28  1  0  0  0
 27 56  1  0  0  0
 28 29  2  0  0  0
 28 30  1  0  0  0
 30 34  1  0  0  0
 30 31  2  0  0  0
 31 32  1  0  0  0
 31 57  1  0  0  0
 32 33  2  0  0  0
 32 58  1  0  0  0
 33 34  1  0  0  0
 33 59  1  0  0  0
M  CHG  1  25   1
M  END
> <i_i_glide_confnum>
222

> <i_i_glide_lignum>
3701

> <i_i_glide_posenum>
41

> <i_i_glide_rotatable_bonds>
10

> <i_m_Source_File_Index>
5882

> <b_m_subgroup_collapsed>
0

> <r_i_docking_score>
-6.02184

> <r_i_glide_ecoul>
-6.87306

> <r_i_glide_eff_state_penalty>
0

> <r_i_glide_einternal>
12.623

> <r_i_glide_emodel>
-67.471

> <r_i_glide_energy>
-52.5769

> <r_i_glide_erotb>
0.802959

> <r_i_glide_esite>
-0.0149157

> <r_i_glide_evdw>
-45.7039

> <r_i_glide_gscore>
-6.02184

> <r_i_glide_hbond>
-0.32

> <r_i_glide_ligand_efficiency>
-0.188183

> <r_i_glide_ligand_efficiency_ln>
-1.34845

> <r_i_glide_ligand_efficiency_sa>
-0.597442

> <r_i_glide_lipo>
-2.30554

> <r_i_glide_metal>
0

> <r_i_glide_rewards>
-0.868189

> <s_i_glide_gridfile>
wee1_glide-grid

> <s_m_Source_File>
wee1_decoys_glide_SP.sdf

> <s_m_Source_Path>
/Users/zhangxujun/Desktop

> <s_m_entry_id>
6157

> <s_m_entry_name>
wee1_decoys_glide_SP.5882

> <s_m_subgroup_title>
wee1_decoys_glide_SP

> <s_m_subgroupid>
wee1_decoys_glide_SP


$$$$
