ZINC39592692_3023
                    3D
 Schrodinger Suite 2024-2.
 50 53  0  0  1  0            999 V2000
    3.7957   51.9708   20.0828 C   0  0  0  0  0  0
    2.4192   51.5726   20.5852 C   0  0  0  0  0  0
    2.2933   51.0030   21.8568 C   0  0  0  0  0  0
    1.0347   50.6680   22.3560 C   0  0  0  0  0  0
   -0.1045   50.8610   21.5689 C   0  0  0  0  0  0
    0.0199   51.4005   20.2901 C   0  0  0  0  0  0
    1.2742   51.7586   19.7955 C   0  0  0  0  0  0
    1.3753   52.5011   18.0424 Br  0  0  0  0  0  0
    0.9263   50.1388   23.6437 N   0  0  0  0  0  0
    0.2998   50.7766   24.6528 C   0  0  0  0  0  0
   -0.1481   51.9236   24.5547 O   0  0  0  0  0  0
    0.1461   49.9815   25.9535 C   0  0  0  0  0  0
   -0.6226   50.9050   27.3226 S   0  0  0  0  0  0
    0.7073   52.0123   27.9094 C   0  0  2  0  0  0
    0.9172   52.6234   27.0370 H   0  0  0  0  0  0
    1.9041   51.2963   28.2228 N   0  0  0  0  0  0
    2.5154   51.8549   29.1750 N   0  0  0  0  0  0
    1.7860   53.0267   29.5983 C   0  0  2  0  0  0
    1.7530   53.0013   30.6898 H   0  0  0  0  0  0
    0.4413   52.8640   29.0663 N   0  0  0  0  0  0
   -0.4980   52.3508   30.0333 N   0  0  0  0  0  0
    2.5062   54.3444   29.1624 C   0  0  2  0  0  0
    1.9728   55.2023   29.5725 H   0  0  0  0  0  0
    2.6793   54.4886   27.6821 C   0  0  0  0  0  0
    4.0003   54.4966   27.5058 C   0  0  0  0  0  0
    4.6808   54.4503   28.6752 N   0  0  0  0  0  0
    3.8637   54.3795   29.6494 N   0  0  0  0  0  0
    4.7115   54.4886   26.2049 C   0  0  0  0  0  0
    4.0364   54.1043   25.0359 C   0  0  0  0  0  0
    4.6941   54.0977   23.8085 C   0  0  0  0  0  0
    6.0248   54.4889   23.7400 C   0  0  0  0  0  0
    6.7036   54.8802   24.8892 C   0  0  0  0  0  0
    6.0531   54.8750   26.1175 C   0  0  0  0  0  0
    6.6624   54.4999   22.5484 F   0  0  0  0  0  0
    3.9328   53.0495   20.1653 H   0  0  0  0  0  0
    4.5938   51.4587   20.6196 H   0  0  0  0  0  0
    3.9038   51.7016   19.0324 H   0  0  0  0  0  0
    3.1615   50.8467   22.4755 H   0  0  0  0  0  0
   -1.0818   50.5980   21.9461 H   0  0  0  0  0  0
   -0.8584   51.5450   19.6795 H   0  0  0  0  0  0
    1.4318   49.2879   23.8441 H   0  0  0  0  0  0
   -0.4990   49.1244   25.7539 H   0  0  0  0  0  0
    1.1042   49.5775   26.2804 H   0  0  0  0  0  0
   -1.3960   52.3168   29.5733 H   0  0  0  0  0  0
   -0.2417   51.3930   30.2369 H   0  0  0  0  0  0
    1.8802   54.5024   26.9578 H   0  0  0  0  0  0
    3.0032   53.7915   25.0644 H   0  0  0  0  0  0
    4.1698   53.8013   22.9119 H   0  0  0  0  0  0
    7.7357   55.1791   24.8259 H   0  0  0  0  0  0
    6.5941   55.1778   27.0027 H   0  0  0  0  0  0
  1  2  1  0  0  0
  1 35  1  0  0  0
  1 36  1  0  0  0
  1 37  1  0  0  0
  2  7  2  0  0  0
  2  3  1  0  0  0
  3  4  2  0  0  0
  3 38  1  0  0  0
  4  5  1  0  0  0
  4  9  1  0  0  0
  5  6  2  0  0  0
  5 39  1  0  0  0
  6  7  1  0  0  0
  6 40  1  0  0  0
  7  8  1  0  0  0
  9 10  1  0  0  0
  9 41  1  0  0  0
 10 11  2  0  0  0
 10 12  1  0  0  0
 12 13  1  0  0  0
 12 42  1  0  0  0
 12 43  1  0  0  0
 13 14  1  0  0  0
 14 15  1  0  0  0
 14 20  1  0  0  0
 14 16  1  0  0  0
 16 17  2  0  0  0
 17 18  1  0  0  0
 18 19  1  0  0  0
 18 20  1  0  0  0
 18 22  1  0  0  0
 20 21  1  0  0  0
 21 44  1  0  0  0
 21 45  1  0  0  0
 22 23  1  0  0  0
 22 27  1  0  0  0
 22 24  1  0  0  0
 24 25  2  0  0  0
 24 46  1  0  0  0
 25 26  1  0  0  0
 25 28  1  0  0  0
 26 27  2  0  0  0
 28 33  2  0  0  0
 28 29  1  0  0  0
 29 30  2  0  0  0
 29 47  1  0  0  0
 30 31  1  0  0  0
 30 48  1  0  0  0
 31 32  2  0  0  0
 31 34  1  0  0  0
 32 33  1  0  0  0
 32 49  1  0  0  0
 33 50  1  0  0  0
M  END
> <i_i_glide_confnum>
212

> <i_i_glide_lignum>
3024

> <i_i_glide_posenum>
138

> <i_i_glide_rotatable_bonds>
7

> <i_m_Source_File_Index>
4289

> <b_m_subgroup_collapsed>
0

> <r_i_docking_score>
-4.01374

> <r_i_glide_ecoul>
-1.01363

> <r_i_glide_eff_state_penalty>
0

> <r_i_glide_einternal>
4.75061

> <r_i_glide_emodel>
-52.8114

> <r_i_glide_energy>
-46.0061

> <r_i_glide_erotb>
0.562596

> <r_i_glide_esite>
-0.0569944

> <r_i_glide_evdw>
-44.9924

> <r_i_glide_gscore>
-4.01374

> <r_i_glide_hbond>
0

> <r_i_glide_ligand_efficiency>
-0.129475

> <r_i_glide_ligand_efficiency_ln>
-0.905221

> <r_i_glide_ligand_efficiency_sa>
-0.406732

> <r_i_glide_lipo>
-2.44482

> <r_i_glide_metal>
0

> <r_i_glide_rewards>
0.32715

> <s_i_glide_gridfile>
wee1_glide-grid

> <s_m_Source_File>
wee1_decoys_glide_SP.sdf

> <s_m_Source_Path>
/Users/zhangxujun/Desktop

> <s_m_entry_id>
4564

> <s_m_entry_name>
wee1_decoys_glide_SP.4289

> <s_m_subgroup_title>
wee1_decoys_glide_SP

> <s_m_subgroupid>
wee1_decoys_glide_SP


$$$$
