ZINC20371071_2100
                    3D
 Schrodinger Suite 2024-2.
 59 63  0  0  1  0            999 V2000
    1.4717   52.4733   31.6035 C   0  0  0  0  0  0
    1.6939   52.7356   30.1242 C   0  0  0  0  0  0
    0.6392   52.5188   29.2330 C   0  0  0  0  0  0
    0.7841   52.7456   27.8644 C   0  0  0  0  0  0
    2.0220   53.2007   27.3909 C   0  0  0  0  0  0
    3.0950   53.4151   28.2932 C   0  0  0  0  0  0
    2.9438   53.1729   29.6670 C   0  0  0  0  0  0
    4.4939   53.9807   27.3832 S   0  0  0  0  0  0
    3.5387   53.8409   25.9103 C   0  0  0  0  0  0
    2.3014   53.4547   26.0870 N   0  0  0  0  0  0
    4.1262   54.0968   24.5462 C   0  0  0  0  0  0
    5.4919   54.3539   24.3605 C   0  0  0  0  0  0
    6.0152   54.5374   23.0809 C   0  0  0  0  0  0
    5.1662   54.4965   21.9639 C   0  0  0  0  0  0
    3.8133   54.2100   22.1411 C   0  0  0  0  0  0
    3.2980   54.0237   23.4185 C   0  0  0  0  0  0
    5.5629   54.7436   20.6371 N   0  0  0  0  0  0
    6.6994   55.2967   20.1616 C   0  0  0  0  0  0
    7.6400   55.6723   20.8628 O   0  0  0  0  0  0
    6.7381   55.4415   18.6172 C   0  0  1  0  0  0
    5.7540   55.7922   18.2994 H   0  0  0  0  0  0
    7.8114   56.4021   18.1122 C   0  0  0  0  0  0
    8.9797   55.5545   17.6057 C   0  0  0  0  0  0
   10.0660   56.0355   17.2865 O   0  0  0  0  0  0
    8.5633   54.2530   17.5537 N   0  0  0  0  0  0
    7.1441   54.1456   17.9315 C   0  0  0  0  0  0
    9.2920   53.1718   16.9737 C   0  0  0  0  0  0
   10.6957   53.1664   16.8828 C   0  0  0  0  0  0
   11.3726   52.0873   16.3175 C   0  0  0  0  0  0
   10.6565   50.9872   15.8304 C   0  0  0  0  0  0
    9.2674   50.9845   15.9114 C   0  0  0  0  0  0
    8.5921   52.0561   16.4890 C   0  0  0  0  0  0
   11.2492   49.8739   15.2087 N   0  0  0  0  0  0
   12.4978   49.3921   15.3669 C   0  0  0  0  0  0
   13.3349   49.8382   16.1503 O   0  0  0  0  0  0
   12.8520   48.1809   14.5122 C   0  0  0  0  0  0
    0.7250   51.6965   31.7614 H   0  0  0  0  0  0
    2.3876   52.1317   32.0856 H   0  0  0  0  0  0
    1.1045   53.3676   32.1054 H   0  0  0  0  0  0
   -0.3120   52.1650   29.6078 H   0  0  0  0  0  0
   -0.0373   52.5670   27.1871 H   0  0  0  0  0  0
    3.7718   53.3199   30.3442 H   0  0  0  0  0  0
    6.1653   54.3947   25.2032 H   0  0  0  0  0  0
    7.0732   54.7276   22.9849 H   0  0  0  0  0  0
    3.1413   54.1585   21.2953 H   0  0  0  0  0  0
    2.2432   53.8154   23.5221 H   0  0  0  0  0  0
    4.8596   54.5202   19.9489 H   0  0  0  0  0  0
    8.2171   57.0556   18.8857 H   0  0  0  0  0  0
    7.4324   57.0650   17.3338 H   0  0  0  0  0  0
    6.5648   54.0384   17.0123 H   0  0  0  0  0  0
    6.8972   53.2434   18.4952 H   0  0  0  0  0  0
   11.2893   53.9795   17.2688 H   0  0  0  0  0  0
   12.4492   52.1266   16.2568 H   0  0  0  0  0  0
    8.7048   50.1445   15.5341 H   0  0  0  0  0  0
    7.5151   52.0002   16.5401 H   0  0  0  0  0  0
   10.6420   49.3471   14.6007 H   0  0  0  0  0  0
   11.9659   47.7126   14.0832 H   0  0  0  0  0  0
   13.3738   47.4335   15.1094 H   0  0  0  0  0  0
   13.5053   48.4825   13.6922 H   0  0  0  0  0  0
  1  2  1  0  0  0
  1 37  1  0  0  0
  1 38  1  0  0  0
  1 39  1  0  0  0
  2  7  2  0  0  0
  2  3  1  0  0  0
  3  4  2  0  0  0
  3 40  1  0  0  0
  4  5  1  0  0  0
  4 41  1  0  0  0
  5 10  1  0  0  0
  5  6  2  0  0  0
  6  7  1  0  0  0
  6  8  1  0  0  0
  7 42  1  0  0  0
  8  9  1  0  0  0
  9 10  2  0  0  0
  9 11  1  0  0  0
 11 16  2  0  0  0
 11 12  1  0  0  0
 12 13  2  0  0  0
 12 43  1  0  0  0
 13 14  1  0  0  0
 13 44  1  0  0  0
 14 15  2  0  0  0
 14 17  1  0  0  0
 15 16  1  0  0  0
 15 45  1  0  0  0
 16 46  1  0  0  0
 17 18  1  0  0  0
 17 47  1  0  0  0
 18 19  2  0  0  0
 18 20  1  0  0  0
 20 21  1  0  0  0
 20 26  1  0  0  0
 20 22  1  0  0  0
 22 23  1  0  0  0
 22 48  1  0  0  0
 22 49  1  0  0  0
 23 24  2  0  0  0
 23 25  1  0  0  0
 25 26  1  0  0  0
 25 27  1  0  0  0
 26 50  1  0  0  0
 26 51  1  0  0  0
 27 32  2  0  0  0
 27 28  1  0  0  0
 28 29  2  0  0  0
 28 52  1  0  0  0
 29 30  1  0  0  0
 29 53  1  0  0  0
 30 31  2  0  0  0
 30 33  1  0  0  0
 31 32  1  0  0  0
 31 54  1  0  0  0
 32 55  1  0  0  0
 33 34  1  0  0  0
 33 56  1  0  0  0
 34 35  2  0  0  0
 34 36  1  0  0  0
 36 57  1  0  0  0
 36 58  1  0  0  0
 36 59  1  0  0  0
M  END
> <i_i_glide_confnum>
89

> <i_i_glide_lignum>
2101

> <i_i_glide_posenum>
379

> <i_i_glide_rotatable_bonds>
7

> <i_m_Source_File_Index>
1081

> <b_m_subgroup_collapsed>
0

> <r_i_docking_score>
-5.79254

> <r_i_glide_ecoul>
-1.519

> <r_i_glide_eff_state_penalty>
0

> <r_i_glide_einternal>
7.71558

> <r_i_glide_emodel>
-68.0329

> <r_i_glide_energy>
-52.4141

> <r_i_glide_erotb>
0.518948

> <r_i_glide_esite>
-0.0127065

> <r_i_glide_evdw>
-50.8951

> <r_i_glide_gscore>
-5.79254

> <r_i_glide_hbond>
0

> <r_i_glide_ligand_efficiency>
-0.165501

> <r_i_glide_ligand_efficiency_ln>
-1.27159

> <r_i_glide_ligand_efficiency_sa>
-0.541365

> <r_i_glide_lipo>
-3.01432

> <r_i_glide_metal>
0

> <r_i_glide_rewards>
-0.511862

> <s_i_glide_gridfile>
wee1_glide-grid

> <s_m_Source_File>
wee1_decoys_glide_SP.sdf

> <s_m_Source_Path>
/Users/zhangxujun/Desktop

> <s_m_entry_id>
1356

> <s_m_entry_name>
wee1_decoys_glide_SP.1081

> <s_m_subgroup_title>
wee1_decoys_glide_SP

> <s_m_subgroupid>
wee1_decoys_glide_SP


$$$$
