ZINC09357947_972
                    3D
 Schrodinger Suite 2024-2.
 53 58  0  0  1  0            999 V2000
    7.5804   59.3648   14.7560 C   0  0  0  0  0  0
    7.3659   58.8957   16.1995 C   0  0  1  0  0  0
    7.6556   59.6968   16.8831 H   0  0  0  0  0  0
    5.9323   58.4668   16.5463 C   0  0  0  0  0  0
    6.1834   57.2990   17.4417 C   0  0  0  0  0  0
    5.3298   56.5138   18.2132 C   0  0  0  0  0  0
    5.8419   55.4086   18.9111 C   0  0  0  0  0  0
    7.1925   55.0540   18.7479 C   0  0  0  0  0  0
    8.0424   55.8292   17.9535 C   0  0  0  0  0  0
    7.5157   56.9523   17.3235 C   0  0  0  0  0  0
    8.2234   57.7915   16.5011 O   0  0  0  0  0  0
    4.9112   54.5956   19.7437 C   0  0  0  0  0  0
    3.9041   54.1397   19.2104 O   0  0  0  0  0  0
    5.0778   54.4979   21.2133 C   0  0  0  0  0  0
    6.1250   54.8063   21.9931 C   0  0  0  0  0  0
    5.8938   54.4966   23.3915 C   0  0  0  0  0  0
    6.7046   54.5841   24.3237 O   0  0  0  0  0  0
    4.5803   54.1233   23.4857 N   0  0  0  0  0  0
    3.9483   54.0967   22.1473 C   0  0  2  0  0  0
    3.2100   54.9004   22.1485 H   0  0  0  0  0  0
    3.1415   52.8396   21.7517 C   0  0  0  0  0  0
    1.7406   52.8967   21.7160 C   0  0  0  0  0  0
    0.9801   51.8064   21.2973 C   0  0  0  0  0  0
    1.6159   50.6432   20.8744 C   0  0  0  0  0  0
    3.0067   50.5814   20.8752 C   0  0  0  0  0  0
    3.7631   51.6683   21.3105 C   0  0  0  0  0  0
    5.1044   51.5836   21.2909 F   0  0  0  0  0  0
    3.8851   54.0098   24.7133 C   0  0  0  0  0  0
    4.3764   54.3933   25.8687 N   0  0  0  0  0  0
    3.5423   54.1425   26.9049 C   0  0  0  0  0  0
    3.8291   54.4346   28.2448 C   0  0  0  0  0  0
    2.8654   54.1283   29.2060 C   0  0  0  0  0  0
    1.6495   53.5396   28.8593 C   0  0  0  0  0  0
    1.3486   53.2351   27.5316 C   0  0  0  0  0  0
    2.3050   53.5495   26.5549 C   0  0  0  0  0  0
    2.2624   53.3355   24.8126 S   0  0  0  0  0  0
    0.7473   53.2621   29.8267 F   0  0  0  0  0  0
    7.2747   55.2969   21.6812 O   0  5  0  0  0  0
    6.9345   60.2114   14.5227 H   0  0  0  0  0  0
    7.3611   58.5668   14.0467 H   0  0  0  0  0  0
    8.6121   59.6784   14.5975 H   0  0  0  0  0  0
    5.3625   59.2762   17.0032 H   0  0  0  0  0  0
    5.4002   58.1291   15.6560 H   0  0  0  0  0  0
    4.2804   56.7660   18.2821 H   0  0  0  0  0  0
    7.5950   54.1840   19.2467 H   0  0  0  0  0  0
    9.0815   55.5567   17.8414 H   0  0  0  0  0  0
    1.2320   53.7974   22.0246 H   0  0  0  0  0  0
   -0.0977   51.8695   21.2870 H   0  0  0  0  0  0
    1.0363   49.7986   20.5325 H   0  0  0  0  0  0
    3.5040   49.6967   20.5184 H   0  0  0  0  0  0
    4.7708   54.8866   28.5210 H   0  0  0  0  0  0
    3.0636   54.3500   30.2404 H   0  0  0  0  0  0
    0.4054   52.7766   27.2724 H   0  0  0  0  0  0
  1  2  1  0  0  0
  1 39  1  0  0  0
  1 40  1  0  0  0
  1 41  1  0  0  0
  2  3  1  0  0  0
  2 11  1  0  0  0
  2  4  1  0  0  0
  4  5  1  0  0  0
  4 42  1  0  0  0
  4 43  1  0  0  0
  5 10  2  0  0  0
  5  6  1  0  0  0
  6  7  2  0  0  0
  6 44  1  0  0  0
  7  8  1  0  0  0
  7 12  1  0  0  0
  8  9  2  0  0  0
  8 45  1  0  0  0
  9 10  1  0  0  0
  9 46  1  0  0  0
 10 11  1  0  0  0
 12 13  2  0  0  0
 12 14  1  0  0  0
 14 19  1  0  0  0
 14 15  2  0  0  0
 15 16  1  0  0  0
 15 38  1  0  0  0
 16 17  2  0  0  0
 16 18  1  0  0  0
 18 19  1  0  0  0
 18 28  1  0  0  0
 19 20  1  0  0  0
 19 21  1  0  0  0
 21 26  2  0  0  0
 21 22  1  0  0  0
 22 23  2  0  0  0
 22 47  1  0  0  0
 23 24  1  0  0  0
 23 48  1  0  0  0
 24 25  2  0  0  0
 24 49  1  0  0  0
 25 26  1  0  0  0
 25 50  1  0  0  0
 26 27  1  0  0  0
 28 36  1  0  0  0
 28 29  2  0  0  0
 29 30  1  0  0  0
 30 35  2  0  0  0
 30 31  1  0  0  0
 31 32  2  0  0  0
 31 51  1  0  0  0
 32 33  1  0  0  0
 32 52  1  0  0  0
 33 34  2  0  0  0
 33 37  1  0  0  0
 34 35  1  0  0  0
 34 53  1  0  0  0
 35 36  1  0  0  0
M  CHG  1  38  -1
M  END
> <i_i_glide_confnum>
65

> <i_i_glide_lignum>
973

> <i_i_glide_posenum>
393

> <i_i_glide_rotatable_bonds>
4

> <i_m_Source_File_Index>
2334

> <b_m_subgroup_collapsed>
0

> <r_i_docking_score>
-5.00773

> <r_i_glide_ecoul>
1.47623

> <r_i_glide_eff_state_penalty>
0

> <r_i_glide_einternal>
13.1617

> <r_i_glide_emodel>
-49.5163

> <r_i_glide_energy>
-43.3829

> <r_i_glide_erotb>
0.322517

> <r_i_glide_esite>
-0.0068037

> <r_i_glide_evdw>
-44.8591

> <r_i_glide_gscore>
-5.00773

> <r_i_glide_hbond>
0

> <r_i_glide_ligand_efficiency>
-0.139104

> <r_i_glide_ligand_efficiency_ln>
-1.09255

> <r_i_glide_ligand_efficiency_sa>
-0.45931

> <r_i_glide_lipo>
-2.40071

> <r_i_glide_metal>
0

> <r_i_glide_rewards>
-0.901211

> <s_i_glide_gridfile>
wee1_glide-grid

> <s_m_Source_File>
wee1_decoys_glide_SP.sdf

> <s_m_Source_Path>
/Users/zhangxujun/Desktop

> <s_m_entry_id>
2609

> <s_m_entry_name>
wee1_decoys_glide_SP.2334

> <s_m_subgroup_title>
wee1_decoys_glide_SP

> <s_m_subgroupid>
wee1_decoys_glide_SP


$$$$
