ZINC09884413_1168
                    3D
 Schrodinger Suite 2024-2.
 65 69  0  0  1  0            999 V2000
   -3.4980   50.3141   25.2848 C   0  0  0  0  0  0
   -2.5928   50.1999   24.0637 C   0  0  0  0  0  0
   -3.1771   50.2087   22.7930 C   0  0  0  0  0  0
   -2.3928   50.0696   21.6487 C   0  0  0  0  0  0
   -1.0121   49.8976   21.7649 C   0  0  0  0  0  0
   -0.4175   49.8731   23.0270 C   0  0  0  0  0  0
   -1.1954   50.0435   24.1743 C   0  0  0  0  0  0
   -0.5205   50.0556   25.4007 N   0  0  0  0  0  0
   -0.4410   51.1246   26.2160 C   0  0  0  0  0  0
   -0.9445   52.2241   25.9683 O   0  0  0  0  0  0
    0.3518   50.8975   27.5053 C   0  0  0  0  0  0
   -0.7381   52.0913   29.5210 C   0  0  0  0  0  0
   -0.3598   53.2634   30.4163 C   0  0  0  0  0  0
    1.1520   53.4546   30.2710 C   0  0  0  0  0  0
    1.6137   52.5324   29.1320 C   0  0  2  0  0  0
    1.9530   51.5699   29.5205 H   0  0  0  0  0  0
    2.7129   53.1040   28.2473 C   0  0  0  0  0  0
    2.5576   53.3487   26.9720 N   0  0  0  0  0  0
    3.7007   53.7998   26.3914 C   0  0  0  0  0  0
    3.8428   54.0966   25.0286 C   0  0  0  0  0  0
    5.0976   54.4969   24.5668 C   0  0  0  0  0  0
    6.1773   54.6472   25.4366 C   0  0  0  0  0  0
    6.0540   54.3836   26.8027 C   0  0  0  0  0  0
    4.8062   53.9445   27.2676 C   0  0  0  0  0  0
    4.3046   53.4779   28.8824 S   0  0  0  0  0  0
    0.0149   49.7975   20.3067 S   0  0  0  0  0  0
   -0.8727   49.4274   19.1969 O   0  0  0  0  0  0
    1.1706   48.9679   20.6701 O   0  0  0  0  0  0
    0.5384   51.4889   20.0884 N   0  0  0  0  0  0
    0.1625   52.1357   18.8075 C   0  0  0  0  0  0
    1.0575   51.6213   17.6601 C   0  0  0  0  0  0
    2.5575   51.8065   17.9992 C   0  0  0  0  0  0
    2.9369   51.3135   19.4193 C   0  0  0  0  0  0
    1.9320   51.8091   20.4847 C   0  0  0  0  0  0
   -3.1423   49.6747   26.0941 H   0  0  0  0  0  0
   -3.5284   51.3417   25.6467 H   0  0  0  0  0  0
   -4.5147   49.9885   25.0624 H   0  0  0  0  0  0
   -4.2457   50.3271   22.6879 H   0  0  0  0  0  0
   -2.8613   50.0954   20.6753 H   0  0  0  0  0  0
    0.6547   49.7567   23.1120 H   0  0  0  0  0  0
   -0.0139   49.2169   25.6473 H   0  0  0  0  0  0
   -0.0956   50.0968   28.0800 H   0  0  0  0  0  0
    1.3974   50.6831   27.2841 H   0  0  0  0  0  0
   -1.7325   52.0967   29.0756 H   0  0  0  0  0  0
   -0.6142   51.1297   30.0229 H   0  0  0  0  0  0
   -0.8947   54.1537   30.0818 H   0  0  0  0  0  0
   -0.6314   53.0699   31.4558 H   0  0  0  0  0  0
    1.3252   54.5019   30.0133 H   0  0  0  0  0  0
    1.6878   53.2428   31.1966 H   0  0  0  0  0  0
    3.0120   53.9856   24.3478 H   0  0  0  0  0  0
    5.2387   54.6974   23.5143 H   0  0  0  0  0  0
    7.1253   54.9657   25.0298 H   0  0  0  0  0  0
    6.8927   54.4919   27.4768 H   0  0  0  0  0  0
    0.3728   53.2023   18.9088 H   0  0  0  0  0  0
   -0.9144   52.0624   18.6517 H   0  0  0  0  0  0
    0.8199   52.1488   16.7357 H   0  0  0  0  0  0
    0.8498   50.5682   17.4646 H   0  0  0  0  0  0
    3.1698   51.2982   17.2534 H   0  0  0  0  0  0
    2.8079   52.8653   17.9193 H   0  0  0  0  0  0
    2.9956   50.2246   19.4222 H   0  0  0  0  0  0
    3.9408   51.6570   19.6708 H   0  0  0  0  0  0
    2.0159   52.8966   20.5026 H   0  0  0  0  0  0
    2.1161   51.4859   21.5095 H   0  0  0  0  0  0
    0.3091   52.1591   28.3975 N   0  3  1  0  0  0
    0.0657   52.9280   27.7830 H   0  0  0  0  0  0
  1  2  1  0  0  0
  1 35  1  0  0  0
  1 36  1  0  0  0
  1 37  1  0  0  0
  2  7  2  0  0  0
  2  3  1  0  0  0
  3  4  2  0  0  0
  3 38  1  0  0  0
  4  5  1  0  0  0
  4 39  1  0  0  0
  5  6  2  0  0  0
  5 26  1  0  0  0
  6  7  1  0  0  0
  6 40  1  0  0  0
  7  8  1  0  0  0
  8  9  1  0  0  0
  8 41  1  0  0  0
  9 10  2  0  0  0
  9 11  1  0  0  0
 11 42  1  0  0  0
 11 43  1  0  0  0
 11 64  1  0  0  0
 12 13  1  0  0  0
 12 44  1  0  0  0
 12 45  1  0  0  0
 12 64  1  0  0  0
 13 14  1  0  0  0
 13 46  1  0  0  0
 13 47  1  0  0  0
 14 15  1  0  0  0
 14 48  1  0  0  0
 14 49  1  0  0  0
 15 16  1  0  0  0
 15 17  1  0  0  0
 15 64  1  0  0  0
 17 25  1  0  0  0
 17 18  2  0  0  0
 18 19  1  0  0  0
 19 24  2  0  0  0
 19 20  1  0  0  0
 20 21  2  0  0  0
 20 50  1  0  0  0
 21 22  1  0  0  0
 21 51  1  0  0  0
 22 23  2  0  0  0
 22 52  1  0  0  0
 23 24  1  0  0  0
 23 53  1  0  0  0
 24 25  1  0  0  0
 26 27  2  0  0  0
 26 28  2  0  0  0
 26 29  1  0  0  0
 29 34  1  0  0  0
 29 30  1  0  0  0
 30 31  1  0  0  0
 30 54  1  0  0  0
 30 55  1  0  0  0
 31 32  1  0  0  0
 31 56  1  0  0  0
 31 57  1  0  0  0
 32 33  1  0  0  0
 32 58  1  0  0  0
 32 59  1  0  0  0
 33 34  1  0  0  0
 33 60  1  0  0  0
 33 61  1  0  0  0
 34 62  1  0  0  0
 34 63  1  0  0  0
 64 65  1  0  0  0
M  CHG  1  64   1
M  END
> <i_i_glide_confnum>
249

> <i_i_glide_lignum>
1169

> <i_i_glide_posenum>
233

> <i_i_glide_rotatable_bonds>
7

> <i_m_Source_File_Index>
2222

> <b_m_subgroup_collapsed>
0

> <r_i_docking_score>
-4.07499

> <r_i_glide_ecoul>
-0.947786

> <r_i_glide_eff_state_penalty>
0

> <r_i_glide_einternal>
5.41578

> <r_i_glide_emodel>
-53.0563

> <r_i_glide_energy>
-42.1055

> <r_i_glide_erotb>
0.572358

> <r_i_glide_esite>
-0.0918866

> <r_i_glide_evdw>
-41.1577

> <r_i_glide_gscore>
-4.07499

> <r_i_glide_hbond>
0

> <r_i_glide_ligand_efficiency>
-0.119853

> <r_i_glide_ligand_efficiency_ln>
-0.900279

> <r_i_glide_ligand_efficiency_sa>
-0.388276

> <r_i_glide_lipo>
-2.35872

> <r_i_glide_metal>
0

> <r_i_glide_rewards>
0.00331767

> <s_i_glide_gridfile>
wee1_glide-grid

> <s_m_Source_File>
wee1_decoys_glide_SP.sdf

> <s_m_Source_Path>
/Users/zhangxujun/Desktop

> <s_m_entry_id>
2497

> <s_m_entry_name>
wee1_decoys_glide_SP.2222

> <s_m_subgroup_title>
wee1_decoys_glide_SP

> <s_m_subgroupid>
wee1_decoys_glide_SP


$$$$
