ZINC20150101_1779
                    3D
 Schrodinger Suite 2024-2.
 39 41  0  0  1  0            999 V2000
    5.4693   54.3532   27.5487 C   0  0  0  0  0  0
    4.5203   53.8412   26.7487 C   0  0  0  0  0  0
    3.1804   54.4966   26.4594 C   0  0  0  0  0  0
    2.0025   53.6976   26.9023 N   0  0  0  0  0  0
    1.4973   52.7762   25.9867 C   0  0  0  0  0  0
    1.9407   52.6396   24.8434 O   0  0  0  0  0  0
    0.3522   51.9694   26.4460 C   0  0  0  0  0  0
   -0.1360   52.2407   27.6783 C   0  0  0  0  0  0
    0.3766   53.1675   28.5075 N   0  0  0  0  0  0
    1.4435   53.9472   28.1655 C   0  0  0  0  0  0
    1.9049   55.0987   29.2865 S   0  0  0  0  0  0
   -1.1673   51.6944   28.2072 O   0  5  0  0  0  0
   -0.2617   50.9546   25.4613 C   0  0  2  0  0  0
    0.3374   50.8166   24.5597 H   0  0  0  0  0  0
   -1.6962   51.2797   24.9926 C   0  0  0  0  0  0
   -1.9895   52.5663   24.5248 C   0  0  0  0  0  0
   -3.2616   52.9123   24.0820 C   0  0  0  0  0  0
   -4.2719   51.9589   24.0831 C   0  0  0  0  0  0
   -3.9989   50.6659   24.5134 C   0  0  0  0  0  0
   -2.7256   50.3077   24.9683 C   0  0  0  0  0  0
   -2.4646   48.8804   25.4327 C   0  0  0  0  0  0
   -0.9876   48.5062   25.2762 C   0  0  0  0  0  0
   -0.1895   49.5422   26.0817 N   0  3  0  0  0  0
    5.3325   55.2961   28.0587 H   0  0  0  0  0  0
    6.4021   53.8315   27.7086 H   0  0  0  0  0  0
    4.6994   52.8966   26.2604 H   0  0  0  0  0  0
    3.1575   55.5009   26.8750 H   0  0  0  0  0  0
    3.1351   54.6492   25.3793 H   0  0  0  0  0  0
   -1.2077   53.3103   24.5101 H   0  0  0  0  0  0
   -3.4624   53.9175   23.7398 H   0  0  0  0  0  0
   -5.2644   52.2158   23.7435 H   0  0  0  0  0  0
   -4.7908   49.9321   24.5000 H   0  0  0  0  0  0
   -3.0836   48.1761   24.8771 H   0  0  0  0  0  0
   -2.7582   48.7842   26.4802 H   0  0  0  0  0  0
   -0.6334   48.5407   24.2442 H   0  0  0  0  0  0
   -0.7688   47.5225   25.6833 H   0  0  0  0  0  0
    0.7722   49.2498   26.1658 H   0  0  0  0  0  0
   -0.5789   49.5655   27.0225 H   0  0  0  0  0  0
   -0.0202   53.3450   29.4166 H   0  0  0  0  0  0
  1  2  2  0  0  0
  1 24  1  0  0  0
  1 25  1  0  0  0
  2  3  1  0  0  0
  2 26  1  0  0  0
  3 27  1  0  0  0
  3 28  1  0  0  0
  3  4  1  0  0  0
  4 10  1  0  0  0
  4  5  1  0  0  0
  5  6  2  0  0  0
  5  7  1  0  0  0
  7 13  1  0  0  0
  7  8  2  0  0  0
  8 12  1  0  0  0
  8  9  1  0  0  0
  9 10  1  0  0  0
  9 39  1  0  0  0
 10 11  2  0  0  0
 13 14  1  0  0  0
 13 23  1  0  0  0
 13 15  1  0  0  0
 15 20  2  0  0  0
 15 16  1  0  0  0
 16 17  2  0  0  0
 16 29  1  0  0  0
 17 18  1  0  0  0
 17 30  1  0  0  0
 18 19  2  0  0  0
 18 31  1  0  0  0
 19 20  1  0  0  0
 19 32  1  0  0  0
 20 21  1  0  0  0
 21 22  1  0  0  0
 21 33  1  0  0  0
 21 34  1  0  0  0
 22 23  1  0  0  0
 22 35  1  0  0  0
 22 36  1  0  0  0
 23 37  1  0  0  0
 23 38  1  0  0  0
M  CHG  2  12  -1  23   1
M  END
> <i_i_glide_confnum>
7

> <i_i_glide_lignum>
1780

> <i_i_glide_posenum>
379

> <i_i_glide_rotatable_bonds>
3

> <i_m_Source_File_Index>
1552

> <b_m_subgroup_collapsed>
0

> <r_i_docking_score>
-5.07003

> <r_i_glide_ecoul>
-3.08854

> <r_i_glide_eff_state_penalty>
0

> <r_i_glide_einternal>
4.08452

> <r_i_glide_emodel>
-43.1428

> <r_i_glide_energy>
-33.1439

> <r_i_glide_erotb>
0.561023

> <r_i_glide_esite>
-0.0957424

> <r_i_glide_evdw>
-30.0554

> <r_i_glide_gscore>
-5.07003

> <r_i_glide_hbond>
-0.163488

> <r_i_glide_ligand_efficiency>
-0.230456

> <r_i_glide_ligand_efficiency_ln>
-1.2393

> <r_i_glide_ligand_efficiency_sa>
-0.645746

> <r_i_glide_lipo>
-1.19292

> <r_i_glide_metal>
0

> <r_i_glide_rewards>
-2.21285

> <s_i_glide_gridfile>
wee1_glide-grid

> <s_m_Source_File>
wee1_decoys_glide_SP.sdf

> <s_m_Source_Path>
/Users/zhangxujun/Desktop

> <s_m_entry_id>
1827

> <s_m_entry_name>
wee1_decoys_glide_SP.1552

> <s_m_subgroup_title>
wee1_decoys_glide_SP

> <s_m_subgroupid>
wee1_decoys_glide_SP


$$$$
