ZINC35729065_4499
                    3D
 Schrodinger Suite 2024-2.
 52 54  0  0  1  0            999 V2000
    3.7826   56.2896   16.9178 C   0  0  0  0  0  0
    3.4402   55.1292   17.8655 C   0  0  0  0  0  0
    4.2933   53.8416   17.6855 C   0  0  1  0  0  0
    3.9509   53.1266   18.4366 H   0  0  0  0  0  0
    3.9462   53.1719   16.3371 C   0  0  0  0  0  0
    5.8398   54.0612   17.8808 C   0  0  1  0  0  0
    6.1235   54.8960   17.2372 H   0  0  0  0  0  0
    6.2423   54.4823   19.3252 C   0  0  0  0  0  0
    7.3878   54.9034   19.4949 O   0  0  0  0  0  0
    5.3386   54.3334   20.3216 N   0  0  0  0  0  0
    5.5798   54.4984   21.6840 C   0  0  0  0  0  0
    6.6925   54.8982   22.2634 N   0  0  0  0  0  0
    6.6036   54.8945   23.6473 N   0  0  0  0  0  0
    5.4326   54.4966   24.0927 C   0  0  0  0  0  0
    4.3165   54.0918   22.8064 S   0  0  0  0  0  0
    5.0766   54.3813   25.5453 C   0  0  0  0  0  0
    6.0873   54.4363   26.5156 C   0  0  0  0  0  0
    5.7799   54.3252   27.8688 C   0  0  0  0  0  0
    4.4539   54.1608   28.2632 C   0  0  0  0  0  0
    3.4391   54.0991   27.3120 C   0  0  0  0  0  0
    3.7490   54.2111   25.9579 C   0  0  0  0  0  0
    4.1510   54.0666   29.5761 F   0  0  0  0  0  0
    6.6289   52.8967   17.4510 N   0  0  0  0  0  0
    7.8530   52.9307   16.8967 C   0  0  0  0  0  0
    8.4906   53.9655   16.7061 O   0  0  0  0  0  0
    8.2741   51.6969   16.5626 N   0  0  0  0  0  0
    9.5343   51.3315   16.0659 C   0  0  0  0  0  0
    9.6049   50.2671   15.1592 C   0  0  0  0  0  0
   10.8357   49.8482   14.6537 C   0  0  0  0  0  0
   12.0113   50.4709   15.0761 C   0  0  0  0  0  0
   11.9533   51.5180   15.9994 C   0  0  0  0  0  0
   10.7210   51.9537   16.4819 C   0  0  0  0  0  0
   13.5539   52.3447   16.6121 Br  0  0  0  0  0  0
    3.0237   57.0690   16.9777 H   0  0  0  0  0  0
    4.7341   56.7514   17.1824 H   0  0  0  0  0  0
    3.8423   55.9727   15.8782 H   0  0  0  0  0  0
    2.3848   54.8765   17.7443 H   0  0  0  0  0  0
    3.5183   55.5065   18.8832 H   0  0  0  0  0  0
    4.3398   53.7337   15.4929 H   0  0  0  0  0  0
    4.3498   52.1618   16.2780 H   0  0  0  0  0  0
    2.8667   53.0818   16.2064 H   0  0  0  0  0  0
    4.4236   53.9897   20.0716 H   0  0  0  0  0  0
    7.1206   54.5531   26.2239 H   0  0  0  0  0  0
    6.5626   54.3739   28.6120 H   0  0  0  0  0  0
    2.4157   53.9696   27.6263 H   0  0  0  0  0  0
    2.9469   54.1649   25.2363 H   0  0  0  0  0  0
    6.2194   51.9958   17.6767 H   0  0  0  0  0  0
    7.5959   50.9540   16.6175 H   0  0  0  0  0  0
    8.7052   49.7666   14.8287 H   0  0  0  0  0  0
   10.8848   49.0405   13.9367 H   0  0  0  0  0  0
   12.9637   50.1370   14.6903 H   0  0  0  0  0  0
   10.6967   52.7528   17.2093 H   0  0  0  0  0  0
  1  2  1  0  0  0
  1 34  1  0  0  0
  1 35  1  0  0  0
  1 36  1  0  0  0
  2  3  1  0  0  0
  2 37  1  0  0  0
  2 38  1  0  0  0
  3  4  1  0  0  0
  3  5  1  0  0  0
  3  6  1  0  0  0
  5 39  1  0  0  0
  5 40  1  0  0  0
  5 41  1  0  0  0
  6  7  1  0  0  0
  6  8  1  0  0  0
  6 23  1  0  0  0
  8  9  2  0  0  0
  8 10  1  0  0  0
 10 11  1  0  0  0
 10 42  1  0  0  0
 11 15  1  0  0  0
 11 12  2  0  0  0
 12 13  1  0  0  0
 13 14  2  0  0  0
 14 15  1  0  0  0
 14 16  1  0  0  0
 16 21  2  0  0  0
 16 17  1  0  0  0
 17 18  2  0  0  0
 17 43  1  0  0  0
 18 19  1  0  0  0
 18 44  1  0  0  0
 19 20  2  0  0  0
 19 22  1  0  0  0
 20 21  1  0  0  0
 20 45  1  0  0  0
 21 46  1  0  0  0
 23 24  1  0  0  0
 23 47  1  0  0  0
 24 25  2  0  0  0
 24 26  1  0  0  0
 26 27  1  0  0  0
 26 48  1  0  0  0
 27 32  2  0  0  0
 27 28  1  0  0  0
 28 29  2  0  0  0
 28 49  1  0  0  0
 29 30  1  0  0  0
 29 50  1  0  0  0
 30 31  2  0  0  0
 30 51  1  0  0  0
 31 32  1  0  0  0
 31 33  1  0  0  0
 32 52  1  0  0  0
M  END
> <i_i_glide_confnum>
157

> <i_i_glide_lignum>
4500

> <i_i_glide_posenum>
161

> <i_i_glide_rotatable_bonds>
10

> <i_m_Source_File_Index>
5704

> <b_m_subgroup_collapsed>
0

> <r_i_docking_score>
-5.26011

> <r_i_glide_ecoul>
-3.79055

> <r_i_glide_eff_state_penalty>
0

> <r_i_glide_einternal>
12.4469

> <r_i_glide_emodel>
-57.922

> <r_i_glide_energy>
-47.8043

> <r_i_glide_erotb>
0.638286

> <r_i_glide_esite>
-0.0702021

> <r_i_glide_evdw>
-44.0137

> <r_i_glide_gscore>
-5.26011

> <r_i_glide_hbond>
-0.16

> <r_i_glide_ligand_efficiency>
-0.169681

> <r_i_glide_ligand_efficiency_ln>
-1.18632

> <r_i_glide_ligand_efficiency_sa>
-0.533033

> <r_i_glide_lipo>
-2.70338

> <r_i_glide_metal>
0

> <r_i_glide_rewards>
-0.195546

> <s_i_glide_gridfile>
wee1_glide-grid

> <s_m_Source_File>
wee1_decoys_glide_SP.sdf

> <s_m_Source_Path>
/Users/zhangxujun/Desktop

> <s_m_entry_id>
5979

> <s_m_entry_name>
wee1_decoys_glide_SP.5704

> <s_m_subgroup_title>
wee1_decoys_glide_SP

> <s_m_subgroupid>
wee1_decoys_glide_SP


$$$$
