ZINC32795224_4438
                    3D
 Schrodinger Suite 2024-2.
 44 46  0  0  1  0            999 V2000
    3.1841   53.8828   23.4172 C   0  0  0  0  0  0
    4.4600   54.1605   24.1919 C   0  0  0  0  0  0
    4.5591   54.1712   25.6248 C   0  0  0  0  0  0
    3.6684   53.9749   26.6953 C   0  0  0  0  0  0
    4.1564   54.0579   28.0033 C   0  0  0  0  0  0
    5.5023   54.3231   28.2604 C   0  0  0  0  0  0
    6.4139   54.5161   27.2235 C   0  0  0  0  0  0
    5.9120   54.4449   25.9192 C   0  0  0  0  0  0
    6.6280   54.6333   24.7790 O   0  0  0  0  0  0
    5.7519   54.4967   23.7357 C   0  0  0  0  0  0
    6.3021   54.7077   22.4120 C   0  0  0  0  0  0
    7.5043   54.8967   22.2402 O   0  0  0  0  0  0
    5.4064   54.6915   21.4007 N   0  0  0  0  0  0
    5.8139   54.8850   20.0679 N   0  0  0  0  0  0
    6.2278   56.0936   19.6269 C   0  0  0  0  0  0
    6.3044   57.1096   20.3201 O   0  0  0  0  0  0
    6.4998   56.0676   18.3115 N   0  0  0  0  0  0
    6.1160   57.1005   17.3331 C   0  0  2  0  0  0
    6.6376   56.7877   16.4269 H   0  0  0  0  0  0
    6.6940   58.4978   17.6668 C   0  0  0  0  0  0
    4.6235   57.0893   16.9297 C   0  0  0  0  0  0
    3.8305   55.9465   17.1328 C   0  0  0  0  0  0
    2.4896   55.9227   16.7524 C   0  0  0  0  0  0
    1.9184   57.0397   16.1485 C   0  0  0  0  0  0
    2.6862   58.1820   15.9362 C   0  0  0  0  0  0
    4.0240   58.2112   16.3333 C   0  0  0  0  0  0
    1.9039   59.6959   15.0880 Br  0  0  0  0  0  0
    2.5839   54.7854   23.2981 H   0  0  0  0  0  0
    3.3579   53.4721   22.4237 H   0  0  0  0  0  0
    2.5593   53.1523   23.9316 H   0  0  0  0  0  0
    2.6260   53.7607   26.5110 H   0  0  0  0  0  0
    3.4794   53.9116   28.8329 H   0  0  0  0  0  0
    5.8486   54.3912   29.2814 H   0  0  0  0  0  0
    7.4531   54.7250   27.4268 H   0  0  0  0  0  0
    4.4039   54.7058   21.5233 H   0  0  0  0  0  0
    5.9432   54.0203   19.5633 H   0  0  0  0  0  0
    6.7431   55.1742   17.9106 H   0  0  0  0  0  0
    6.7048   59.1560   16.7977 H   0  0  0  0  0  0
    6.1164   58.9962   18.4464 H   0  0  0  0  0  0
    7.7246   58.4279   18.0161 H   0  0  0  0  0  0
    4.2441   55.0554   17.5797 H   0  0  0  0  0  0
    1.8971   55.0354   16.9218 H   0  0  0  0  0  0
    0.8821   57.0226   15.8457 H   0  0  0  0  0  0
    4.5836   59.1185   16.1557 H   0  0  0  0  0  0
  1  2  1  0  0  0
  1 28  1  0  0  0
  1 29  1  0  0  0
  1 30  1  0  0  0
  2 10  2  0  0  0
  2  3  1  0  0  0
  3  8  2  0  0  0
  3  4  1  0  0  0
  4  5  2  0  0  0
  4 31  1  0  0  0
  5  6  1  0  0  0
  5 32  1  0  0  0
  6  7  2  0  0  0
  6 33  1  0  0  0
  7  8  1  0  0  0
  7 34  1  0  0  0
  8  9  1  0  0  0
  9 10  1  0  0  0
 10 11  1  0  0  0
 11 12  2  0  0  0
 11 13  1  0  0  0
 13 14  1  0  0  0
 13 35  1  0  0  0
 14 15  1  0  0  0
 14 36  1  0  0  0
 15 16  2  0  0  0
 15 17  1  0  0  0
 17 18  1  0  0  0
 17 37  1  0  0  0
 18 19  1  0  0  0
 18 20  1  0  0  0
 18 21  1  0  0  0
 20 38  1  0  0  0
 20 39  1  0  0  0
 20 40  1  0  0  0
 21 26  2  0  0  0
 21 22  1  0  0  0
 22 23  2  0  0  0
 22 41  1  0  0  0
 23 24  1  0  0  0
 23 42  1  0  0  0
 24 25  2  0  0  0
 24 43  1  0  0  0
 25 26  1  0  0  0
 25 27  1  0  0  0
 26 44  1  0  0  0
M  END
> <i_i_glide_confnum>
86

> <i_i_glide_lignum>
4439

> <i_i_glide_posenum>
306

> <i_i_glide_rotatable_bonds>
7

> <i_m_Source_File_Index>
3621

> <b_m_subgroup_collapsed>
0

> <r_i_docking_score>
-4.72123

> <r_i_glide_ecoul>
-2.51767

> <r_i_glide_eff_state_penalty>
0

> <r_i_glide_einternal>
9.74339

> <r_i_glide_emodel>
-46.9635

> <r_i_glide_energy>
-39.8472

> <r_i_glide_erotb>
0.684019

> <r_i_glide_esite>
0

> <r_i_glide_evdw>
-37.3295

> <r_i_glide_gscore>
-4.72123

> <r_i_glide_hbond>
-0.239423

> <r_i_glide_ligand_efficiency>
-0.181586

> <r_i_glide_ligand_efficiency_ln>
-1.10877

> <r_i_glide_ligand_efficiency_sa>
-0.537948

> <r_i_glide_lipo>
-2.54723

> <r_i_glide_metal>
0

> <r_i_glide_rewards>
-0.374474

> <s_i_glide_gridfile>
wee1_glide-grid

> <s_m_Source_File>
wee1_decoys_glide_SP.sdf

> <s_m_Source_Path>
/Users/zhangxujun/Desktop

> <s_m_entry_id>
3896

> <s_m_entry_name>
wee1_decoys_glide_SP.3621

> <s_m_subgroup_title>
wee1_decoys_glide_SP

> <s_m_subgroupid>
wee1_decoys_glide_SP


$$$$
