ZINC60334523_4356
                    3D
 Schrodinger Suite 2024-2.
 57 60  0  0  1  0            999 V2000
    6.3121   55.0705   19.6420 C   0  0  0  0  0  0
    7.1106   55.6106   20.6445 C   0  0  0  0  0  0
    6.8534   55.2981   21.9777 C   0  0  0  0  0  0
    5.7900   54.4516   22.3312 C   0  0  0  0  0  0
    4.9858   53.8848   21.3072 C   0  0  0  0  0  0
    5.2651   54.2128   19.9685 C   0  0  0  0  0  0
    3.8203   52.9670   21.6139 C   0  0  0  0  0  0
    3.1008   53.1997   22.5884 O   0  0  0  0  0  0
    3.6692   51.9047   20.7883 N   0  0  0  0  0  0
    2.6955   50.8913   20.8631 C   0  0  0  0  0  0
    2.0427   50.5240   22.0513 C   0  0  0  0  0  0
    1.0624   49.5367   22.0395 C   0  0  0  0  0  0
    0.7349   48.8968   20.8469 C   0  0  0  0  0  0
    1.4011   49.2161   19.6586 C   0  0  0  0  0  0
    2.3863   50.2127   19.6788 C   0  0  0  0  0  0
    1.0493   48.4983   18.3542 C   0  0  0  0  0  0
    1.1005   49.3352   17.3178 F   0  0  0  0  0  0
    1.9094   47.5019   18.1538 F   0  0  0  0  0  0
   -0.1793   47.9782   18.3992 F   0  0  0  0  0  0
    5.5484   54.1004   23.6793 N   0  0  0  0  0  0
    5.8477   54.7750   24.8082 C   0  0  0  0  0  0
    6.3547   55.8968   24.8400 O   0  0  0  0  0  0
    5.4874   54.0632   26.1253 C   0  0  1  0  0  0
    5.4959   52.9879   25.9411 H   0  0  0  0  0  0
    6.5926   54.3416   27.1661 C   0  0  0  0  0  0
    6.1848   53.6968   28.4816 C   0  0  0  0  0  0
    4.8352   54.2419   28.9652 C   0  0  0  0  0  0
    3.8151   53.9491   27.9396 N   0  0  0  0  0  0
    4.0635   54.4962   26.5797 C   0  0  0  0  0  0
    2.7956   53.0986   28.2482 C   0  0  0  0  0  0
    2.7834   52.4571   29.3072 O   0  0  0  0  0  0
    1.5441   53.0438   27.3342 C   0  0  0  0  0  0
    0.8546   51.6916   27.2281 C   0  0  0  0  0  0
    0.2242   52.7806   28.0533 C   0  0  0  0  0  0
    6.5088   55.3091   18.6073 H   0  0  0  0  0  0
    7.9396   56.2543   20.3878 H   0  0  0  0  0  0
    7.5081   55.7098   22.7295 H   0  0  0  0  0  0
    4.6620   53.8159   19.1631 H   0  0  0  0  0  0
    4.2822   51.8519   19.9858 H   0  0  0  0  0  0
    2.2777   50.9853   22.9967 H   0  0  0  0  0  0
    0.5625   49.2661   22.9582 H   0  0  0  0  0  0
   -0.0291   48.1329   20.8590 H   0  0  0  0  0  0
    2.9097   50.4627   18.7639 H   0  0  0  0  0  0
    4.9494   53.2966   23.7933 H   0  0  0  0  0  0
    6.7041   55.4073   27.3774 H   0  0  0  0  0  0
    7.5385   53.8852   26.8797 H   0  0  0  0  0  0
    6.9504   53.9044   29.2302 H   0  0  0  0  0  0
    6.1348   52.6102   28.3875 H   0  0  0  0  0  0
    4.9020   55.3224   29.0576 H   0  0  0  0  0  0
    4.5747   53.8900   29.9641 H   0  0  0  0  0  0
    3.3550   54.1286   25.8382 H   0  0  0  0  0  0
    4.0016   55.5815   26.6348 H   0  0  0  0  0  0
    1.5045   53.7329   26.4928 H   0  0  0  0  0  0
    1.2798   50.8230   27.7353 H   0  0  0  0  0  0
    0.3963   51.4158   26.2772 H   0  0  0  0  0  0
   -0.6717   53.2744   27.6795 H   0  0  0  0  0  0
    0.1950   52.6675   29.1393 H   0  0  0  0  0  0
  1  6  2  0  0  0
  1  2  1  0  0  0
  1 35  1  0  0  0
  2  3  2  0  0  0
  2 36  1  0  0  0
  3  4  1  0  0  0
  3 37  1  0  0  0
  4  5  2  0  0  0
  4 20  1  0  0  0
  5  6  1  0  0  0
  5  7  1  0  0  0
  6 38  1  0  0  0
  7  8  2  0  0  0
  7  9  1  0  0  0
  9 10  1  0  0  0
  9 39  1  0  0  0
 10 15  2  0  0  0
 10 11  1  0  0  0
 11 12  2  0  0  0
 11 40  1  0  0  0
 12 13  1  0  0  0
 12 41  1  0  0  0
 13 14  2  0  0  0
 13 42  1  0  0  0
 14 15  1  0  0  0
 14 16  1  0  0  0
 15 43  1  0  0  0
 16 17  1  0  0  0
 16 18  1  0  0  0
 16 19  1  0  0  0
 20 21  1  0  0  0
 20 44  1  0  0  0
 21 22  2  0  0  0
 21 23  1  0  0  0
 23 24  1  0  0  0
 23 29  1  0  0  0
 23 25  1  0  0  0
 25 26  1  0  0  0
 25 45  1  0  0  0
 25 46  1  0  0  0
 26 27  1  0  0  0
 26 47  1  0  0  0
 26 48  1  0  0  0
 27 28  1  0  0  0
 27 49  1  0  0  0
 27 50  1  0  0  0
 28 29  1  0  0  0
 28 30  1  0  0  0
 29 51  1  0  0  0
 29 52  1  0  0  0
 30 31  2  0  0  0
 30 32  1  0  0  0
 32 34  1  0  0  0
 32 33  1  0  0  0
 32 53  1  0  0  0
 33 34  1  0  0  0
 33 54  1  0  0  0
 33 55  1  0  0  0
 34 56  1  0  0  0
 34 57  1  0  0  0
M  END
> <i_i_glide_confnum>
21

> <i_i_glide_lignum>
4357

> <i_i_glide_posenum>
274

> <i_i_glide_rotatable_bonds>
9

> <i_m_Source_File_Index>
1486

> <b_m_subgroup_collapsed>
0

> <r_i_docking_score>
-6.82581

> <r_i_glide_ecoul>
-4.86107

> <r_i_glide_eff_state_penalty>
0

> <r_i_glide_einternal>
4.95553

> <r_i_glide_emodel>
-77.3434

> <r_i_glide_energy>
-56.1555

> <r_i_glide_erotb>
0.762496

> <r_i_glide_esite>
-0.176265

> <r_i_glide_evdw>
-51.2944

> <r_i_glide_gscore>
-6.82581

> <r_i_glide_hbond>
0

> <r_i_glide_ligand_efficiency>
-0.206843

> <r_i_glide_ligand_efficiency_ln>
-1.51802

> <r_i_glide_ligand_efficiency_sa>
-0.663455

> <r_i_glide_lipo>
-2.66799

> <r_i_glide_metal>
0

> <r_i_glide_rewards>
-1.45016

> <s_i_glide_gridfile>
wee1_glide-grid

> <s_m_Source_File>
wee1_decoys_glide_SP.sdf

> <s_m_Source_Path>
/Users/zhangxujun/Desktop

> <s_m_entry_id>
1761

> <s_m_entry_name>
wee1_decoys_glide_SP.1486

> <s_m_subgroup_title>
wee1_decoys_glide_SP

> <s_m_subgroupid>
wee1_decoys_glide_SP


$$$$
