ZINC13352313_5889
                    3D
 Schrodinger Suite 2024-2.
 57 60  0  0  1  0            999 V2000
   -2.3793   51.6259   18.9566 C   0  0  0  0  0  0
   -1.9754   50.5905   20.0234 C   0  0  2  0  0  0
   -2.8886   50.0488   20.2719 H   0  0  0  0  0  0
   -1.5261   51.2859   21.3267 C   0  0  0  0  0  0
   -2.3893   51.7340   22.0841 O   0  0  0  0  0  0
   -0.2018   51.4344   21.5425 N   0  0  0  0  0  0
    0.3930   51.9630   22.6975 C   0  0  0  0  0  0
    1.4254   52.8891   22.5551 C   0  0  0  0  0  0
    2.0841   53.3731   23.6844 C   0  0  0  0  0  0
    1.7396   52.9271   24.9718 C   0  0  0  0  0  0
    0.6983   51.9958   25.0921 C   0  0  0  0  0  0
    0.0260   51.5192   23.9708 C   0  0  0  0  0  0
    2.4463   53.3278   26.1099 N   0  0  0  0  0  0
    3.7150   54.0803   26.0221 C   0  0  0  0  0  0
    4.6195   53.9071   27.2626 C   0  0  0  0  0  0
    3.8916   54.2261   28.5722 C   0  0  0  0  0  0
    2.5665   53.4596   28.6186 C   0  0  0  0  0  0
    1.7260   53.6957   27.3468 C   0  0  0  0  0  0
   -0.7979   49.3495   19.3552 S   0  0  0  0  0  0
   -1.2365   47.8596   20.2310 C   0  0  0  0  0  0
   -1.9567   47.8649   21.3282 N   0  0  0  0  0  0
   -2.1191   46.6046   21.6550 C   0  0  0  0  0  0
   -1.4873   45.7370   20.7740 C   0  0  0  0  0  0
   -0.8975   46.5691   19.8198 N   0  0  0  0  0  0
   -0.1436   46.2597   18.6561 C   0  0  0  0  0  0
    1.1044   46.8636   18.4550 C   0  0  0  0  0  0
    1.8158   46.6235   17.2818 C   0  0  0  0  0  0
    1.2935   45.7603   16.3222 C   0  0  0  0  0  0
    0.0557   45.1509   16.5173 C   0  0  0  0  0  0
   -0.6697   45.4071   17.6790 C   0  0  0  0  0  0
    1.9924   45.5115   15.1911 F   0  0  0  0  0  0
   -1.3936   44.2610   20.8110 C   0  0  0  0  0  0
   -0.6196   43.6539   20.0381 O   0  0  0  0  0  0
   -3.1330   52.3218   19.3268 H   0  0  0  0  0  0
   -1.5206   52.2081   18.6185 H   0  0  0  0  0  0
   -2.8038   51.1330   18.0810 H   0  0  0  0  0  0
    0.4209   51.1698   20.7929 H   0  0  0  0  0  0
    1.7229   53.2369   21.5754 H   0  0  0  0  0  0
    2.8759   54.0912   23.5384 H   0  0  0  0  0  0
    0.4222   51.5947   26.0555 H   0  0  0  0  0  0
   -0.7547   50.7820   24.0934 H   0  0  0  0  0  0
    3.5053   55.1334   25.8280 H   0  0  0  0  0  0
    4.2863   53.7038   25.1727 H   0  0  0  0  0  0
    5.4854   54.5633   27.1668 H   0  0  0  0  0  0
    5.0319   52.8967   27.2763 H   0  0  0  0  0  0
    4.5162   53.9699   29.4288 H   0  0  0  0  0  0
    3.6978   55.2967   28.6354 H   0  0  0  0  0  0
    2.7374   52.3899   28.7517 H   0  0  0  0  0  0
    1.9947   53.7737   29.4924 H   0  0  0  0  0  0
    1.4316   54.7437   27.2817 H   0  0  0  0  0  0
    0.8027   53.1281   27.4547 H   0  0  0  0  0  0
   -2.6790   46.3182   22.5333 H   0  0  0  0  0  0
    1.5210   47.5343   19.1934 H   0  0  0  0  0  0
    2.7716   47.1028   17.1186 H   0  0  0  0  0  0
   -0.3413   44.4872   15.7643 H   0  0  0  0  0  0
   -1.6347   44.9412   17.8179 H   0  0  0  0  0  0
   -2.0956   43.6967   21.6817 O   0  5  0  0  0  0
  1  2  1  0  0  0
  1 34  1  0  0  0
  1 35  1  0  0  0
  1 36  1  0  0  0
  2  3  1  0  0  0
  2  4  1  0  0  0
  2 19  1  0  0  0
  4  5  2  0  0  0
  4  6  1  0  0  0
  6  7  1  0  0  0
  6 37  1  0  0  0
  7 12  2  0  0  0
  7  8  1  0  0  0
  8  9  2  0  0  0
  8 38  1  0  0  0
  9 10  1  0  0  0
  9 39  1  0  0  0
 10 11  2  0  0  0
 10 13  1  0  0  0
 11 12  1  0  0  0
 11 40  1  0  0  0
 12 41  1  0  0  0
 13 18  1  0  0  0
 13 14  1  0  0  0
 14 15  1  0  0  0
 14 42  1  0  0  0
 14 43  1  0  0  0
 15 16  1  0  0  0
 15 44  1  0  0  0
 15 45  1  0  0  0
 16 17  1  0  0  0
 16 46  1  0  0  0
 16 47  1  0  0  0
 17 18  1  0  0  0
 17 48  1  0  0  0
 17 49  1  0  0  0
 18 50  1  0  0  0
 18 51  1  0  0  0
 19 20  1  0  0  0
 20 24  1  0  0  0
 20 21  2  0  0  0
 21 22  1  0  0  0
 22 23  2  0  0  0
 22 52  1  0  0  0
 23 24  1  0  0  0
 23 32  1  0  0  0
 24 25  1  0  0  0
 25 30  2  0  0  0
 25 26  1  0  0  0
 26 27  2  0  0  0
 26 53  1  0  0  0
 27 28  1  0  0  0
 27 54  1  0  0  0
 28 29  2  0  0  0
 28 31  1  0  0  0
 29 30  1  0  0  0
 29 55  1  0  0  0
 30 56  1  0  0  0
 32 33  2  0  0  0
 32 57  1  0  0  0
M  CHG  1  57  -1
M  END
> <i_i_glide_confnum>
213

> <i_i_glide_lignum>
5890

> <i_i_glide_posenum>
372

> <i_i_glide_rotatable_bonds>
8

> <i_m_Source_File_Index>
381

> <b_m_subgroup_collapsed>
0

> <r_i_docking_score>
-3.83103

> <r_i_glide_ecoul>
-5.18723

> <r_i_glide_eff_state_penalty>
0

> <r_i_glide_einternal>
7.19433

> <r_i_glide_emodel>
-43.511

> <r_i_glide_energy>
-35.5569

> <r_i_glide_erotb>
0.64633

> <r_i_glide_esite>
-0.0649387

> <r_i_glide_evdw>
-30.3697

> <r_i_glide_gscore>
-3.83103

> <r_i_glide_hbond>
-0.208419

> <r_i_glide_ligand_efficiency>
-0.116092

> <r_i_glide_ligand_efficiency_ln>
-0.852001

> <r_i_glide_ligand_efficiency_sa>
-0.372368

> <r_i_glide_lipo>
-1.80435

> <r_i_glide_metal>
0

> <r_i_glide_rewards>
-0.103083

> <s_i_glide_gridfile>
wee1_glide-grid

> <s_m_Source_File>
wee1_decoys_glide_SP.sdf

> <s_m_Source_Path>
/Users/zhangxujun/Desktop

> <s_m_entry_id>
656

> <s_m_entry_name>
wee1_decoys_glide_SP.381

> <s_m_subgroup_title>
wee1_decoys_glide_SP

> <s_m_subgroupid>
wee1_decoys_glide_SP


$$$$
