ZINC29394708_5089
                    3D
 Schrodinger Suite 2024-2.
 71 74  0  0  1  0            999 V2000
   -6.1812   45.7921   27.5079 C   0  0  0  0  0  0
   -5.2601   46.9617   27.9337 C   0  0  0  0  0  0
   -6.1320   48.1733   28.3120 C   0  0  0  0  0  0
   -4.3785   46.5684   29.1378 C   0  0  0  0  0  0
   -4.4199   47.4535   26.8779 O   0  0  0  0  0  0
   -3.5728   46.7083   26.1280 C   0  0  0  0  0  0
   -3.6839   45.5037   25.8846 O   0  0  0  0  0  0
   -2.5625   47.5376   25.6751 N   0  0  0  0  0  0
   -1.4369   47.0691   24.8633 C   0  0  1  0  0  0
   -1.1293   46.0958   25.2467 H   0  0  0  0  0  0
   -1.7930   46.9789   23.3695 C   0  0  0  0  0  0
   -1.2478   48.2404   22.6833 C   0  0  0  0  0  0
   -0.5599   49.0377   23.8060 N   0  3  1  0  0  0
   -0.2616   48.0424   24.9404 C   0  0  0  0  0  0
    0.6493   49.9047   23.3780 C   0  0  0  0  0  0
    0.4499   51.3000   23.9709 C   0  0  0  0  0  0
   -0.6753   51.6757   24.3113 O   0  0  0  0  0  0
    1.5425   52.0725   24.0747 N   0  0  0  0  0  0
    1.5394   53.4374   24.6105 C   0  0  2  0  0  0
    0.5157   53.8122   24.5176 H   0  0  0  0  0  0
    2.3516   54.4257   23.7569 C   0  0  0  0  0  0
    3.8523   54.1454   23.8436 C   0  0  0  0  0  0
    4.3364   54.0969   25.2904 C   0  0  0  0  0  0
    5.6811   54.3778   25.5650 C   0  0  0  0  0  0
    6.2018   54.2326   26.8451 C   0  0  0  0  0  0
    5.3835   53.8018   27.8763 C   0  0  0  0  0  0
    4.0412   53.5406   27.6249 C   0  0  0  0  0  0
    3.4737   53.7051   26.3483 C   0  0  0  0  0  0
    1.9475   53.5453   26.1143 C   0  0  2  0  0  0
    1.5380   54.4967   26.3776 H   0  0  0  0  0  0
    1.1984   52.5742   27.0760 C   0  0  0  0  0  0
    0.8975   53.0426   28.5073 C   0  0  0  0  0  0
    1.0708   54.3601   28.9725 C   0  0  0  0  0  0
    0.7624   54.6791   30.2972 C   0  0  0  0  0  0
    0.3039   53.6647   31.1349 C   0  0  0  0  0  0
    0.1177   52.3937   30.7083 N   0  0  0  0  0  0
    0.4033   52.1025   29.4159 C   0  0  0  0  0  0
    7.5035   54.4945   27.0841 F   0  0  0  0  0  0
   -6.9447   45.5911   28.2600 H   0  0  0  0  0  0
   -5.6272   44.8650   27.3586 H   0  0  0  0  0  0
   -6.6980   46.0196   26.5740 H   0  0  0  0  0  0
   -5.5176   49.0244   28.6109 H   0  0  0  0  0  0
   -6.7453   48.4992   27.4716 H   0  0  0  0  0  0
   -6.8018   47.9459   29.1422 H   0  0  0  0  0  0
   -3.6964   47.3796   29.3946 H   0  0  0  0  0  0
   -4.9776   46.3728   30.0257 H   0  0  0  0  0  0
   -3.7633   45.6932   28.9253 H   0  0  0  0  0  0
   -2.5502   48.4822   26.0340 H   0  0  0  0  0  0
   -1.2953   46.1179   22.9232 H   0  0  0  0  0  0
   -2.8596   46.8298   23.1961 H   0  0  0  0  0  0
   -0.4935   48.0169   21.9288 H   0  0  0  0  0  0
   -2.0208   48.8894   22.2678 H   0  0  0  0  0  0
   -0.1564   48.5919   25.8809 H   0  0  0  0  0  0
    0.6960   47.5714   24.7111 H   0  0  0  0  0  0
    1.5751   49.4189   23.6947 H   0  0  0  0  0  0
    0.6241   49.9865   22.2898 H   0  0  0  0  0  0
    2.4302   51.7237   23.7470 H   0  0  0  0  0  0
    2.0223   54.3870   22.7158 H   0  0  0  0  0  0
    2.1536   55.4435   24.0814 H   0  0  0  0  0  0
    4.0731   53.1927   23.3630 H   0  0  0  0  0  0
    4.4036   54.8958   23.2776 H   0  0  0  0  0  0
    6.3425   54.6789   24.7666 H   0  0  0  0  0  0
    5.7883   53.6797   28.8696 H   0  0  0  0  0  0
    3.4436   53.2214   28.4614 H   0  0  0  0  0  0
    0.2196   52.3413   26.6573 H   0  0  0  0  0  0
    1.7380   51.6283   27.1206 H   0  0  0  0  0  0
    1.4434   55.1513   28.3411 H   0  0  0  0  0  0
    0.8921   55.6855   30.6688 H   0  0  0  0  0  0
    0.0566   53.8561   32.1696 H   0  0  0  0  0  0
    0.2258   51.0793   29.1132 H   0  0  0  0  0  0
   -1.2416   49.6937   24.1744 H   0  0  0  0  0  0
  1  2  1  0  0  0
  1 39  1  0  0  0
  1 40  1  0  0  0
  1 41  1  0  0  0
  2  3  1  0  0  0
  2  4  1  0  0  0
  2  5  1  0  0  0
  3 42  1  0  0  0
  3 43  1  0  0  0
  3 44  1  0  0  0
  4 45  1  0  0  0
  4 46  1  0  0  0
  4 47  1  0  0  0
  5  6  1  0  0  0
  6  7  2  0  0  0
  6  8  1  0  0  0
  8  9  1  0  0  0
  8 48  1  0  0  0
  9 10  1  0  0  0
  9 14  1  0  0  0
  9 11  1  0  0  0
 11 12  1  0  0  0
 11 49  1  0  0  0
 11 50  1  0  0  0
 12 13  1  0  0  0
 12 51  1  0  0  0
 12 52  1  0  0  0
 13 14  1  0  0  0
 13 15  1  0  0  0
 13 71  1  0  0  0
 14 53  1  0  0  0
 14 54  1  0  0  0
 15 16  1  0  0  0
 15 55  1  0  0  0
 15 56  1  0  0  0
 16 17  2  0  0  0
 16 18  1  0  0  0
 18 19  1  0  0  0
 18 57  1  0  0  0
 19 20  1  0  0  0
 19 29  1  0  0  0
 19 21  1  0  0  0
 21 22  1  0  0  0
 21 58  1  0  0  0
 21 59  1  0  0  0
 22 23  1  0  0  0
 22 60  1  0  0  0
 22 61  1  0  0  0
 23 28  2  0  0  0
 23 24  1  0  0  0
 24 25  2  0  0  0
 24 62  1  0  0  0
 25 26  1  0  0  0
 25 38  1  0  0  0
 26 27  2  0  0  0
 26 63  1  0  0  0
 27 28  1  0  0  0
 27 64  1  0  0  0
 28 29  1  0  0  0
 29 30  1  0  0  0
 29 31  1  0  0  0
 31 32  1  0  0  0
 31 65  1  0  0  0
 31 66  1  0  0  0
 32 37  2  0  0  0
 32 33  1  0  0  0
 33 34  2  0  0  0
 33 67  1  0  0  0
 34 35  1  0  0  0
 34 68  1  0  0  0
 35 36  2  0  0  0
 35 69  1  0  0  0
 36 37  1  0  0  0
 37 70  1  0  0  0
M  CHG  1  13   1
M  END
> <i_i_glide_confnum>
212

> <i_i_glide_lignum>
5090

> <i_i_glide_posenum>
212

> <i_i_glide_rotatable_bonds>
10

> <i_m_Source_File_Index>
3136

> <b_m_subgroup_collapsed>
0

> <r_i_docking_score>
-6.10209

> <r_i_glide_ecoul>
-6.41424

> <r_i_glide_eff_state_penalty>
0

> <r_i_glide_einternal>
9.50691

> <r_i_glide_emodel>
-64.669

> <r_i_glide_energy>
-50.2165

> <r_i_glide_erotb>
0.781286

> <r_i_glide_esite>
-0.251685

> <r_i_glide_evdw>
-43.8023

> <r_i_glide_gscore>
-6.10209

> <r_i_glide_hbond>
-0.16

> <r_i_glide_ligand_efficiency>
-0.174345

> <r_i_glide_ligand_efficiency_ln>
-1.33954

> <r_i_glide_ligand_efficiency_sa>
-0.570295

> <r_i_glide_lipo>
-3.21682

> <r_i_glide_metal>
0

> <r_i_glide_rewards>
-0.102619

> <s_i_glide_gridfile>
wee1_glide-grid

> <s_m_Source_File>
wee1_decoys_glide_SP.sdf

> <s_m_Source_Path>
/Users/zhangxujun/Desktop

> <s_m_entry_id>
3411

> <s_m_entry_name>
wee1_decoys_glide_SP.3136

> <s_m_subgroup_title>
wee1_decoys_glide_SP

> <s_m_subgroupid>
wee1_decoys_glide_SP


$$$$
