ZINC04190243_4465
                    3D
 Schrodinger Suite 2024-2.
 66 69  0  0  1  0            999 V2000
    1.2098   50.8184   22.3510 C   0  0  0  0  0  0
    0.3999   52.0568   22.7859 C   0  0  0  0  0  0
    0.6689   52.5465   24.2272 C   0  0  1  0  0  0
    0.0598   53.4443   24.3608 H   0  0  0  0  0  0
    0.2147   51.5250   25.2938 C   0  0  0  0  0  0
    2.0659   52.9509   24.3902 N   0  0  0  0  0  0
    2.5697   53.6923   25.3939 C   0  0  0  0  0  0
    1.8848   54.0955   26.3223 O   0  0  0  0  0  0
    4.0443   54.0100   25.3124 C   0  0  0  0  0  0
    4.5631   54.3132   24.0442 C   0  0  0  0  0  0
    5.9023   54.6676   23.8495 C   0  0  0  0  0  0
    6.7107   54.7856   24.9751 C   0  0  0  0  0  0
    6.2171   54.5153   26.2486 C   0  0  0  0  0  0
    4.8954   54.0975   26.4499 C   0  0  0  0  0  0
    4.5461   53.7956   27.7685 N   0  0  0  0  0  0
    4.5480   54.7981   28.8346 C   0  0  0  0  0  0
    3.1077   55.3320   29.0067 C   0  0  0  0  0  0
    2.1564   54.1975   29.3800 C   0  0  0  0  0  0
    0.9598   54.4131   30.0748 C   0  0  0  0  0  0
    0.0570   53.3690   30.2744 C   0  0  0  0  0  0
    0.3445   52.0972   29.7985 C   0  0  0  0  0  0
    1.5487   51.8646   29.1449 C   0  0  0  0  0  0
    2.4665   52.8955   28.9336 C   0  0  0  0  0  0
    3.7767   52.6196   28.1930 C   0  0  0  0  0  0
    6.4718   54.9739   22.5935 N   0  0  0  0  0  0
    5.9051   54.8897   21.3660 C   0  0  0  0  0  0
    4.8259   54.3517   21.1293 O   0  0  0  0  0  0
    6.6734   55.4710   20.4242 N   0  0  0  0  0  0
    6.3624   55.7239   19.0653 C   0  0  0  0  0  0
    5.0372   55.8301   18.6055 C   0  0  0  0  0  0
    4.7600   56.1398   17.2773 C   0  0  0  0  0  0
    5.8018   56.3440   16.3809 C   0  0  0  0  0  0
    7.1212   56.2326   16.8120 C   0  0  0  0  0  0
    7.4194   55.9166   18.1475 C   0  0  0  0  0  0
    8.8854   55.7864   18.5731 C   0  0  0  0  0  0
    9.7405   56.2026   17.6376 F   0  0  0  0  0  0
    9.1046   56.4966   19.6795 F   0  0  0  0  0  0
    9.1343   54.5034   18.8295 F   0  0  0  0  0  0
    0.9729   50.5441   21.3205 H   0  0  0  0  0  0
    2.2849   51.0002   22.3977 H   0  0  0  0  0  0
    0.9882   49.9541   22.9772 H   0  0  0  0  0  0
   -0.6644   51.8492   22.6646 H   0  0  0  0  0  0
    0.6210   52.8685   22.0897 H   0  0  0  0  0  0
   -0.8058   51.1921   25.0995 H   0  0  0  0  0  0
    0.8388   50.6329   25.2976 H   0  0  0  0  0  0
    0.2134   51.9573   26.2947 H   0  0  0  0  0  0
    2.6925   52.6628   23.6546 H   0  0  0  0  0  0
    3.8875   54.2934   23.2053 H   0  0  0  0  0  0
    7.7440   55.0788   24.8729 H   0  0  0  0  0  0
    6.8834   54.6001   27.0952 H   0  0  0  0  0  0
    4.8934   54.3524   29.7668 H   0  0  0  0  0  0
    5.2809   55.5736   28.6188 H   0  0  0  0  0  0
    2.7495   55.7523   28.0676 H   0  0  0  0  0  0
    3.0777   56.1631   29.7042 H   0  0  0  0  0  0
    0.7086   55.4053   30.4219 H   0  0  0  0  0  0
   -0.8881   53.5262   30.7710 H   0  0  0  0  0  0
   -0.3700   51.2962   29.9371 H   0  0  0  0  0  0
    1.7676   50.8727   28.7799 H   0  0  0  0  0  0
    4.4157   51.9651   28.7862 H   0  0  0  0  0  0
    3.5037   52.0967   27.2854 H   0  0  0  0  0  0
    7.4234   55.3040   22.6386 H   0  0  0  0  0  0
    7.6228   55.6944   20.6822 H   0  0  0  0  0  0
    4.2004   55.6965   19.2739 H   0  0  0  0  0  0
    3.7345   56.2252   16.9482 H   0  0  0  0  0  0
    5.5841   56.5876   15.3517 H   0  0  0  0  0  0
    7.9101   56.3892   16.0890 H   0  0  0  0  0  0
  1  2  1  0  0  0
  1 39  1  0  0  0
  1 40  1  0  0  0
  1 41  1  0  0  0
  2  3  1  0  0  0
  2 42  1  0  0  0
  2 43  1  0  0  0
  3  4  1  0  0  0
  3  5  1  0  0  0
  3  6  1  0  0  0
  5 44  1  0  0  0
  5 45  1  0  0  0
  5 46  1  0  0  0
  6  7  1  0  0  0
  6 47  1  0  0  0
  7  8  2  0  0  0
  7  9  1  0  0  0
  9 14  2  0  0  0
  9 10  1  0  0  0
 10 11  2  0  0  0
 10 48  1  0  0  0
 11 12  1  0  0  0
 11 25  1  0  0  0
 12 13  2  0  0  0
 12 49  1  0  0  0
 13 14  1  0  0  0
 13 50  1  0  0  0
 14 15  1  0  0  0
 15 24  1  0  0  0
 15 16  1  0  0  0
 16 17  1  0  0  0
 16 51  1  0  0  0
 16 52  1  0  0  0
 17 18  1  0  0  0
 17 53  1  0  0  0
 17 54  1  0  0  0
 18 23  2  0  0  0
 18 19  1  0  0  0
 19 20  2  0  0  0
 19 55  1  0  0  0
 20 21  1  0  0  0
 20 56  1  0  0  0
 21 22  2  0  0  0
 21 57  1  0  0  0
 22 23  1  0  0  0
 22 58  1  0  0  0
 23 24  1  0  0  0
 24 59  1  0  0  0
 24 60  1  0  0  0
 25 26  1  0  0  0
 25 61  1  0  0  0
 26 27  2  0  0  0
 26 28  1  0  0  0
 28 29  1  0  0  0
 28 62  1  0  0  0
 29 34  2  0  0  0
 29 30  1  0  0  0
 30 31  2  0  0  0
 30 63  1  0  0  0
 31 32  1  0  0  0
 31 64  1  0  0  0
 32 33  2  0  0  0
 32 65  1  0  0  0
 33 34  1  0  0  0
 33 66  1  0  0  0
 34 35  1  0  0  0
 35 36  1  0  0  0
 35 37  1  0  0  0
 35 38  1  0  0  0
M  END
> <i_i_glide_confnum>
458

> <i_i_glide_lignum>
4466

> <i_i_glide_posenum>
347

> <i_i_glide_rotatable_bonds>
10

> <i_m_Source_File_Index>
1352

> <b_m_subgroup_collapsed>
0

> <r_i_docking_score>
-6.15208

> <r_i_glide_ecoul>
-0.32545

> <r_i_glide_eff_state_penalty>
0

> <r_i_glide_einternal>
6.10002

> <r_i_glide_emodel>
-58.4782

> <r_i_glide_energy>
-44.537

> <r_i_glide_erotb>
0.628775

> <r_i_glide_esite>
-0.0259756

> <r_i_glide_evdw>
-44.2116

> <r_i_glide_gscore>
-6.15208

> <r_i_glide_hbond>
0

> <r_i_glide_ligand_efficiency>
-0.166273

> <r_i_glide_ligand_efficiency_ln>
-1.33424

> <r_i_glide_ligand_efficiency_sa>
-0.554057

> <r_i_glide_lipo>
-3.52562

> <r_i_glide_metal>
0

> <r_i_glide_rewards>
-0.969867

> <s_i_glide_gridfile>
wee1_glide-grid

> <s_m_Source_File>
wee1_decoys_glide_SP.sdf

> <s_m_Source_Path>
/Users/zhangxujun/Desktop

> <s_m_entry_id>
1627

> <s_m_entry_name>
wee1_decoys_glide_SP.1352

> <s_m_subgroup_title>
wee1_decoys_glide_SP

> <s_m_subgroupid>
wee1_decoys_glide_SP


$$$$
