ZINC10853112_5288
                    3D
 Schrodinger Suite 2024-2.
 64 67  0  0  1  0            999 V2000
    1.7982   53.9491   23.8020 C   0  0  0  0  0  0
    3.1594   53.5706   24.4355 C   0  0  0  0  0  0
    4.2814   53.8261   23.4106 C   0  0  0  0  0  0
    3.3625   54.2513   25.8282 C   0  0  2  0  0  0
    3.2037   55.3125   25.6636 H   0  0  0  0  0  0
    4.7340   54.0989   26.4938 C   0  0  0  0  0  0
    5.0710   53.4256   27.6756 C   0  0  0  0  0  0
    6.3579   53.6663   28.1326 C   0  0  0  0  0  0
    7.0853   54.4561   27.2814 C   0  0  0  0  0  0
    6.1665   54.8985   25.8867 S   0  0  0  0  0  0
    2.3042   53.7974   26.7309 N   0  0  0  0  0  0
    1.9262   54.3023   27.9187 C   0  0  0  0  0  0
    2.4360   55.2890   28.4513 O   0  0  0  0  0  0
    0.8631   53.4861   28.6017 C   0  0  0  0  0  0
    0.8002   53.4208   30.0000 C   0  0  0  0  0  0
   -0.0752   52.5288   30.6219 C   0  0  0  0  0  0
   -0.8960   51.6961   29.8578 C   0  0  0  0  0  0
   -0.8951   51.8001   28.4680 C   0  0  0  0  0  0
   -0.0285   52.7062   27.8513 C   0  0  0  0  0  0
   -1.6547   50.8966   27.7157 N   0  0  0  0  0  0
   -2.1970   51.1121   26.5018 C   0  0  0  0  0  0
   -2.3836   52.2256   26.0087 O   0  0  0  0  0  0
   -2.5321   49.8503   25.6959 C   0  0  0  0  0  0
   -1.2795   49.0353   25.2436 C   0  0  1  0  0  0
   -0.8860   48.4608   26.0828 H   0  0  0  0  0  0
   -1.6260   48.0157   24.1576 C   0  0  0  0  0  0
   -2.4734   47.1387   24.3172 O   0  0  0  0  0  0
   -0.8955   48.1827   23.0060 N   0  0  0  0  0  0
   -0.0164   49.0984   23.0567 C   0  0  0  0  0  0
    0.0980   50.0097   24.5874 S   0  0  0  0  0  0
    0.8530   49.3913   21.9970 N   0  0  0  0  0  0
    0.8612   48.6498   20.7211 C   0  0  0  0  0  0
    0.6483   49.6260   19.5443 C   0  0  0  0  0  0
    1.6527   50.7945   19.5565 C   0  0  0  0  0  0
    1.7368   51.4415   20.9490 C   0  0  0  0  0  0
    1.9357   50.3881   22.0609 C   0  0  0  0  0  0
    1.6979   55.0278   23.6875 H   0  0  0  0  0  0
    1.6752   53.5033   22.8153 H   0  0  0  0  0  0
    0.9536   53.6107   24.4072 H   0  0  0  0  0  0
    3.1043   52.4960   24.6025 H   0  0  0  0  0  0
    4.4434   54.8944   23.2530 H   0  0  0  0  0  0
    5.2232   53.3818   23.7285 H   0  0  0  0  0  0
    4.0434   53.3894   22.4418 H   0  0  0  0  0  0
    4.3671   52.8274   28.2350 H   0  0  0  0  0  0
    6.7568   53.2961   29.0633 H   0  0  0  0  0  0
    8.0814   54.8049   27.4542 H   0  0  0  0  0  0
    1.6699   53.1336   26.3165 H   0  0  0  0  0  0
    1.4600   54.0243   30.6119 H   0  0  0  0  0  0
   -0.0950   52.4579   31.6983 H   0  0  0  0  0  0
   -1.5335   50.9795   30.3596 H   0  0  0  0  0  0
   -0.0138   52.7485   26.7710 H   0  0  0  0  0  0
   -1.6943   49.9407   28.0819 H   0  0  0  0  0  0
   -3.2130   49.2209   26.2699 H   0  0  0  0  0  0
   -3.1011   50.1710   24.8190 H   0  0  0  0  0  0
    1.8590   48.2121   20.6411 H   0  0  0  0  0  0
    0.1454   47.8238   20.6919 H   0  0  0  0  0  0
    0.7118   49.0877   18.5969 H   0  0  0  0  0  0
   -0.3673   50.0259   19.5910 H   0  0  0  0  0  0
    1.3808   51.5389   18.8067 H   0  0  0  0  0  0
    2.6398   50.4232   19.2692 H   0  0  0  0  0  0
    0.8198   51.9992   21.1431 H   0  0  0  0  0  0
    2.5377   52.1802   20.9780 H   0  0  0  0  0  0
    2.1010   50.8341   23.0415 H   0  0  0  0  0  0
    2.8490   49.8343   21.8347 H   0  0  0  0  0  0
  1  2  1  0  0  0
  1 37  1  0  0  0
  1 38  1  0  0  0
  1 39  1  0  0  0
  2  3  1  0  0  0
  2  4  1  0  0  0
  2 40  1  0  0  0
  3 41  1  0  0  0
  3 42  1  0  0  0
  3 43  1  0  0  0
  4  5  1  0  0  0
  4  6  1  0  0  0
  4 11  1  0  0  0
  6 10  1  0  0  0
  6  7  2  0  0  0
  7  8  1  0  0  0
  7 44  1  0  0  0
  8  9  2  0  0  0
  8 45  1  0  0  0
  9 10  1  0  0  0
  9 46  1  0  0  0
 11 12  1  0  0  0
 11 47  1  0  0  0
 12 13  2  0  0  0
 12 14  1  0  0  0
 14 19  2  0  0  0
 14 15  1  0  0  0
 15 16  2  0  0  0
 15 48  1  0  0  0
 16 17  1  0  0  0
 16 49  1  0  0  0
 17 18  2  0  0  0
 17 50  1  0  0  0
 18 19  1  0  0  0
 18 20  1  0  0  0
 19 51  1  0  0  0
 20 21  1  0  0  0
 20 52  1  0  0  0
 21 22  2  0  0  0
 21 23  1  0  0  0
 23 24  1  0  0  0
 23 53  1  0  0  0
 23 54  1  0  0  0
 24 25  1  0  0  0
 24 30  1  0  0  0
 24 26  1  0  0  0
 26 27  2  0  0  0
 26 28  1  0  0  0
 28 29  2  0  0  0
 29 30  1  0  0  0
 29 31  1  0  0  0
 31 36  1  0  0  0
 31 32  1  0  0  0
 32 33  1  0  0  0
 32 55  1  0  0  0
 32 56  1  0  0  0
 33 34  1  0  0  0
 33 57  1  0  0  0
 33 58  1  0  0  0
 34 35  1  0  0  0
 34 59  1  0  0  0
 34 60  1  0  0  0
 35 36  1  0  0  0
 35 61  1  0  0  0
 35 62  1  0  0  0
 36 63  1  0  0  0
 36 64  1  0  0  0
M  END
> <i_i_glide_confnum>
288

> <i_i_glide_lignum>
5289

> <i_i_glide_posenum>
390

> <i_i_glide_rotatable_bonds>
10

> <i_m_Source_File_Index>
5242

> <b_m_subgroup_collapsed>
0

> <r_i_docking_score>
-6.43893

> <r_i_glide_ecoul>
-9.19387

> <r_i_glide_eff_state_penalty>
0

> <r_i_glide_einternal>
15.5795

> <r_i_glide_emodel>
-68.9255

> <r_i_glide_energy>
-53.7763

> <r_i_glide_erotb>
0.656549

> <r_i_glide_esite>
-0.185001

> <r_i_glide_evdw>
-44.5824

> <r_i_glide_gscore>
-6.43893

> <r_i_glide_hbond>
-0.16

> <r_i_glide_ligand_efficiency>
-0.18938

> <r_i_glide_ligand_efficiency_ln>
-1.42254

> <r_i_glide_ligand_efficiency_sa>
-0.613518

> <r_i_glide_lipo>
-2.73555

> <r_i_glide_metal>
0

> <r_i_glide_rewards>
-0.406729

> <s_i_glide_gridfile>
wee1_glide-grid

> <s_m_Source_File>
wee1_decoys_glide_SP.sdf

> <s_m_Source_Path>
/Users/zhangxujun/Desktop

> <s_m_entry_id>
5517

> <s_m_entry_name>
wee1_decoys_glide_SP.5242

> <s_m_subgroup_title>
wee1_decoys_glide_SP

> <s_m_subgroupid>
wee1_decoys_glide_SP


$$$$
