ZINC03664910_4121
                    3D
 Schrodinger Suite 2024-2.
 67 71  0  0  1  0            999 V2000
    1.7225   50.7474   22.3435 C   0  0  0  0  0  0
    0.3763   51.4687   22.5078 C   0  0  0  0  0  0
   -0.0462   51.4675   23.8676 O   0  0  0  0  0  0
    0.4289   52.3607   24.7669 C   0  0  0  0  0  0
    1.1840   53.2942   24.4812 O   0  0  0  0  0  0
   -0.0616   52.0965   26.1353 C   0  0  0  0  0  0
    0.5603   52.6050   27.3161 C   0  0  0  0  0  0
   -0.1091   52.2501   28.4966 C   0  0  0  0  0  0
   -1.5055   51.2970   28.1933 S   0  0  0  0  0  0
   -1.1945   51.3267   26.4939 C   0  0  0  0  0  0
   -2.0683   50.5929   25.6950 N   0  0  0  0  0  0
   -3.2675   51.1862   25.2545 C   0  0  0  0  0  0
   -4.2063   50.4420   24.5913 C   0  0  0  0  0  0
   -4.0331   48.9272   24.3532 C   0  0  1  0  0  0
   -4.2543   48.7031   23.3067 H   0  0  0  0  0  0
   -2.5952   48.5035   24.6374 C   0  0  0  0  0  0
   -1.7252   49.2826   25.3154 C   0  0  0  0  0  0
   -0.4682   48.8347   25.6763 N   0  0  0  0  0  0
   -2.2646   47.1796   24.2334 C   0  0  0  0  0  0
   -2.0956   46.0968   23.8676 N   0  0  0  0  0  0
   -5.0381   48.0949   25.1668 C   0  0  0  0  0  0
   -4.8750   47.9572   26.5532 C   0  0  0  0  0  0
   -5.7840   47.2078   27.2936 C   0  0  0  0  0  0
   -6.8568   46.5922   26.6510 C   0  0  0  0  0  0
   -7.0298   46.7228   25.2751 C   0  0  0  0  0  0
   -6.1207   47.4750   24.5327 C   0  0  0  0  0  0
   -5.4667   51.0347   24.0826 C   0  0  0  0  0  0
   -6.1540   50.4831   23.2239 O   0  0  0  0  0  0
   -5.7688   52.4797   24.4934 C   0  0  0  0  0  0
   -5.0900   52.9038   25.8151 C   0  0  0  0  0  0
   -3.5634   52.6562   25.6357 C   0  0  0  0  0  0
   -5.6812   52.0918   27.0026 C   0  0  0  0  0  0
   -5.3093   54.4154   25.9763 C   0  0  0  0  0  0
    0.3451   52.5767   29.9098 C   0  0  0  0  0  0
    1.3688   53.7229   29.8604 C   0  0  0  0  0  0
    2.4479   53.4663   28.7965 C   0  0  0  0  0  0
    1.8569   53.4285   27.3683 C   0  0  0  0  0  0
    2.0156   50.6989   21.2942 H   0  0  0  0  0  0
    2.5159   51.2634   22.8818 H   0  0  0  0  0  0
    1.6696   49.7279   22.7248 H   0  0  0  0  0  0
   -0.3825   50.9466   21.9265 H   0  0  0  0  0  0
    0.4305   52.4848   22.1119 H   0  0  0  0  0  0
   -0.2518   47.8476   25.6393 H   0  0  0  0  0  0
    0.0855   49.3758   26.3232 H   0  0  0  0  0  0
   -4.0426   48.4284   27.0588 H   0  0  0  0  0  0
   -5.6537   47.1042   28.3615 H   0  0  0  0  0  0
   -7.5618   46.0116   27.2284 H   0  0  0  0  0  0
   -7.8681   46.2454   24.7876 H   0  0  0  0  0  0
   -6.2644   47.5799   23.4671 H   0  0  0  0  0  0
   -6.8485   52.6342   24.4963 H   0  0  0  0  0  0
   -5.3640   53.0911   23.6894 H   0  0  0  0  0  0
   -3.1508   52.9216   26.6068 H   0  0  0  0  0  0
   -3.0970   53.2936   24.8831 H   0  0  0  0  0  0
   -6.7668   52.1955   27.0457 H   0  0  0  0  0  0
   -5.4666   51.0237   26.9513 H   0  0  0  0  0  0
   -5.2932   52.4402   27.9578 H   0  0  0  0  0  0
   -6.3717   54.6530   26.0412 H   0  0  0  0  0  0
   -4.8390   54.7962   26.8817 H   0  0  0  0  0  0
   -4.8937   54.9664   25.1305 H   0  0  0  0  0  0
   -0.4931   52.8406   30.5553 H   0  0  0  0  0  0
    0.8116   51.6971   30.3540 H   0  0  0  0  0  0
    0.8628   54.6668   29.6498 H   0  0  0  0  0  0
    1.8235   53.8353   30.8431 H   0  0  0  0  0  0
    3.2201   54.2349   28.8512 H   0  0  0  0  0  0
    2.9500   52.5209   29.0106 H   0  0  0  0  0  0
    2.6093   53.0354   26.6831 H   0  0  0  0  0  0
    1.6427   54.4455   27.0350 H   0  0  0  0  0  0
  1  2  1  0  0  0
  1 38  1  0  0  0
  1 39  1  0  0  0
  1 40  1  0  0  0
  2  3  1  0  0  0
  2 41  1  0  0  0
  2 42  1  0  0  0
  3  4  1  0  0  0
  4  5  2  0  0  0
  4  6  1  0  0  0
  6 10  2  0  0  0
  6  7  1  0  0  0
  7 37  1  0  0  0
  7  8  2  0  0  0
  8  9  1  0  0  0
  8 34  1  0  0  0
  9 10  1  0  0  0
 10 11  1  0  0  0
 11 17  1  0  0  0
 11 12  1  0  0  0
 12 31  1  0  0  0
 12 13  2  0  0  0
 13 14  1  0  0  0
 13 27  1  0  0  0
 14 15  1  0  0  0
 14 16  1  0  0  0
 14 21  1  0  0  0
 16 17  2  0  0  0
 16 19  1  0  0  0
 17 18  1  0  0  0
 18 43  1  0  0  0
 18 44  1  0  0  0
 19 20  3  0  0  0
 21 26  2  0  0  0
 21 22  1  0  0  0
 22 23  2  0  0  0
 22 45  1  0  0  0
 23 24  1  0  0  0
 23 46  1  0  0  0
 24 25  2  0  0  0
 24 47  1  0  0  0
 25 26  1  0  0  0
 25 48  1  0  0  0
 26 49  1  0  0  0
 27 28  2  0  0  0
 27 29  1  0  0  0
 29 30  1  0  0  0
 29 50  1  0  0  0
 29 51  1  0  0  0
 30 31  1  0  0  0
 30 32  1  0  0  0
 30 33  1  0  0  0
 31 52  1  0  0  0
 31 53  1  0  0  0
 32 54  1  0  0  0
 32 55  1  0  0  0
 32 56  1  0  0  0
 33 57  1  0  0  0
 33 58  1  0  0  0
 33 59  1  0  0  0
 34 35  1  0  0  0
 34 60  1  0  0  0
 34 61  1  0  0  0
 35 36  1  0  0  0
 35 62  1  0  0  0
 35 63  1  0  0  0
 36 37  1  0  0  0
 36 64  1  0  0  0
 36 65  1  0  0  0
 37 66  1  0  0  0
 37 67  1  0  0  0
M  END
> <i_i_glide_confnum>
71

> <i_i_glide_lignum>
4122

> <i_i_glide_posenum>
30

> <i_i_glide_rotatable_bonds>
6

> <i_m_Source_File_Index>
4214

> <b_m_subgroup_collapsed>
0

> <r_i_docking_score>
-3.11142

> <r_i_glide_ecoul>
-2.28259

> <r_i_glide_eff_state_penalty>
0

> <r_i_glide_einternal>
2.14846

> <r_i_glide_emodel>
-42.1038

> <r_i_glide_energy>
-35.6926

> <r_i_glide_erotb>
0.32471

> <r_i_glide_esite>
-0.184911

> <r_i_glide_evdw>
-33.41

> <r_i_glide_gscore>
-3.11142

> <r_i_glide_hbond>
-0.136837

> <r_i_glide_ligand_efficiency>
-0.0864284

> <r_i_glide_ligand_efficiency_ln>
-0.678828

> <r_i_glide_ligand_efficiency_sa>
-0.28538

> <r_i_glide_lipo>
-0.942053

> <r_i_glide_metal>
0

> <r_i_glide_rewards>
-0.159441

> <s_i_glide_gridfile>
wee1_glide-grid

> <s_m_Source_File>
wee1_decoys_glide_SP.sdf

> <s_m_Source_Path>
/Users/zhangxujun/Desktop

> <s_m_entry_id>
4489

> <s_m_entry_name>
wee1_decoys_glide_SP.4214

> <s_m_subgroup_title>
wee1_decoys_glide_SP

> <s_m_subgroupid>
wee1_decoys_glide_SP


$$$$
