ZINC61886369_4761
                    3D
 Schrodinger Suite 2024-2.
 35 36  0  0  1  0            999 V2000
    3.0837   53.9394   24.1822 C   0  0  0  0  0  0
    3.5447   54.0992   22.8787 C   0  0  0  0  0  0
    4.8914   54.3655   22.6489 C   0  0  0  0  0  0
    5.7798   54.4949   23.7137 C   0  0  0  0  0  0
    5.3210   54.3270   25.0181 C   0  0  0  0  0  0
    3.9738   54.0200   25.2674 C   0  0  0  0  0  0
    3.5307   53.6991   26.6800 C   0  0  0  0  0  0
    4.2221   54.0125   27.6511 O   0  0  0  0  0  0
    2.4043   52.9696   26.7942 N   0  0  0  0  0  0
    1.9325   52.2727   27.9963 C   0  0  2  0  0  0
    2.6664   51.4874   28.1913 H   0  0  0  0  0  0
    0.6058   51.5704   27.6884 C   0  0  0  0  0  0
   -0.4956   52.5513   28.0842 C   0  0  0  0  0  0
    0.2005   53.6978   28.8340 C   0  0  0  0  0  0
    1.6210   53.2083   29.1987 C   0  0  1  0  0  0
    2.2583   54.0923   29.1812 H   0  0  0  0  0  0
    1.8298   52.5471   30.5909 C   0  0  0  0  0  0
    2.9594   52.0967   30.9853 N   0  0  0  0  0  0
    4.0653   52.3000   30.1277 O   0  0  0  0  0  0
    0.7049   52.4958   31.3787 N   0  0  0  0  0  0
    5.5043   54.5955   20.8631 Br  0  0  0  0  0  0
    2.0349   53.7244   24.3251 H   0  0  0  0  0  0
    2.8583   54.0208   22.0461 H   0  0  0  0  0  0
    6.8220   54.7121   23.5281 H   0  0  0  0  0  0
    6.0286   54.3949   25.8342 H   0  0  0  0  0  0
    1.9494   52.7000   25.9370 H   0  0  0  0  0  0
    0.5278   51.1979   26.6654 H   0  0  0  0  0  0
    0.5158   50.6881   28.3200 H   0  0  0  0  0  0
   -1.0270   52.9215   27.2073 H   0  0  0  0  0  0
   -1.2321   52.0578   28.7203 H   0  0  0  0  0  0
   -0.3797   54.0748   29.6780 H   0  0  0  0  0  0
    0.2991   54.5629   28.1745 H   0  0  0  0  0  0
    3.7185   52.8358   29.4053 H   0  0  0  0  0  0
    0.7599   52.0982   32.3063 H   0  0  0  0  0  0
   -0.2147   52.6110   30.9806 H   0  0  0  0  0  0
  1  6  2  0  0  0
  1  2  1  0  0  0
  1 22  1  0  0  0
  2  3  2  0  0  0
  2 23  1  0  0  0
  3  4  1  0  0  0
  3 21  1  0  0  0
  4  5  2  0  0  0
  4 24  1  0  0  0
  5  6  1  0  0  0
  5 25  1  0  0  0
  6  7  1  0  0  0
  7  8  2  0  0  0
  7  9  1  0  0  0
  9 10  1  0  0  0
  9 26  1  0  0  0
 10 11  1  0  0  0
 10 15  1  0  0  0
 10 12  1  0  0  0
 12 13  1  0  0  0
 12 27  1  0  0  0
 12 28  1  0  0  0
 13 14  1  0  0  0
 13 29  1  0  0  0
 13 30  1  0  0  0
 14 15  1  0  0  0
 14 31  1  0  0  0
 14 32  1  0  0  0
 15 16  1  0  0  0
 15 17  1  0  0  0
 17 18  2  0  0  0
 17 20  1  0  0  0
 18 19  1  0  0  0
 19 33  1  0  0  0
 20 34  1  0  0  0
 20 35  1  0  0  0
M  END
> <i_i_glide_confnum>
164

> <i_i_glide_lignum>
4762

> <i_i_glide_posenum>
327

> <i_i_glide_rotatable_bonds>
5

> <i_m_Source_File_Index>
4064

> <b_m_subgroup_collapsed>
0

> <r_i_docking_score>
-5.14075

> <r_i_glide_ecoul>
-4.92311

> <r_i_glide_eff_state_penalty>
0

> <r_i_glide_einternal>
4.30956

> <r_i_glide_emodel>
-49.4453

> <r_i_glide_energy>
-38.7361

> <r_i_glide_erotb>
0.88118

> <r_i_glide_esite>
-0.131442

> <r_i_glide_evdw>
-33.813

> <r_i_glide_gscore>
-5.14075

> <r_i_glide_hbond>
0

> <r_i_glide_ligand_efficiency>
-0.270566

> <r_i_glide_ligand_efficiency_ln>
-1.30329

> <r_i_glide_ligand_efficiency_sa>
-0.721978

> <r_i_glide_lipo>
-1.99061

> <r_i_glide_metal>
0

> <r_i_glide_rewards>
-1.47076

> <s_i_glide_gridfile>
wee1_glide-grid

> <s_m_Source_File>
wee1_decoys_glide_SP.sdf

> <s_m_Source_Path>
/Users/zhangxujun/Desktop

> <s_m_entry_id>
4339

> <s_m_entry_name>
wee1_decoys_glide_SP.4064

> <s_m_subgroup_title>
wee1_decoys_glide_SP

> <s_m_subgroupid>
wee1_decoys_glide_SP


$$$$
