ZINC43218817_702
                    3D
 Schrodinger Suite 2024-2.
 61 65  0  0  1  0            999 V2000
    3.0593   57.1293   15.1935 C   0  0  0  0  0  0
    3.2167   57.6354   16.4801 C   0  0  0  0  0  0
    3.9045   56.8878   17.4319 C   0  0  0  0  0  0
    4.4382   55.6317   17.1150 C   0  0  0  0  0  0
    4.2848   55.1489   15.8066 C   0  0  0  0  0  0
    3.5925   55.8895   14.8518 C   0  0  0  0  0  0
    5.2499   54.8037   18.1443 C   0  0  2  0  0  0
    4.8511   53.2966   18.3065 C   0  0  1  0  0  0
    5.3439   52.6820   17.5468 H   0  0  0  0  0  0
    5.2554   52.8959   19.7029 C   0  0  1  0  0  0
    6.1455   52.2693   19.6475 H   0  0  0  0  0  0
    5.5044   54.1950   20.5233 C   0  0  1  0  0  0
    6.5688   54.4429   20.5339 H   0  0  0  0  0  0
    4.9793   55.2966   19.5895 N   0  3  0  0  0  0
    4.9977   54.3186   21.9703 C   0  0  0  0  0  0
    3.6346   54.4479   22.2556 C   0  0  0  0  0  0
    3.1801   54.4803   23.5716 C   0  0  0  0  0  0
    4.0902   54.3901   24.6222 C   0  0  0  0  0  0
    5.4641   54.2460   24.3668 C   0  0  0  0  0  0
    5.9009   54.2196   23.0386 C   0  0  0  0  0  0
    6.4320   54.0964   25.3440 O   0  0  0  0  0  0
    6.0716   54.1023   26.7263 C   0  0  0  0  0  0
    7.1671   53.8513   27.4337 F   0  0  0  0  0  0
    5.6298   55.2966   27.0904 F   0  0  0  0  0  0
    5.1741   53.1699   27.0404 F   0  0  0  0  0  0
    4.1159   52.0319   20.2195 C   0  0  0  0  0  0
    4.1674   51.3663   21.2572 O   0  0  0  0  0  0
    3.1022   52.1080   19.3254 N   0  0  0  0  0  0
    3.3619   52.9027   18.2522 C   0  0  0  0  0  0
    2.5878   53.1802   17.3366 O   0  0  0  0  0  0
    1.8352   51.3675   19.5239 C   0  0  0  0  0  0
    0.5806   52.2452   19.7689 C   0  0  0  0  0  0
   -0.7058   51.4293   19.9984 C   0  0  0  0  0  0
   -0.9379   50.3918   18.8893 C   0  0  0  0  0  0
    0.2760   49.4600   18.7354 C   0  0  0  0  0  0
    1.5801   50.2401   18.4878 C   0  0  0  0  0  0
    6.7665   55.1027   17.8461 C   0  0  0  0  0  0
    7.3237   54.3956   16.9774 O   0  0  0  0  0  0
    7.3529   56.0159   18.4825 O   0  5  0  0  0  0
    2.5296   57.7097   14.4528 H   0  0  0  0  0  0
    2.8165   58.6070   16.7382 H   0  0  0  0  0  0
    4.0261   57.2969   18.4201 H   0  0  0  0  0  0
    4.7039   54.1925   15.5288 H   0  0  0  0  0  0
    3.4752   55.5050   13.8488 H   0  0  0  0  0  0
    5.4446   56.1824   19.7387 H   0  0  0  0  0  0
    2.9168   54.4909   21.4556 H   0  0  0  0  0  0
    2.1230   54.5735   23.7766 H   0  0  0  0  0  0
    3.7011   54.4226   25.6276 H   0  0  0  0  0  0
    6.9572   54.0952   22.8480 H   0  0  0  0  0  0
    1.9432   50.8171   20.4610 H   0  0  0  0  0  0
    0.7481   52.8962   20.6275 H   0  0  0  0  0  0
    0.4206   52.8996   18.9112 H   0  0  0  0  0  0
   -0.6411   50.9199   20.9618 H   0  0  0  0  0  0
   -1.5650   52.0972   20.0646 H   0  0  0  0  0  0
   -1.8321   49.8056   19.1090 H   0  0  0  0  0  0
   -1.1306   50.9004   17.9419 H   0  0  0  0  0  0
    0.3858   48.8534   19.6356 H   0  0  0  0  0  0
    0.1033   48.7579   17.9188 H   0  0  0  0  0  0
    1.5340   50.6700   17.4867 H   0  0  0  0  0  0
    2.4219   49.5452   18.4836 H   0  0  0  0  0  0
    3.9856   55.4175   19.7120 H   0  0  0  0  0  0
  1  6  2  0  0  0
  1  2  1  0  0  0
  1 40  1  0  0  0
  2  3  2  0  0  0
  2 41  1  0  0  0
  3  4  1  0  0  0
  3 42  1  0  0  0
  4  5  2  0  0  0
  4  7  1  0  0  0
  5  6  1  0  0  0
  5 43  1  0  0  0
  6 44  1  0  0  0
  7 14  1  0  0  0
  7  8  1  0  0  0
  7 37  1  0  0  0
  8  9  1  0  0  0
  8 29  1  0  0  0
  8 10  1  0  0  0
 10 11  1  0  0  0
 10 12  1  0  0  0
 10 26  1  0  0  0
 12 13  1  0  0  0
 12 14  1  0  0  0
 12 15  1  0  0  0
 14 45  1  0  0  0
 14 61  1  0  0  0
 15 20  2  0  0  0
 15 16  1  0  0  0
 16 17  2  0  0  0
 16 46  1  0  0  0
 17 18  1  0  0  0
 17 47  1  0  0  0
 18 19  2  0  0  0
 18 48  1  0  0  0
 19 20  1  0  0  0
 19 21  1  0  0  0
 20 49  1  0  0  0
 21 22  1  0  0  0
 22 23  1  0  0  0
 22 24  1  0  0  0
 22 25  1  0  0  0
 26 27  2  0  0  0
 26 28  1  0  0  0
 28 29  1  0  0  0
 28 31  1  0  0  0
 29 30  2  0  0  0
 31 36  1  0  0  0
 31 32  1  0  0  0
 31 50  1  0  0  0
 32 33  1  0  0  0
 32 51  1  0  0  0
 32 52  1  0  0  0
 33 34  1  0  0  0
 33 53  1  0  0  0
 33 54  1  0  0  0
 34 35  1  0  0  0
 34 55  1  0  0  0
 34 56  1  0  0  0
 35 36  1  0  0  0
 35 57  1  0  0  0
 35 58  1  0  0  0
 36 59  1  0  0  0
 36 60  1  0  0  0
 37 38  2  0  0  0
 37 39  1  0  0  0
M  CHG  2  14   1  39  -1
M  END
> <i_i_glide_confnum>
58

> <i_i_glide_lignum>
703

> <i_i_glide_posenum>
399

> <i_i_glide_rotatable_bonds>
6

> <i_m_Source_File_Index>
5483

> <b_m_subgroup_collapsed>
0

> <r_i_docking_score>
-3.99746

> <r_i_glide_ecoul>
-2.86235

> <r_i_glide_eff_state_penalty>
0

> <r_i_glide_einternal>
8.49433

> <r_i_glide_emodel>
-38.7167

> <r_i_glide_energy>
-34.6175

> <r_i_glide_erotb>
0.323714

> <r_i_glide_esite>
-0.164262

> <r_i_glide_evdw>
-31.7552

> <r_i_glide_gscore>
-3.99746

> <r_i_glide_hbond>
0

> <r_i_glide_ligand_efficiency>
-0.111041

> <r_i_glide_ligand_efficiency_ln>
-0.872138

> <r_i_glide_ligand_efficiency_sa>
-0.366648

> <r_i_glide_lipo>
-1.61293

> <r_i_glide_metal>
0

> <r_i_glide_rewards>
-0.526867

> <s_i_glide_gridfile>
wee1_glide-grid

> <s_m_Source_File>
wee1_decoys_glide_SP.sdf

> <s_m_Source_Path>
/Users/zhangxujun/Desktop

> <s_m_entry_id>
5758

> <s_m_entry_name>
wee1_decoys_glide_SP.5483

> <s_m_subgroup_title>
wee1_decoys_glide_SP

> <s_m_subgroupid>
wee1_decoys_glide_SP


$$$$
