ZINC36630030_5602
                    3D
 Schrodinger Suite 2024-2.
 52 55  0  0  1  0            999 V2000
    5.8696   58.9236   15.6844 C   0  0  0  0  0  0
    6.2403   57.4664   15.9827 C   0  0  0  0  0  0
    5.0574   56.4933   15.7883 C   0  0  2  0  0  0
    4.5417   56.7913   14.8732 H   0  0  0  0  0  0
    3.9834   56.5185   16.9020 C   0  0  0  0  0  0
    2.8141   55.5748   16.5239 C   0  0  0  0  0  0
    3.2754   54.1651   16.0735 C   0  0  0  0  0  0
    4.4524   54.2194   15.0718 C   0  0  0  0  0  0
    5.5491   55.0965   15.5612 N   0  0  0  0  0  0
    6.8107   54.3412   16.5978 S   0  0  0  0  0  0
    8.0032   55.1959   16.5701 O   0  0  0  0  0  0
    6.9305   52.9340   16.1992 O   0  0  0  0  0  0
    6.2401   54.3413   18.2997 C   0  0  0  0  0  0
    5.4380   53.2967   18.7532 C   0  0  0  0  0  0
    5.0343   53.2491   20.0820 C   0  0  0  0  0  0
    5.4538   54.2356   20.9807 C   0  0  0  0  0  0
    6.2484   55.2969   20.5160 C   0  0  0  0  0  0
    6.6443   55.3452   19.1819 C   0  0  0  0  0  0
    5.0558   54.1328   22.4306 C   0  0  0  0  0  0
    3.9465   53.6962   22.7425 O   0  0  0  0  0  0
    6.0077   54.5284   23.3019 N   0  0  0  0  0  0
    5.8741   54.6046   24.6726 C   0  0  0  0  0  0
    6.7043   55.1638   25.5125 N   0  0  0  0  0  0
    6.2045   54.8961   26.7822 N   0  0  0  0  0  0
    5.0926   54.2231   26.5990 C   0  0  0  0  0  0
    4.8271   54.0022   25.2886 O   0  0  0  0  0  0
    4.2297   53.6305   27.6032 C   0  0  0  0  0  0
    4.6863   53.2889   28.8818 C   0  0  0  0  0  0
    3.7241   52.6847   29.6781 C   0  0  0  0  0  0
    2.2066   52.5502   28.8565 S   0  0  0  0  0  0
    2.8828   53.2964   27.4415 C   0  0  0  0  0  0
    1.8896   53.5199   26.0545 Cl  0  0  0  0  0  0
    3.9039   52.0965   31.2825 Cl  0  0  0  0  0  0
    6.7284   59.5813   15.8251 H   0  0  0  0  0  0
    5.5231   59.0507   14.6581 H   0  0  0  0  0  0
    5.0831   59.2836   16.3487 H   0  0  0  0  0  0
    6.6223   57.4048   17.0011 H   0  0  0  0  0  0
    7.0620   57.1994   15.3162 H   0  0  0  0  0  0
    3.5868   57.5265   17.0308 H   0  0  0  0  0  0
    4.3911   56.2018   17.8589 H   0  0  0  0  0  0
    2.2488   56.0313   15.7099 H   0  0  0  0  0  0
    2.1148   55.4895   17.3555 H   0  0  0  0  0  0
    2.4378   53.6323   15.6216 H   0  0  0  0  0  0
    3.5488   53.5713   16.9411 H   0  0  0  0  0  0
    4.0786   54.6527   14.1428 H   0  0  0  0  0  0
    4.8487   53.2376   14.8116 H   0  0  0  0  0  0
    5.1471   52.4968   18.0844 H   0  0  0  0  0  0
    4.4200   52.4205   20.4088 H   0  0  0  0  0  0
    6.5731   56.0852   21.1796 H   0  0  0  0  0  0
    7.2786   56.1509   18.8424 H   0  0  0  0  0  0
    6.8905   54.8398   22.9279 H   0  0  0  0  0  0
    5.7009   53.4613   29.2082 H   0  0  0  0  0  0
  1  2  1  0  0  0
  1 34  1  0  0  0
  1 35  1  0  0  0
  1 36  1  0  0  0
  2  3  1  0  0  0
  2 37  1  0  0  0
  2 38  1  0  0  0
  3  4  1  0  0  0
  3  9  1  0  0  0
  3  5  1  0  0  0
  5  6  1  0  0  0
  5 39  1  0  0  0
  5 40  1  0  0  0
  6  7  1  0  0  0
  6 41  1  0  0  0
  6 42  1  0  0  0
  7  8  1  0  0  0
  7 43  1  0  0  0
  7 44  1  0  0  0
  8  9  1  0  0  0
  8 45  1  0  0  0
  8 46  1  0  0  0
  9 10  1  0  0  0
 10 11  2  0  0  0
 10 12  2  0  0  0
 10 13  1  0  0  0
 13 18  2  0  0  0
 13 14  1  0  0  0
 14 15  2  0  0  0
 14 47  1  0  0  0
 15 16  1  0  0  0
 15 48  1  0  0  0
 16 17  2  0  0  0
 16 19  1  0  0  0
 17 18  1  0  0  0
 17 49  1  0  0  0
 18 50  1  0  0  0
 19 20  2  0  0  0
 19 21  1  0  0  0
 21 22  1  0  0  0
 21 51  1  0  0  0
 22 26  1  0  0  0
 22 23  2  0  0  0
 23 24  1  0  0  0
 24 25  2  0  0  0
 25 26  1  0  0  0
 25 27  1  0  0  0
 27 31  2  0  0  0
 27 28  1  0  0  0
 28 29  2  0  0  0
 28 52  1  0  0  0
 29 30  1  0  0  0
 29 33  1  0  0  0
 30 31  1  0  0  0
 31 32  1  0  0  0
M  END
> <i_i_glide_confnum>
16

> <i_i_glide_lignum>
5603

> <i_i_glide_posenum>
358

> <i_i_glide_rotatable_bonds>
7

> <i_m_Source_File_Index>
3500

> <b_m_subgroup_collapsed>
0

> <r_i_docking_score>
-4.61263

> <r_i_glide_ecoul>
-1.3991

> <r_i_glide_eff_state_penalty>
0

> <r_i_glide_einternal>
0.74006

> <r_i_glide_emodel>
-61.9733

> <r_i_glide_energy>
-48.0914

> <r_i_glide_erotb>
0.463406

> <r_i_glide_esite>
-0.0218901

> <r_i_glide_evdw>
-46.6923

> <r_i_glide_gscore>
-4.61263

> <r_i_glide_hbond>
0

> <r_i_glide_ligand_efficiency>
-0.144145

> <r_i_glide_ligand_efficiency_ln>
-1.03289

> <r_i_glide_ligand_efficiency_sa>
-0.457631

> <r_i_glide_lipo>
-2.34892

> <r_i_glide_metal>
0

> <r_i_glide_rewards>
-0.16075

> <s_i_glide_gridfile>
wee1_glide-grid

> <s_m_Source_File>
wee1_decoys_glide_SP.sdf

> <s_m_Source_Path>
/Users/zhangxujun/Desktop

> <s_m_entry_id>
3775

> <s_m_entry_name>
wee1_decoys_glide_SP.3500

> <s_m_subgroup_title>
wee1_decoys_glide_SP

> <s_m_subgroupid>
wee1_decoys_glide_SP


$$$$
