ZINC35703566_4632
                    3D
 Schrodinger Suite 2024-2.
 58 61  0  0  1  0            999 V2000
    0.4938   51.2679   19.2206 C   0  0  0  0  0  0
    1.9962   51.5743   19.1103 C   0  0  0  0  0  0
    2.4682   52.2645   20.2631 O   0  0  0  0  0  0
    2.7858   51.6104   21.4025 C   0  0  0  0  0  0
    2.6557   50.3964   21.5728 O   0  0  0  0  0  0
    3.2352   52.4990   22.4812 C   0  0  0  0  0  0
    4.2287   53.4361   22.3242 C   0  0  0  0  0  0
    4.6834   54.1910   23.3754 N   0  0  0  0  0  0
    4.1460   54.0854   24.5277 C   0  0  0  0  0  0
    3.0770   53.2657   24.8890 N   0  0  0  0  0  0
    2.5289   52.3007   23.8663 C   0  0  1  0  0  0
    2.7044   51.2968   24.2239 H   0  0  0  0  0  0
    1.0091   52.2778   23.7960 C   0  0  0  0  0  0
    0.3310   51.0495   23.8530 C   0  0  0  0  0  0
   -1.0582   51.0060   23.8034 C   0  0  0  0  0  0
   -1.7773   52.1924   23.7244 C   0  0  0  0  0  0
   -1.0992   53.4062   23.6832 C   0  0  0  0  0  0
    0.3036   53.4724   23.6816 C   0  0  0  0  0  0
    1.1042   54.7740   23.4338 C   0  0  0  0  0  0
    2.7284   53.3010   26.2407 C   0  0  0  0  0  0
    3.5116   54.1444   26.9352 C   0  0  0  0  0  0
    4.7721   54.8969   25.9674 S   0  0  0  0  0  0
    1.6957   52.4844   26.8716 C   0  0  0  0  0  0
    0.9940   52.7044   27.9987 C   0  0  0  0  0  0
    0.9635   53.7222   28.7849 O   0  5  0  0  0  0
    0.1831   51.6904   28.4676 N   0  0  0  0  0  0
   -1.0338   51.7010   29.2765 C   0  0  0  0  0  0
   -2.2977   51.2967   28.5114 C   0  0  0  0  0  0
   -2.3998   51.3367   27.1140 C   0  0  0  0  0  0
   -3.6022   50.9806   26.4980 C   0  0  0  0  0  0
   -4.6787   50.6015   27.2996 C   0  0  0  0  0  0
   -4.6075   50.5545   28.6526 N   0  0  0  0  0  0
   -3.4272   50.8902   29.2316 C   0  0  0  0  0  0
    4.9744   53.7763   21.0078 C   0  0  0  0  0  0
    5.3267   52.6630   20.3634 F   0  0  0  0  0  0
    4.1880   54.4965   20.2121 F   0  0  0  0  0  0
    6.0824   54.4971   21.2147 F   0  0  0  0  0  0
    0.1274   50.7969   18.3084 H   0  0  0  0  0  0
   -0.0802   52.1812   19.3804 H   0  0  0  0  0  0
    0.2868   50.5921   20.0508 H   0  0  0  0  0  0
    2.5730   50.6630   18.9364 H   0  0  0  0  0  0
    2.1689   52.2161   18.2458 H   0  0  0  0  0  0
    0.8800   50.1214   23.9297 H   0  0  0  0  0  0
   -1.5737   50.0579   23.8463 H   0  0  0  0  0  0
   -2.8565   52.1772   23.6986 H   0  0  0  0  0  0
   -1.6795   54.3154   23.6507 H   0  0  0  0  0  0
    0.7044   55.6023   22.8814 H   0  0  0  0  0  0
    1.5052   55.1617   24.3606 H   0  0  0  0  0  0
    1.9324   54.5864   22.7678 H   0  0  0  0  0  0
    3.4519   54.3354   27.9965 H   0  0  0  0  0  0
    1.5037   51.5399   26.3901 H   0  0  0  0  0  0
    0.3170   50.7847   28.0447 H   0  0  0  0  0  0
   -0.8942   51.0024   30.1028 H   0  0  0  0  0  0
   -1.1807   52.6793   29.7317 H   0  0  0  0  0  0
   -1.5583   51.6436   26.5112 H   0  0  0  0  0  0
   -3.7013   50.9918   25.4248 H   0  0  0  0  0  0
   -5.6229   50.3188   26.8581 H   0  0  0  0  0  0
   -3.3889   50.8031   30.3083 H   0  0  0  0  0  0
  1  2  1  0  0  0
  1 38  1  0  0  0
  1 39  1  0  0  0
  1 40  1  0  0  0
  2  3  1  0  0  0
  2 41  1  0  0  0
  2 42  1  0  0  0
  3  4  1  0  0  0
  4  5  2  0  0  0
  4  6  1  0  0  0
  6 11  1  0  0  0
  6  7  2  0  0  0
  7  8  1  0  0  0
  7 34  1  0  0  0
  8  9  2  0  0  0
  9 22  1  0  0  0
  9 10  1  0  0  0
 10 11  1  0  0  0
 10 20  1  0  0  0
 11 12  1  0  0  0
 11 13  1  0  0  0
 13 18  2  0  0  0
 13 14  1  0  0  0
 14 15  2  0  0  0
 14 43  1  0  0  0
 15 16  1  0  0  0
 15 44  1  0  0  0
 16 17  2  0  0  0
 16 45  1  0  0  0
 17 18  1  0  0  0
 17 46  1  0  0  0
 18 19  1  0  0  0
 19 47  1  0  0  0
 19 48  1  0  0  0
 19 49  1  0  0  0
 20 21  2  0  0  0
 20 23  1  0  0  0
 21 22  1  0  0  0
 21 50  1  0  0  0
 23 24  2  0  0  0
 23 51  1  0  0  0
 24 25  1  0  0  0
 24 26  1  0  0  0
 26 27  1  0  0  0
 26 52  1  0  0  0
 27 28  1  0  0  0
 27 53  1  0  0  0
 27 54  1  0  0  0
 28 33  2  0  0  0
 28 29  1  0  0  0
 29 30  2  0  0  0
 29 55  1  0  0  0
 30 31  1  0  0  0
 30 56  1  0  0  0
 31 32  2  0  0  0
 31 57  1  0  0  0
 32 33  1  0  0  0
 33 58  1  0  0  0
 34 35  1  0  0  0
 34 36  1  0  0  0
 34 37  1  0  0  0
M  CHG  1  25  -1
M  END
> <i_i_glide_confnum>
52

> <i_i_glide_lignum>
4633

> <i_i_glide_posenum>
349

> <i_i_glide_rotatable_bonds>
9

> <i_m_Source_File_Index>
3945

> <b_m_subgroup_collapsed>
0

> <r_i_docking_score>
-2.9472

> <r_i_glide_ecoul>
0.149248

> <r_i_glide_eff_state_penalty>
0

> <r_i_glide_einternal>
2.98766

> <r_i_glide_emodel>
-25.5357

> <r_i_glide_energy>
-18.5409

> <r_i_glide_erotb>
0.463251

> <r_i_glide_esite>
-0.0688577

> <r_i_glide_evdw>
-18.6902

> <r_i_glide_gscore>
-2.9472

> <r_i_glide_hbond>
0

> <r_i_glide_ligand_efficiency>
-0.0818668

> <r_i_glide_ligand_efficiency_ln>
-0.643

> <r_i_glide_ligand_efficiency_sa>
-0.270318

> <r_i_glide_lipo>
-1.67963

> <r_i_glide_metal>
0

> <r_i_glide_rewards>
-0.749844

> <s_i_glide_gridfile>
wee1_glide-grid

> <s_m_Source_File>
wee1_decoys_glide_SP.sdf

> <s_m_Source_Path>
/Users/zhangxujun/Desktop

> <s_m_entry_id>
4220

> <s_m_entry_name>
wee1_decoys_glide_SP.3945

> <s_m_subgroup_title>
wee1_decoys_glide_SP

> <s_m_subgroupid>
wee1_decoys_glide_SP


$$$$
