ZINC10042285_3153
                    3D
 Schrodinger Suite 2024-2.
 60 63  0  0  1  0            999 V2000
    3.6142   54.0232   14.4344 C   0  0  0  0  0  0
    2.6046   53.4356   15.4150 C   0  0  0  0  0  0
    1.2648   53.3938   15.0184 C   0  0  0  0  0  0
    0.3016   52.7982   15.8270 C   0  0  0  0  0  0
    0.6707   52.2216   17.0380 C   0  0  0  0  0  0
    2.0020   52.2500   17.4616 C   0  0  0  0  0  0
    2.9768   52.8821   16.6630 C   0  0  0  0  0  0
    4.3030   52.8968   17.1368 N   0  0  0  0  0  0
    5.0559   53.9956   17.3430 C   0  0  0  0  0  0
    4.6788   55.1455   17.1108 O   0  0  0  0  0  0
    6.4435   53.7402   17.9431 C   0  0  0  0  0  0
    7.1577   55.1374   18.8879 S   0  0  0  0  0  0
    6.4411   54.8967   20.4858 C   0  0  0  0  0  0
    7.0341   55.2968   21.5779 N   0  0  0  0  0  0
    6.3195   54.9821   22.6901 C   0  0  0  0  0  0
    6.6939   55.2964   24.0041 C   0  0  0  0  0  0
    5.8082   54.9916   25.0394 C   0  0  0  0  0  0
    4.5652   54.3967   24.7950 C   0  0  0  0  0  0
    4.1884   54.0581   23.4846 C   0  0  0  0  0  0
    5.0775   54.3503   22.4461 C   0  0  0  0  0  0
    4.8954   54.0968   20.7257 S   0  0  0  0  0  0
    3.7475   54.1924   25.9223 N   0  0  0  0  0  0
    2.5617   53.5528   26.0272 C   0  0  0  0  0  0
    1.9593   52.9945   25.1102 O   0  0  0  0  0  0
    2.0113   53.5047   27.4256 C   0  0  0  0  0  0
    1.4967   52.3060   27.9262 C   0  0  0  0  0  0
    1.0465   52.2300   29.2399 C   0  0  0  0  0  0
    1.0780   53.3587   30.0719 C   0  0  0  0  0  0
    1.5155   54.5827   29.5586 C   0  0  0  0  0  0
    2.0012   54.6438   28.2425 C   0  0  0  0  0  0
    1.4596   55.6630   30.4169 O   0  0  0  0  0  0
    1.9044   56.9271   29.9692 C   0  0  0  0  0  0
    0.7097   53.3417   31.4010 O   0  0  0  0  0  0
    0.7044   52.0978   32.0780 C   0  0  0  0  0  0
    2.3561   51.5960   18.7932 C   0  0  0  0  0  0
    4.5731   53.5085   14.4982 H   0  0  0  0  0  0
    3.2783   53.9044   13.4038 H   0  0  0  0  0  0
    3.7685   55.0848   14.6274 H   0  0  0  0  0  0
    0.9667   53.8138   14.0687 H   0  0  0  0  0  0
   -0.7291   52.7691   15.5059 H   0  0  0  0  0  0
   -0.0845   51.7476   17.6476 H   0  0  0  0  0  0
    4.6542   52.0030   17.4771 H   0  0  0  0  0  0
    6.4469   52.8368   18.5543 H   0  0  0  0  0  0
    7.1128   53.5430   17.1065 H   0  0  0  0  0  0
    7.6206   55.8067   24.2045 H   0  0  0  0  0  0
    6.0891   55.2519   26.0505 H   0  0  0  0  0  0
    3.2381   53.6061   23.2486 H   0  0  0  0  0  0
    4.1240   54.5364   26.7914 H   0  0  0  0  0  0
    1.4669   51.4175   27.3097 H   0  0  0  0  0  0
    0.6690   51.2858   29.5957 H   0  0  0  0  0  0
    2.3632   55.5794   27.8444 H   0  0  0  0  0  0
    1.8106   57.6433   30.7854 H   0  0  0  0  0  0
    2.9543   56.8967   29.6795 H   0  0  0  0  0  0
    1.3114   57.2937   29.1304 H   0  0  0  0  0  0
    0.5314   52.2706   33.1391 H   0  0  0  0  0  0
   -0.0955   51.4709   31.6817 H   0  0  0  0  0  0
    1.6610   51.5822   31.9852 H   0  0  0  0  0  0
    3.1021   50.8146   18.6397 H   0  0  0  0  0  0
    2.7851   52.3332   19.4720 H   0  0  0  0  0  0
    1.4919   51.1464   19.2820 H   0  0  0  0  0  0
  1  2  1  0  0  0
  1 36  1  0  0  0
  1 37  1  0  0  0
  1 38  1  0  0  0
  2  7  2  0  0  0
  2  3  1  0  0  0
  3  4  2  0  0  0
  3 39  1  0  0  0
  4  5  1  0  0  0
  4 40  1  0  0  0
  5  6  2  0  0  0
  5 41  1  0  0  0
  6  7  1  0  0  0
  6 35  1  0  0  0
  7  8  1  0  0  0
  8  9  1  0  0  0
  8 42  1  0  0  0
  9 10  2  0  0  0
  9 11  1  0  0  0
 11 12  1  0  0  0
 11 43  1  0  0  0
 11 44  1  0  0  0
 12 13  1  0  0  0
 13 21  1  0  0  0
 13 14  2  0  0  0
 14 15  1  0  0  0
 15 20  2  0  0  0
 15 16  1  0  0  0
 16 17  2  0  0  0
 16 45  1  0  0  0
 17 18  1  0  0  0
 17 46  1  0  0  0
 18 19  2  0  0  0
 18 22  1  0  0  0
 19 20  1  0  0  0
 19 47  1  0  0  0
 20 21  1  0  0  0
 22 23  1  0  0  0
 22 48  1  0  0  0
 23 24  2  0  0  0
 23 25  1  0  0  0
 25 30  2  0  0  0
 25 26  1  0  0  0
 26 27  2  0  0  0
 26 49  1  0  0  0
 27 28  1  0  0  0
 27 50  1  0  0  0
 28 29  2  0  0  0
 28 33  1  0  0  0
 29 30  1  0  0  0
 29 31  1  0  0  0
 30 51  1  0  0  0
 31 32  1  0  0  0
 32 52  1  0  0  0
 32 53  1  0  0  0
 32 54  1  0  0  0
 33 34  1  0  0  0
 34 55  1  0  0  0
 34 56  1  0  0  0
 34 57  1  0  0  0
 35 58  1  0  0  0
 35 59  1  0  0  0
 35 60  1  0  0  0
M  END
> <i_i_glide_confnum>
254

> <i_i_glide_lignum>
3154

> <i_i_glide_posenum>
24

> <i_i_glide_rotatable_bonds>
10

> <i_m_Source_File_Index>
5560

> <b_m_subgroup_collapsed>
0

> <r_i_docking_score>
-6.0933

> <r_i_glide_ecoul>
-3.84158

> <r_i_glide_eff_state_penalty>
0

> <r_i_glide_einternal>
5.57295

> <r_i_glide_emodel>
-67.7374

> <r_i_glide_energy>
-50.0857

> <r_i_glide_erotb>
0.635441

> <r_i_glide_esite>
-0.0944806

> <r_i_glide_evdw>
-46.2441

> <r_i_glide_gscore>
-6.0933

> <r_i_glide_hbond>
-0.171301

> <r_i_glide_ligand_efficiency>
-0.174094

> <r_i_glide_ligand_efficiency_ln>
-1.33762

> <r_i_glide_ligand_efficiency_sa>
-0.569474

> <r_i_glide_lipo>
-3.25558

> <r_i_glide_metal>
0

> <r_i_glide_rewards>
-0.318937

> <s_i_glide_gridfile>
wee1_glide-grid

> <s_m_Source_File>
wee1_decoys_glide_SP.sdf

> <s_m_Source_Path>
/Users/zhangxujun/Desktop

> <s_m_entry_id>
5835

> <s_m_entry_name>
wee1_decoys_glide_SP.5560

> <s_m_subgroup_title>
wee1_decoys_glide_SP

> <s_m_subgroupid>
wee1_decoys_glide_SP


$$$$
