ZINC39227318_1143
                    3D
 Schrodinger Suite 2024-2.
 71 75  0  0  1  0            999 V2000
    9.8035   53.0525   15.0765 C   0  0  0  0  0  0
    9.6705   54.1368   16.1284 C   0  0  0  0  0  0
   10.5860   55.1931   16.1735 C   0  0  0  0  0  0
   10.4676   56.1879   17.1465 C   0  0  0  0  0  0
    9.4349   56.1196   18.0858 C   0  0  0  0  0  0
    8.5245   55.0518   18.0614 C   0  0  0  0  0  0
    8.6440   54.0725   17.0724 C   0  0  0  0  0  0
    7.4643   54.8911   18.9675 N   0  0  0  0  0  0
    7.3459   55.3699   20.2233 C   0  0  0  0  0  0
    8.1730   56.0938   20.7693 O   0  0  0  0  0  0
    6.1391   54.8968   20.9999 C   0  0  0  0  0  0
    4.9946   54.4142   20.3556 C   0  0  0  0  0  0
    3.9069   53.9617   21.0931 C   0  0  0  0  0  0
    3.9053   53.9857   22.4981 C   0  0  0  0  0  0
    5.0750   54.4411   23.1310 C   0  0  0  0  0  0
    6.1714   54.8954   22.3974 C   0  0  0  0  0  0
    2.6888   53.5481   23.2803 C   0  0  0  0  0  0
    1.4834   53.2264   22.6280 C   0  0  0  0  0  0
    0.3575   52.8057   23.3258 C   0  0  0  0  0  0
    0.3997   52.7104   24.7073 C   0  0  0  0  0  0
    1.5623   53.0508   25.4147 C   0  0  0  0  0  0
    2.6966   53.4417   24.6864 C   0  0  0  0  0  0
    1.6010   52.8583   26.8927 C   0  0  0  0  0  0
    2.6408   52.9219   27.5476 O   0  0  0  0  0  0
    0.2304   52.5592   27.5015 C   0  0  0  0  0  0
   -0.5705   51.6009   26.5795 C   0  0  1  0  0  0
   -0.7617   52.2754   25.3236 O   0  0  0  0  0  0
    0.0665   50.2024   26.3359 C   0  0  0  0  0  0
   -0.7823   49.3072   25.4197 C   0  0  0  0  0  0
   -2.1746   49.1495   26.0807 N   0  3  1  0  0  0
   -2.8830   50.5093   26.2661 C   0  0  0  0  0  0
   -1.9831   51.3802   27.1576 C   0  0  0  0  0  0
   -3.0817   48.0895   25.4024 C   0  0  0  0  0  0
   -3.2756   48.3675   23.8951 C   0  0  0  0  0  0
   -2.5355   46.6817   25.7046 C   0  0  0  0  0  0
   11.4671   57.3278   17.2098 C   0  0  0  0  0  0
   10.8498   52.8868   14.8143 H   0  0  0  0  0  0
    9.4205   52.1005   15.4481 H   0  0  0  0  0  0
    9.2535   53.3254   14.1750 H   0  0  0  0  0  0
   11.3891   55.2417   15.4478 H   0  0  0  0  0  0
    9.3605   56.9006   18.8283 H   0  0  0  0  0  0
    7.9484   53.2436   17.0387 H   0  0  0  0  0  0
    6.7546   54.2434   18.6684 H   0  0  0  0  0  0
    4.9184   54.3853   19.2775 H   0  0  0  0  0  0
    3.0676   53.6035   20.5198 H   0  0  0  0  0  0
    5.1629   54.4825   24.2033 H   0  0  0  0  0  0
    7.0486   55.2432   22.9291 H   0  0  0  0  0  0
    1.3767   53.2962   21.5590 H   0  0  0  0  0  0
   -0.5474   52.5466   22.7949 H   0  0  0  0  0  0
    3.5985   53.6497   25.2399 H   0  0  0  0  0  0
   -0.3127   53.4997   27.5525 H   0  0  0  0  0  0
    0.3507   52.1069   28.4848 H   0  0  0  0  0  0
    0.2185   49.6974   27.2817 H   0  0  0  0  0  0
    1.0587   50.2882   25.8978 H   0  0  0  0  0  0
   -0.3210   48.3224   25.3764 H   0  0  0  0  0  0
   -0.9083   49.7185   24.4185 H   0  0  0  0  0  0
   -3.0746   50.9436   25.2825 H   0  0  0  0  0  0
   -3.8227   50.3106   26.7844 H   0  0  0  0  0  0
   -2.4660   52.3466   27.2824 H   0  0  0  0  0  0
   -1.9186   50.9423   28.1551 H   0  0  0  0  0  0
   -4.0358   48.1896   25.9226 H   0  0  0  0  0  0
   -3.9799   47.6574   23.4573 H   0  0  0  0  0  0
   -2.3429   48.2768   23.3368 H   0  0  0  0  0  0
   -3.6786   49.3643   23.7159 H   0  0  0  0  0  0
   -3.2341   45.9172   25.3618 H   0  0  0  0  0  0
   -1.5759   46.4921   25.2205 H   0  0  0  0  0  0
   -2.3953   46.5316   26.7794 H   0  0  0  0  0  0
   12.4078   57.0633   16.7252 H   0  0  0  0  0  0
   11.0589   58.2228   16.7399 H   0  0  0  0  0  0
   11.7045   57.5634   18.2480 H   0  0  0  0  0  0
   -1.9922   48.7856   27.0318 H   0  0  0  0  0  0
  1  2  1  0  0  0
  1 37  1  0  0  0
  1 38  1  0  0  0
  1 39  1  0  0  0
  2  7  2  0  0  0
  2  3  1  0  0  0
  3  4  2  0  0  0
  3 40  1  0  0  0
  4  5  1  0  0  0
  4 36  1  0  0  0
  5  6  2  0  0  0
  5 41  1  0  0  0
  6  7  1  0  0  0
  6  8  1  0  0  0
  7 42  1  0  0  0
  8  9  1  0  0  0
  8 43  1  0  0  0
  9 10  2  0  0  0
  9 11  1  0  0  0
 11 16  2  0  0  0
 11 12  1  0  0  0
 12 13  2  0  0  0
 12 44  1  0  0  0
 13 14  1  0  0  0
 13 45  1  0  0  0
 14 15  2  0  0  0
 14 17  1  0  0  0
 15 16  1  0  0  0
 15 46  1  0  0  0
 16 47  1  0  0  0
 17 22  2  0  0  0
 17 18  1  0  0  0
 18 19  2  0  0  0
 18 48  1  0  0  0
 19 20  1  0  0  0
 19 49  1  0  0  0
 20 27  1  0  0  0
 20 21  2  0  0  0
 21 22  1  0  0  0
 21 23  1  0  0  0
 22 50  1  0  0  0
 23 24  2  0  0  0
 23 25  1  0  0  0
 25 26  1  0  0  0
 25 51  1  0  0  0
 25 52  1  0  0  0
 26 32  1  0  0  0
 26 27  1  0  0  0
 26 28  1  0  0  0
 28 29  1  0  0  0
 28 53  1  0  0  0
 28 54  1  0  0  0
 29 30  1  0  0  0
 29 55  1  0  0  0
 29 56  1  0  0  0
 30 31  1  0  0  0
 30 33  1  0  0  0
 30 71  1  0  0  0
 31 32  1  0  0  0
 31 57  1  0  0  0
 31 58  1  0  0  0
 32 59  1  0  0  0
 32 60  1  0  0  0
 33 34  1  0  0  0
 33 35  1  0  0  0
 33 61  1  0  0  0
 34 62  1  0  0  0
 34 63  1  0  0  0
 34 64  1  0  0  0
 35 65  1  0  0  0
 35 66  1  0  0  0
 35 67  1  0  0  0
 36 68  1  0  0  0
 36 69  1  0  0  0
 36 70  1  0  0  0
M  CHG  1  30   1
M  END
> <i_i_glide_confnum>
52

> <i_i_glide_lignum>
1144

> <i_i_glide_posenum>
316

> <i_i_glide_rotatable_bonds>
5

> <i_m_Source_File_Index>
4075

> <b_m_subgroup_collapsed>
0

> <r_i_docking_score>
-4.94638

> <r_i_glide_ecoul>
-5.39812

> <r_i_glide_eff_state_penalty>
0

> <r_i_glide_einternal>
5.9463

> <r_i_glide_emodel>
-51.8107

> <r_i_glide_energy>
-38.8118

> <r_i_glide_erotb>
0.347208

> <r_i_glide_esite>
-0.1

> <r_i_glide_evdw>
-33.4137

> <r_i_glide_gscore>
-4.94638

> <r_i_glide_hbond>
-0.241849

> <r_i_glide_ligand_efficiency>
-0.137399

> <r_i_glide_ligand_efficiency_ln>
-1.07917

> <r_i_glide_ligand_efficiency_sa>
-0.453683

> <r_i_glide_lipo>
-1.96868

> <r_i_glide_metal>
0

> <r_i_glide_rewards>
-0.502651

> <s_i_glide_gridfile>
wee1_glide-grid

> <s_m_Source_File>
wee1_decoys_glide_SP.sdf

> <s_m_Source_Path>
/Users/zhangxujun/Desktop

> <s_m_entry_id>
4350

> <s_m_entry_name>
wee1_decoys_glide_SP.4075

> <s_m_subgroup_title>
wee1_decoys_glide_SP

> <s_m_subgroupid>
wee1_decoys_glide_SP


$$$$
