ZINC00989129_915
                    3D
 Schrodinger Suite 2024-2.
 61 64  0  0  1  0            999 V2000
    0.8224   52.6481   28.6019 C   0  0  0  0  0  0
    1.6208   53.2988   27.4644 C   0  0  0  0  0  0
    3.1069   53.4795   27.8258 C   0  0  0  0  0  0
    1.4744   52.4648   26.3159 O   0  0  0  0  0  0
    1.6360   52.9230   25.0491 C   0  0  0  0  0  0
    1.9113   54.0966   24.7959 O   0  0  0  0  0  0
    1.4256   51.8872   24.0027 C   0  0  0  0  0  0
    2.0024   51.9568   22.7673 C   0  0  0  0  0  0
    1.8221   51.0376   21.7537 N   0  0  0  0  0  0
    2.4717   51.2803   20.5622 C   0  0  0  0  0  0
    2.3847   50.5827   19.5483 O   0  0  0  0  0  0
    3.2716   52.4800   20.6316 C   0  0  0  0  0  0
    3.9806   52.9239   19.5630 C   0  0  0  0  0  0
    4.8147   54.1446   19.4995 C   0  0  0  0  0  0
    5.6041   54.5606   20.5761 C   0  0  0  0  0  0
    6.3429   55.7378   20.4959 C   0  0  0  0  0  0
    6.3043   56.5218   19.3441 C   0  0  0  0  0  0
    5.5263   56.0975   18.2563 C   0  0  0  0  0  0
    4.7921   54.9154   18.3332 C   0  0  0  0  0  0
    7.0425   57.6905   19.3654 O   0  0  0  0  0  0
    6.9947   58.5558   18.2332 C   0  0  0  0  0  0
    3.1083   53.2205   22.2072 S   0  0  0  0  0  0
    0.9732   49.9462   22.0155 C   0  0  0  0  0  0
    0.3303   49.7523   23.1952 C   0  0  0  0  0  0
    0.4673   50.7234   24.3701 C   0  0  2  0  0  0
    0.9720   50.1662   25.1628 H   0  0  0  0  0  0
   -0.8834   51.1303   24.9786 C   0  0  0  0  0  0
   -1.3404   50.5040   26.1401 C   0  0  0  0  0  0
   -2.5547   50.8816   26.7070 C   0  0  0  0  0  0
   -3.3355   51.8818   26.1112 C   0  0  0  0  0  0
   -2.8778   52.4984   24.9467 C   0  0  0  0  0  0
   -1.6617   52.1247   24.3770 C   0  0  0  0  0  0
   -4.5534   52.3121   26.6048 O   0  0  0  0  0  0
   -5.1181   51.6316   27.7222 C   0  0  0  0  0  0
   -0.5258   48.6209   23.3955 C   0  0  0  0  0  0
   -1.2176   47.7013   23.5269 N   0  0  0  0  0  0
    0.7842   49.0202   21.0030 N   0  0  0  0  0  0
    0.8896   53.2348   29.5185 H   0  0  0  0  0  0
   -0.2331   52.5720   28.3392 H   0  0  0  0  0  0
    1.1797   51.6413   28.8198 H   0  0  0  0  0  0
    1.1780   54.2774   27.2682 H   0  0  0  0  0  0
    3.2208   54.0909   28.7213 H   0  0  0  0  0  0
    3.5932   52.5213   28.0080 H   0  0  0  0  0  0
    3.6505   53.9771   27.0235 H   0  0  0  0  0  0
    3.9662   52.3438   18.6469 H   0  0  0  0  0  0
    5.6583   53.9747   21.4813 H   0  0  0  0  0  0
    6.9439   56.0477   21.3380 H   0  0  0  0  0  0
    5.4699   56.6747   17.3463 H   0  0  0  0  0  0
    4.1899   54.6131   17.4866 H   0  0  0  0  0  0
    7.5986   59.4415   18.4280 H   0  0  0  0  0  0
    7.3998   58.0683   17.3441 H   0  0  0  0  0  0
    5.9772   58.8945   18.0259 H   0  0  0  0  0  0
   -0.7639   49.7201   26.6140 H   0  0  0  0  0  0
   -2.8678   50.3688   27.6058 H   0  0  0  0  0  0
   -3.4743   53.2679   24.4815 H   0  0  0  0  0  0
   -1.3233   52.6098   23.4728 H   0  0  0  0  0  0
   -6.0764   52.0856   27.9716 H   0  0  0  0  0  0
   -4.4814   51.6959   28.6065 H   0  0  0  0  0  0
   -5.2991   50.5795   27.4952 H   0  0  0  0  0  0
    0.1558   48.2368   21.1083 H   0  0  0  0  0  0
    1.2621   49.1397   20.1146 H   0  0  0  0  0  0
  1  2  1  0  0  0
  1 38  1  0  0  0
  1 39  1  0  0  0
  1 40  1  0  0  0
  2  3  1  0  0  0
  2  4  1  0  0  0
  2 41  1  0  0  0
  3 42  1  0  0  0
  3 43  1  0  0  0
  3 44  1  0  0  0
  4  5  1  0  0  0
  5  6  2  0  0  0
  5  7  1  0  0  0
  7 25  1  0  0  0
  7  8  2  0  0  0
  8 22  1  0  0  0
  8  9  1  0  0  0
  9 10  1  0  0  0
  9 23  1  0  0  0
 10 11  2  0  0  0
 10 12  1  0  0  0
 12 13  2  0  0  0
 12 22  1  0  0  0
 13 14  1  0  0  0
 13 45  1  0  0  0
 14 19  2  0  0  0
 14 15  1  0  0  0
 15 16  2  0  0  0
 15 46  1  0  0  0
 16 17  1  0  0  0
 16 47  1  0  0  0
 17 18  2  0  0  0
 17 20  1  0  0  0
 18 19  1  0  0  0
 18 48  1  0  0  0
 19 49  1  0  0  0
 20 21  1  0  0  0
 21 50  1  0  0  0
 21 51  1  0  0  0
 21 52  1  0  0  0
 23 24  2  0  0  0
 23 37  1  0  0  0
 24 25  1  0  0  0
 24 35  1  0  0  0
 25 26  1  0  0  0
 25 27  1  0  0  0
 27 32  2  0  0  0
 27 28  1  0  0  0
 28 29  2  0  0  0
 28 53  1  0  0  0
 29 30  1  0  0  0
 29 54  1  0  0  0
 30 31  2  0  0  0
 30 33  1  0  0  0
 31 32  1  0  0  0
 31 55  1  0  0  0
 32 56  1  0  0  0
 33 34  1  0  0  0
 34 57  1  0  0  0
 34 58  1  0  0  0
 34 59  1  0  0  0
 35 36  3  0  0  0
 37 60  1  0  0  0
 37 61  1  0  0  0
M  END
> <i_i_glide_confnum>
62

> <i_i_glide_lignum>
916

> <i_i_glide_posenum>
392

> <i_i_glide_rotatable_bonds>
8

> <i_m_Source_File_Index>
5496

> <b_m_subgroup_collapsed>
0

> <r_i_docking_score>
-4.24821

> <r_i_glide_ecoul>
-3.59119

> <r_i_glide_eff_state_penalty>
0

> <r_i_glide_einternal>
3.02559

> <r_i_glide_emodel>
-53.4231

> <r_i_glide_energy>
-43.0489

> <r_i_glide_erotb>
0.322432

> <r_i_glide_esite>
-0.00605952

> <r_i_glide_evdw>
-39.4577

> <r_i_glide_gscore>
-4.24821

> <r_i_glide_hbond>
-0.242965

> <r_i_glide_ligand_efficiency>
-0.118006

> <r_i_glide_ligand_efficiency_ln>
-0.926845

> <r_i_glide_ligand_efficiency_sa>
-0.389647

> <r_i_glide_lipo>
-1.42771

> <r_i_glide_metal>
0

> <r_i_glide_rewards>
-0.382343

> <s_i_glide_gridfile>
wee1_glide-grid

> <s_m_Source_File>
wee1_decoys_glide_SP.sdf

> <s_m_Source_Path>
/Users/zhangxujun/Desktop

> <s_m_entry_id>
5771

> <s_m_entry_name>
wee1_decoys_glide_SP.5496

> <s_m_subgroup_title>
wee1_decoys_glide_SP

> <s_m_subgroupid>
wee1_decoys_glide_SP


$$$$
