ZINC57888136_2527
                    3D
 Schrodinger Suite 2024-2.
 45 46  0  0  1  0            999 V2000
    5.9786   58.6234   16.8885 C   0  0  0  0  0  0
    7.4053   58.1558   17.2494 C   0  0  1  0  0  0
    7.8921   57.8941   16.3081 H   0  0  0  0  0  0
    8.2899   59.2656   17.8912 C   0  0  0  0  0  0
    8.3044   60.4725   17.1517 O   0  0  0  0  0  0
    7.3760   56.9011   18.0250 N   0  0  0  0  0  0
    6.9243   56.7531   19.2828 C   0  0  0  0  0  0
    6.7043   57.6966   20.0426 O   0  0  0  0  0  0
    6.7332   55.4690   19.6391 N   0  0  0  0  0  0
    6.3384   55.0864   20.9340 C   0  0  0  0  0  0
    7.1044   55.4985   22.0326 C   0  0  0  0  0  0
    6.7032   55.2061   23.3303 C   0  0  0  0  0  0
    5.5191   54.4961   23.5529 C   0  0  0  0  0  0
    4.7924   54.0215   22.4549 C   0  0  0  0  0  0
    5.1967   54.2889   21.1378 C   0  0  0  0  0  0
    4.4133   53.7022   19.9566 C   0  0  0  0  0  0
    3.4169   52.9048   20.3473 F   0  0  0  0  0  0
    3.9045   54.6754   19.2015 F   0  0  0  0  0  0
    5.2469   52.9797   19.2102 F   0  0  0  0  0  0
    4.9846   54.2174   24.8209 N   0  0  0  0  0  0
    5.4637   54.4929   26.0530 C   0  0  0  0  0  0
    6.5329   55.0559   26.3011 O   0  0  0  0  0  0
    4.5883   53.9732   27.1664 C   0  0  0  0  0  0
    3.1873   54.0399   27.0834 C   0  0  0  0  0  0
    2.3952   53.5001   28.0944 C   0  0  0  0  0  0
    2.9969   52.8777   29.1837 C   0  0  0  0  0  0
    4.3818   52.8096   29.2763 C   0  0  0  0  0  0
    5.1787   53.3729   28.2835 C   0  0  0  0  0  0
    2.2356   52.3263   30.1551 F   0  0  0  0  0  0
    5.9976   59.5125   16.2570 H   0  0  0  0  0  0
    5.4274   57.8587   16.3399 H   0  0  0  0  0  0
    5.4132   58.8958   17.7791 H   0  0  0  0  0  0
    9.3128   58.9076   18.0111 H   0  0  0  0  0  0
    7.9409   59.5181   18.8903 H   0  0  0  0  0  0
    7.4241   60.9015   17.2811 H   0  0  0  0  0  0
    7.6853   56.0748   17.5358 H   0  0  0  0  0  0
    6.7378   54.7547   18.9266 H   0  0  0  0  0  0
    8.0091   56.0724   21.8878 H   0  0  0  0  0  0
    7.3184   55.5758   24.1343 H   0  0  0  0  0  0
    3.8967   53.4410   22.6260 H   0  0  0  0  0  0
    4.1189   53.7017   24.8082 H   0  0  0  0  0  0
    2.6994   54.4982   26.2358 H   0  0  0  0  0  0
    1.3183   53.5457   28.0278 H   0  0  0  0  0  0
    4.8443   52.2960   30.1023 H   0  0  0  0  0  0
    6.2548   53.3010   28.3682 H   0  0  0  0  0  0
  1  2  1  0  0  0
  1 30  1  0  0  0
  1 31  1  0  0  0
  1 32  1  0  0  0
  2  3  1  0  0  0
  2  4  1  0  0  0
  2  6  1  0  0  0
  4  5  1  0  0  0
  4 33  1  0  0  0
  4 34  1  0  0  0
  5 35  1  0  0  0
  6  7  1  0  0  0
  6 36  1  0  0  0
  7  8  2  0  0  0
  7  9  1  0  0  0
  9 10  1  0  0  0
  9 37  1  0  0  0
 10 15  2  0  0  0
 10 11  1  0  0  0
 11 12  2  0  0  0
 11 38  1  0  0  0
 12 13  1  0  0  0
 12 39  1  0  0  0
 13 14  2  0  0  0
 13 20  1  0  0  0
 14 15  1  0  0  0
 14 40  1  0  0  0
 15 16  1  0  0  0
 16 17  1  0  0  0
 16 18  1  0  0  0
 16 19  1  0  0  0
 20 21  1  0  0  0
 20 41  1  0  0  0
 21 22  2  0  0  0
 21 23  1  0  0  0
 23 28  2  0  0  0
 23 24  1  0  0  0
 24 25  2  0  0  0
 24 42  1  0  0  0
 25 26  1  0  0  0
 25 43  1  0  0  0
 26 27  2  0  0  0
 26 29  1  0  0  0
 27 28  1  0  0  0
 27 44  1  0  0  0
 28 45  1  0  0  0
M  END
> <i_i_glide_confnum>
23

> <i_i_glide_lignum>
2528

> <i_i_glide_posenum>
313

> <i_i_glide_rotatable_bonds>
10

> <i_m_Source_File_Index>
3399

> <b_m_subgroup_collapsed>
0

> <r_i_docking_score>
-7.09726

> <r_i_glide_ecoul>
-14.4569

> <r_i_glide_eff_state_penalty>
0

> <r_i_glide_einternal>
14.4698

> <r_i_glide_emodel>
-61.8678

> <r_i_glide_energy>
-48.6472

> <r_i_glide_erotb>
0.982919

> <r_i_glide_esite>
-0.126194

> <r_i_glide_evdw>
-34.1903

> <r_i_glide_gscore>
-7.09726

> <r_i_glide_hbond>
-0.599615

> <r_i_glide_ligand_efficiency>
-0.253473

> <r_i_glide_ligand_efficiency_ln>
-1.63826

> <r_i_glide_ligand_efficiency_sa>
-0.769695

> <r_i_glide_lipo>
-2.34209

> <r_i_glide_metal>
0

> <r_i_glide_rewards>
-1.13422

> <s_i_glide_gridfile>
wee1_glide-grid

> <s_m_Source_File>
wee1_decoys_glide_SP.sdf

> <s_m_Source_Path>
/Users/zhangxujun/Desktop

> <s_m_entry_id>
3674

> <s_m_entry_name>
wee1_decoys_glide_SP.3399

> <s_m_subgroup_title>
wee1_decoys_glide_SP

> <s_m_subgroupid>
wee1_decoys_glide_SP


$$$$
