ZINC36836444_1538
                    3D
 Schrodinger Suite 2024-2.
 50 52  0  0  1  0            999 V2000
    3.4721   55.6368   17.9843 C   0  0  0  0  0  0
    4.3898   54.6401   17.2408 C   0  0  1  0  0  0
    3.9778   53.6377   17.3958 H   0  0  0  0  0  0
    4.2924   54.9084   15.7147 C   0  0  0  0  0  0
    5.0843   53.8903   14.8704 C   0  0  0  0  0  0
    6.5584   53.8114   15.3091 C   0  0  0  0  0  0
    6.6534   53.5274   16.8191 C   0  0  0  0  0  0
    5.8975   54.5903   17.6731 C   0  0  2  0  0  0
    5.9859   54.1622   19.1327 C   0  0  0  0  0  0
    5.6222   53.0750   19.5830 O   0  0  0  0  0  0
    6.5202   55.2195   19.8007 N   0  0  0  0  0  0
    6.8708   56.2480   18.9840 C   0  0  0  0  0  0
    7.4859   57.2708   19.2824 O   0  0  0  0  0  0
    6.5358   55.8739   17.7452 N   0  0  0  0  0  0
    6.9660   55.2172   21.2267 C   0  0  0  0  0  0
    5.9042   54.7505   22.2465 C   0  0  0  0  0  0
    4.7553   54.4967   21.8877 O   0  0  0  0  0  0
    6.3229   54.7080   23.5304 N   0  0  0  0  0  0
    5.5684   54.4871   24.7054 C   0  0  0  0  0  0
    6.2878   54.4275   25.9024 C   0  0  0  0  0  0
    5.6289   54.2762   27.1221 C   0  0  0  0  0  0
    4.2370   54.1707   27.1468 C   0  0  0  0  0  0
    3.5111   54.1873   25.9575 C   0  0  0  0  0  0
    4.1691   54.3536   24.7451 C   0  0  0  0  0  0
    3.3612   54.0369   28.7005 S   0  0  0  0  0  0
    2.0498   54.6718   28.5228 O   0  0  0  0  0  0
    4.2663   54.4885   29.7615 O   0  0  0  0  0  0
    3.0926   52.1897   28.9055 C   0  0  0  0  0  0
    3.7725   56.6705   17.8149 H   0  0  0  0  0  0
    2.4324   55.5377   17.6733 H   0  0  0  0  0  0
    3.5044   55.4568   19.0576 H   0  0  0  0  0  0
    3.2468   54.8899   15.4029 H   0  0  0  0  0  0
    4.6280   55.9241   15.4917 H   0  0  0  0  0  0
    4.6261   52.9049   14.9648 H   0  0  0  0  0  0
    5.0252   54.1532   13.8134 H   0  0  0  0  0  0
    7.0767   53.0299   14.7500 H   0  0  0  0  0  0
    7.0682   54.7473   15.0710 H   0  0  0  0  0  0
    7.7114   53.5368   17.0850 H   0  0  0  0  0  0
    6.3346   52.5070   17.0564 H   0  0  0  0  0  0
    6.3910   56.5419   17.0026 H   0  0  0  0  0  0
    7.2191   56.2341   21.5297 H   0  0  0  0  0  0
    7.8881   54.6474   21.3386 H   0  0  0  0  0  0
    7.3072   54.8812   23.6815 H   0  0  0  0  0  0
    7.3623   54.5015   25.9007 H   0  0  0  0  0  0
    6.1987   54.2555   28.0412 H   0  0  0  0  0  0
    2.4353   54.0967   25.9697 H   0  0  0  0  0  0
    3.5579   54.3888   23.8605 H   0  0  0  0  0  0
    2.5268   52.0307   29.8226 H   0  0  0  0  0  0
    4.0638   51.6993   28.9632 H   0  0  0  0  0  0
    2.5285   51.8216   28.0494 H   0  0  0  0  0  0
  1  2  1  0  0  0
  1 29  1  0  0  0
  1 30  1  0  0  0
  1 31  1  0  0  0
  2  3  1  0  0  0
  2  8  1  0  0  0
  2  4  1  0  0  0
  4  5  1  0  0  0
  4 32  1  0  0  0
  4 33  1  0  0  0
  5  6  1  0  0  0
  5 34  1  0  0  0
  5 35  1  0  0  0
  6  7  1  0  0  0
  6 36  1  0  0  0
  6 37  1  0  0  0
  7  8  1  0  0  0
  7 38  1  0  0  0
  7 39  1  0  0  0
  8 14  1  0  0  0
  8  9  1  0  0  0
  9 10  2  0  0  0
  9 11  1  0  0  0
 11 12  1  0  0  0
 11 15  1  0  0  0
 12 13  2  0  0  0
 12 14  1  0  0  0
 14 40  1  0  0  0
 15 16  1  0  0  0
 15 41  1  0  0  0
 15 42  1  0  0  0
 16 17  2  0  0  0
 16 18  1  0  0  0
 18 19  1  0  0  0
 18 43  1  0  0  0
 19 24  2  0  0  0
 19 20  1  0  0  0
 20 21  2  0  0  0
 20 44  1  0  0  0
 21 22  1  0  0  0
 21 45  1  0  0  0
 22 23  2  0  0  0
 22 25  1  0  0  0
 23 24  1  0  0  0
 23 46  1  0  0  0
 24 47  1  0  0  0
 25 26  2  0  0  0
 25 27  2  0  0  0
 25 28  1  0  0  0
 28 48  1  0  0  0
 28 49  1  0  0  0
 28 50  1  0  0  0
M  END
> <i_i_glide_confnum>
2

> <i_i_glide_lignum>
1539

> <i_i_glide_posenum>
57

> <i_i_glide_rotatable_bonds>
5

> <i_m_Source_File_Index>
5286

> <b_m_subgroup_collapsed>
0

> <r_i_docking_score>
-5.59196

> <r_i_glide_ecoul>
-2.89269

> <r_i_glide_eff_state_penalty>
0

> <r_i_glide_einternal>
6.05461

> <r_i_glide_emodel>
-52.0651

> <r_i_glide_energy>
-39.5399

> <r_i_glide_erotb>
0.504751

> <r_i_glide_esite>
-0.0110022

> <r_i_glide_evdw>
-36.6472

> <r_i_glide_gscore>
-5.59196

> <r_i_glide_hbond>
-0.219109

> <r_i_glide_ligand_efficiency>
-0.20711

> <r_i_glide_ligand_efficiency_ln>
-1.30172

> <r_i_glide_ligand_efficiency_sa>
-0.621329

> <r_i_glide_lipo>
-2.0454

> <r_i_glide_metal>
0

> <r_i_glide_rewards>
-1.55494

> <s_i_glide_gridfile>
wee1_glide-grid

> <s_m_Source_File>
wee1_decoys_glide_SP.sdf

> <s_m_Source_Path>
/Users/zhangxujun/Desktop

> <s_m_entry_id>
5561

> <s_m_entry_name>
wee1_decoys_glide_SP.5286

> <s_m_subgroup_title>
wee1_decoys_glide_SP

> <s_m_subgroupid>
wee1_decoys_glide_SP


$$$$
