ZINC13041664_1966
                    3D
 Schrodinger Suite 2024-2.
 44 46  0  0  1  0            999 V2000
   -0.9443   51.2981   27.7910 C   0  0  0  0  0  0
    0.1606   51.6839   28.5485 C   0  0  0  0  0  0
    1.2242   52.3907   27.9814 C   0  0  0  0  0  0
    1.1518   52.6825   26.6115 C   0  0  0  0  0  0
    0.0512   52.3026   25.8350 C   0  0  0  0  0  0
   -1.0003   51.6090   26.4358 C   0  0  0  0  0  0
   -0.0262   52.7002   24.0816 S   0  0  0  0  0  0
   -1.4247   53.1033   23.8925 O   0  0  0  0  0  0
    0.9807   53.7559   23.9136 O   0  0  0  0  0  0
    0.3917   51.0831   23.5413 N   0  0  0  0  0  0
    0.8989   50.9387   22.3900 C   0  0  0  0  0  0
    1.2001   52.0018   21.3149 C   0  0  0  0  0  0
    0.8866   51.6536   19.8427 C   0  0  0  0  0  0
    1.9179   50.7571   19.1465 C   0  0  0  0  0  0
    1.9836   49.3157   19.6669 C   0  0  0  0  0  0
    2.3043   49.1709   21.1623 C   0  0  0  0  0  0
    1.2652   49.6460   22.0677 N   0  0  0  0  0  0
    2.2808   52.7332   28.7852 N   0  5  0  0  0  0
    2.8673   54.1859   28.7963 S   0  0  0  0  0  0
    3.5030   54.4960   30.0814 O   0  0  0  0  0  0
    1.9602   55.1974   28.2412 O   0  0  0  0  0  0
    4.2524   54.1719   27.6224 C   0  0  0  0  0  0
    4.1987   54.5711   26.2897 C   0  0  0  0  0  0
    5.4443   54.5289   25.6571 C   0  0  0  0  0  0
    6.4516   54.0960   26.5051 C   0  0  0  0  0  0
    5.8583   53.6979   28.0820 S   0  0  0  0  0  0
   -1.7547   50.7529   28.2516 H   0  0  0  0  0  0
    0.1858   51.4315   29.5991 H   0  0  0  0  0  0
    1.9686   53.1976   26.1388 H   0  0  0  0  0  0
   -1.8575   51.3031   25.8536 H   0  0  0  0  0  0
    0.6053   52.8896   21.5160 H   0  0  0  0  0  0
    2.2294   52.3433   21.4173 H   0  0  0  0  0  0
   -0.1048   51.2052   19.7674 H   0  0  0  0  0  0
    0.8230   52.5867   19.2808 H   0  0  0  0  0  0
    2.9067   51.2141   19.2209 H   0  0  0  0  0  0
    1.6977   50.7285   18.0776 H   0  0  0  0  0  0
    2.7467   48.7822   19.0971 H   0  0  0  0  0  0
    1.0483   48.7986   19.4468 H   0  0  0  0  0  0
    3.1861   49.7744   21.3810 H   0  0  0  0  0  0
    2.5829   48.1425   21.3956 H   0  0  0  0  0  0
    1.1577   49.0396   22.8663 H   0  0  0  0  0  0
    3.2974   54.9032   25.7971 H   0  0  0  0  0  0
    5.6011   54.8106   24.6258 H   0  0  0  0  0  0
    7.4982   53.9701   26.2797 H   0  0  0  0  0  0
  1  6  2  0  0  0
  1  2  1  0  0  0
  1 27  1  0  0  0
  2  3  2  0  0  0
  2 28  1  0  0  0
  3  4  1  0  0  0
  3 18  1  0  0  0
  4  5  2  0  0  0
  4 29  1  0  0  0
  5  6  1  0  0  0
  5  7  1  0  0  0
  6 30  1  0  0  0
  7  8  2  0  0  0
  7  9  2  0  0  0
  7 10  1  0  0  0
 10 11  2  0  0  0
 11 17  1  0  0  0
 11 12  1  0  0  0
 12 13  1  0  0  0
 12 31  1  0  0  0
 12 32  1  0  0  0
 13 14  1  0  0  0
 13 33  1  0  0  0
 13 34  1  0  0  0
 14 15  1  0  0  0
 14 35  1  0  0  0
 14 36  1  0  0  0
 15 16  1  0  0  0
 15 37  1  0  0  0
 15 38  1  0  0  0
 16 17  1  0  0  0
 16 39  1  0  0  0
 16 40  1  0  0  0
 17 41  1  0  0  0
 18 19  1  0  0  0
 19 20  2  0  0  0
 19 21  2  0  0  0
 19 22  1  0  0  0
 22 26  1  0  0  0
 22 23  2  0  0  0
 23 24  1  0  0  0
 23 42  1  0  0  0
 24 25  2  0  0  0
 24 43  1  0  0  0
 25 26  1  0  0  0
 25 44  1  0  0  0
M  CHG  1  18  -1
M  END
> <i_i_glide_confnum>
176

> <i_i_glide_lignum>
1967

> <i_i_glide_posenum>
368

> <i_i_glide_rotatable_bonds>
5

> <i_m_Source_File_Index>
2446

> <b_m_subgroup_collapsed>
0

> <r_i_docking_score>
-5.50789

> <r_i_glide_ecoul>
-7.06567

> <r_i_glide_eff_state_penalty>
0

> <r_i_glide_einternal>
14.2462

> <r_i_glide_emodel>
-58.6842

> <r_i_glide_energy>
-48.9605

> <r_i_glide_erotb>
0.579377

> <r_i_glide_esite>
-0.0623336

> <r_i_glide_evdw>
-41.8949

> <r_i_glide_gscore>
-5.50789

> <r_i_glide_hbond>
0

> <r_i_glide_ligand_efficiency>
-0.211842

> <r_i_glide_ligand_efficiency_ln>
-1.29351

> <r_i_glide_ligand_efficiency_sa>
-0.62758

> <r_i_glide_lipo>
-1.73953

> <r_i_glide_metal>
0

> <r_i_glide_rewards>
-1.13081

> <s_i_glide_gridfile>
wee1_glide-grid

> <s_m_Source_File>
wee1_decoys_glide_SP.sdf

> <s_m_Source_Path>
/Users/zhangxujun/Desktop

> <s_m_entry_id>
2721

> <s_m_entry_name>
wee1_decoys_glide_SP.2446

> <s_m_subgroup_title>
wee1_decoys_glide_SP

> <s_m_subgroupid>
wee1_decoys_glide_SP


$$$$
