ZINC09382675_4818
                    3D
 Schrodinger Suite 2024-2.
 62 65  0  0  1  0            999 V2000
    0.3561   49.9801   20.4126 C   0  0  0  0  0  0
   -0.7157   50.8927   21.0563 C   0  0  1  0  0  0
   -1.6457   50.3206   21.0879 H   0  0  0  0  0  0
   -0.4275   51.3589   22.5259 C   0  0  1  0  0  0
   -1.2698   51.9999   22.7949 H   0  0  0  0  0  0
   -0.3534   50.2368   23.5680 C   0  0  0  0  0  0
   -0.5211   48.8553   23.4057 C   0  0  0  0  0  0
   -0.4289   48.1067   24.5775 C   0  0  0  0  0  0
   -0.1970   48.8967   25.6813 C   0  0  0  0  0  0
   -0.1345   50.5646   25.2733 S   0  0  0  0  0  0
    0.7073   53.4070   23.6860 C   0  0  0  0  0  0
    1.7553   54.4830   23.3581 C   0  0  0  0  0  0
    3.1285   53.9723   23.2217 N   0  0  0  0  0  0
    3.2069   52.8242   22.3044 C   0  0  0  0  0  0
    2.1842   51.7068   22.6144 C   0  0  0  0  0  0
    4.0810   54.1216   24.2171 C   0  0  0  0  0  0
    3.7426   54.0857   25.5752 C   0  0  0  0  0  0
    4.7286   54.2060   26.5486 C   0  0  0  0  0  0
    6.0654   54.3936   26.1733 C   0  0  0  0  0  0
    6.3977   54.4706   24.8223 C   0  0  0  0  0  0
    5.4157   54.3176   23.8508 C   0  0  0  0  0  0
    7.1046   54.5114   27.0662 O   0  0  0  0  0  0
    6.9508   53.9741   28.3748 C   0  0  0  0  0  0
   -0.9535   52.0610   20.1670 N   0  0  0  0  0  0
   -1.9945   51.9053   18.7538 S   0  0  0  0  0  0
   -2.0963   53.2384   18.1512 O   0  0  0  0  0  0
   -3.1998   51.1791   19.1676 O   0  0  0  0  0  0
   -1.0823   50.8825   17.6005 C   0  0  0  0  0  0
   -1.6657   49.7292   17.0701 C   0  0  0  0  0  0
   -0.9249   48.9082   16.2250 C   0  0  0  0  0  0
    0.3947   49.2394   15.9171 C   0  0  0  0  0  0
    0.9745   50.3962   16.4367 C   0  0  0  0  0  0
    0.2322   51.2267   17.2709 C   0  0  0  0  0  0
    1.3199   48.2055   14.8910 Cl  0  0  0  0  0  0
    0.8209   49.2917   21.1164 H   0  0  0  0  0  0
   -0.0813   49.3608   19.6297 H   0  0  0  0  0  0
    1.1611   50.5520   19.9464 H   0  0  0  0  0  0
   -0.7226   48.3891   22.4530 H   0  0  0  0  0  0
   -0.5331   47.0344   24.6314 H   0  0  0  0  0  0
   -0.0956   48.5734   26.7082 H   0  0  0  0  0  0
   -0.2929   53.8432   23.6817 H   0  0  0  0  0  0
    0.8948   52.9432   24.6512 H   0  0  0  0  0  0
    1.5064   54.8972   22.3887 H   0  0  0  0  0  0
    1.7142   55.2974   24.0802 H   0  0  0  0  0  0
    4.2137   52.4066   22.2892 H   0  0  0  0  0  0
    3.0183   53.2257   21.3065 H   0  0  0  0  0  0
    2.3044   51.2376   23.5912 H   0  0  0  0  0  0
    2.2530   50.9492   21.8412 H   0  0  0  0  0  0
    2.7194   53.9345   25.8837 H   0  0  0  0  0  0
    4.4415   54.1552   27.5865 H   0  0  0  0  0  0
    7.4252   54.6242   24.5238 H   0  0  0  0  0  0
    5.6925   54.3597   22.8073 H   0  0  0  0  0  0
    7.8958   54.0819   28.9110 H   0  0  0  0  0  0
    6.1879   54.4992   28.9502 H   0  0  0  0  0  0
    6.7022   52.9118   28.3355 H   0  0  0  0  0  0
   -0.1384   52.6580   20.0061 H   0  0  0  0  0  0
   -2.6839   49.4618   17.3169 H   0  0  0  0  0  0
   -1.3685   48.0136   15.8146 H   0  0  0  0  0  0
    2.0025   50.6381   16.2004 H   0  0  0  0  0  0
    0.6878   52.1180   17.6801 H   0  0  0  0  0  0
    0.7812   52.3460   22.5625 N   0  3  0  0  0  0
    0.7056   52.8428   21.6871 H   0  0  0  0  0  0
  1  2  1  0  0  0
  1 35  1  0  0  0
  1 36  1  0  0  0
  1 37  1  0  0  0
  2  3  1  0  0  0
  2  4  1  0  0  0
  2 24  1  0  0  0
  4  5  1  0  0  0
  4  6  1  0  0  0
  4 61  1  0  0  0
  6 10  1  0  0  0
  6  7  2  0  0  0
  7  8  1  0  0  0
  7 38  1  0  0  0
  8  9  2  0  0  0
  8 39  1  0  0  0
  9 10  1  0  0  0
  9 40  1  0  0  0
 11 12  1  0  0  0
 11 41  1  0  0  0
 11 42  1  0  0  0
 11 61  1  0  0  0
 12 13  1  0  0  0
 12 43  1  0  0  0
 12 44  1  0  0  0
 13 14  1  0  0  0
 13 16  1  0  0  0
 14 15  1  0  0  0
 14 45  1  0  0  0
 14 46  1  0  0  0
 15 47  1  0  0  0
 15 48  1  0  0  0
 15 61  1  0  0  0
 16 21  2  0  0  0
 16 17  1  0  0  0
 17 18  2  0  0  0
 17 49  1  0  0  0
 18 19  1  0  0  0
 18 50  1  0  0  0
 19 20  2  0  0  0
 19 22  1  0  0  0
 20 21  1  0  0  0
 20 51  1  0  0  0
 21 52  1  0  0  0
 22 23  1  0  0  0
 23 53  1  0  0  0
 23 54  1  0  0  0
 23 55  1  0  0  0
 24 25  1  0  0  0
 24 56  1  0  0  0
 25 26  2  0  0  0
 25 27  2  0  0  0
 25 28  1  0  0  0
 28 33  2  0  0  0
 28 29  1  0  0  0
 29 30  2  0  0  0
 29 57  1  0  0  0
 30 31  1  0  0  0
 30 58  1  0  0  0
 31 32  2  0  0  0
 31 34  1  0  0  0
 32 33  1  0  0  0
 32 59  1  0  0  0
 33 60  1  0  0  0
 61 62  1  0  0  0
M  CHG  1  61   1
M  END
> <i_i_glide_confnum>
130

> <i_i_glide_lignum>
4819

> <i_i_glide_posenum>
379

> <i_i_glide_rotatable_bonds>
8

> <i_m_Source_File_Index>
1169

> <b_m_subgroup_collapsed>
0

> <r_i_docking_score>
-4.32546

> <r_i_glide_ecoul>
-6.6828

> <r_i_glide_eff_state_penalty>
0

> <r_i_glide_einternal>
7.76645

> <r_i_glide_emodel>
-52.2665

> <r_i_glide_energy>
-44.7294

> <r_i_glide_erotb>
0.477506

> <r_i_glide_esite>
-0.0917262

> <r_i_glide_evdw>
-38.0465

> <r_i_glide_gscore>
-4.32546

> <r_i_glide_hbond>
-0.153689

> <r_i_glide_ligand_efficiency>
-0.131074

> <r_i_glide_ligand_efficiency_ln>
-0.961959

> <r_i_glide_ligand_efficiency_sa>
-0.420426

> <r_i_glide_lipo>
-2.22908

> <r_i_glide_metal>
0

> <r_i_glide_rewards>
0.576274

> <s_i_glide_gridfile>
wee1_glide-grid

> <s_m_Source_File>
wee1_decoys_glide_SP.sdf

> <s_m_Source_Path>
/Users/zhangxujun/Desktop

> <s_m_entry_id>
1444

> <s_m_entry_name>
wee1_decoys_glide_SP.1169

> <s_m_subgroup_title>
wee1_decoys_glide_SP

> <s_m_subgroupid>
wee1_decoys_glide_SP


$$$$
