ZINC57355146_2526
                    3D
 Schrodinger Suite 2024-2.
 53 55  0  0  1  0            999 V2000
    7.3172   55.5789   19.8369 C   0  0  0  0  0  0
    5.9277   55.0131   19.4632 C   0  0  2  0  0  0
    6.0743   54.0206   19.0310 H   0  0  0  0  0  0
    5.1503   55.8347   18.4142 C   0  0  0  0  0  0
    5.5792   57.0919   17.9573 C   0  0  0  0  0  0
    4.8312   57.7997   17.0145 C   0  0  0  0  0  0
    3.6447   57.2574   16.5181 C   0  0  0  0  0  0
    3.2136   56.0047   16.9582 C   0  0  0  0  0  0
    3.9634   55.3003   17.8961 C   0  0  0  0  0  0
    2.6999   58.1406   15.2723 S   0  0  0  0  0  0
    3.6081   58.3781   14.1466 O   0  0  0  0  0  0
    1.4358   57.4204   15.0854 O   0  0  0  0  0  0
    2.3048   59.6968   15.9536 N   0  0  0  0  0  0
    5.0953   54.8957   20.6591 N   0  0  0  0  0  0
    5.4472   53.8999   21.6501 C   0  0  0  0  0  0
    4.3507   53.8812   22.7340 C   0  0  0  0  0  0
    3.1846   53.6512   22.4080 O   0  0  0  0  0  0
    4.7684   54.0966   24.0002 N   0  0  0  0  0  0
    4.0360   54.0275   25.1918 C   0  0  0  0  0  0
    4.5641   54.1610   26.4752 C   0  0  0  0  0  0
    3.6094   54.0051   27.5107 C   0  0  0  0  0  0
    2.3302   53.7141   27.0123 C   0  0  0  0  0  0
    2.3396   53.6654   25.2729 S   0  0  0  0  0  0
    1.0762   53.4612   27.8244 C   0  0  0  0  0  0
    1.1986   52.2717   28.7953 C   0  0  0  0  0  0
    2.0530   52.5507   30.0479 C   0  0  0  0  0  0
    3.5523   52.8194   29.8054 C   0  0  0  0  0  0
    3.8849   54.1015   29.0110 C   0  0  0  0  0  0
    5.9801   54.4004   26.7122 C   0  0  0  0  0  0
    7.1039   54.5852   26.8910 N   0  0  0  0  0  0
    7.9345   55.7217   18.9494 H   0  0  0  0  0  0
    7.2388   56.5347   20.3544 H   0  0  0  0  0  0
    7.8693   54.8977   20.4845 H   0  0  0  0  0  0
    6.4866   57.5429   18.3282 H   0  0  0  0  0  0
    5.1727   58.7687   16.6739 H   0  0  0  0  0  0
    2.3037   55.5668   16.5734 H   0  0  0  0  0  0
    3.6146   54.3302   18.2214 H   0  0  0  0  0  0
    1.7026   59.6573   16.7870 H   0  0  0  0  0  0
    3.1150   60.3293   16.0817 H   0  0  0  0  0  0
    4.1560   54.6919   20.3359 H   0  0  0  0  0  0
    6.4245   54.1043   22.0894 H   0  0  0  0  0  0
    5.5009   52.9050   21.2045 H   0  0  0  0  0  0
    5.7530   54.2854   24.1149 H   0  0  0  0  0  0
    0.2250   53.2893   27.1662 H   0  0  0  0  0  0
    0.8264   54.3494   28.4063 H   0  0  0  0  0  0
    1.5790   51.3948   28.2684 H   0  0  0  0  0  0
    0.1968   51.9954   29.1287 H   0  0  0  0  0  0
    1.9586   51.6988   30.7215 H   0  0  0  0  0  0
    1.6199   53.3904   30.5935 H   0  0  0  0  0  0
    4.0102   51.9571   29.3167 H   0  0  0  0  0  0
    4.0373   52.8871   30.7803 H   0  0  0  0  0  0
    3.3244   54.9377   29.4318 H   0  0  0  0  0  0
    4.9281   54.3531   29.2058 H   0  0  0  0  0  0
  1  2  1  0  0  0
  1 31  1  0  0  0
  1 32  1  0  0  0
  1 33  1  0  0  0
  2  3  1  0  0  0
  2  4  1  0  0  0
  2 14  1  0  0  0
  4  9  2  0  0  0
  4  5  1  0  0  0
  5  6  2  0  0  0
  5 34  1  0  0  0
  6  7  1  0  0  0
  6 35  1  0  0  0
  7  8  2  0  0  0
  7 10  1  0  0  0
  8  9  1  0  0  0
  8 36  1  0  0  0
  9 37  1  0  0  0
 10 11  2  0  0  0
 10 12  2  0  0  0
 10 13  1  0  0  0
 13 38  1  0  0  0
 13 39  1  0  0  0
 14 15  1  0  0  0
 14 40  1  0  0  0
 15 16  1  0  0  0
 15 41  1  0  0  0
 15 42  1  0  0  0
 16 17  2  0  0  0
 16 18  1  0  0  0
 18 19  1  0  0  0
 18 43  1  0  0  0
 19 23  1  0  0  0
 19 20  2  0  0  0
 20 21  1  0  0  0
 20 29  1  0  0  0
 21 28  1  0  0  0
 21 22  2  0  0  0
 22 23  1  0  0  0
 22 24  1  0  0  0
 24 25  1  0  0  0
 24 44  1  0  0  0
 24 45  1  0  0  0
 25 26  1  0  0  0
 25 46  1  0  0  0
 25 47  1  0  0  0
 26 27  1  0  0  0
 26 48  1  0  0  0
 26 49  1  0  0  0
 27 28  1  0  0  0
 27 50  1  0  0  0
 27 51  1  0  0  0
 28 52  1  0  0  0
 28 53  1  0  0  0
 29 30  3  0  0  0
M  END
> <i_i_glide_confnum>
266

> <i_i_glide_lignum>
2527

> <i_i_glide_posenum>
328

> <i_i_glide_rotatable_bonds>
8

> <i_m_Source_File_Index>
830

> <b_m_subgroup_collapsed>
0

> <r_i_docking_score>
-6.55262

> <r_i_glide_ecoul>
-9.20629

> <r_i_glide_eff_state_penalty>
0

> <r_i_glide_einternal>
5.13842

> <r_i_glide_emodel>
-62.7313

> <r_i_glide_energy>
-47.577

> <r_i_glide_erotb>
0.638116

> <r_i_glide_esite>
-0.136205

> <r_i_glide_evdw>
-38.3707

> <r_i_glide_gscore>
-6.55262

> <r_i_glide_hbond>
-0.654794

> <r_i_glide_ligand_efficiency>
-0.225952

> <r_i_glide_ligand_efficiency_ln>
-1.50038

> <r_i_glide_ligand_efficiency_sa>
-0.694197

> <r_i_glide_lipo>
-2.57812

> <r_i_glide_metal>
0

> <r_i_glide_rewards>
-0.522138

> <s_i_glide_gridfile>
wee1_glide-grid

> <s_m_Source_File>
wee1_decoys_glide_SP.sdf

> <s_m_Source_Path>
/Users/zhangxujun/Desktop

> <s_m_entry_id>
1105

> <s_m_entry_name>
wee1_decoys_glide_SP.830

> <s_m_subgroup_title>
wee1_decoys_glide_SP

> <s_m_subgroupid>
wee1_decoys_glide_SP


$$$$
