ZINC46757757_2830
                    3D
 Schrodinger Suite 2024-2.
 64 68  0  0  1  0            999 V2000
    3.3886   52.8297   30.4487 C   0  0  0  0  0  0
    3.2216   53.0541   28.9632 C   0  0  0  0  0  0
    4.2848   53.5407   28.2003 C   0  0  0  0  0  0
    4.1634   53.6971   26.8057 C   0  0  0  0  0  0
    2.8899   53.3597   26.2692 C   0  0  0  0  0  0
    1.8916   52.8579   27.1398 C   0  0  0  0  0  0
    2.0103   52.7054   28.4610 N   0  0  0  0  0  0
    0.8303   52.4972   26.3310 N   0  0  0  0  0  0
    1.2054   52.8514   25.0386 C   0  0  0  0  0  0
    2.4064   53.3818   24.9852 N   0  0  0  0  0  0
    0.3617   52.5941   23.7958 C   0  0  0  0  0  0
   -1.1559   52.7672   23.9543 C   0  0  0  0  0  0
   -1.8689   51.5966   24.6557 C   0  0  0  0  0  0
   -1.1014   50.9308   25.8119 C   0  0  0  0  0  0
   -0.4242   51.8945   26.8041 C   0  0  0  0  0  0
    5.3890   54.1094   26.0165 C   0  0  0  0  0  0
    6.4749   54.2854   26.5784 O   0  0  0  0  0  0
    5.2352   54.2437   24.6835 N   0  0  0  0  0  0
    6.3060   54.5092   23.7081 C   0  0  2  0  0  0
    7.0579   53.7239   23.8358 H   0  0  0  0  0  0
    7.0162   55.8451   24.0018 C   0  0  0  0  0  0
    5.8392   54.3240   22.2486 C   0  0  0  0  0  0
    6.1624   55.2164   21.2132 C   0  0  0  0  0  0
    5.7718   54.9559   19.8988 C   0  0  0  0  0  0
    5.0419   53.8071   19.5933 C   0  0  0  0  0  0
    4.6712   52.9215   20.6059 C   0  0  0  0  0  0
    5.0872   53.1872   21.9211 C   0  0  0  0  0  0
    3.9042   51.7954   20.2394 N   0  0  0  0  0  0
    2.9454   51.1944   20.9810 C   0  0  0  0  0  0
    2.7086   51.5096   22.1442 O   0  0  0  0  0  0
    2.1104   50.1083   20.3253 C   0  0  0  0  0  0
    1.0909   49.4797   21.0608 C   0  0  0  0  0  0
    0.2909   48.4965   20.4821 C   0  0  0  0  0  0
    0.5063   48.1234   19.1587 C   0  0  0  0  0  0
    1.5110   48.7291   18.4128 C   0  0  0  0  0  0
    2.3042   49.7174   18.9920 C   0  0  0  0  0  0
    3.8240   51.8484   30.6341 H   0  0  0  0  0  0
    4.0462   53.5817   30.8799 H   0  0  0  0  0  0
    2.4242   52.8804   30.9504 H   0  0  0  0  0  0
    5.2233   53.7601   28.6931 H   0  0  0  0  0  0
    0.6970   53.2642   23.0022 H   0  0  0  0  0  0
    0.5568   51.5918   23.4184 H   0  0  0  0  0  0
   -1.3530   53.6966   24.4827 H   0  0  0  0  0  0
   -1.6052   52.8967   22.9696 H   0  0  0  0  0  0
   -2.8344   51.9496   25.0211 H   0  0  0  0  0  0
   -2.1041   50.8282   23.9175 H   0  0  0  0  0  0
   -1.7941   50.2903   26.3613 H   0  0  0  0  0  0
   -0.3519   50.2474   25.4129 H   0  0  0  0  0  0
   -0.2082   51.3423   27.7210 H   0  0  0  0  0  0
   -1.1034   52.7011   27.0851 H   0  0  0  0  0  0
    4.3289   54.0065   24.3013 H   0  0  0  0  0  0
    7.7661   56.0969   23.2535 H   0  0  0  0  0  0
    6.3046   56.6598   24.0821 H   0  0  0  0  0  0
    7.5374   55.8212   24.9524 H   0  0  0  0  0  0
    6.7306   56.1126   21.3978 H   0  0  0  0  0  0
    6.0379   55.6457   19.1106 H   0  0  0  0  0  0
    4.7446   53.6202   18.5707 H   0  0  0  0  0  0
    4.8530   52.4972   22.7110 H   0  0  0  0  0  0
    4.0494   51.4570   19.2966 H   0  0  0  0  0  0
    0.9069   49.7449   22.0915 H   0  0  0  0  0  0
   -0.4919   48.0274   21.0596 H   0  0  0  0  0  0
   -0.1090   47.3599   18.7072 H   0  0  0  0  0  0
    1.6882   48.4328   17.3873 H   0  0  0  0  0  0
    3.0859   50.1577   18.3881 H   0  0  0  0  0  0
  1  2  1  0  0  0
  1 37  1  0  0  0
  1 38  1  0  0  0
  1 39  1  0  0  0
  2  7  2  0  0  0
  2  3  1  0  0  0
  3  4  2  0  0  0
  3 40  1  0  0  0
  4  5  1  0  0  0
  4 16  1  0  0  0
  5 10  1  0  0  0
  5  6  2  0  0  0
  6  7  1  0  0  0
  6  8  1  0  0  0
  8 15  1  0  0  0
  8  9  1  0  0  0
  9 10  2  0  0  0
  9 11  1  0  0  0
 11 12  1  0  0  0
 11 41  1  0  0  0
 11 42  1  0  0  0
 12 13  1  0  0  0
 12 43  1  0  0  0
 12 44  1  0  0  0
 13 14  1  0  0  0
 13 45  1  0  0  0
 13 46  1  0  0  0
 14 15  1  0  0  0
 14 47  1  0  0  0
 14 48  1  0  0  0
 15 49  1  0  0  0
 15 50  1  0  0  0
 16 17  2  0  0  0
 16 18  1  0  0  0
 18 19  1  0  0  0
 18 51  1  0  0  0
 19 20  1  0  0  0
 19 21  1  0  0  0
 19 22  1  0  0  0
 21 52  1  0  0  0
 21 53  1  0  0  0
 21 54  1  0  0  0
 22 27  2  0  0  0
 22 23  1  0  0  0
 23 24  2  0  0  0
 23 55  1  0  0  0
 24 25  1  0  0  0
 24 56  1  0  0  0
 25 26  2  0  0  0
 25 57  1  0  0  0
 26 27  1  0  0  0
 26 28  1  0  0  0
 27 58  1  0  0  0
 28 29  1  0  0  0
 28 59  1  0  0  0
 29 30  2  0  0  0
 29 31  1  0  0  0
 31 36  2  0  0  0
 31 32  1  0  0  0
 32 33  2  0  0  0
 32 60  1  0  0  0
 33 34  1  0  0  0
 33 61  1  0  0  0
 34 35  2  0  0  0
 34 62  1  0  0  0
 35 36  1  0  0  0
 35 63  1  0  0  0
 36 64  1  0  0  0
M  END
> <i_i_glide_confnum>
123

> <i_i_glide_lignum>
2831

> <i_i_glide_posenum>
320

> <i_i_glide_rotatable_bonds>
7

> <i_m_Source_File_Index>
3167

> <b_m_subgroup_collapsed>
0

> <r_i_docking_score>
-5.56793

> <r_i_glide_ecoul>
-3.1585

> <r_i_glide_eff_state_penalty>
0

> <r_i_glide_einternal>
5.21112

> <r_i_glide_emodel>
-62.7411

> <r_i_glide_energy>
-49.0212

> <r_i_glide_erotb>
0.646266

> <r_i_glide_esite>
-0.0646108

> <r_i_glide_evdw>
-45.8627

> <r_i_glide_gscore>
-5.56793

> <r_i_glide_hbond>
-0.11836

> <r_i_glide_ligand_efficiency>
-0.159084

> <r_i_glide_ligand_efficiency_ln>
-1.22228

> <r_i_glide_ligand_efficiency_sa>
-0.520373

> <r_i_glide_lipo>
-2.11778

> <r_i_glide_metal>
0

> <r_i_glide_rewards>
-1.14654

> <s_i_glide_gridfile>
wee1_glide-grid

> <s_m_Source_File>
wee1_decoys_glide_SP.sdf

> <s_m_Source_Path>
/Users/zhangxujun/Desktop

> <s_m_entry_id>
3442

> <s_m_entry_name>
wee1_decoys_glide_SP.3167

> <s_m_subgroup_title>
wee1_decoys_glide_SP

> <s_m_subgroupid>
wee1_decoys_glide_SP


$$$$
