ZINC23296591_4332
                    3D
 Schrodinger Suite 2024-2.
 63 66  0  0  1  0            999 V2000
    2.6659   52.2419   28.5824 C   0  0  0  0  0  0
    2.6781   53.7770   28.3619 C   0  0  0  0  0  0
    1.2239   54.2232   28.0691 C   0  0  0  0  0  0
    3.0950   54.4571   29.6935 C   0  0  0  0  0  0
    3.6505   54.2131   27.1960 C   0  0  1  0  0  0
    3.6967   55.2962   27.2527 H   0  0  0  0  0  0
    5.1050   53.6914   27.3738 C   0  0  0  0  0  0
    6.0978   54.4121   26.4407 C   0  0  0  0  0  0
    5.5451   54.3306   25.0254 C   0  0  0  0  0  0
    4.2029   54.0861   24.7059 C   0  0  0  0  0  0
    3.9870   54.0965   23.3173 C   0  0  0  0  0  0
    5.1531   54.2761   22.5695 C   0  0  0  0  0  0
    6.5177   54.5599   23.6110 S   0  0  0  0  0  0
    5.3324   54.3477   21.1383 C   0  0  0  0  0  0
    6.3247   54.8969   20.6520 O   0  0  0  0  0  0
    4.3740   53.7271   20.4119 N   0  0  0  0  0  0
    4.5352   53.5559   19.0261 N   0  0  0  0  0  0
    4.2943   54.5596   18.1527 C   0  0  0  0  0  0
    3.9054   55.6825   18.4818 O   0  0  0  0  0  0
    4.5673   54.2872   16.6565 C   0  0  0  0  0  0
    6.0907   54.1065   16.4336 C   0  0  0  0  0  0
    6.3403   53.8593   14.9278 C   0  0  0  0  0  0
    5.6045   52.6312   14.5530 N   0  0  0  0  0  0
    4.1309   52.7504   14.6869 C   0  0  0  0  0  0
    3.8412   52.9981   16.1882 C   0  0  0  0  0  0
    6.1465   51.5024   14.0092 C   0  0  0  0  0  0
    5.4417   50.6274   13.4936 O   0  0  0  0  0  0
    7.5873   51.2968   14.0490 C   0  0  0  0  0  0
    8.5383   51.6958   15.0006 C   0  0  0  0  0  0
    9.8198   51.1835   14.7646 C   0  0  0  0  0  0
    9.8593   50.3257   13.6787 C   0  0  0  0  0  0
    8.2996   50.1299   12.9535 S   0  0  0  0  0  0
    3.1291   53.8445   25.7682 C   0  0  0  0  0  0
    1.9500   51.9553   29.3569 H   0  0  0  0  0  0
    3.6379   51.8629   28.9005 H   0  0  0  0  0  0
    2.3801   51.6967   27.6826 H   0  0  0  0  0  0
    1.1652   55.2894   27.8372 H   0  0  0  0  0  0
    0.7967   53.6751   27.2278 H   0  0  0  0  0  0
    0.5621   54.0415   28.9194 H   0  0  0  0  0  0
    3.1500   55.5425   29.5883 H   0  0  0  0  0  0
    2.3686   54.2476   30.4806 H   0  0  0  0  0  0
    4.0616   54.1110   30.0573 H   0  0  0  0  0  0
    5.4559   53.8752   28.3886 H   0  0  0  0  0  0
    5.1519   52.6054   27.2698 H   0  0  0  0  0  0
    6.2119   55.4506   26.7496 H   0  0  0  0  0  0
    7.0802   53.9481   26.5111 H   0  0  0  0  0  0
    3.0112   53.9434   22.8770 H   0  0  0  0  0  0
    3.5013   53.3678   20.7693 H   0  0  0  0  0  0
    4.8778   52.6407   18.7668 H   0  0  0  0  0  0
    4.1706   55.1516   16.1198 H   0  0  0  0  0  0
    6.6345   55.0211   16.6782 H   0  0  0  0  0  0
    6.5010   53.2485   16.9744 H   0  0  0  0  0  0
    5.8951   54.6764   14.3546 H   0  0  0  0  0  0
    7.3857   53.8860   14.6178 H   0  0  0  0  0  0
    3.8016   53.6037   14.0878 H   0  0  0  0  0  0
    3.5889   51.8754   14.3248 H   0  0  0  0  0  0
    4.1866   52.1013   16.7085 H   0  0  0  0  0  0
    2.7583   53.1072   16.2716 H   0  0  0  0  0  0
    8.3339   52.3189   15.8570 H   0  0  0  0  0  0
   10.6826   51.4092   15.3761 H   0  0  0  0  0  0
   10.7055   49.7801   13.2840 H   0  0  0  0  0  0
    2.8312   52.7981   25.7319 H   0  0  0  0  0  0
    2.2436   54.4274   25.5210 H   0  0  0  0  0  0
  1  2  1  0  0  0
  1 34  1  0  0  0
  1 35  1  0  0  0
  1 36  1  0  0  0
  2  3  1  0  0  0
  2  4  1  0  0  0
  2  5  1  0  0  0
  3 37  1  0  0  0
  3 38  1  0  0  0
  3 39  1  0  0  0
  4 40  1  0  0  0
  4 41  1  0  0  0
  4 42  1  0  0  0
  5  6  1  0  0  0
  5 33  1  0  0  0
  5  7  1  0  0  0
  7  8  1  0  0  0
  7 43  1  0  0  0
  7 44  1  0  0  0
  8  9  1  0  0  0
  8 45  1  0  0  0
  8 46  1  0  0  0
  9 13  1  0  0  0
  9 10  2  0  0  0
 10 11  1  0  0  0
 10 33  1  0  0  0
 11 12  2  0  0  0
 11 47  1  0  0  0
 12 13  1  0  0  0
 12 14  1  0  0  0
 14 15  2  0  0  0
 14 16  1  0  0  0
 16 17  1  0  0  0
 16 48  1  0  0  0
 17 18  1  0  0  0
 17 49  1  0  0  0
 18 19  2  0  0  0
 18 20  1  0  0  0
 20 25  1  0  0  0
 20 21  1  0  0  0
 20 50  1  0  0  0
 21 22  1  0  0  0
 21 51  1  0  0  0
 21 52  1  0  0  0
 22 23  1  0  0  0
 22 53  1  0  0  0
 22 54  1  0  0  0
 23 24  1  0  0  0
 23 26  1  0  0  0
 24 25  1  0  0  0
 24 55  1  0  0  0
 24 56  1  0  0  0
 25 57  1  0  0  0
 25 58  1  0  0  0
 26 27  2  0  0  0
 26 28  1  0  0  0
 28 32  1  0  0  0
 28 29  2  0  0  0
 29 30  1  0  0  0
 29 59  1  0  0  0
 30 31  2  0  0  0
 30 60  1  0  0  0
 31 32  1  0  0  0
 31 61  1  0  0  0
 33 62  1  0  0  0
 33 63  1  0  0  0
M  END
> <i_i_glide_confnum>
96

> <i_i_glide_lignum>
4333

> <i_i_glide_posenum>
251

> <i_i_glide_rotatable_bonds>
8

> <i_m_Source_File_Index>
259

> <b_m_subgroup_collapsed>
0

> <r_i_docking_score>
-5.30194

> <r_i_glide_ecoul>
-2.38699

> <r_i_glide_eff_state_penalty>
0

> <r_i_glide_einternal>
6.54393

> <r_i_glide_emodel>
-56.1991

> <r_i_glide_energy>
-43.4104

> <r_i_glide_erotb>
0.631181

> <r_i_glide_esite>
-0.0605015

> <r_i_glide_evdw>
-41.0234

> <r_i_glide_gscore>
-5.30194

> <r_i_glide_hbond>
-0.00816716

> <r_i_glide_ligand_efficiency>
-0.165686

> <r_i_glide_ligand_efficiency_ln>
-1.18725

> <r_i_glide_ligand_efficiency_sa>
-0.526019

> <r_i_glide_lipo>
-2.99022

> <r_i_glide_metal>
0

> <r_i_glide_rewards>
-0.465007

> <s_i_glide_gridfile>
wee1_glide-grid

> <s_m_Source_File>
wee1_decoys_glide_SP.sdf

> <s_m_Source_Path>
/Users/zhangxujun/Desktop

> <s_m_entry_id>
534

> <s_m_entry_name>
wee1_decoys_glide_SP.259

> <s_m_subgroup_title>
wee1_decoys_glide_SP

> <s_m_subgroupid>
wee1_decoys_glide_SP


$$$$
