ZINC33422175_2273
                    3D
 Schrodinger Suite 2024-2.
 41 43  0  0  1  0            999 V2000
    0.3607   52.4969   30.2590 C   0  0  0  0  0  0
    1.4737   53.1365   29.7109 C   0  0  0  0  0  0
    1.7337   53.0567   28.3379 C   0  0  0  0  0  0
    0.8489   52.3445   27.5208 C   0  0  0  0  0  0
   -0.2658   51.6951   28.0649 C   0  0  0  0  0  0
   -0.4956   51.7605   29.4406 C   0  0  0  0  0  0
   -1.1143   50.8967   27.2838 N   0  0  0  0  0  0
   -1.5825   51.1859   26.0494 C   0  0  0  0  0  0
   -1.3346   52.2398   25.4562 O   0  0  0  0  0  0
   -2.4397   50.1016   25.3655 C   0  0  0  0  0  0
   -3.1018   50.6166   24.3254 F   0  0  0  0  0  0
   -3.3203   49.5899   26.2294 F   0  0  0  0  0  0
   -1.6443   49.1261   24.9218 F   0  0  0  0  0  0
    2.9515   53.6698   27.7329 C   0  0  0  0  0  0
    4.0156   54.1612   28.3232 N   0  0  0  0  0  0
    4.9041   54.4968   27.3013 N   0  0  0  0  0  0
    4.2971   54.2043   26.1751 C   0  0  0  0  0  0
    3.0614   53.6885   26.3822 O   0  0  0  0  0  0
    4.7992   54.3134   24.7744 C   0  0  0  0  0  0
    6.0700   54.8272   24.4988 C   0  0  0  0  0  0
    6.5293   54.8967   23.1844 C   0  0  0  0  0  0
    5.7330   54.4411   22.1352 C   0  0  0  0  0  0
    4.4740   53.8912   22.3916 C   0  0  0  0  0  0
    4.0013   53.8665   23.7125 C   0  0  0  0  0  0
    3.7532   53.3964   21.2869 N   0  0  0  0  0  0
    2.7634   52.4698   21.2690 C   0  0  0  0  0  0
    2.3337   51.8980   22.2747 O   0  0  0  0  0  0
    2.1648   52.0959   19.8969 C   0  0  0  0  0  0
    2.3370   50.7889   19.6824 F   0  0  0  0  0  0
    0.8535   52.3534   19.9020 F   0  0  0  0  0  0
    2.7429   52.7825   18.9062 F   0  0  0  0  0  0
    0.1718   52.5426   31.3230 H   0  0  0  0  0  0
    2.1442   53.6809   30.3571 H   0  0  0  0  0  0
    1.0489   52.2588   26.4626 H   0  0  0  0  0  0
   -1.3305   51.2358   29.8844 H   0  0  0  0  0  0
   -1.3794   49.9957   27.6930 H   0  0  0  0  0  0
    6.7028   55.1752   25.3018 H   0  0  0  0  0  0
    7.5042   55.3078   22.9775 H   0  0  0  0  0  0
    6.1138   54.4970   21.1258 H   0  0  0  0  0  0
    3.0181   53.4822   23.9313 H   0  0  0  0  0  0
    4.0546   53.7341   20.3837 H   0  0  0  0  0  0
  1  6  2  0  0  0
  1  2  1  0  0  0
  1 32  1  0  0  0
  2  3  2  0  0  0
  2 33  1  0  0  0
  3  4  1  0  0  0
  3 14  1  0  0  0
  4  5  2  0  0  0
  4 34  1  0  0  0
  5  6  1  0  0  0
  5  7  1  0  0  0
  6 35  1  0  0  0
  7  8  1  0  0  0
  7 36  1  0  0  0
  8  9  2  0  0  0
  8 10  1  0  0  0
 10 11  1  0  0  0
 10 12  1  0  0  0
 10 13  1  0  0  0
 14 18  1  0  0  0
 14 15  2  0  0  0
 15 16  1  0  0  0
 16 17  2  0  0  0
 17 18  1  0  0  0
 17 19  1  0  0  0
 19 24  2  0  0  0
 19 20  1  0  0  0
 20 21  2  0  0  0
 20 37  1  0  0  0
 21 22  1  0  0  0
 21 38  1  0  0  0
 22 23  2  0  0  0
 22 39  1  0  0  0
 23 24  1  0  0  0
 23 25  1  0  0  0
 24 40  1  0  0  0
 25 26  1  0  0  0
 25 41  1  0  0  0
 26 27  2  0  0  0
 26 28  1  0  0  0
 28 29  1  0  0  0
 28 30  1  0  0  0
 28 31  1  0  0  0
M  END
> <i_i_glide_confnum>
101

> <i_i_glide_lignum>
2274

> <i_i_glide_posenum>
316

> <i_i_glide_rotatable_bonds>
8

> <i_m_Source_File_Index>
760

> <b_m_subgroup_collapsed>
0

> <r_i_docking_score>
-5.33987

> <r_i_glide_ecoul>
-4.66002

> <r_i_glide_eff_state_penalty>
0

> <r_i_glide_einternal>
6.65165

> <r_i_glide_emodel>
-56.8713

> <r_i_glide_energy>
-44.8261

> <r_i_glide_erotb>
0.60789

> <r_i_glide_esite>
-0.368065

> <r_i_glide_evdw>
-40.1661

> <r_i_glide_gscore>
-5.33987

> <r_i_glide_hbond>
-0.16

> <r_i_glide_ligand_efficiency>
-0.172254

> <r_i_glide_ligand_efficiency_ln>
-1.2043

> <r_i_glide_ligand_efficiency_sa>
-0.541115

> <r_i_glide_lipo>
-2.39216

> <r_i_glide_metal>
0

> <r_i_glide_rewards>
-0.320224

> <s_i_glide_gridfile>
wee1_glide-grid

> <s_m_Source_File>
wee1_decoys_glide_SP.sdf

> <s_m_Source_Path>
/Users/zhangxujun/Desktop

> <s_m_entry_id>
1035

> <s_m_entry_name>
wee1_decoys_glide_SP.760

> <s_m_subgroup_title>
wee1_decoys_glide_SP

> <s_m_subgroupid>
wee1_decoys_glide_SP


$$$$
