ZINC38172971_3478
                    3D
 Schrodinger Suite 2024-2.
 63 67  0  0  1  0            999 V2000
    2.9336   52.3884   20.8356 C   0  0  0  0  0  0
    3.2810   52.8174   22.1058 C   0  0  0  0  0  0
    4.3591   53.6976   22.3121 C   0  0  0  0  0  0
    5.1044   54.0953   21.2004 C   0  0  0  0  0  0
    4.7697   53.6666   19.9204 C   0  0  0  0  0  0
    3.6762   52.8200   19.7435 C   0  0  0  0  0  0
    3.2727   52.3756   18.3619 C   0  0  0  0  0  0
    2.5914   53.5332   17.6316 N   0  3  0  0  0  0
    1.7600   53.2321   16.3652 C   0  0  2  0  0  0
    0.8749   52.7355   16.7708 H   0  0  0  0  0  0
    2.5213   52.2325   15.4368 C   0  0  0  0  0  0
    2.3043   50.8966   15.8695 O   0  0  0  0  0  0
    1.3103   54.6038   15.7463 C   0  0  0  0  0  0
    2.5251   55.4153   15.1858 C   0  0  0  0  0  0
    2.0630   56.7700   14.5844 C   0  0  2  0  0  0
    1.3692   57.6158   15.6838 C   0  0  0  0  0  0
    0.1330   56.8529   16.2252 C   0  0  2  0  0  0
    0.5889   55.4973   16.8231 C   0  0  0  0  0  0
   -0.8631   56.5902   15.0687 C   0  0  0  0  0  0
   -0.1711   55.7398   13.9739 C   0  0  1  0  0  0
    1.0632   56.5051   13.4297 C   0  0  0  0  0  0
    0.2901   54.3865   14.5794 C   0  0  0  0  0  0
    4.8471   54.0405   23.5797 N   0  0  0  0  0  0
    4.0783   54.1466   24.5900 C   0  0  0  0  0  0
    4.5599   54.3168   25.9653 C   0  0  0  0  0  0
    3.6016   54.3198   26.9895 C   0  0  0  0  0  0
    3.9808   54.4198   28.3247 C   0  0  0  0  0  0
    5.3285   54.4967   28.6557 C   0  0  0  0  0  0
    6.2967   54.4966   27.6586 C   0  0  0  0  0  0
    5.9223   54.4326   26.3205 C   0  0  0  0  0  0
    6.9216   54.4930   25.3845 O   0  0  0  0  0  0
    2.6561   54.4593   29.6878 Br  0  0  0  0  0  0
    2.0946   51.7197   20.7083 H   0  0  0  0  0  0
    2.7107   52.4367   22.9396 H   0  0  0  0  0  0
    5.9668   54.7318   21.3338 H   0  0  0  0  0  0
    5.3611   53.9883   19.0754 H   0  0  0  0  0  0
    4.1277   52.0969   17.7452 H   0  0  0  0  0  0
    2.5556   51.5524   18.3845 H   0  0  0  0  0  0
    1.9877   53.9930   18.3025 H   0  0  0  0  0  0
    2.1635   52.2838   14.4106 H   0  0  0  0  0  0
    3.5897   52.4492   15.3956 H   0  0  0  0  0  0
    3.1359   50.4186   16.0703 H   0  0  0  0  0  0
    3.2607   55.6047   15.9687 H   0  0  0  0  0  0
    3.0476   54.8387   14.4209 H   0  0  0  0  0  0
    2.9282   57.3137   14.2002 H   0  0  0  0  0  0
    2.0676   57.8338   16.4937 H   0  0  0  0  0  0
    1.0694   58.5861   15.2839 H   0  0  0  0  0  0
   -0.3510   57.4522   16.9984 H   0  0  0  0  0  0
   -0.2742   54.9691   17.2320 H   0  0  0  0  0  0
    1.2352   55.7057   17.6776 H   0  0  0  0  0  0
   -1.7512   56.0776   15.4413 H   0  0  0  0  0  0
   -1.2138   57.5351   14.6495 H   0  0  0  0  0  0
   -0.8731   55.5547   13.1591 H   0  0  0  0  0  0
    0.7541   57.4476   12.9744 H   0  0  0  0  0  0
    1.5448   55.9315   12.6363 H   0  0  0  0  0  0
    0.7249   53.7856   13.7819 H   0  0  0  0  0  0
   -0.5763   53.8256   14.9338 H   0  0  0  0  0  0
    2.9968   54.0816   24.4910 H   0  0  0  0  0  0
    2.5465   54.2384   26.7660 H   0  0  0  0  0  0
    5.6322   54.5927   29.6818 H   0  0  0  0  0  0
    7.3397   54.5702   27.9291 H   0  0  0  0  0  0
    3.3086   54.2009   17.3889 H   0  0  0  0  0  0
    6.5466   54.3644   24.5036 H   0  0  0  0  0  0
  1  6  2  0  0  0
  1  2  1  0  0  0
  1 33  1  0  0  0
  2  3  2  0  0  0
  2 34  1  0  0  0
  3  4  1  0  0  0
  3 23  1  0  0  0
  4  5  2  0  0  0
  4 35  1  0  0  0
  5  6  1  0  0  0
  5 36  1  0  0  0
  6  7  1  0  0  0
  7  8  1  0  0  0
  7 37  1  0  0  0
  7 38  1  0  0  0
  8  9  1  0  0  0
  8 39  1  0  0  0
  8 62  1  0  0  0
  9 10  1  0  0  0
  9 11  1  0  0  0
  9 13  1  0  0  0
 11 12  1  0  0  0
 11 40  1  0  0  0
 11 41  1  0  0  0
 12 42  1  0  0  0
 13 18  1  0  0  0
 13 22  1  0  0  0
 13 14  1  0  0  0
 14 15  1  0  0  0
 14 43  1  0  0  0
 14 44  1  0  0  0
 15 21  1  0  0  0
 15 16  1  0  0  0
 15 45  1  0  0  0
 16 17  1  0  0  0
 16 46  1  0  0  0
 16 47  1  0  0  0
 17 18  1  0  0  0
 17 19  1  0  0  0
 17 48  1  0  0  0
 18 49  1  0  0  0
 18 50  1  0  0  0
 19 20  1  0  0  0
 19 51  1  0  0  0
 19 52  1  0  0  0
 20 21  1  0  0  0
 20 22  1  0  0  0
 20 53  1  0  0  0
 21 54  1  0  0  0
 21 55  1  0  0  0
 22 56  1  0  0  0
 22 57  1  0  0  0
 23 24  2  0  0  0
 24 25  1  0  0  0
 24 58  1  0  0  0
 25 30  2  0  0  0
 25 26  1  0  0  0
 26 27  2  0  0  0
 26 59  1  0  0  0
 27 28  1  0  0  0
 27 32  1  0  0  0
 28 29  2  0  0  0
 28 60  1  0  0  0
 29 30  1  0  0  0
 29 61  1  0  0  0
 30 31  1  0  0  0
 31 63  1  0  0  0
M  CHG  1   8   1
M  END
> <i_i_glide_confnum>
144

> <i_i_glide_lignum>
3479

> <i_i_glide_posenum>
324

> <i_i_glide_rotatable_bonds>
9

> <i_m_Source_File_Index>
2623

> <b_m_subgroup_collapsed>
0

> <r_i_docking_score>
-5.11596

> <r_i_glide_ecoul>
-8.87969

> <r_i_glide_eff_state_penalty>
0

> <r_i_glide_einternal>
4.61722

> <r_i_glide_emodel>
-53.111

> <r_i_glide_energy>
-41.6424

> <r_i_glide_erotb>
0.519187

> <r_i_glide_esite>
-0.0131004

> <r_i_glide_evdw>
-32.7627

> <r_i_glide_gscore>
-5.11596

> <r_i_glide_hbond>
-0.292191

> <r_i_glide_ligand_efficiency>
-0.165031

> <r_i_glide_ligand_efficiency_ln>
-1.15381

> <r_i_glide_ligand_efficiency_sa>
-0.518425

> <r_i_glide_lipo>
-1.89106

> <r_i_glide_metal>
0

> <r_i_glide_rewards>
-0.468705

> <s_i_glide_gridfile>
wee1_glide-grid

> <s_m_Source_File>
wee1_decoys_glide_SP.sdf

> <s_m_Source_Path>
/Users/zhangxujun/Desktop

> <s_m_entry_id>
2898

> <s_m_entry_name>
wee1_decoys_glide_SP.2623

> <s_m_subgroup_title>
wee1_decoys_glide_SP

> <s_m_subgroupid>
wee1_decoys_glide_SP


$$$$
