ZINC40984686_4855
                    3D
 Schrodinger Suite 2024-2.
 64 67  0  0  1  0            999 V2000
    7.1034   54.5148   23.0593 C   0  0  0  0  0  0
    5.6311   54.2541   23.2271 C   0  0  0  0  0  0
    4.5657   54.0139   22.3711 C   0  0  0  0  0  0
    3.4587   53.8533   23.0847 N   0  0  0  0  0  0
    3.8328   53.9607   24.3418 C   0  0  0  0  0  0
    5.1545   54.2213   24.4921 O   0  0  0  0  0  0
    3.0247   53.6968   25.5709 C   0  0  0  0  0  0
    3.5079   54.0878   26.8233 C   0  0  0  0  0  0
    2.8028   53.7631   27.9801 C   0  0  0  0  0  0
    1.6178   53.0318   27.9080 C   0  0  0  0  0  0
    1.1173   52.6632   26.6502 C   0  0  0  0  0  0
    1.8126   53.0015   25.4902 C   0  0  0  0  0  0
    1.0176   52.7149   29.1111 O   0  0  0  0  0  0
   -0.1290   51.8683   29.1157 C   0  0  0  0  0  0
    4.5785   53.9255   20.8485 C   0  0  0  0  0  0
    3.4623   52.9932   20.3173 N   0  3  1  0  0  0
    3.2822   53.1917   18.7936 C   0  0  0  0  0  0
    2.0541   52.3789   18.3518 C   0  0  0  0  0  0
    2.2738   50.8860   18.6966 C   0  0  1  0  0  0
    2.5372   50.6758   20.2082 C   0  0  0  0  0  0
    3.7560   51.5097   20.6464 C   0  0  0  0  0  0
    1.0316   50.0687   18.2921 C   0  0  0  0  0  0
   -0.0885   50.4242   18.6609 O   0  0  0  0  0  0
    1.2475   48.9836   17.5270 N   0  0  0  0  0  0
    0.2197   48.0631   17.0338 C   0  0  0  0  0  0
   -0.4604   47.2142   18.1076 C   0  0  0  0  0  0
   -1.5941   47.6989   18.7695 C   0  0  0  0  0  0
   -2.2591   46.9094   19.7036 C   0  0  0  0  0  0
   -1.8189   45.6127   19.9604 C   0  0  0  0  0  0
   -0.7063   45.0950   19.2836 C   0  0  0  0  0  0
   -0.0271   45.9067   18.3636 C   0  0  0  0  0  0
   -0.2657   43.6562   19.5379 C   0  0  0  0  0  0
   -0.9638   42.8443   18.7466 F   0  0  0  0  0  0
    1.0291   43.4706   19.2825 F   0  0  0  0  0  0
   -0.4943   43.2960   20.8023 F   0  0  0  0  0  0
    7.6974   53.6282   23.2822 H   0  0  0  0  0  0
    7.3540   54.8355   22.0481 H   0  0  0  0  0  0
    7.4437   55.3078   23.7308 H   0  0  0  0  0  0
    4.4404   54.6261   26.9101 H   0  0  0  0  0  0
    3.1936   54.0561   28.9439 H   0  0  0  0  0  0
    0.1987   52.1038   26.5548 H   0  0  0  0  0  0
    1.4243   52.6858   24.5329 H   0  0  0  0  0  0
   -0.4462   51.6951   30.1435 H   0  0  0  0  0  0
   -0.9650   52.3227   28.5844 H   0  0  0  0  0  0
    0.0884   50.8971   28.6681 H   0  0  0  0  0  0
    5.5151   53.5600   20.4250 H   0  0  0  0  0  0
    4.3662   54.8969   20.4071 H   0  0  0  0  0  0
    4.2039   52.8764   18.2983 H   0  0  0  0  0  0
    3.1061   54.2562   18.6207 H   0  0  0  0  0  0
    1.9560   52.5253   17.2745 H   0  0  0  0  0  0
    1.2021   52.8024   18.8862 H   0  0  0  0  0  0
    3.1044   50.4979   18.1068 H   0  0  0  0  0  0
    1.6984   51.0228   20.8162 H   0  0  0  0  0  0
    2.7795   49.6335   20.4264 H   0  0  0  0  0  0
    4.6754   51.2338   20.1254 H   0  0  0  0  0  0
    3.9017   51.4303   21.7245 H   0  0  0  0  0  0
    2.2009   48.8115   17.2258 H   0  0  0  0  0  0
    0.6798   47.4036   16.2951 H   0  0  0  0  0  0
   -0.5365   48.6274   16.4830 H   0  0  0  0  0  0
   -1.9584   48.6965   18.5657 H   0  0  0  0  0  0
   -3.1252   47.3003   20.2190 H   0  0  0  0  0  0
   -2.3549   45.0094   20.6771 H   0  0  0  0  0  0
    0.8294   45.5178   17.8311 H   0  0  0  0  0  0
    2.6077   53.2831   20.7756 H   0  0  0  0  0  0
  1  2  1  0  0  0
  1 36  1  0  0  0
  1 37  1  0  0  0
  1 38  1  0  0  0
  2  6  1  0  0  0
  2  3  2  0  0  0
  3  4  1  0  0  0
  3 15  1  0  0  0
  4  5  2  0  0  0
  5  6  1  0  0  0
  5  7  1  0  0  0
  7 12  2  0  0  0
  7  8  1  0  0  0
  8  9  2  0  0  0
  8 39  1  0  0  0
  9 10  1  0  0  0
  9 40  1  0  0  0
 10 11  2  0  0  0
 10 13  1  0  0  0
 11 12  1  0  0  0
 11 41  1  0  0  0
 12 42  1  0  0  0
 13 14  1  0  0  0
 14 43  1  0  0  0
 14 44  1  0  0  0
 14 45  1  0  0  0
 15 16  1  0  0  0
 15 46  1  0  0  0
 15 47  1  0  0  0
 16 21  1  0  0  0
 16 17  1  0  0  0
 16 64  1  0  0  0
 17 18  1  0  0  0
 17 48  1  0  0  0
 17 49  1  0  0  0
 18 19  1  0  0  0
 18 50  1  0  0  0
 18 51  1  0  0  0
 19 20  1  0  0  0
 19 22  1  0  0  0
 19 52  1  0  0  0
 20 21  1  0  0  0
 20 53  1  0  0  0
 20 54  1  0  0  0
 21 55  1  0  0  0
 21 56  1  0  0  0
 22 23  2  0  0  0
 22 24  1  0  0  0
 24 25  1  0  0  0
 24 57  1  0  0  0
 25 26  1  0  0  0
 25 58  1  0  0  0
 25 59  1  0  0  0
 26 31  2  0  0  0
 26 27  1  0  0  0
 27 28  2  0  0  0
 27 60  1  0  0  0
 28 29  1  0  0  0
 28 61  1  0  0  0
 29 30  2  0  0  0
 29 62  1  0  0  0
 30 31  1  0  0  0
 30 32  1  0  0  0
 31 63  1  0  0  0
 32 33  1  0  0  0
 32 34  1  0  0  0
 32 35  1  0  0  0
M  CHG  1  16   1
M  END
> <i_i_glide_confnum>
94

> <i_i_glide_lignum>
4856

> <i_i_glide_posenum>
56

> <i_i_glide_rotatable_bonds>
9

> <i_m_Source_File_Index>
5532

> <b_m_subgroup_collapsed>
0

> <r_i_docking_score>
-4.25253

> <r_i_glide_ecoul>
-4.80278

> <r_i_glide_eff_state_penalty>
0

> <r_i_glide_einternal>
2.75644

> <r_i_glide_emodel>
-51.9951

> <r_i_glide_energy>
-39.7908

> <r_i_glide_erotb>
0.596509

> <r_i_glide_esite>
-0.299246

> <r_i_glide_evdw>
-34.988

> <r_i_glide_gscore>
-4.25253

> <r_i_glide_hbond>
-0.13124

> <r_i_glide_ligand_efficiency>
-0.121501

> <r_i_glide_ligand_efficiency_ln>
-0.933525

> <r_i_glide_ligand_efficiency_sa>
-0.397438

> <r_i_glide_lipo>
-1.87065

> <r_i_glide_metal>
0

> <r_i_glide_rewards>
-0.0780883

> <s_i_glide_gridfile>
wee1_glide-grid

> <s_m_Source_File>
wee1_decoys_glide_SP.sdf

> <s_m_Source_Path>
/Users/zhangxujun/Desktop

> <s_m_entry_id>
5807

> <s_m_entry_name>
wee1_decoys_glide_SP.5532

> <s_m_subgroup_title>
wee1_decoys_glide_SP

> <s_m_subgroupid>
wee1_decoys_glide_SP


$$$$
