ZINC63588635_5017
                    3D
 Schrodinger Suite 2024-2.
 58 62  0  0  1  0            999 V2000
    2.7752   50.2896   20.3350 C   0  0  0  0  0  0
    1.2667   50.5183   20.3546 C   0  0  0  0  0  0
    0.5188   50.1243   19.2395 C   0  0  0  0  0  0
   -0.8588   50.3295   19.2026 C   0  0  0  0  0  0
   -1.4986   50.9359   20.2796 C   0  0  0  0  0  0
   -0.7616   51.3341   21.3931 C   0  0  0  0  0  0
    0.6262   51.1245   21.4538 C   0  0  0  0  0  0
    1.3971   51.5329   22.5584 N   0  0  0  0  0  0
    1.0458   52.2208   23.7632 C   0  0  0  0  0  0
   -0.0204   51.5577   24.4452 N   0  0  0  0  0  0
   -0.5024   51.9943   25.7582 C   0  0  0  0  0  0
    0.4630   51.5974   26.8924 C   0  0  0  0  0  0
    0.1561   52.2093   28.2504 C   0  0  0  0  0  0
    0.5352   53.3668   28.8305 C   0  0  0  0  0  0
    1.2902   54.5164   28.3111 C   0  0  0  0  0  0
    1.5745   55.5770   29.0949 C   0  0  0  0  0  0
    1.1080   55.5509   30.4736 C   0  0  0  0  0  0
    0.4123   54.4950   30.9730 C   0  0  0  0  0  0
    0.1281   53.3869   30.1690 C   0  0  0  0  0  0
   -0.4961   52.2801   30.4817 N   0  3  0  0  0  0
   -0.6063   51.4287   29.2909 C   0  0  0  0  0  0
    1.6637   53.2297   24.2644 N   0  0  0  0  0  0
    2.7999   53.7719   23.6700 C   0  0  0  0  0  0
    2.8417   54.1093   22.4857 O   0  0  0  0  0  0
    3.9806   54.0010   24.5918 C   0  0  0  0  0  0
    5.1999   54.4969   24.0746 C   0  0  0  0  0  0
    6.2986   54.7598   24.9072 C   0  0  0  0  0  0
    6.1479   54.4993   26.2643 C   0  0  0  0  0  0
    4.9979   53.9678   26.7693 C   0  0  0  0  0  0
    3.9049   53.7006   25.9662 C   0  0  0  0  0  0
    5.1408   53.7367   28.0982 O   0  0  0  0  0  0
    6.2704   54.4755   28.4482 C   0  0  0  0  0  0
    7.0304   54.6714   27.2812 O   0  0  0  0  0  0
   -1.7695   49.8394   17.8218 Cl  0  0  0  0  0  0
    3.1088   49.7811   19.4281 H   0  0  0  0  0  0
    3.3036   51.2422   20.3952 H   0  0  0  0  0  0
    3.0816   49.6855   21.1894 H   0  0  0  0  0  0
    1.0088   49.6643   18.3927 H   0  0  0  0  0  0
   -2.5657   51.0986   20.2518 H   0  0  0  0  0  0
   -1.2866   51.8164   22.2029 H   0  0  0  0  0  0
   -0.1146   50.5675   24.2689 H   0  0  0  0  0  0
   -0.6568   53.0693   25.7379 H   0  0  0  0  0  0
   -1.4820   51.5481   25.9371 H   0  0  0  0  0  0
    0.4897   50.5107   26.9942 H   0  0  0  0  0  0
    1.4788   51.8797   26.6376 H   0  0  0  0  0  0
    1.5990   54.5630   27.2800 H   0  0  0  0  0  0
    2.1100   56.4323   28.7070 H   0  0  0  0  0  0
    1.3196   56.3967   31.1151 H   0  0  0  0  0  0
    0.0934   54.5214   32.0061 H   0  0  0  0  0  0
   -1.6609   51.2546   29.0679 H   0  0  0  0  0  0
   -0.1153   50.4967   29.5116 H   0  0  0  0  0  0
    2.3879   51.4840   22.3784 H   0  0  0  0  0  0
    5.2970   54.7058   23.0177 H   0  0  0  0  0  0
    7.2175   55.1537   24.4973 H   0  0  0  0  0  0
    3.0313   53.2597   26.4048 H   0  0  0  0  0  0
    5.9044   55.4258   28.8448 H   0  0  0  0  0  0
    6.8628   53.9933   29.2260 H   0  0  0  0  0  0
   -0.8880   52.0480   31.4036 H   0  0  0  0  0  0
  1  2  1  0  0  0
  1 35  1  0  0  0
  1 36  1  0  0  0
  1 37  1  0  0  0
  2  7  2  0  0  0
  2  3  1  0  0  0
  3  4  2  0  0  0
  3 38  1  0  0  0
  4  5  1  0  0  0
  4 34  1  0  0  0
  5  6  2  0  0  0
  5 39  1  0  0  0
  6  7  1  0  0  0
  6 40  1  0  0  0
  7  8  1  0  0  0
  8 52  1  0  0  0
  8  9  1  0  0  0
  9 10  1  0  0  0
  9 22  2  0  0  0
 10 11  1  0  0  0
 10 41  1  0  0  0
 11 12  1  0  0  0
 11 42  1  0  0  0
 11 43  1  0  0  0
 12 13  1  0  0  0
 12 44  1  0  0  0
 12 45  1  0  0  0
 13 21  1  0  0  0
 13 14  2  0  0  0
 14 19  1  0  0  0
 14 15  1  0  0  0
 15 16  2  0  0  0
 15 46  1  0  0  0
 16 17  1  0  0  0
 16 47  1  0  0  0
 17 18  2  0  0  0
 17 48  1  0  0  0
 18 19  1  0  0  0
 18 49  1  0  0  0
 19 20  2  0  0  0
 20 21  1  0  0  0
 20 58  1  0  0  0
 21 50  1  0  0  0
 21 51  1  0  0  0
 22 23  1  0  0  0
 23 24  2  0  0  0
 23 25  1  0  0  0
 25 30  2  0  0  0
 25 26  1  0  0  0
 26 27  2  0  0  0
 26 53  1  0  0  0
 27 28  1  0  0  0
 27 54  1  0  0  0
 28 33  1  0  0  0
 28 29  2  0  0  0
 29 30  1  0  0  0
 29 31  1  0  0  0
 30 55  1  0  0  0
 31 32  1  0  0  0
 32 33  1  0  0  0
 32 56  1  0  0  0
 32 57  1  0  0  0
M  CHG  1  20   1
M  END
> <i_i_glide_confnum>
63

> <i_i_glide_lignum>
5018

> <i_i_glide_posenum>
324

> <i_i_glide_rotatable_bonds>
8

> <i_m_Source_File_Index>
4410

> <b_m_subgroup_collapsed>
0

> <r_i_docking_score>
-6.65987

> <r_i_glide_ecoul>
-3.92928

> <r_i_glide_eff_state_penalty>
0

> <r_i_glide_einternal>
8.6102

> <r_i_glide_emodel>
-70.1647

> <r_i_glide_energy>
-50.3663

> <r_i_glide_erotb>
0.536262

> <r_i_glide_esite>
-0.1

> <r_i_glide_evdw>
-46.437

> <r_i_glide_gscore>
-6.65987

> <r_i_glide_hbond>
-0.313102

> <r_i_glide_ligand_efficiency>
-0.195878

> <r_i_glide_ligand_efficiency_ln>
-1.47135

> <r_i_glide_ligand_efficiency_sa>
-0.63457

> <r_i_glide_lipo>
-3.09748

> <r_i_glide_metal>
0

> <r_i_glide_rewards>
-0.774308

> <s_i_glide_gridfile>
wee1_glide-grid

> <s_m_Source_File>
wee1_decoys_glide_SP.sdf

> <s_m_Source_Path>
/Users/zhangxujun/Desktop

> <s_m_entry_id>
4685

> <s_m_entry_name>
wee1_decoys_glide_SP.4410

> <s_m_subgroup_title>
wee1_decoys_glide_SP

> <s_m_subgroupid>
wee1_decoys_glide_SP


$$$$
