ZINC32127134_4067
                    3D
 Schrodinger Suite 2024-2.
 61 65  0  0  1  0            999 V2000
    1.1636   53.8704   17.2863 C   0  0  0  0  0  0
   -0.0418   54.5344   17.0685 C   0  0  0  0  0  0
   -1.2248   53.8045   16.9513 C   0  0  0  0  0  0
   -1.2039   52.4131   17.0089 C   0  0  0  0  0  0
    0.0019   51.7481   17.2237 C   0  0  0  0  0  0
    1.1828   52.4766   17.4043 C   0  0  0  0  0  0
    2.4955   51.7560   17.7092 C   0  0  0  0  0  0
    2.7046   51.2919   19.1760 N   0  3  0  0  0  0
    1.7640   50.1396   19.5782 C   0  0  0  0  0  0
    2.0714   49.6928   21.0229 C   0  0  0  0  0  0
    1.9925   50.7838   22.0144 N   0  0  0  0  0  0
    2.8525   51.9174   21.6252 C   0  0  0  0  0  0
    2.5849   52.4483   20.1947 C   0  0  0  0  0  0
    1.1782   50.7482   23.1527 C   0  0  0  0  0  0
    0.8132   49.5266   23.7381 C   0  0  0  0  0  0
   -0.0334   49.4734   24.8429 C   0  0  0  0  0  0
   -0.5525   50.6489   25.3813 C   0  0  0  0  0  0
   -0.1546   51.8813   24.8484 C   0  0  0  0  0  0
    0.6891   51.9261   23.7377 C   0  0  0  0  0  0
   -1.4587   50.5248   26.4572 N   0  0  0  0  0  0
   -2.7083   51.0579   26.6453 C   0  0  0  0  0  0
   -3.4320   52.1626   25.5907 S   0  0  0  0  0  0
   -3.2959   50.4967   27.7529 N   0  0  0  0  0  0
   -4.5135   50.6712   28.3293 C   0  0  0  0  0  0
   -5.1942   51.6964   28.2427 O   0  0  0  0  0  0
   -5.0224   49.5104   29.1543 C   0  0  0  0  0  0
   -4.4954   48.2090   28.9881 C   0  0  0  0  0  0
   -4.9516   47.1300   29.7481 C   0  0  0  0  0  0
   -5.9650   47.3744   30.6630 C   0  0  0  0  0  0
   -6.5025   48.6175   30.8273 C   0  0  0  0  0  0
   -6.0594   49.7096   30.0890 C   0  0  0  0  0  0
   -7.4915   48.5580   31.7560 O   0  0  0  0  0  0
   -7.3926   47.2820   32.3252 C   0  0  0  0  0  0
   -6.5977   46.4965   31.4816 O   0  0  0  0  0  0
   -2.7246   54.6343   16.7419 Cl  0  0  0  0  0  0
    2.0702   54.4473   17.4029 H   0  0  0  0  0  0
   -0.0577   55.6152   17.0084 H   0  0  0  0  0  0
   -2.1200   51.8509   16.8942 H   0  0  0  0  0  0
    0.0161   50.6688   17.2732 H   0  0  0  0  0  0
    3.3566   52.3965   17.5112 H   0  0  0  0  0  0
    2.6131   50.8613   17.0988 H   0  0  0  0  0  0
    0.7341   50.4860   19.4665 H   0  0  0  0  0  0
    1.9804   49.3362   18.8744 H   0  0  0  0  0  0
    3.0889   49.3013   21.0964 H   0  0  0  0  0  0
    1.4026   48.8681   21.2704 H   0  0  0  0  0  0
    2.8046   52.7387   22.3382 H   0  0  0  0  0  0
    3.8750   51.5402   21.6911 H   0  0  0  0  0  0
    1.5937   52.8946   20.0929 H   0  0  0  0  0  0
    3.3463   53.1757   19.9103 H   0  0  0  0  0  0
    1.1872   48.5916   23.3511 H   0  0  0  0  0  0
   -0.2990   48.5118   25.2633 H   0  0  0  0  0  0
   -0.5199   52.8035   25.2727 H   0  0  0  0  0  0
    0.9318   52.8925   23.3247 H   0  0  0  0  0  0
   -1.2199   49.7773   27.1016 H   0  0  0  0  0  0
   -2.8137   49.6657   28.0827 H   0  0  0  0  0  0
   -3.6993   48.0096   28.2848 H   0  0  0  0  0  0
   -4.5063   46.1566   29.6153 H   0  0  0  0  0  0
   -6.5090   50.6815   30.2329 H   0  0  0  0  0  0
   -6.8919   47.3618   33.2880 H   0  0  0  0  0  0
   -8.3774   46.8314   32.4535 H   0  0  0  0  0  0
    3.6535   50.9273   19.2101 H   0  0  0  0  0  0
  1  6  2  0  0  0
  1  2  1  0  0  0
  1 36  1  0  0  0
  2  3  2  0  0  0
  2 37  1  0  0  0
  3  4  1  0  0  0
  3 35  1  0  0  0
  4  5  2  0  0  0
  4 38  1  0  0  0
  5  6  1  0  0  0
  5 39  1  0  0  0
  6  7  1  0  0  0
  7  8  1  0  0  0
  7 40  1  0  0  0
  7 41  1  0  0  0
  8 13  1  0  0  0
  8  9  1  0  0  0
  8 61  1  0  0  0
  9 10  1  0  0  0
  9 42  1  0  0  0
  9 43  1  0  0  0
 10 11  1  0  0  0
 10 44  1  0  0  0
 10 45  1  0  0  0
 11 12  1  0  0  0
 11 14  1  0  0  0
 12 13  1  0  0  0
 12 46  1  0  0  0
 12 47  1  0  0  0
 13 48  1  0  0  0
 13 49  1  0  0  0
 14 19  2  0  0  0
 14 15  1  0  0  0
 15 16  2  0  0  0
 15 50  1  0  0  0
 16 17  1  0  0  0
 16 51  1  0  0  0
 17 18  2  0  0  0
 17 20  1  0  0  0
 18 19  1  0  0  0
 18 52  1  0  0  0
 19 53  1  0  0  0
 20 21  1  0  0  0
 20 54  1  0  0  0
 21 22  2  0  0  0
 21 23  1  0  0  0
 23 24  1  0  0  0
 23 55  1  0  0  0
 24 25  2  0  0  0
 24 26  1  0  0  0
 26 31  2  0  0  0
 26 27  1  0  0  0
 27 28  2  0  0  0
 27 56  1  0  0  0
 28 29  1  0  0  0
 28 57  1  0  0  0
 29 34  1  0  0  0
 29 30  2  0  0  0
 30 31  1  0  0  0
 30 32  1  0  0  0
 31 58  1  0  0  0
 32 33  1  0  0  0
 33 34  1  0  0  0
 33 59  1  0  0  0
 33 60  1  0  0  0
M  CHG  1   8   1
M  END
> <i_i_glide_confnum>
112

> <i_i_glide_lignum>
4068

> <i_i_glide_posenum>
213

> <i_i_glide_rotatable_bonds>
8

> <i_m_Source_File_Index>
3348

> <b_m_subgroup_collapsed>
0

> <r_i_docking_score>
-3.14896

> <r_i_glide_ecoul>
-8.54695

> <r_i_glide_eff_state_penalty>
0

> <r_i_glide_einternal>
9.19215

> <r_i_glide_emodel>
-46.1401

> <r_i_glide_energy>
-41.4948

> <r_i_glide_erotb>
0.551213

> <r_i_glide_esite>
-0.369536

> <r_i_glide_evdw>
-32.9478

> <r_i_glide_gscore>
-3.14896

> <r_i_glide_hbond>
-0.462364

> <r_i_glide_ligand_efficiency>
-0.0899704

> <r_i_glide_ligand_efficiency_ln>
-0.691267

> <r_i_glide_ligand_efficiency_sa>
-0.294299

> <r_i_glide_lipo>
-0.333704

> <r_i_glide_metal>
0

> <r_i_glide_rewards>
0.39486

> <s_i_glide_gridfile>
wee1_glide-grid

> <s_m_Source_File>
wee1_decoys_glide_SP.sdf

> <s_m_Source_Path>
/Users/zhangxujun/Desktop

> <s_m_entry_id>
3623

> <s_m_entry_name>
wee1_decoys_glide_SP.3348

> <s_m_subgroup_title>
wee1_decoys_glide_SP

> <s_m_subgroupid>
wee1_decoys_glide_SP


$$$$
