ZINC59170739_5568
                    3D
 Schrodinger Suite 2024-2.
 57 60  0  0  1  0            999 V2000
    3.9073   53.3904   30.1227 C   0  0  0  0  0  0
    4.4432   53.7535   28.7526 C   0  0  0  0  0  0
    3.5696   54.1955   27.7600 C   0  0  0  0  0  0
    4.0604   54.4972   26.4955 C   0  0  0  0  0  0
    5.4228   54.3455   26.2210 C   0  0  0  0  0  0
    6.3016   53.9228   27.2155 C   0  0  0  0  0  0
    5.8090   53.6323   28.4813 C   0  0  0  0  0  0
    6.0407   54.6588   24.5804 S   0  0  0  0  0  0
    7.1046   53.6968   24.3052 O   0  0  0  0  0  0
    6.3046   56.0963   24.4850 O   0  0  0  0  0  0
    4.7018   54.2662   23.5279 N   0  0  0  0  0  0
    4.9704   54.3795   22.2515 N   0  3  0  0  0  0
    4.4321   53.6902   21.2495 C   0  0  0  0  0  0
    4.7013   53.9445   19.8815 C   0  0  0  0  0  0
    4.0339   53.1567   18.9843 C   0  0  0  0  0  0
    3.1038   52.0869   19.3719 C   0  0  0  0  0  0
    2.4554   51.2316   18.4797 C   0  0  0  0  0  0
    1.6564   50.1825   18.9638 C   0  0  0  0  0  0
    1.5109   50.0224   20.3537 C   0  0  0  0  0  0
    2.1478   50.8876   21.2450 C   0  0  0  0  0  0
    2.9440   51.9138   20.7437 C   0  0  0  0  0  0
    3.6041   52.7516   21.6230 O   0  0  0  0  0  0
    0.9943   49.2476   18.0257 N   0  3  0  0  0  0
    0.5919   48.1732   18.4639 O   0  0  0  0  0  0
    0.8517   49.5935   16.8572 O   0  5  0  0  0  0
    5.6290   54.9882   19.4437 C   0  0  0  0  0  0
    6.6032   55.3137   20.1300 O   0  0  0  0  0  0
    5.3031   55.6117   18.2884 N   0  0  0  0  0  0
    5.9843   56.6730   17.6678 C   0  0  0  0  0  0
    7.3845   56.7817   17.6895 C   0  0  0  0  0  0
    8.0142   57.8625   17.0767 C   0  0  0  0  0  0
    7.2547   58.8364   16.4340 C   0  0  0  0  0  0
    5.8669   58.7238   16.3917 C   0  0  0  0  0  0
    5.2117   57.6425   17.0044 C   0  0  0  0  0  0
    3.8357   57.4787   17.0016 O   0  0  0  0  0  0
    3.0123   58.4928   16.4307 C   0  0  0  0  0  0
    2.8171   53.4038   30.1589 H   0  0  0  0  0  0
    4.2384   52.3880   30.3965 H   0  0  0  0  0  0
    4.3043   54.0818   30.8650 H   0  0  0  0  0  0
    2.5126   54.2966   27.9606 H   0  0  0  0  0  0
    3.3721   54.8341   25.7350 H   0  0  0  0  0  0
    7.3553   53.8006   27.0101 H   0  0  0  0  0  0
    6.4992   53.2979   29.2397 H   0  0  0  0  0  0
    3.8629   54.8036   23.7617 H   0  0  0  0  0  0
    4.2178   53.2744   17.9242 H   0  0  0  0  0  0
    2.6177   51.3404   17.4143 H   0  0  0  0  0  0
    0.9072   49.2199   20.7517 H   0  0  0  0  0  0
    2.0379   50.7534   22.3119 H   0  0  0  0  0  0
    4.3887   55.4307   17.8994 H   0  0  0  0  0  0
    7.9947   56.0330   18.1740 H   0  0  0  0  0  0
    9.0905   57.9442   17.1013 H   0  0  0  0  0  0
    7.7343   59.6867   15.9715 H   0  0  0  0  0  0
    5.3146   59.5114   15.8984 H   0  0  0  0  0  0
    1.9689   58.1848   16.4823 H   0  0  0  0  0  0
    3.1043   59.4321   16.9777 H   0  0  0  0  0  0
    3.2456   58.6664   15.3798 H   0  0  0  0  0  0
    5.6332   55.1058   21.9887 H   0  0  0  0  0  0
  1  2  1  0  0  0
  1 37  1  0  0  0
  1 38  1  0  0  0
  1 39  1  0  0  0
  2  7  2  0  0  0
  2  3  1  0  0  0
  3  4  2  0  0  0
  3 40  1  0  0  0
  4  5  1  0  0  0
  4 41  1  0  0  0
  5  6  2  0  0  0
  5  8  1  0  0  0
  6  7  1  0  0  0
  6 42  1  0  0  0
  7 43  1  0  0  0
  8  9  2  0  0  0
  8 10  2  0  0  0
  8 11  1  0  0  0
 11 12  1  0  0  0
 11 44  1  0  0  0
 12 13  2  0  0  0
 12 57  1  0  0  0
 13 22  1  0  0  0
 13 14  1  0  0  0
 14 15  2  0  0  0
 14 26  1  0  0  0
 15 16  1  0  0  0
 15 45  1  0  0  0
 16 21  2  0  0  0
 16 17  1  0  0  0
 17 18  2  0  0  0
 17 46  1  0  0  0
 18 19  1  0  0  0
 18 23  1  0  0  0
 19 20  2  0  0  0
 19 47  1  0  0  0
 20 21  1  0  0  0
 20 48  1  0  0  0
 21 22  1  0  0  0
 23 24  2  0  0  0
 23 25  1  0  0  0
 26 27  2  0  0  0
 26 28  1  0  0  0
 28 29  1  0  0  0
 28 49  1  0  0  0
 29 34  2  0  0  0
 29 30  1  0  0  0
 30 31  2  0  0  0
 30 50  1  0  0  0
 31 32  1  0  0  0
 31 51  1  0  0  0
 32 33  2  0  0  0
 32 52  1  0  0  0
 33 34  1  0  0  0
 33 53  1  0  0  0
 34 35  1  0  0  0
 35 36  1  0  0  0
 36 54  1  0  0  0
 36 55  1  0  0  0
 36 56  1  0  0  0
M  CHG  3  12   1  23   1  25  -1
M  END
> <i_i_glide_confnum>
212

> <i_i_glide_lignum>
5569

> <i_i_glide_posenum>
370

> <i_i_glide_rotatable_bonds>
8

> <i_m_Source_File_Index>
4569

> <b_m_subgroup_collapsed>
0

> <r_i_docking_score>
-4.53258

> <r_i_glide_ecoul>
-4.49612

> <r_i_glide_eff_state_penalty>
0

> <r_i_glide_einternal>
3.62264

> <r_i_glide_emodel>
-60.5751

> <r_i_glide_energy>
-49.6516

> <r_i_glide_erotb>
0.473348

> <r_i_glide_esite>
-0.129156

> <r_i_glide_evdw>
-45.1555

> <r_i_glide_gscore>
-4.53258

> <r_i_glide_hbond>
0

> <r_i_glide_ligand_efficiency>
-0.125905

> <r_i_glide_ligand_efficiency_ln>
-0.988886

> <r_i_glide_ligand_efficiency_sa>
-0.415729

> <r_i_glide_lipo>
-1.82723

> <r_i_glide_metal>
0

> <r_i_glide_rewards>
-0.117346

> <s_i_glide_gridfile>
wee1_glide-grid

> <s_m_Source_File>
wee1_decoys_glide_SP.sdf

> <s_m_Source_Path>
/Users/zhangxujun/Desktop

> <s_m_entry_id>
4844

> <s_m_entry_name>
wee1_decoys_glide_SP.4569

> <s_m_subgroup_title>
wee1_decoys_glide_SP

> <s_m_subgroupid>
wee1_decoys_glide_SP


$$$$
