ZINC06768560_5832
                    3D
 Schrodinger Suite 2024-2.
 45 48  0  0  1  0            999 V2000
   -0.0630   50.0374   25.6695 C   0  0  0  0  0  0
   -0.5340   50.2134   24.2105 C   0  0  2  0  0  0
    0.6156   49.9215   23.2016 C   0  0  0  0  0  0
    1.6488   51.0674   23.1030 C   0  0  0  0  0  0
    0.9200   52.3850   22.7671 C   0  0  1  0  0  0
   -0.0809   52.7418   23.8825 C   0  0  0  0  0  0
   -1.1469   51.6268   23.9770 C   0  0  0  0  0  0
    1.8471   53.4819   22.4819 N   0  0  0  0  0  0
    3.0874   53.7287   23.0255 C   0  0  0  0  0  0
    4.3145   53.9963   22.4070 C   0  0  0  0  0  0
    5.2583   54.1976   23.3989 N   0  0  0  0  0  0
    6.2290   54.3777   23.1863 H   0  0  0  0  0  0
    4.6740   54.0969   24.6216 C   0  0  0  0  0  0
    3.3446   53.8196   24.3981 N   0  0  0  0  0  0
    2.6660   53.7005   25.5894 N   0  0  0  0  0  0
    3.5795   53.8963   26.5214 C   0  0  0  0  0  0
    4.8590   54.1341   26.0212 C   0  0  0  0  0  0
    6.1049   54.3376   26.7288 C   0  0  0  0  0  0
    7.1042   54.4966   27.2819 N   0  0  0  0  0  0
    4.7014   54.0542   20.9647 C   0  0  0  0  0  0
    5.7383   54.8969   20.5446 C   0  0  0  0  0  0
    6.1094   54.9395   19.2036 C   0  0  0  0  0  0
    5.4473   54.1362   18.2795 C   0  0  0  0  0  0
    4.4136   53.2965   18.6854 C   0  0  0  0  0  0
    4.0403   53.2562   20.0259 C   0  0  0  0  0  0
    5.9639   54.1823   16.4486 Br  0  0  0  0  0  0
    0.7043   50.7592   25.9452 H   0  0  0  0  0  0
    0.3471   49.0402   25.8372 H   0  0  0  0  0  0
   -0.8916   50.1588   26.3686 H   0  0  0  0  0  0
   -1.3231   49.4861   24.0118 H   0  0  0  0  0  0
    1.1163   48.9876   23.4625 H   0  0  0  0  0  0
    0.1844   49.7524   22.2134 H   0  0  0  0  0  0
    2.3941   50.8291   22.3425 H   0  0  0  0  0  0
    2.1779   51.1539   24.0526 H   0  0  0  0  0  0
    0.3658   52.2390   21.8382 H   0  0  0  0  0  0
   -0.5638   53.6986   23.6821 H   0  0  0  0  0  0
    0.4097   52.8338   24.8479 H   0  0  0  0  0  0
   -1.7291   51.6131   23.0543 H   0  0  0  0  0  0
   -1.8611   51.8616   24.7678 H   0  0  0  0  0  0
    1.6374   53.9090   21.5850 H   0  0  0  0  0  0
    3.3175   53.8441   27.5685 H   0  0  0  0  0  0
    6.2565   55.5280   21.2507 H   0  0  0  0  0  0
    6.9092   55.5891   18.8799 H   0  0  0  0  0  0
    3.9189   52.6582   17.9668 H   0  0  0  0  0  0
    3.2499   52.5857   20.3290 H   0  0  0  0  0  0
  1  2  1  0  0  0
  1 27  1  0  0  0
  1 28  1  0  0  0
  1 29  1  0  0  0
  2  7  1  0  0  0
  2  3  1  0  0  0
  2 30  1  0  0  0
  3  4  1  0  0  0
  3 31  1  0  0  0
  3 32  1  0  0  0
  4  5  1  0  0  0
  4 33  1  0  0  0
  4 34  1  0  0  0
  5  6  1  0  0  0
  5  8  1  0  0  0
  5 35  1  0  0  0
  6  7  1  0  0  0
  6 36  1  0  0  0
  6 37  1  0  0  0
  7 38  1  0  0  0
  7 39  1  0  0  0
  8  9  1  0  0  0
  8 40  1  0  0  0
  9 14  1  0  0  0
  9 10  2  0  0  0
 10 11  1  0  0  0
 10 20  1  0  0  0
 11 12  1  0  0  0
 11 13  1  0  0  0
 13 17  2  0  0  0
 13 14  1  0  0  0
 14 15  1  0  0  0
 15 16  2  0  0  0
 16 17  1  0  0  0
 16 41  1  0  0  0
 17 18  1  0  0  0
 18 19  3  0  0  0
 20 25  2  0  0  0
 20 21  1  0  0  0
 21 22  2  0  0  0
 21 42  1  0  0  0
 22 23  1  0  0  0
 22 43  1  0  0  0
 23 24  2  0  0  0
 23 26  1  0  0  0
 24 25  1  0  0  0
 24 44  1  0  0  0
 25 45  1  0  0  0
M  END
> <i_i_glide_confnum>
18

> <i_i_glide_lignum>
5833

> <i_i_glide_posenum>
267

> <i_i_glide_rotatable_bonds>
4

> <i_m_Source_File_Index>
2209

> <b_m_subgroup_collapsed>
0

> <r_i_docking_score>
-5.69073

> <r_i_glide_ecoul>
-2.71587

> <r_i_glide_eff_state_penalty>
0

> <r_i_glide_einternal>
2.6192

> <r_i_glide_emodel>
-54.5798

> <r_i_glide_energy>
-40.2127

> <r_i_glide_erotb>
0.370328

> <r_i_glide_esite>
0

> <r_i_glide_evdw>
-37.4969

> <r_i_glide_gscore>
-5.69073

> <r_i_glide_hbond>
-0.405221

> <r_i_glide_ligand_efficiency>
-0.227629

> <r_i_glide_ligand_efficiency_ln>
-1.34887

> <r_i_glide_ligand_efficiency_sa>
-0.665592

> <r_i_glide_lipo>
-1.51618

> <r_i_glide_metal>
0

> <r_i_glide_rewards>
-1.85744

> <s_i_glide_gridfile>
wee1_glide-grid

> <s_m_Source_File>
wee1_decoys_glide_SP.sdf

> <s_m_Source_Path>
/Users/zhangxujun/Desktop

> <s_m_entry_id>
2484

> <s_m_entry_name>
wee1_decoys_glide_SP.2209

> <s_m_subgroup_title>
wee1_decoys_glide_SP

> <s_m_subgroupid>
wee1_decoys_glide_SP


$$$$
