ZINC20437310_3446
                    3D
 Schrodinger Suite 2024-2.
 52 56  0  0  1  0            999 V2000
    3.1070   52.4966   28.8654 C   0  0  0  0  0  0
    2.0000   51.7380   28.4810 C   0  0  0  0  0  0
    0.7307   52.3192   28.4099 C   0  0  0  0  0  0
    0.5801   53.6688   28.7508 C   0  0  0  0  0  0
    1.6874   54.4306   29.1373 C   0  0  0  0  0  0
    2.9515   53.8436   29.1888 C   0  0  0  0  0  0
    1.5044   56.0962   29.5545 Cl  0  0  0  0  0  0
   -0.4778   51.4795   27.9904 C   0  0  0  0  0  0
   -0.1611   50.5710   26.9236 O   0  0  0  0  0  0
    0.0760   51.0479   25.6492 C   0  0  0  0  0  0
   -0.2669   52.3356   25.2319 C   0  0  0  0  0  0
    0.1026   52.7919   23.9742 C   0  0  0  0  0  0
    0.8336   51.9681   23.1131 C   0  0  0  0  0  0
    1.1110   50.6517   23.4952 C   0  0  0  0  0  0
    0.7050   50.1899   24.7481 C   0  0  0  0  0  0
    1.2513   52.5009   21.7394 C   0  0  1  0  0  0
    1.0150   53.5646   21.7459 H   0  0  0  0  0  0
    2.7463   52.4015   21.3623 C   0  0  0  0  0  0
    4.0167   52.8908   21.8230 C   0  0  0  0  0  0
    4.9900   52.4798   21.0149 N   0  0  0  0  0  0
    4.4262   51.7206   20.0820 N   0  0  0  0  0  0
    4.9377   51.2655   19.3178 H   0  0  0  0  0  0
    3.0944   51.6486   20.2556 C   0  0  0  0  0  0
    2.3006   50.9560   19.3844 O   0  0  0  0  0  0
    0.9760   51.1403   19.5989 C   0  0  0  0  0  0
    0.4188   51.8461   20.6137 C   0  0  0  0  0  0
   -0.9967   51.9759   20.6642 C   0  0  0  0  0  0
   -2.1452   52.0920   20.6589 N   0  0  0  0  0  0
    0.3180   50.5061   18.5816 N   0  0  0  0  0  0
    4.4167   53.6953   23.0479 C   0  0  0  0  0  0
    3.5067   53.9567   24.0775 C   0  0  0  0  0  0
    3.9506   54.3807   25.3296 C   0  0  0  0  0  0
    5.3118   54.5839   25.5456 C   0  0  0  0  0  0
    6.2136   54.4754   24.4941 C   0  0  0  0  0  0
    5.7659   54.0373   23.2535 C   0  0  0  0  0  0
    5.9047   54.8964   27.1338 Cl  0  0  0  0  0  0
    4.0880   52.0452   28.8992 H   0  0  0  0  0  0
    2.1287   50.6967   28.2243 H   0  0  0  0  0  0
   -0.3968   54.1244   28.7133 H   0  0  0  0  0  0
    3.8128   54.4305   29.4730 H   0  0  0  0  0  0
   -1.3439   52.0968   27.7497 H   0  0  0  0  0  0
   -0.7827   50.8968   28.8583 H   0  0  0  0  0  0
   -0.8191   52.9891   25.8804 H   0  0  0  0  0  0
   -0.1621   53.7986   23.6870 H   0  0  0  0  0  0
    1.6446   49.9904   22.8276 H   0  0  0  0  0  0
    0.9474   49.1810   25.0515 H   0  0  0  0  0  0
   -0.6897   50.4719   18.5508 H   0  0  0  0  0  0
    0.8272   50.2302   17.7540 H   0  0  0  0  0  0
    2.4641   53.7467   23.9507 H   0  0  0  0  0  0
    3.2473   54.4853   26.1428 H   0  0  0  0  0  0
    7.2675   54.6535   24.6518 H   0  0  0  0  0  0
    6.5057   53.8778   22.4852 H   0  0  0  0  0  0
  1  6  2  0  0  0
  1  2  1  0  0  0
  1 37  1  0  0  0
  2  3  2  0  0  0
  2 38  1  0  0  0
  3  4  1  0  0  0
  3  8  1  0  0  0
  4  5  2  0  0  0
  4 39  1  0  0  0
  5  6  1  0  0  0
  5  7  1  0  0  0
  6 40  1  0  0  0
  8  9  1  0  0  0
  8 41  1  0  0  0
  8 42  1  0  0  0
  9 10  1  0  0  0
 10 15  2  0  0  0
 10 11  1  0  0  0
 11 12  2  0  0  0
 11 43  1  0  0  0
 12 13  1  0  0  0
 12 44  1  0  0  0
 13 14  2  0  0  0
 13 16  1  0  0  0
 14 15  1  0  0  0
 14 45  1  0  0  0
 15 46  1  0  0  0
 16 17  1  0  0  0
 16 26  1  0  0  0
 16 18  1  0  0  0
 18 23  2  0  0  0
 18 19  1  0  0  0
 19 20  2  0  0  0
 19 30  1  0  0  0
 20 21  1  0  0  0
 21 22  1  0  0  0
 21 23  1  0  0  0
 23 24  1  0  0  0
 24 25  1  0  0  0
 25 26  2  0  0  0
 25 29  1  0  0  0
 26 27  1  0  0  0
 27 28  3  0  0  0
 29 47  1  0  0  0
 29 48  1  0  0  0
 30 35  2  0  0  0
 30 31  1  0  0  0
 31 32  2  0  0  0
 31 49  1  0  0  0
 32 33  1  0  0  0
 32 50  1  0  0  0
 33 34  2  0  0  0
 33 36  1  0  0  0
 34 35  1  0  0  0
 34 51  1  0  0  0
 35 52  1  0  0  0
M  END
> <i_i_glide_confnum>
182

> <i_i_glide_lignum>
3447

> <i_i_glide_posenum>
178

> <i_i_glide_rotatable_bonds>
6

> <i_m_Source_File_Index>
4081

> <b_m_subgroup_collapsed>
0

> <r_i_docking_score>
-7.39259

> <r_i_glide_ecoul>
-6.44488

> <r_i_glide_eff_state_penalty>
0

> <r_i_glide_einternal>
5.72139

> <r_i_glide_emodel>
-71.9266

> <r_i_glide_energy>
-52.9741

> <r_i_glide_erotb>
0.424756

> <r_i_glide_esite>
-0.133017

> <r_i_glide_evdw>
-46.5293

> <r_i_glide_gscore>
-7.39259

> <r_i_glide_hbond>
-0.40953

> <r_i_glide_ligand_efficiency>
-0.217429

> <r_i_glide_ligand_efficiency_ln>
-1.63323

> <r_i_glide_ligand_efficiency_sa>
-0.704386

> <r_i_glide_lipo>
-3.83717

> <r_i_glide_metal>
0

> <r_i_glide_rewards>
-0.144439

> <s_i_glide_gridfile>
wee1_glide-grid

> <s_m_Source_File>
wee1_decoys_glide_SP.sdf

> <s_m_Source_Path>
/Users/zhangxujun/Desktop

> <s_m_entry_id>
4356

> <s_m_entry_name>
wee1_decoys_glide_SP.4081

> <s_m_subgroup_title>
wee1_decoys_glide_SP

> <s_m_subgroupid>
wee1_decoys_glide_SP


$$$$
