ZINC12589556_3111
                    3D
 Schrodinger Suite 2024-2.
 67 69  0  0  1  0            999 V2000
    6.9025   55.0566   24.9649 C   0  0  0  0  0  0
    6.0576   54.6721   23.7659 C   0  0  0  0  0  0
    4.8010   54.0970   23.9510 C   0  0  0  0  0  0
    4.0505   53.6966   22.8494 C   0  0  0  0  0  0
    4.5625   53.8463   21.5529 C   0  0  0  0  0  0
    5.7858   54.4970   21.3723 C   0  0  0  0  0  0
    6.5397   54.8964   22.4757 C   0  0  0  0  0  0
    3.8999   53.3892   20.3911 N   0  0  0  0  0  0
    3.0609   52.3203   20.1652 C   0  0  0  0  0  0
    2.7043   51.0909   21.2337 S   0  0  0  0  0  0
    2.4702   52.2069   18.9409 N   0  0  0  0  0  0
    2.6274   53.1337   17.9100 N   0  0  0  0  0  0
    2.3168   52.8542   16.6129 C   0  0  0  0  0  0
    1.5045   51.5277   16.0033 S   0  0  0  0  0  0
    2.8368   53.8063   15.7815 N   0  0  0  0  0  0
    2.1734   55.2239   15.4261 P   0  0  0  0  0  0
    3.3877   56.5356   16.0566 C   0  0  0  0  0  0
    4.6298   56.4978   15.1336 C   0  0  0  0  0  0
    3.8672   56.2046   17.4939 C   0  0  0  0  0  0
    2.7931   57.9666   16.0050 C   0  0  0  0  0  0
    2.0528   55.3027   13.7074 N   0  0  0  0  0  0
    1.2889   56.4054   13.1053 C   0  0  0  0  0  0
    1.7718   56.6664   11.6659 C   0  0  0  0  0  0
    1.7470   55.4569   10.9080 O   0  0  0  0  0  0
    2.5646   54.4196   11.4514 C   0  0  0  0  0  0
    2.1399   54.0770   12.8942 C   0  0  0  0  0  0
    0.5535   55.3448   16.0357 N   0  0  0  0  0  0
    0.3014   55.8380   17.3873 C   0  0  0  0  0  0
   -1.0657   56.5481   17.4584 C   0  0  0  0  0  0
   -2.0969   55.6913   16.9676 O   0  0  0  0  0  0
   -1.8856   55.2605   15.6190 C   0  0  0  0  0  0
   -0.5346   54.5234   15.4798 C   0  0  0  0  0  0
    6.4595   54.7257   25.9066 H   0  0  0  0  0  0
    7.8888   54.5989   24.8814 H   0  0  0  0  0  0
    7.0412   56.1364   24.9978 H   0  0  0  0  0  0
    4.4079   53.9417   24.9455 H   0  0  0  0  0  0
    3.0793   53.2610   23.0232 H   0  0  0  0  0  0
    6.1834   54.6513   20.3791 H   0  0  0  0  0  0
    7.5061   55.3571   22.3290 H   0  0  0  0  0  0
    4.1849   53.8898   19.5641 H   0  0  0  0  0  0
    2.2554   51.2874   18.5772 H   0  0  0  0  0  0
    3.1886   53.9334   18.1516 H   0  0  0  0  0  0
    4.3838   56.7569   14.1032 H   0  0  0  0  0  0
    5.3949   57.2020   15.4635 H   0  0  0  0  0  0
    5.0880   55.5078   15.1153 H   0  0  0  0  0  0
    3.0584   56.0964   18.2100 H   0  0  0  0  0  0
    4.4400   55.2766   17.5182 H   0  0  0  0  0  0
    4.5275   56.9830   17.8791 H   0  0  0  0  0  0
    1.8218   58.0599   16.4841 H   0  0  0  0  0  0
    3.4520   58.6839   16.4980 H   0  0  0  0  0  0
    2.6825   58.3295   14.9853 H   0  0  0  0  0  0
    1.3752   57.3088   13.7017 H   0  0  0  0  0  0
    0.2319   56.1392   13.0937 H   0  0  0  0  0  0
    1.1439   57.4127   11.1782 H   0  0  0  0  0  0
    2.7882   57.0655   11.6880 H   0  0  0  0  0  0
    2.5030   53.5385   10.8128 H   0  0  0  0  0  0
    3.6076   54.7429   11.4504 H   0  0  0  0  0  0
    1.1726   53.5746   12.8954 H   0  0  0  0  0  0
    2.8651   53.3837   13.3204 H   0  0  0  0  0  0
    0.3227   54.9971   18.0815 H   0  0  0  0  0  0
    1.0795   56.5272   17.6820 H   0  0  0  0  0  0
   -1.0319   57.4625   16.8624 H   0  0  0  0  0  0
   -1.2966   56.8440   18.4812 H   0  0  0  0  0  0
   -1.8954   56.1272   14.9548 H   0  0  0  0  0  0
   -2.7080   54.6126   15.3143 H   0  0  0  0  0  0
   -0.3426   54.2790   14.4364 H   0  0  0  0  0  0
   -0.5879   53.5843   16.0280 H   0  0  0  0  0  0
  1  2  1  0  0  0
  1 33  1  0  0  0
  1 34  1  0  0  0
  1 35  1  0  0  0
  2  7  2  0  0  0
  2  3  1  0  0  0
  3  4  2  0  0  0
  3 36  1  0  0  0
  4  5  1  0  0  0
  4 37  1  0  0  0
  5  6  2  0  0  0
  5  8  1  0  0  0
  6  7  1  0  0  0
  6 38  1  0  0  0
  7 39  1  0  0  0
  8  9  1  0  0  0
  8 40  1  0  0  0
  9 10  2  0  0  0
  9 11  1  0  0  0
 11 12  1  0  0  0
 11 41  1  0  0  0
 12 13  1  0  0  0
 12 42  1  0  0  0
 13 14  2  0  0  0
 13 15  1  0  0  0
 15 16  2  0  0  0
 16 17  1  0  0  0
 16 21  1  0  0  0
 16 27  1  0  0  0
 17 18  1  0  0  0
 17 19  1  0  0  0
 17 20  1  0  0  0
 18 43  1  0  0  0
 18 44  1  0  0  0
 18 45  1  0  0  0
 19 46  1  0  0  0
 19 47  1  0  0  0
 19 48  1  0  0  0
 20 49  1  0  0  0
 20 50  1  0  0  0
 20 51  1  0  0  0
 21 26  1  0  0  0
 21 22  1  0  0  0
 22 23  1  0  0  0
 22 52  1  0  0  0
 22 53  1  0  0  0
 23 24  1  0  0  0
 23 54  1  0  0  0
 23 55  1  0  0  0
 24 25  1  0  0  0
 25 26  1  0  0  0
 25 56  1  0  0  0
 25 57  1  0  0  0
 26 58  1  0  0  0
 26 59  1  0  0  0
 27 32  1  0  0  0
 27 28  1  0  0  0
 28 29  1  0  0  0
 28 60  1  0  0  0
 28 61  1  0  0  0
 29 30  1  0  0  0
 29 62  1  0  0  0
 29 63  1  0  0  0
 30 31  1  0  0  0
 31 32  1  0  0  0
 31 64  1  0  0  0
 31 65  1  0  0  0
 32 66  1  0  0  0
 32 67  1  0  0  0
M  END
> <i_i_glide_confnum>
327

> <i_i_glide_lignum>
3112

> <i_i_glide_posenum>
204

> <i_i_glide_rotatable_bonds>
9

> <i_m_Source_File_Index>
1131

> <b_m_subgroup_collapsed>
0

> <r_i_docking_score>
-3.15131

> <r_i_glide_ecoul>
-2.59693

> <r_i_glide_eff_state_penalty>
0

> <r_i_glide_einternal>
10.1947

> <r_i_glide_emodel>
-35.0301

> <r_i_glide_energy>
-33.3145

> <r_i_glide_erotb>
0.738659

> <r_i_glide_esite>
-0.128209

> <r_i_glide_evdw>
-30.7176

> <r_i_glide_gscore>
-3.15131

> <r_i_glide_hbond>
0

> <r_i_glide_ligand_efficiency>
-0.0984784

> <r_i_glide_ligand_efficiency_ln>
-0.705664

> <r_i_glide_ligand_efficiency_sa>
-0.31265

> <r_i_glide_lipo>
-1.77575

> <r_i_glide_metal>
0

> <r_i_glide_rewards>
-0.0605917

> <s_i_glide_gridfile>
wee1_glide-grid

> <s_m_Source_File>
wee1_decoys_glide_SP.sdf

> <s_m_Source_Path>
/Users/zhangxujun/Desktop

> <s_m_entry_id>
1406

> <s_m_entry_name>
wee1_decoys_glide_SP.1131

> <s_m_subgroup_title>
wee1_decoys_glide_SP

> <s_m_subgroupid>
wee1_decoys_glide_SP


$$$$
