ZINC27981922_4454
                    3D
 Schrodinger Suite 2024-2.
 42 44  0  0  1  0            999 V2000
   -5.5713   49.3061   28.9747 C   0  0  0  0  0  0
   -4.3231   49.8119   28.6131 C   0  0  0  0  0  0
   -4.2133   50.8562   27.6769 C   0  0  0  0  0  0
   -5.3905   51.3671   27.1080 C   0  0  0  0  0  0
   -6.6387   50.8638   27.4741 C   0  0  0  0  0  0
   -6.7297   49.8332   28.4077 C   0  0  0  0  0  0
   -8.2191   51.5913   26.7022 Br  0  0  0  0  0  0
   -2.8744   51.4429   27.2850 C   0  0  0  0  0  0
   -2.7610   52.0865   26.2384 O   0  0  0  0  0  0
   -1.8857   51.2966   28.1946 N   0  0  0  0  0  0
   -0.5831   51.8161   28.1570 C   0  0  0  0  0  0
    0.0210   52.0916   29.3849 C   0  0  0  0  0  0
    1.3253   52.5762   29.4279 C   0  0  0  0  0  0
    2.0331   52.7859   28.2359 C   0  0  0  0  0  0
    1.4315   52.4969   27.0107 C   0  0  0  0  0  0
    0.1278   52.0141   26.9671 C   0  0  0  0  0  0
    3.3623   53.2350   28.1902 N   0  0  0  0  0  0
    4.0096   54.0240   29.0716 C   0  0  0  0  0  0
    3.4980   54.4966   30.0817 O   0  0  0  0  0  0
    5.2858   54.3109   28.7547 N   0  0  0  0  0  0
    6.1430   53.6277   27.7809 C   0  0  0  0  0  0
    5.9859   54.2004   26.3891 C   0  0  0  0  0  0
    5.0099   54.0967   25.4076 C   0  0  0  0  0  0
    5.4759   54.7815   24.2907 C   0  0  0  0  0  0
    6.7044   55.2995   24.6420 C   0  0  0  0  0  0
    7.0190   54.9427   25.9131 O   0  0  0  0  0  0
   -5.6354   48.5036   29.6947 H   0  0  0  0  0  0
   -3.4472   49.3687   29.0687 H   0  0  0  0  0  0
   -5.3475   52.1678   26.3828 H   0  0  0  0  0  0
   -7.6964   49.4423   28.6891 H   0  0  0  0  0  0
   -2.1032   50.7483   29.0149 H   0  0  0  0  0  0
   -0.5104   51.9222   30.3121 H   0  0  0  0  0  0
    1.7754   52.7650   30.3904 H   0  0  0  0  0  0
    1.9674   52.6348   26.0834 H   0  0  0  0  0  0
   -0.3094   51.7765   26.0089 H   0  0  0  0  0  0
    3.8665   53.0140   27.3463 H   0  0  0  0  0  0
    5.7474   55.0067   29.3241 H   0  0  0  0  0  0
    7.1707   53.7434   28.1277 H   0  0  0  0  0  0
    5.9656   52.5505   27.7862 H   0  0  0  0  0  0
    4.0781   53.5577   25.4757 H   0  0  0  0  0  0
    4.9754   54.8910   23.3395 H   0  0  0  0  0  0
    7.4418   55.8873   24.1125 H   0  0  0  0  0  0
  1  6  2  0  0  0
  1  2  1  0  0  0
  1 27  1  0  0  0
  2  3  2  0  0  0
  2 28  1  0  0  0
  3  4  1  0  0  0
  3  8  1  0  0  0
  4  5  2  0  0  0
  4 29  1  0  0  0
  5  6  1  0  0  0
  5  7  1  0  0  0
  6 30  1  0  0  0
  8  9  2  0  0  0
  8 10  1  0  0  0
 10 11  1  0  0  0
 10 31  1  0  0  0
 11 16  2  0  0  0
 11 12  1  0  0  0
 12 13  2  0  0  0
 12 32  1  0  0  0
 13 14  1  0  0  0
 13 33  1  0  0  0
 14 15  2  0  0  0
 14 17  1  0  0  0
 15 16  1  0  0  0
 15 34  1  0  0  0
 16 35  1  0  0  0
 17 18  1  0  0  0
 17 36  1  0  0  0
 18 19  2  0  0  0
 18 20  1  0  0  0
 20 21  1  0  0  0
 20 37  1  0  0  0
 21 22  1  0  0  0
 21 38  1  0  0  0
 21 39  1  0  0  0
 22 26  1  0  0  0
 22 23  2  0  0  0
 23 24  1  0  0  0
 23 40  1  0  0  0
 24 25  2  0  0  0
 24 41  1  0  0  0
 25 26  1  0  0  0
 25 42  1  0  0  0
M  END
> <i_i_glide_confnum>
154

> <i_i_glide_lignum>
4455

> <i_i_glide_posenum>
101

> <i_i_glide_rotatable_bonds>
8

> <i_m_Source_File_Index>
2546

> <b_m_subgroup_collapsed>
0

> <r_i_docking_score>
-5.48189

> <r_i_glide_ecoul>
-9.95817

> <r_i_glide_eff_state_penalty>
0

> <r_i_glide_einternal>
8.75494

> <r_i_glide_emodel>
-55.0701

> <r_i_glide_energy>
-45.3459

> <r_i_glide_erotb>
0.563534

> <r_i_glide_esite>
-0.154893

> <r_i_glide_evdw>
-35.3877

> <r_i_glide_gscore>
-5.48189

> <r_i_glide_hbond>
-0.641972

> <r_i_glide_ligand_efficiency>
-0.210842

> <r_i_glide_ligand_efficiency_ln>
-1.2874

> <r_i_glide_ligand_efficiency_sa>
-0.624618

> <r_i_glide_lipo>
-1.8784

> <r_i_glide_metal>
0

> <r_i_glide_rewards>
-0.10705

> <s_i_glide_gridfile>
wee1_glide-grid

> <s_m_Source_File>
wee1_decoys_glide_SP.sdf

> <s_m_Source_Path>
/Users/zhangxujun/Desktop

> <s_m_entry_id>
2821

> <s_m_entry_name>
wee1_decoys_glide_SP.2546

> <s_m_subgroup_title>
wee1_decoys_glide_SP

> <s_m_subgroupid>
wee1_decoys_glide_SP


$$$$
