ZINC38547528_5099
                    3D
 Schrodinger Suite 2024-2.
 65 68  0  0  1  0            999 V2000
   -0.3385   50.1364   16.3463 C   0  0  0  0  0  0
    0.5829   49.5466   17.3970 C   0  0  0  0  0  0
    1.1494   48.2826   17.2231 C   0  0  0  0  0  0
    2.0370   47.7985   18.1850 C   0  0  0  0  0  0
    2.3046   48.5380   19.2819 N   0  3  0  0  0  0
    1.7585   49.7472   19.5179 C   0  0  0  0  0  0
    0.9011   50.2808   18.5434 C   0  0  0  0  0  0
    2.0642   50.4050   20.7505 N   0  0  0  0  0  0
    1.2899   51.5512   21.2693 C   0  0  2  0  0  0
    1.1484   52.2048   20.4093 H   0  0  0  0  0  0
    2.0903   52.4515   22.2457 C   0  0  0  0  0  0
    1.5557   52.8340   23.4879 C   0  0  0  0  0  0
    2.2711   53.6426   24.3632 C   0  0  0  0  0  0
    3.5387   54.0941   24.0175 C   0  0  0  0  0  0
    4.0989   53.7576   22.7761 C   0  0  0  0  0  0
    3.3595   52.9525   21.8850 C   0  0  0  0  0  0
    3.8531   52.6890   20.6279 O   0  0  0  0  0  0
    4.9993   51.8469   20.5674 C   0  0  0  0  0  0
    5.3533   54.1901   22.3773 O   0  0  0  0  0  0
    6.2738   54.6709   23.3547 C   0  0  0  0  0  0
   -0.0698   51.0515   21.7910 C   0  0  0  0  0  0
   -0.2467   50.1287   22.8610 C   0  0  0  0  0  0
   -1.5941   49.8988   23.1712 C   0  0  0  0  0  0
   -2.6391   50.7084   22.0541 S   0  0  0  0  0  0
   -1.2873   51.3563   21.1813 C   0  0  0  0  0  0
   -1.4196   52.0967   20.0149 N   0  0  0  0  0  0
   -2.4282   52.0902   19.1155 C   0  0  0  0  0  0
   -3.4685   51.4453   19.2519 O   0  0  0  0  0  0
   -2.2268   52.9663   17.8915 C   0  0  0  0  0  0
   -3.2464   53.0537   16.9291 C   0  0  0  0  0  0
   -3.0934   53.8528   15.8001 C   0  0  0  0  0  0
   -1.9181   54.5741   15.6178 C   0  0  0  0  0  0
   -0.8917   54.4997   16.5539 C   0  0  0  0  0  0
   -1.0410   53.6968   17.6812 C   0  0  0  0  0  0
   -2.1937   49.0689   24.2850 C   0  0  0  0  0  0
    0.8872   49.5204   23.6713 C   0  0  0  0  0  0
   -0.2715   49.6016   15.4009 H   0  0  0  0  0  0
   -1.3721   50.1231   16.6949 H   0  0  0  0  0  0
   -0.0701   51.1752   16.1465 H   0  0  0  0  0  0
    0.9502   47.7050   16.3316 H   0  0  0  0  0  0
    2.5888   46.8797   18.0812 H   0  0  0  0  0  0
    0.4991   51.2705   18.6423 H   0  0  0  0  0  0
    2.7544   50.0011   21.3673 H   0  0  0  0  0  0
    0.5741   52.5121   23.8000 H   0  0  0  0  0  0
    1.8425   53.9168   25.3171 H   0  0  0  0  0  0
    4.0671   54.7171   24.7230 H   0  0  0  0  0  0
    5.5830   52.0998   19.6828 H   0  0  0  0  0  0
    5.6529   51.9291   21.4359 H   0  0  0  0  0  0
    4.7021   50.8036   20.4817 H   0  0  0  0  0  0
    7.2319   54.8710   22.8777 H   0  0  0  0  0  0
    5.9439   55.5990   23.8212 H   0  0  0  0  0  0
    6.4482   53.9286   24.1343 H   0  0  0  0  0  0
   -0.5863   52.5874   19.7336 H   0  0  0  0  0  0
   -4.1693   52.5004   17.0457 H   0  0  0  0  0  0
   -3.8848   53.9147   15.0668 H   0  0  0  0  0  0
   -1.8004   55.1965   14.7430 H   0  0  0  0  0  0
    0.0195   55.0607   16.4069 H   0  0  0  0  0  0
   -0.2122   53.6691   18.3738 H   0  0  0  0  0  0
   -1.4708   48.3967   24.7478 H   0  0  0  0  0  0
   -2.5946   49.6950   25.0840 H   0  0  0  0  0  0
   -3.0130   48.4438   23.9268 H   0  0  0  0  0  0
    1.8219   50.0775   23.6168 H   0  0  0  0  0  0
    0.6464   49.4736   24.7339 H   0  0  0  0  0  0
    1.0979   48.4975   23.3558 H   0  0  0  0  0  0
    2.9797   48.1831   19.9441 H   0  0  0  0  0  0
  1  2  1  0  0  0
  1 37  1  0  0  0
  1 38  1  0  0  0
  1 39  1  0  0  0
  2  7  2  0  0  0
  2  3  1  0  0  0
  3  4  2  0  0  0
  3 40  1  0  0  0
  4  5  1  0  0  0
  4 41  1  0  0  0
  5  6  2  0  0  0
  5 65  1  0  0  0
  6  7  1  0  0  0
  6  8  1  0  0  0
  7 42  1  0  0  0
  8  9  1  0  0  0
  8 43  1  0  0  0
  9 10  1  0  0  0
  9 11  1  0  0  0
  9 21  1  0  0  0
 11 16  2  0  0  0
 11 12  1  0  0  0
 12 13  2  0  0  0
 12 44  1  0  0  0
 13 14  1  0  0  0
 13 45  1  0  0  0
 14 15  2  0  0  0
 14 46  1  0  0  0
 15 16  1  0  0  0
 15 19  1  0  0  0
 16 17  1  0  0  0
 17 18  1  0  0  0
 18 47  1  0  0  0
 18 48  1  0  0  0
 18 49  1  0  0  0
 19 20  1  0  0  0
 20 50  1  0  0  0
 20 51  1  0  0  0
 20 52  1  0  0  0
 21 25  2  0  0  0
 21 22  1  0  0  0
 22 23  2  0  0  0
 22 36  1  0  0  0
 23 24  1  0  0  0
 23 35  1  0  0  0
 24 25  1  0  0  0
 25 26  1  0  0  0
 26 27  1  0  0  0
 26 53  1  0  0  0
 27 28  2  0  0  0
 27 29  1  0  0  0
 29 34  2  0  0  0
 29 30  1  0  0  0
 30 31  2  0  0  0
 30 54  1  0  0  0
 31 32  1  0  0  0
 31 55  1  0  0  0
 32 33  2  0  0  0
 32 56  1  0  0  0
 33 34  1  0  0  0
 33 57  1  0  0  0
 34 58  1  0  0  0
 35 59  1  0  0  0
 35 60  1  0  0  0
 35 61  1  0  0  0
 36 62  1  0  0  0
 36 63  1  0  0  0
 36 64  1  0  0  0
M  CHG  1   5   1
M  END
> <i_i_glide_confnum>
74

> <i_i_glide_lignum>
5100

> <i_i_glide_posenum>
190

> <i_i_glide_rotatable_bonds>
9

> <i_m_Source_File_Index>
113

> <b_m_subgroup_collapsed>
0

> <r_i_docking_score>
-2.66728

> <r_i_glide_ecoul>
-0.378364

> <r_i_glide_eff_state_penalty>
0

> <r_i_glide_einternal>
4.19488

> <r_i_glide_emodel>
-37.2264

> <r_i_glide_energy>
-32.8733

> <r_i_glide_erotb>
0.596286

> <r_i_glide_esite>
-0.142377

> <r_i_glide_evdw>
-32.4949

> <r_i_glide_gscore>
-2.66728

> <r_i_glide_hbond>
0

> <r_i_glide_ligand_efficiency>
-0.076208

> <r_i_glide_ligand_efficiency_ln>
-0.585527

> <r_i_glide_ligand_efficiency_sa>
-0.249281

> <r_i_glide_lipo>
-1.36295

> <r_i_glide_metal>
0

> <r_i_glide_rewards>
-0.0767441

> <s_i_glide_gridfile>
wee1_glide-grid

> <s_m_Source_File>
wee1_decoys_glide_SP.sdf

> <s_m_Source_Path>
/Users/zhangxujun/Desktop

> <s_m_entry_id>
388

> <s_m_entry_name>
wee1_decoys_glide_SP.113

> <s_m_subgroup_title>
wee1_decoys_glide_SP

> <s_m_subgroupid>
wee1_decoys_glide_SP


$$$$
