ZINC65074689_2180
                    3D
 Schrodinger Suite 2024-2.
 58 61  0  0  1  0            999 V2000
    2.0260   55.7227   28.7555 C   0  0  0  0  0  0
    1.3142   54.4394   29.1396 C   0  0  0  0  0  0
    0.6718   54.3455   30.3759 C   0  0  0  0  0  0
   -0.0029   53.1762   30.7240 C   0  0  0  0  0  0
   -0.0452   52.1001   29.8393 C   0  0  0  0  0  0
    0.6136   52.1727   28.6097 C   0  0  0  0  0  0
    1.2897   53.3487   28.2637 C   0  0  0  0  0  0
    0.6438   50.9465   27.7106 C   0  0  0  0  0  0
    0.4445   51.2044   26.2806 N   0  0  0  0  0  0
   -0.6679   51.0023   25.5680 C   0  0  0  0  0  0
   -1.7788   50.5547   26.1791 N   0  3  0  0  0  0
   -3.0589   50.3413   25.5215 C   0  0  0  0  0  0
   -3.0354   51.0916   24.1916 C   0  0  0  0  0  0
   -1.8088   50.7648   23.4773 N   0  0  0  0  0  0
   -0.5917   51.3566   24.0605 C   0  0  0  0  0  0
   -0.5253   52.8961   23.8416 C   0  0  0  0  0  0
    0.8824   53.5426   23.9392 C   0  0  0  0  0  0
    1.9019   52.7910   23.1582 N   0  0  0  0  0  0
    1.9783   51.3507   23.4573 C   0  0  0  0  0  0
    0.6029   50.6643   23.3332 C   0  0  0  0  0  0
    3.4313   53.5845   22.6466 S   0  0  0  0  0  0
    4.1910   52.6257   21.8352 O   0  0  0  0  0  0
    3.1044   54.8966   22.1028 O   0  0  0  0  0  0
    4.4746   53.9661   24.0666 C   0  0  0  0  0  0
    3.9599   54.1995   25.3442 C   0  0  0  0  0  0
    4.8179   54.4965   26.4007 C   0  0  0  0  0  0
    6.1874   54.5962   26.1742 C   0  0  0  0  0  0
    6.7043   54.4101   24.8949 C   0  0  0  0  0  0
    5.8490   54.0965   23.8426 C   0  0  0  0  0  0
    2.3041   55.7274   27.7027 H   0  0  0  0  0  0
    1.3760   56.5818   28.9259 H   0  0  0  0  0  0
    2.9217   55.8622   29.3605 H   0  0  0  0  0  0
    0.6903   55.1768   31.0666 H   0  0  0  0  0  0
   -0.4956   53.0955   31.6820 H   0  0  0  0  0  0
   -0.5795   51.2055   30.1269 H   0  0  0  0  0  0
    1.8096   53.4088   27.3218 H   0  0  0  0  0  0
    1.6317   50.4961   27.7958 H   0  0  0  0  0  0
   -0.0956   50.2073   28.0190 H   0  0  0  0  0  0
    1.2383   51.5590   25.7698 H   0  0  0  0  0  0
   -3.1738   49.2664   25.3749 H   0  0  0  0  0  0
   -3.8584   50.6915   26.1747 H   0  0  0  0  0  0
   -3.8955   50.8080   23.5826 H   0  0  0  0  0  0
   -3.1282   52.1690   24.3387 H   0  0  0  0  0  0
   -1.8699   51.0366   22.5057 H   0  0  0  0  0  0
   -0.9507   53.1277   22.8739 H   0  0  0  0  0  0
   -1.1896   53.3799   24.5554 H   0  0  0  0  0  0
    0.8750   54.5868   23.6258 H   0  0  0  0  0  0
    1.1237   53.4665   24.9945 H   0  0  0  0  0  0
    2.7042   50.8676   22.8011 H   0  0  0  0  0  0
    2.3040   51.2674   24.4817 H   0  0  0  0  0  0
    0.6819   49.6310   23.6753 H   0  0  0  0  0  0
    0.3935   50.5933   22.2636 H   0  0  0  0  0  0
    2.9079   54.1657   25.5385 H   0  0  0  0  0  0
    4.4271   54.6563   27.3943 H   0  0  0  0  0  0
    6.8473   54.8270   26.9984 H   0  0  0  0  0  0
    7.7647   54.4965   24.7170 H   0  0  0  0  0  0
    6.2573   53.9487   22.8526 H   0  0  0  0  0  0
   -1.6918   50.2661   27.1467 H   0  0  0  0  0  0
  1  2  1  0  0  0
  1 30  1  0  0  0
  1 31  1  0  0  0
  1 32  1  0  0  0
  2  7  2  0  0  0
  2  3  1  0  0  0
  3  4  2  0  0  0
  3 33  1  0  0  0
  4  5  1  0  0  0
  4 34  1  0  0  0
  5  6  2  0  0  0
  5 35  1  0  0  0
  6  7  1  0  0  0
  6  8  1  0  0  0
  7 36  1  0  0  0
  8  9  1  0  0  0
  8 37  1  0  0  0
  8 38  1  0  0  0
  9 10  1  0  0  0
  9 39  1  0  0  0
 10 15  1  0  0  0
 10 11  2  0  0  0
 11 12  1  0  0  0
 11 58  1  0  0  0
 12 13  1  0  0  0
 12 40  1  0  0  0
 12 41  1  0  0  0
 13 14  1  0  0  0
 13 42  1  0  0  0
 13 43  1  0  0  0
 14 15  1  0  0  0
 14 44  1  0  0  0
 15 20  1  0  0  0
 15 16  1  0  0  0
 16 17  1  0  0  0
 16 45  1  0  0  0
 16 46  1  0  0  0
 17 18  1  0  0  0
 17 47  1  0  0  0
 17 48  1  0  0  0
 18 19  1  0  0  0
 18 21  1  0  0  0
 19 20  1  0  0  0
 19 49  1  0  0  0
 19 50  1  0  0  0
 20 51  1  0  0  0
 20 52  1  0  0  0
 21 22  2  0  0  0
 21 23  2  0  0  0
 21 24  1  0  0  0
 24 29  2  0  0  0
 24 25  1  0  0  0
 25 26  2  0  0  0
 25 53  1  0  0  0
 26 27  1  0  0  0
 26 54  1  0  0  0
 27 28  2  0  0  0
 27 55  1  0  0  0
 28 29  1  0  0  0
 28 56  1  0  0  0
 29 57  1  0  0  0
M  CHG  1  11   1
M  END
> <i_i_glide_confnum>
170

> <i_i_glide_lignum>
2181

> <i_i_glide_posenum>
269

> <i_i_glide_rotatable_bonds>
5

> <i_m_Source_File_Index>
5113

> <b_m_subgroup_collapsed>
0

> <r_i_docking_score>
-4.85911

> <r_i_glide_ecoul>
1.05959

> <r_i_glide_eff_state_penalty>
0

> <r_i_glide_einternal>
5.62831

> <r_i_glide_emodel>
-39.3996

> <r_i_glide_energy>
-33.0242

> <r_i_glide_erotb>
0.576782

> <r_i_glide_esite>
-0.140317

> <r_i_glide_evdw>
-34.0838

> <r_i_glide_gscore>
-4.85911

> <r_i_glide_hbond>
-0.0601368

> <r_i_glide_ligand_efficiency>
-0.167555

> <r_i_glide_ligand_efficiency_ln>
-1.11261

> <r_i_glide_ligand_efficiency_sa>
-0.514783

> <r_i_glide_lipo>
-3.28357

> <r_i_glide_metal>
0

> <r_i_glide_rewards>
-0.40661

> <s_i_glide_gridfile>
wee1_glide-grid

> <s_m_Source_File>
wee1_decoys_glide_SP.sdf

> <s_m_Source_Path>
/Users/zhangxujun/Desktop

> <s_m_entry_id>
5388

> <s_m_entry_name>
wee1_decoys_glide_SP.5113

> <s_m_subgroup_title>
wee1_decoys_glide_SP

> <s_m_subgroupid>
wee1_decoys_glide_SP


$$$$
