ZINC22511010_2307
                    3D
 Schrodinger Suite 2024-2.
 61 64  0  0  1  0            999 V2000
    1.2624   52.1024   24.1633 C   0  0  0  0  0  0
    0.3439   51.8549   25.3458 C   0  0  0  0  0  0
   -0.7267   50.9700   25.2377 C   0  0  0  0  0  0
   -1.5553   50.7436   26.3337 C   0  0  0  0  0  0
   -1.3266   51.3934   27.5510 C   0  0  0  0  0  0
   -0.2427   52.2858   27.6739 C   0  0  0  0  0  0
    0.5824   52.4968   26.5608 C   0  0  0  0  0  0
    0.0151   52.9161   28.9061 N   0  0  0  0  0  0
    1.0834   54.3221   29.1504 S   0  0  0  0  0  0
    0.9241   54.7274   30.5489 O   0  0  0  0  0  0
    0.8222   55.2851   28.0817 O   0  0  0  0  0  0
    2.7630   53.7446   28.9298 C   0  0  0  0  0  0
    3.5065   54.2622   27.8555 C   0  0  0  0  0  0
    4.8164   53.8343   27.6143 C   0  0  0  0  0  0
    5.3825   52.9038   28.4814 C   0  0  0  0  0  0
    4.6410   52.3758   29.5362 C   0  0  0  0  0  0
    3.3326   52.7830   29.7765 C   0  0  0  0  0  0
    2.5767   52.1513   30.9383 C   0  0  0  0  0  0
    5.6159   54.3340   26.4420 C   0  0  0  0  0  0
    6.7651   54.7436   26.6091 O   0  0  0  0  0  0
    4.9851   54.2240   25.2531 N   0  0  0  0  0  0
    5.4669   54.4712   23.9526 C   0  0  0  0  0  0
    6.7035   55.0605   23.6579 C   0  0  0  0  0  0
    7.0665   55.3007   22.3365 C   0  0  0  0  0  0
    6.2104   54.9756   21.2771 C   0  0  0  0  0  0
    4.9892   54.3475   21.5819 C   0  0  0  0  0  0
    4.6256   54.0969   22.9031 C   0  0  0  0  0  0
    6.6251   55.2667   19.9439 N   0  0  0  0  0  0
    8.0404   55.4480   19.5667 C   0  0  0  0  0  0
    8.0422   55.9597   18.1457 C   0  0  0  0  0  0
    6.6763   55.5980   17.6281 C   0  0  0  0  0  0
    5.8026   55.3650   18.8562 C   0  0  0  0  0  0
    4.5759   55.2973   18.8043 O   0  0  0  0  0  0
   -2.2731   51.0938   28.7108 C   0  0  0  0  0  0
    1.1631   51.3256   23.4037 H   0  0  0  0  0  0
    1.0534   53.0735   23.7138 H   0  0  0  0  0  0
    2.3038   52.0984   24.4870 H   0  0  0  0  0  0
   -0.9182   50.4507   24.3102 H   0  0  0  0  0  0
   -2.3727   50.0428   26.2408 H   0  0  0  0  0  0
    1.4192   53.1699   26.6208 H   0  0  0  0  0  0
   -0.5047   52.6005   29.7109 H   0  0  0  0  0  0
    3.0648   55.0005   27.2012 H   0  0  0  0  0  0
    6.3942   52.5619   28.3170 H   0  0  0  0  0  0
    5.1045   51.6552   30.1894 H   0  0  0  0  0  0
    3.2119   51.5014   31.5417 H   0  0  0  0  0  0
    2.1750   52.8967   31.6184 H   0  0  0  0  0  0
    1.7269   51.5850   30.5622 H   0  0  0  0  0  0
    4.0580   53.8317   25.2907 H   0  0  0  0  0  0
    7.3985   55.3616   24.4242 H   0  0  0  0  0  0
    8.0195   55.7727   22.1619 H   0  0  0  0  0  0
    4.3019   54.0366   20.8102 H   0  0  0  0  0  0
    3.6725   53.6275   23.0974 H   0  0  0  0  0  0
    8.5574   56.1641   20.2042 H   0  0  0  0  0  0
    8.5691   54.4966   19.6318 H   0  0  0  0  0  0
    8.8579   55.5449   17.5516 H   0  0  0  0  0  0
    8.1566   57.0456   18.1449 H   0  0  0  0  0  0
    6.7074   54.6609   17.0700 H   0  0  0  0  0  0
    6.2582   56.3634   16.9726 H   0  0  0  0  0  0
   -2.8847   50.2067   28.5283 H   0  0  0  0  0  0
   -1.7175   50.9050   29.6304 H   0  0  0  0  0  0
   -2.9530   51.9231   28.8814 H   0  0  0  0  0  0
  1  2  1  0  0  0
  1 35  1  0  0  0
  1 36  1  0  0  0
  1 37  1  0  0  0
  2  7  2  0  0  0
  2  3  1  0  0  0
  3  4  2  0  0  0
  3 38  1  0  0  0
  4  5  1  0  0  0
  4 39  1  0  0  0
  5  6  2  0  0  0
  5 34  1  0  0  0
  6  7  1  0  0  0
  6  8  1  0  0  0
  7 40  1  0  0  0
  8  9  1  0  0  0
  8 41  1  0  0  0
  9 10  2  0  0  0
  9 11  2  0  0  0
  9 12  1  0  0  0
 12 17  2  0  0  0
 12 13  1  0  0  0
 13 14  2  0  0  0
 13 42  1  0  0  0
 14 15  1  0  0  0
 14 19  1  0  0  0
 15 16  2  0  0  0
 15 43  1  0  0  0
 16 17  1  0  0  0
 16 44  1  0  0  0
 17 18  1  0  0  0
 18 45  1  0  0  0
 18 46  1  0  0  0
 18 47  1  0  0  0
 19 20  2  0  0  0
 19 21  1  0  0  0
 21 22  1  0  0  0
 21 48  1  0  0  0
 22 27  2  0  0  0
 22 23  1  0  0  0
 23 24  2  0  0  0
 23 49  1  0  0  0
 24 25  1  0  0  0
 24 50  1  0  0  0
 25 26  2  0  0  0
 25 28  1  0  0  0
 26 27  1  0  0  0
 26 51  1  0  0  0
 27 52  1  0  0  0
 28 32  1  0  0  0
 28 29  1  0  0  0
 29 30  1  0  0  0
 29 53  1  0  0  0
 29 54  1  0  0  0
 30 31  1  0  0  0
 30 55  1  0  0  0
 30 56  1  0  0  0
 31 32  1  0  0  0
 31 57  1  0  0  0
 31 58  1  0  0  0
 32 33  2  0  0  0
 34 59  1  0  0  0
 34 60  1  0  0  0
 34 61  1  0  0  0
M  END
> <i_i_glide_confnum>
6

> <i_i_glide_lignum>
2308

> <i_i_glide_posenum>
257

> <i_i_glide_rotatable_bonds>
7

> <i_m_Source_File_Index>
2921

> <b_m_subgroup_collapsed>
0

> <r_i_docking_score>
-5.41629

> <r_i_glide_ecoul>
-2.51572

> <r_i_glide_eff_state_penalty>
0

> <r_i_glide_einternal>
10.9427

> <r_i_glide_emodel>
-58.1567

> <r_i_glide_energy>
-48.2919

> <r_i_glide_erotb>
0.621745

> <r_i_glide_esite>
0

> <r_i_glide_evdw>
-45.7762

> <r_i_glide_gscore>
-5.41629

> <r_i_glide_hbond>
-0.210077

> <r_i_glide_ligand_efficiency>
-0.159303

> <r_i_glide_ligand_efficiency_ln>
-1.19661

> <r_i_glide_ligand_efficiency_sa>
-0.516078

> <r_i_glide_lipo>
-2.71171

> <r_i_glide_metal>
0

> <r_i_glide_rewards>
-0.450078

> <s_i_glide_gridfile>
wee1_glide-grid

> <s_m_Source_File>
wee1_decoys_glide_SP.sdf

> <s_m_Source_Path>
/Users/zhangxujun/Desktop

> <s_m_entry_id>
3196

> <s_m_entry_name>
wee1_decoys_glide_SP.2921

> <s_m_subgroup_title>
wee1_decoys_glide_SP

> <s_m_subgroupid>
wee1_decoys_glide_SP


$$$$
