ZINC51630780_1907
                    3D
 Schrodinger Suite 2024-2.
 36 38  0  0  1  0            999 V2000
   -0.1535   52.4569   23.3880 C   0  0  0  0  0  0
    1.0895   53.0490   23.5647 C   0  0  0  0  0  0
    1.6717   53.0646   24.8281 C   0  0  0  0  0  0
    1.0297   52.4968   25.9399 C   0  0  0  0  0  0
   -0.2261   51.8712   25.7498 C   0  0  0  0  0  0
   -0.8035   51.8745   24.4733 C   0  0  0  0  0  0
   -0.9447   51.1665   26.9020 C   0  0  0  0  0  0
   -0.5099   51.6969   28.2776 C   0  0  0  0  0  0
    1.0204   51.6967   28.3791 C   0  0  0  0  0  0
    1.6723   52.6199   27.3283 C   0  0  2  0  0  0
    2.7264   52.3547   27.2404 H   0  0  0  0  0  0
    1.5474   54.0083   27.8214 N   0  0  0  0  0  0
    2.7658   54.6516   28.9102 S   0  0  0  0  0  0
    2.9270   53.7669   30.0719 O   0  0  0  0  0  0
    2.4976   56.0820   29.0705 O   0  0  0  0  0  0
    4.2487   54.4758   27.8877 C   0  0  0  0  0  0
    4.4086   54.8943   26.5691 C   0  0  0  0  0  0
    5.6829   54.6084   26.0671 C   0  0  0  0  0  0
    6.4939   53.9600   26.9798 C   0  0  0  0  0  0
    5.6802   53.6974   28.4816 S   0  0  0  0  0  0
    6.0966   54.9314   24.8089 N   0  0  0  0  0  0
   -0.6122   52.4405   22.4092 H   0  0  0  0  0  0
    1.6015   53.4976   22.7242 H   0  0  0  0  0  0
    2.6362   53.5335   24.9467 H   0  0  0  0  0  0
   -1.7614   51.4006   24.3190 H   0  0  0  0  0  0
   -0.7170   50.0984   26.8505 H   0  0  0  0  0  0
   -2.0282   51.2500   26.7945 H   0  0  0  0  0  0
   -0.9414   51.0749   29.0645 H   0  0  0  0  0  0
   -0.8922   52.7060   28.4338 H   0  0  0  0  0  0
    1.3868   50.6844   28.2116 H   0  0  0  0  0  0
    1.3285   51.9480   29.3936 H   0  0  0  0  0  0
    1.2690   54.6721   27.0961 H   0  0  0  0  0  0
    3.6423   55.3991   26.0020 H   0  0  0  0  0  0
    7.5043   53.6131   26.8480 H   0  0  0  0  0  0
    7.0184   54.6904   24.4728 H   0  0  0  0  0  0
    5.4577   55.2973   24.1179 H   0  0  0  0  0  0
  1  6  2  0  0  0
  1  2  1  0  0  0
  1 22  1  0  0  0
  2  3  2  0  0  0
  2 23  1  0  0  0
  3  4  1  0  0  0
  3 24  1  0  0  0
  4 10  1  0  0  0
  4  5  2  0  0  0
  5  6  1  0  0  0
  5  7  1  0  0  0
  6 25  1  0  0  0
  7  8  1  0  0  0
  7 26  1  0  0  0
  7 27  1  0  0  0
  8  9  1  0  0  0
  8 28  1  0  0  0
  8 29  1  0  0  0
  9 10  1  0  0  0
  9 30  1  0  0  0
  9 31  1  0  0  0
 10 11  1  0  0  0
 10 12  1  0  0  0
 12 13  1  0  0  0
 12 32  1  0  0  0
 13 14  2  0  0  0
 13 15  2  0  0  0
 13 16  1  0  0  0
 16 20  1  0  0  0
 16 17  2  0  0  0
 17 18  1  0  0  0
 17 33  1  0  0  0
 18 19  2  0  0  0
 18 21  1  0  0  0
 19 20  1  0  0  0
 19 34  1  0  0  0
 21 35  1  0  0  0
 21 36  1  0  0  0
M  END
> <i_i_glide_confnum>
17

> <i_i_glide_lignum>
1908

> <i_i_glide_posenum>
377

> <i_i_glide_rotatable_bonds>
3

> <i_m_Source_File_Index>
4926

> <b_m_subgroup_collapsed>
0

> <r_i_docking_score>
-4.72658

> <r_i_glide_ecoul>
-3.00895

> <r_i_glide_eff_state_penalty>
0

> <r_i_glide_einternal>
0.836049

> <r_i_glide_emodel>
-48.7097

> <r_i_glide_energy>
-39.5963

> <r_i_glide_erotb>
0.583492

> <r_i_glide_esite>
-0.0468308

> <r_i_glide_evdw>
-36.5874

> <r_i_glide_gscore>
-4.72658

> <r_i_glide_hbond>
0

> <r_i_glide_ligand_efficiency>
-0.236329

> <r_i_glide_ligand_efficiency_ln>
-1.18291

> <r_i_glide_ligand_efficiency_sa>
-0.641496

> <r_i_glide_lipo>
-2.21066

> <r_i_glide_metal>
0

> <r_i_glide_rewards>
-0.77187

> <s_i_glide_gridfile>
wee1_glide-grid

> <s_m_Source_File>
wee1_decoys_glide_SP.sdf

> <s_m_Source_Path>
/Users/zhangxujun/Desktop

> <s_m_entry_id>
5201

> <s_m_entry_name>
wee1_decoys_glide_SP.4926

> <s_m_subgroup_title>
wee1_decoys_glide_SP

> <s_m_subgroupid>
wee1_decoys_glide_SP


$$$$
