ZINC36690277_1092
                    3D
 Schrodinger Suite 2024-2.
 71 74  0  0  1  0            999 V2000
    2.5719   50.2567   20.0494 C   0  0  0  0  0  0
    2.1236   50.8640   18.7133 C   0  0  0  0  0  0
    2.9413   52.1235   18.3092 N   0  3  0  0  0  0
    2.3953   52.7816   17.0137 C   0  0  0  0  0  0
    2.3886   51.7958   15.8381 C   0  0  0  0  0  0
    3.1103   53.1844   19.4294 C   0  0  0  0  0  0
    4.3555   52.8469   20.2802 C   0  0  0  0  0  0
    5.1053   54.0145   20.7929 N   0  0  0  0  0  0
    5.0686   54.1894   22.1820 C   0  0  0  0  0  0
    6.1177   54.4256   22.9284 N   0  0  0  0  0  0
    5.7869   54.4917   24.2445 C   0  0  0  0  0  0
    6.7045   54.7028   25.2785 C   0  0  0  0  0  0
    6.2418   54.6950   26.5961 C   0  0  0  0  0  0
    4.8907   54.4965   26.8800 C   0  0  0  0  0  0
    3.9489   54.3119   25.8647 C   0  0  0  0  0  0
    4.4110   54.3062   24.5416 C   0  0  0  0  0  0
    3.5316   54.0894   23.0348 S   0  0  0  0  0  0
    5.8014   54.8939   19.9980 C   0  0  0  0  0  0
    6.3601   55.9100   20.4263 O   0  0  0  0  0  0
    5.8257   54.6650   18.5030 C   0  0  0  0  0  0
    5.3643   55.6770   17.6527 C   0  0  0  0  0  0
    5.3130   55.4660   16.2779 C   0  0  0  0  0  0
    5.7206   54.2442   15.7388 C   0  0  0  0  0  0
    6.2313   53.2500   16.5747 C   0  0  0  0  0  0
    6.2982   53.4666   17.9484 C   0  0  0  0  0  0
    5.5382   54.0246   13.9659 S   0  0  0  0  0  0
    4.0921   54.0732   13.7195 O   0  0  0  0  0  0
    6.4310   55.0163   13.3549 O   0  0  0  0  0  0
    6.1173   52.4069   13.5015 N   0  0  0  0  0  0
    7.5756   52.1365   13.5119 C   0  0  0  0  0  0
    7.8683   50.9345   12.5901 C   0  0  2  0  0  0
    7.6278   51.1783   11.5526 H   0  0  0  0  0  0
    7.0750   49.8268   13.0167 O   0  0  0  0  0  0
    5.6672   50.0434   12.8976 C   0  0  2  0  0  0
    5.4306   50.2615   11.8535 H   0  0  0  0  0  0
    5.2656   51.2302   13.8032 C   0  0  0  0  0  0
    4.9271   48.7577   13.2903 C   0  0  0  0  0  0
    9.3392   50.5186   12.6467 C   0  0  0  0  0  0
    2.0988   49.2882   20.2091 H   0  0  0  0  0  0
    3.6461   50.0971   20.0612 H   0  0  0  0  0  0
    2.3065   50.8869   20.8973 H   0  0  0  0  0  0
    1.0738   51.1598   18.7256 H   0  0  0  0  0  0
    2.2975   50.1422   17.9128 H   0  0  0  0  0  0
    1.4039   53.1737   17.2456 H   0  0  0  0  0  0
    3.0704   53.6112   16.7970 H   0  0  0  0  0  0
    2.1998   52.3152   14.8983 H   0  0  0  0  0  0
    3.3525   51.2970   15.7547 H   0  0  0  0  0  0
    1.6236   51.0280   15.9433 H   0  0  0  0  0  0
    2.1808   53.2121   19.9988 H   0  0  0  0  0  0
    3.2148   54.1504   18.9361 H   0  0  0  0  0  0
    5.0360   52.1801   19.7531 H   0  0  0  0  0  0
    4.0297   52.2407   21.1244 H   0  0  0  0  0  0
    7.7472   54.8421   25.0402 H   0  0  0  0  0  0
    6.9358   54.8418   27.4139 H   0  0  0  0  0  0
    4.5675   54.4924   27.9108 H   0  0  0  0  0  0
    2.9037   54.1603   26.0939 H   0  0  0  0  0  0
    5.0193   56.6208   18.0529 H   0  0  0  0  0  0
    4.9350   56.2468   15.6332 H   0  0  0  0  0  0
    6.5632   52.3004   16.1904 H   0  0  0  0  0  0
    6.6999   52.6799   18.5673 H   0  0  0  0  0  0
    8.1278   53.0244   13.2046 H   0  0  0  0  0  0
    7.8558   51.8229   14.5173 H   0  0  0  0  0  0
    5.4767   50.9169   14.8260 H   0  0  0  0  0  0
    4.2157   51.4868   13.6581 H   0  0  0  0  0  0
    3.8491   48.8671   13.1602 H   0  0  0  0  0  0
    5.2546   47.9166   12.6784 H   0  0  0  0  0  0
    5.1050   48.4972   14.3335 H   0  0  0  0  0  0
   10.0007   51.3384   12.3605 H   0  0  0  0  0  0
    9.6266   50.1814   13.6447 H   0  0  0  0  0  0
    9.5166   49.6965   11.9556 H   0  0  0  0  0  0
    3.8752   51.7836   18.0849 H   0  0  0  0  0  0
  1  2  1  0  0  0
  1 39  1  0  0  0
  1 40  1  0  0  0
  1 41  1  0  0  0
  2  3  1  0  0  0
  2 42  1  0  0  0
  2 43  1  0  0  0
  3  4  1  0  0  0
  3  6  1  0  0  0
  3 71  1  0  0  0
  4  5  1  0  0  0
  4 44  1  0  0  0
  4 45  1  0  0  0
  5 46  1  0  0  0
  5 47  1  0  0  0
  5 48  1  0  0  0
  6  7  1  0  0  0
  6 49  1  0  0  0
  6 50  1  0  0  0
  7  8  1  0  0  0
  7 51  1  0  0  0
  7 52  1  0  0  0
  8  9  1  0  0  0
  8 18  1  0  0  0
  9 17  1  0  0  0
  9 10  2  0  0  0
 10 11  1  0  0  0
 11 16  2  0  0  0
 11 12  1  0  0  0
 12 13  2  0  0  0
 12 53  1  0  0  0
 13 14  1  0  0  0
 13 54  1  0  0  0
 14 15  2  0  0  0
 14 55  1  0  0  0
 15 16  1  0  0  0
 15 56  1  0  0  0
 16 17  1  0  0  0
 18 19  2  0  0  0
 18 20  1  0  0  0
 20 25  2  0  0  0
 20 21  1  0  0  0
 21 22  2  0  0  0
 21 57  1  0  0  0
 22 23  1  0  0  0
 22 58  1  0  0  0
 23 24  2  0  0  0
 23 26  1  0  0  0
 24 25  1  0  0  0
 24 59  1  0  0  0
 25 60  1  0  0  0
 26 27  2  0  0  0
 26 28  2  0  0  0
 26 29  1  0  0  0
 29 36  1  0  0  0
 29 30  1  0  0  0
 30 31  1  0  0  0
 30 61  1  0  0  0
 30 62  1  0  0  0
 31 32  1  0  0  0
 31 33  1  0  0  0
 31 38  1  0  0  0
 33 34  1  0  0  0
 34 35  1  0  0  0
 34 36  1  0  0  0
 34 37  1  0  0  0
 36 63  1  0  0  0
 36 64  1  0  0  0
 37 65  1  0  0  0
 37 66  1  0  0  0
 37 67  1  0  0  0
 38 68  1  0  0  0
 38 69  1  0  0  0
 38 70  1  0  0  0
M  CHG  1   3   1
M  END
> <i_i_glide_confnum>
146

> <i_i_glide_lignum>
1093

> <i_i_glide_posenum>
166

> <i_i_glide_rotatable_bonds>
10

> <i_m_Source_File_Index>
4536

> <b_m_subgroup_collapsed>
0

> <r_i_docking_score>
-2.18167

> <r_i_glide_ecoul>
-4.09119

> <r_i_glide_eff_state_penalty>
0

> <r_i_glide_einternal>
15.1703

> <r_i_glide_emodel>
-36.8364

> <r_i_glide_energy>
-44.113

> <r_i_glide_erotb>
0.583525

> <r_i_glide_esite>
-0.0800658

> <r_i_glide_evdw>
-40.0218

> <r_i_glide_gscore>
-2.18167

> <r_i_glide_hbond>
-0.179845

> <r_i_glide_ligand_efficiency>
-0.060602

> <r_i_glide_ligand_efficiency_ln>
-0.475982

> <r_i_glide_ligand_efficiency_sa>
-0.200103

> <r_i_glide_lipo>
-2.0172

> <r_i_glide_metal>
0

> <r_i_glide_rewards>
2.12668

> <s_i_glide_gridfile>
wee1_glide-grid

> <s_m_Source_File>
wee1_decoys_glide_SP.sdf

> <s_m_Source_Path>
/Users/zhangxujun/Desktop

> <s_m_entry_id>
4811

> <s_m_entry_name>
wee1_decoys_glide_SP.4536

> <s_m_subgroup_title>
wee1_decoys_glide_SP

> <s_m_subgroupid>
wee1_decoys_glide_SP


$$$$
