ZINC03012268_2430
                    3D
 Schrodinger Suite 2024-2.
 54 58  0  0  1  0            999 V2000
    3.2974   54.0086   29.9612 C   0  0  0  0  0  0
    3.6929   54.0464   28.5008 C   0  0  0  0  0  0
    5.0110   54.3079   28.1296 C   0  0  0  0  0  0
    5.3678   54.3319   26.7840 C   0  0  0  0  0  0
    4.4085   54.0973   25.7814 C   0  0  0  0  0  0
    3.0827   53.8183   26.1604 C   0  0  0  0  0  0
    2.7357   53.7961   27.5145 C   0  0  0  0  0  0
    1.9925   53.5420   25.1282 C   0  0  0  0  0  0
    4.7041   54.0966   24.4005 N   0  0  0  0  0  0
    5.8187   54.4968   23.7562 C   0  0  0  0  0  0
    6.8290   54.9471   24.2952 O   0  0  0  0  0  0
    5.6936   54.4512   22.3173 C   0  0  0  0  0  0
    4.9894   53.4920   21.5630 C   0  0  0  0  0  0
    5.1766   53.8253   20.2358 C   0  0  0  0  0  0
    5.9490   54.9713   20.2552 N   0  0  0  0  0  0
    6.3034   55.2973   21.5096 N   0  0  0  0  0  0
    6.4533   55.7147   19.0933 C   0  0  2  0  0  0
    6.3219   56.7772   19.3085 H   0  0  0  0  0  0
    5.5560   55.3291   17.8903 C   0  0  0  0  0  0
    5.2636   53.8106   17.7942 C   0  0  1  0  0  0
    6.1997   53.2730   17.6331 H   0  0  0  0  0  0
    4.7132   53.2873   19.0500 N   0  0  0  0  0  0
    4.4178   53.4901   16.5656 C   0  0  0  0  0  0
    5.0402   52.9961   15.4024 C   0  0  0  0  0  0
    4.2969   52.7119   14.2512 C   0  0  0  0  0  0
    2.9257   52.9319   14.3002 C   0  0  0  0  0  0
    2.3127   53.4100   15.4230 C   0  0  0  0  0  0
    3.0269   53.7080   16.5780 C   0  0  0  0  0  0
    0.9858   53.5650   15.1795 O   0  0  0  0  0  0
    0.7551   52.9798   13.9248 C   0  0  0  0  0  0
    2.0030   52.7725   13.3165 O   0  0  0  0  0  0
    7.9667   55.5001   18.8261 C   0  0  0  0  0  0
    8.3784   56.2792   17.8260 F   0  0  0  0  0  0
    8.7041   55.8035   19.8956 F   0  0  0  0  0  0
    8.2538   54.2446   18.4821 F   0  0  0  0  0  0
    4.1719   53.9516   30.6116 H   0  0  0  0  0  0
    2.6822   53.1309   30.1637 H   0  0  0  0  0  0
    2.7097   54.8944   30.2023 H   0  0  0  0  0  0
    5.7659   54.5009   28.8817 H   0  0  0  0  0  0
    6.4015   54.5275   26.5555 H   0  0  0  0  0  0
    1.7157   53.5889   27.8092 H   0  0  0  0  0  0
    2.2776   52.6993   24.4958 H   0  0  0  0  0  0
    1.0352   53.2970   25.5887 H   0  0  0  0  0  0
    1.8555   54.4103   24.4819 H   0  0  0  0  0  0
    3.9418   53.8010   23.8115 H   0  0  0  0  0  0
    4.4174   52.6524   21.9286 H   0  0  0  0  0  0
    4.6207   55.8915   17.9384 H   0  0  0  0  0  0
    6.0205   55.6728   16.9657 H   0  0  0  0  0  0
    4.6243   52.2794   18.9748 H   0  0  0  0  0  0
    6.1084   52.8302   15.3923 H   0  0  0  0  0  0
    4.7809   52.3402   13.3629 H   0  0  0  0  0  0
    2.5361   54.0979   17.4571 H   0  0  0  0  0  0
    0.1375   53.6355   13.3090 H   0  0  0  0  0  0
    0.2576   52.0161   14.0604 H   0  0  0  0  0  0
  1  2  1  0  0  0
  1 36  1  0  0  0
  1 37  1  0  0  0
  1 38  1  0  0  0
  2  7  2  0  0  0
  2  3  1  0  0  0
  3  4  2  0  0  0
  3 39  1  0  0  0
  4  5  1  0  0  0
  4 40  1  0  0  0
  5  6  2  0  0  0
  5  9  1  0  0  0
  6  7  1  0  0  0
  6  8  1  0  0  0
  7 41  1  0  0  0
  8 42  1  0  0  0
  8 43  1  0  0  0
  8 44  1  0  0  0
  9 10  1  0  0  0
  9 45  1  0  0  0
 10 11  2  0  0  0
 10 12  1  0  0  0
 12 16  2  0  0  0
 12 13  1  0  0  0
 13 14  2  0  0  0
 13 46  1  0  0  0
 14 22  1  0  0  0
 14 15  1  0  0  0
 15 16  1  0  0  0
 15 17  1  0  0  0
 17 18  1  0  0  0
 17 19  1  0  0  0
 17 32  1  0  0  0
 19 20  1  0  0  0
 19 47  1  0  0  0
 19 48  1  0  0  0
 20 21  1  0  0  0
 20 22  1  0  0  0
 20 23  1  0  0  0
 22 49  1  0  0  0
 23 28  2  0  0  0
 23 24  1  0  0  0
 24 25  2  0  0  0
 24 50  1  0  0  0
 25 26  1  0  0  0
 25 51  1  0  0  0
 26 31  1  0  0  0
 26 27  2  0  0  0
 27 28  1  0  0  0
 27 29  1  0  0  0
 28 52  1  0  0  0
 29 30  1  0  0  0
 30 31  1  0  0  0
 30 53  1  0  0  0
 30 54  1  0  0  0
 32 33  1  0  0  0
 32 34  1  0  0  0
 32 35  1  0  0  0
M  END
> <i_i_glide_confnum>
3

> <i_i_glide_lignum>
2431

> <i_i_glide_posenum>
108

> <i_i_glide_rotatable_bonds>
5

> <i_m_Source_File_Index>
3934

> <b_m_subgroup_collapsed>
0

> <r_i_docking_score>
-5.06902

> <r_i_glide_ecoul>
-0.197874

> <r_i_glide_eff_state_penalty>
0

> <r_i_glide_einternal>
1.85574

> <r_i_glide_emodel>
-49.9959

> <r_i_glide_energy>
-37.5851

> <r_i_glide_erotb>
0.382806

> <r_i_glide_esite>
-0.0599313

> <r_i_glide_evdw>
-37.3872

> <r_i_glide_gscore>
-5.06902

> <r_i_glide_hbond>
-0.0807806

> <r_i_glide_ligand_efficiency>
-0.153607

> <r_i_glide_ligand_efficiency_ln>
-1.12732

> <r_i_glide_ligand_efficiency_sa>
-0.492698

> <r_i_glide_lipo>
-2.19311

> <r_i_glide_metal>
0

> <r_i_glide_rewards>
-1.21896

> <s_i_glide_gridfile>
wee1_glide-grid

> <s_m_Source_File>
wee1_decoys_glide_SP.sdf

> <s_m_Source_Path>
/Users/zhangxujun/Desktop

> <s_m_entry_id>
4209

> <s_m_entry_name>
wee1_decoys_glide_SP.3934

> <s_m_subgroup_title>
wee1_decoys_glide_SP

> <s_m_subgroupid>
wee1_decoys_glide_SP


$$$$
