ZINC38636922_2201
                    3D
 Schrodinger Suite 2024-2.
 72 74  0  0  1  0            999 V2000
   -8.4701   50.7234   30.6648 C   0  0  0  0  0  0
   -7.7793   52.0056   30.1381 C   0  0  0  0  0  0
   -8.8161   52.7543   29.2598 C   0  0  0  0  0  0
   -7.4306   52.9256   31.3316 C   0  0  0  0  0  0
   -6.4830   51.6348   29.3736 C   0  0  0  0  0  0
   -5.4890   50.8895   30.0248 C   0  0  0  0  0  0
   -4.3186   50.5281   29.3653 C   0  0  0  0  0  0
   -4.1065   50.9256   28.0462 C   0  0  0  0  0  0
   -5.0875   51.6707   27.3802 C   0  0  0  0  0  0
   -6.2635   52.0183   28.0403 C   0  0  0  0  0  0
   -2.9062   50.4968   27.4604 N   0  0  0  0  0  0
   -2.3162   50.8858   26.3165 C   0  0  0  0  0  0
   -2.6619   51.8216   25.5932 O   0  0  0  0  0  0
   -1.2620   50.0969   26.0733 N   0  0  0  0  0  0
   -0.2482   50.2812   25.0267 C   0  0  0  0  0  0
    0.5687   51.6299   25.0272 C   0  0  1  0  0  0
   -0.1743   52.3737   24.7310 H   0  0  0  0  0  0
    1.0354   52.0611   26.4508 C   0  0  0  0  0  0
    1.1043   51.1669   27.5217 C   0  0  0  0  0  0
    1.2584   51.6229   28.8308 C   0  0  0  0  0  0
    1.3487   52.9871   29.1291 C   0  0  0  0  0  0
    1.4124   53.8674   28.0434 C   0  0  0  0  0  0
    1.2582   53.3997   26.7402 C   0  0  0  0  0  0
    1.3406   53.4626   30.4743 N   0  0  0  0  0  0
    0.8103   54.8102   30.7032 C   0  0  0  0  0  0
    1.0645   52.5158   31.5605 C   0  0  0  0  0  0
    1.6502   51.6889   23.9848 N   0  0  0  0  0  0
    1.4085   50.8293   22.8019 C   0  0  0  0  0  0
    2.5359   50.8727   21.7461 C   0  0  0  0  0  0
    2.7391   52.3273   21.2832 N   0  3  0  0  0  0
    3.0888   53.1986   22.5057 C   0  0  0  0  0  0
    1.9806   53.0761   23.5809 C   0  0  0  0  0  0
    3.8436   52.4054   20.2045 C   0  0  0  0  0  0
   -9.4063   50.9516   31.1763 H   0  0  0  0  0  0
   -7.8501   50.1813   31.3785 H   0  0  0  0  0  0
   -8.7057   50.0354   29.8516 H   0  0  0  0  0  0
   -8.4224   53.6972   28.8822 H   0  0  0  0  0  0
   -9.1275   52.1543   28.4040 H   0  0  0  0  0  0
   -9.7202   52.9955   29.8213 H   0  0  0  0  0  0
   -6.9303   53.8345   30.9958 H   0  0  0  0  0  0
   -8.3247   53.2332   31.8755 H   0  0  0  0  0  0
   -6.7805   52.4316   32.0540 H   0  0  0  0  0  0
   -5.6165   50.5735   31.0498 H   0  0  0  0  0  0
   -3.5758   49.9407   29.8899 H   0  0  0  0  0  0
   -4.9654   51.9729   26.3516 H   0  0  0  0  0  0
   -6.9941   52.5861   27.4868 H   0  0  0  0  0  0
   -2.4196   49.7721   27.9837 H   0  0  0  0  0  0
   -1.1365   49.3029   26.6937 H   0  0  0  0  0  0
    0.4480   49.4481   25.1358 H   0  0  0  0  0  0
   -0.7409   50.1211   24.0667 H   0  0  0  0  0  0
    0.9883   50.1090   27.3442 H   0  0  0  0  0  0
    1.2395   50.8965   29.6178 H   0  0  0  0  0  0
    1.5095   54.9314   28.1895 H   0  0  0  0  0  0
    1.1706   54.1250   25.9553 H   0  0  0  0  0  0
   -0.1836   54.8929   30.2648 H   0  0  0  0  0  0
    0.7047   55.0453   31.7632 H   0  0  0  0  0  0
    1.4368   55.5760   30.2452 H   0  0  0  0  0  0
    1.7835   51.6970   31.5666 H   0  0  0  0  0  0
    1.0988   52.9904   32.5414 H   0  0  0  0  0  0
    0.0695   52.0837   31.4415 H   0  0  0  0  0  0
    1.2894   49.7829   23.0850 H   0  0  0  0  0  0
    0.4992   51.1938   22.3184 H   0  0  0  0  0  0
    2.2405   50.3122   20.8563 H   0  0  0  0  0  0
    3.4909   50.4968   22.1157 H   0  0  0  0  0  0
    3.1350   54.2229   22.1301 H   0  0  0  0  0  0
    4.0693   52.8959   22.8766 H   0  0  0  0  0  0
    1.0753   53.5008   23.1422 H   0  0  0  0  0  0
    2.3291   53.6737   24.4163 H   0  0  0  0  0  0
    4.7821   52.0537   20.6358 H   0  0  0  0  0  0
    3.5426   51.7733   19.3656 H   0  0  0  0  0  0
    3.9177   53.4470   19.8875 H   0  0  0  0  0  0
    1.8717   52.6675   20.8855 H   0  0  0  0  0  0
  1  2  1  0  0  0
  1 34  1  0  0  0
  1 35  1  0  0  0
  1 36  1  0  0  0
  2  3  1  0  0  0
  2  4  1  0  0  0
  2  5  1  0  0  0
  3 37  1  0  0  0
  3 38  1  0  0  0
  3 39  1  0  0  0
  4 40  1  0  0  0
  4 41  1  0  0  0
  4 42  1  0  0  0
  5 10  2  0  0  0
  5  6  1  0  0  0
  6  7  2  0  0  0
  6 43  1  0  0  0
  7  8  1  0  0  0
  7 44  1  0  0  0
  8  9  2  0  0  0
  8 11  1  0  0  0
  9 10  1  0  0  0
  9 45  1  0  0  0
 10 46  1  0  0  0
 11 12  1  0  0  0
 11 47  1  0  0  0
 12 13  2  0  0  0
 12 14  1  0  0  0
 14 15  1  0  0  0
 14 48  1  0  0  0
 15 16  1  0  0  0
 15 49  1  0  0  0
 15 50  1  0  0  0
 16 17  1  0  0  0
 16 18  1  0  0  0
 16 27  1  0  0  0
 18 23  2  0  0  0
 18 19  1  0  0  0
 19 20  2  0  0  0
 19 51  1  0  0  0
 20 21  1  0  0  0
 20 52  1  0  0  0
 21 22  2  0  0  0
 21 24  1  0  0  0
 22 23  1  0  0  0
 22 53  1  0  0  0
 23 54  1  0  0  0
 24 25  1  0  0  0
 24 26  1  0  0  0
 25 55  1  0  0  0
 25 56  1  0  0  0
 25 57  1  0  0  0
 26 58  1  0  0  0
 26 59  1  0  0  0
 26 60  1  0  0  0
 27 32  1  0  0  0
 27 28  1  0  0  0
 28 29  1  0  0  0
 28 61  1  0  0  0
 28 62  1  0  0  0
 29 30  1  0  0  0
 29 63  1  0  0  0
 29 64  1  0  0  0
 30 31  1  0  0  0
 30 33  1  0  0  0
 30 72  1  0  0  0
 31 32  1  0  0  0
 31 65  1  0  0  0
 31 66  1  0  0  0
 32 67  1  0  0  0
 32 68  1  0  0  0
 33 69  1  0  0  0
 33 70  1  0  0  0
 33 71  1  0  0  0
M  CHG  1  30   1
M  END
> <i_i_glide_confnum>
65

> <i_i_glide_lignum>
2202

> <i_i_glide_posenum>
325

> <i_i_glide_rotatable_bonds>
9

> <i_m_Source_File_Index>
4206

> <b_m_subgroup_collapsed>
0

> <r_i_docking_score>
-4.56633

> <r_i_glide_ecoul>
-8.94375

> <r_i_glide_eff_state_penalty>
0

> <r_i_glide_einternal>
7.33624

> <r_i_glide_emodel>
-48.3486

> <r_i_glide_energy>
-37.2022

> <r_i_glide_erotb>
0.725901

> <r_i_glide_esite>
-0.245656

> <r_i_glide_evdw>
-28.2585

> <r_i_glide_gscore>
-4.56633

> <r_i_glide_hbond>
-0.304

> <r_i_glide_ligand_efficiency>
-0.142698

> <r_i_glide_ligand_efficiency_ln>
-1.02253

> <r_i_glide_ligand_efficiency_sa>
-0.453037

> <r_i_glide_lipo>
-1.53631

> <r_i_glide_metal>
0

> <r_i_glide_rewards>
-0.451781

> <s_i_glide_gridfile>
wee1_glide-grid

> <s_m_Source_File>
wee1_decoys_glide_SP.sdf

> <s_m_Source_Path>
/Users/zhangxujun/Desktop

> <s_m_entry_id>
4481

> <s_m_entry_name>
wee1_decoys_glide_SP.4206

> <s_m_subgroup_title>
wee1_decoys_glide_SP

> <s_m_subgroupid>
wee1_decoys_glide_SP


$$$$
