ZINC24831406_5161
                    3D
 Schrodinger Suite 2024-2.
 65 71  0  0  1  0            999 V2000
    3.2473   53.8066   22.7674 C   0  0  0  0  0  0
    2.0759   53.5495   23.4624 C   0  0  0  0  0  0
    1.1905   52.5891   22.9880 C   0  0  0  0  0  0
    1.4206   51.8853   21.7892 C   0  0  0  0  0  0
    2.6168   52.1731   21.0769 C   0  0  0  0  0  0
    3.5112   53.1204   21.5908 C   0  0  0  0  0  0
    2.9471   51.5080   19.7404 C   0  0  0  0  0  0
    2.1480   50.2211   19.4807 C   0  0  0  0  0  0
    0.6644   50.4644   19.7767 C   0  0  0  0  0  0
    0.4538   50.7748   21.2859 C   0  0  2  0  0  0
   -1.0196   51.1156   21.5080 C   0  0  0  0  0  0
   -1.6213   52.0965   21.0688 O   0  0  0  0  0  0
   -1.5288   50.1039   22.2409 N   0  0  0  0  0  0
   -0.6199   49.1538   22.5795 C   0  0  0  0  0  0
   -0.7944   48.1655   23.2865 O   0  0  0  0  0  0
    0.5479   49.5824   22.0896 N   0  0  0  0  0  0
   -2.8808   50.1702   22.8545 C   0  0  0  0  0  0
   -2.8920   50.7380   24.2978 C   0  0  0  0  0  0
   -3.9812   50.8311   24.8597 O   0  0  0  0  0  0
   -1.7165   51.1037   24.8517 N   0  0  0  0  0  0
   -1.4438   51.4655   26.1579 C   0  0  0  0  0  0
   -0.2529   51.8923   26.4809 N   0  0  0  0  0  0
   -0.1153   52.1050   27.7779 C   0  0  0  0  0  0
   -1.2130   51.6971   28.5422 C   0  0  0  0  0  0
   -2.5396   51.2930   27.4975 S   0  0  0  0  0  0
    1.1891   52.7517   28.2742 C   0  0  0  0  0  0
    0.8828   53.7395   29.4419 C   0  0  0  0  0  0
    2.1748   54.4040   29.9792 C   0  0  1  0  0  0
    3.1382   53.2955   30.4819 C   0  0  0  0  0  0
    3.4852   52.3278   29.3308 C   0  0  1  0  0  0
    2.1691   51.6770   28.8136 C   0  0  0  0  0  0
    4.1840   53.1384   28.2060 C   0  0  0  0  0  0
    3.2277   54.2383   27.6915 C   0  0  2  0  0  0
    2.8595   55.2027   28.8467 C   0  0  0  0  0  0
    1.9400   53.5610   27.1596 C   0  0  0  0  0  0
    3.9461   54.5431   23.1351 H   0  0  0  0  0  0
    1.8574   54.0928   24.3692 H   0  0  0  0  0  0
    0.3000   52.4059   23.5673 H   0  0  0  0  0  0
    4.4180   53.3458   21.0481 H   0  0  0  0  0  0
    2.7337   52.2257   18.9456 H   0  0  0  0  0  0
    4.0146   51.2959   19.6830 H   0  0  0  0  0  0
    2.2877   49.9143   18.4430 H   0  0  0  0  0  0
    2.5366   49.4033   20.0929 H   0  0  0  0  0  0
    0.3489   51.3121   19.1610 H   0  0  0  0  0  0
    0.0860   49.5956   19.4585 H   0  0  0  0  0  0
    1.3080   48.9441   21.9134 H   0  0  0  0  0  0
   -3.5424   50.7876   22.2431 H   0  0  0  0  0  0
   -3.3183   49.1712   22.8836 H   0  0  0  0  0  0
   -0.9126   51.0777   24.2517 H   0  0  0  0  0  0
   -1.3369   51.7017   29.6148 H   0  0  0  0  0  0
    0.1798   54.4994   29.1063 H   0  0  0  0  0  0
    0.3840   53.2214   30.2630 H   0  0  0  0  0  0
    1.9041   55.0888   30.7848 H   0  0  0  0  0  0
    2.6762   52.7400   31.3011 H   0  0  0  0  0  0
    4.0535   53.7291   30.8804 H   0  0  0  0  0  0
    4.1625   51.5541   29.6932 H   0  0  0  0  0  0
    1.6867   51.1301   29.6220 H   0  0  0  0  0  0
    2.3680   50.9355   28.0434 H   0  0  0  0  0  0
    5.1051   53.5867   28.5778 H   0  0  0  0  0  0
    4.4809   52.4969   27.3782 H   0  0  0  0  0  0
    3.7076   54.7974   26.8877 H   0  0  0  0  0  0
    2.2069   55.9996   28.4893 H   0  0  0  0  0  0
    3.7561   55.6932   29.2323 H   0  0  0  0  0  0
    2.2073   52.8996   26.3340 H   0  0  0  0  0  0
    1.2814   54.3171   26.7440 H   0  0  0  0  0  0
  1  6  2  0  0  0
  1  2  1  0  0  0
  1 36  1  0  0  0
  2  3  2  0  0  0
  2 37  1  0  0  0
  3  4  1  0  0  0
  3 38  1  0  0  0
  4 10  1  0  0  0
  4  5  2  0  0  0
  5  6  1  0  0  0
  5  7  1  0  0  0
  6 39  1  0  0  0
  7  8  1  0  0  0
  7 40  1  0  0  0
  7 41  1  0  0  0
  8  9  1  0  0  0
  8 42  1  0  0  0
  8 43  1  0  0  0
  9 10  1  0  0  0
  9 44  1  0  0  0
  9 45  1  0  0  0
 10 16  1  0  0  0
 10 11  1  0  0  0
 11 12  2  0  0  0
 11 13  1  0  0  0
 13 14  1  0  0  0
 13 17  1  0  0  0
 14 15  2  0  0  0
 14 16  1  0  0  0
 16 46  1  0  0  0
 17 18  1  0  0  0
 17 47  1  0  0  0
 17 48  1  0  0  0
 18 19  2  0  0  0
 18 20  1  0  0  0
 20 21  1  0  0  0
 20 49  1  0  0  0
 21 25  1  0  0  0
 21 22  2  0  0  0
 22 23  1  0  0  0
 23 24  2  0  0  0
 23 26  1  0  0  0
 24 25  1  0  0  0
 24 50  1  0  0  0
 26 31  1  0  0  0
 26 35  1  0  0  0
 26 27  1  0  0  0
 27 28  1  0  0  0
 27 51  1  0  0  0
 27 52  1  0  0  0
 28 34  1  0  0  0
 28 29  1  0  0  0
 28 53  1  0  0  0
 29 30  1  0  0  0
 29 54  1  0  0  0
 29 55  1  0  0  0
 30 31  1  0  0  0
 30 32  1  0  0  0
 30 56  1  0  0  0
 31 57  1  0  0  0
 31 58  1  0  0  0
 32 33  1  0  0  0
 32 59  1  0  0  0
 32 60  1  0  0  0
 33 34  1  0  0  0
 33 35  1  0  0  0
 33 61  1  0  0  0
 34 62  1  0  0  0
 34 63  1  0  0  0
 35 64  1  0  0  0
 35 65  1  0  0  0
M  END
> <i_i_glide_confnum>
9

> <i_i_glide_lignum>
5162

> <i_i_glide_posenum>
351

> <i_i_glide_rotatable_bonds>
5

> <i_m_Source_File_Index>
3356

> <b_m_subgroup_collapsed>
0

> <r_i_docking_score>
-4.21649

> <r_i_glide_ecoul>
-1.48325

> <r_i_glide_eff_state_penalty>
0

> <r_i_glide_einternal>
2.98615

> <r_i_glide_emodel>
-49.5274

> <r_i_glide_energy>
-40.094

> <r_i_glide_erotb>
0.338202

> <r_i_glide_esite>
-0.017004

> <r_i_glide_evdw>
-38.6108

> <r_i_glide_gscore>
-4.21649

> <r_i_glide_hbond>
-0.030404

> <r_i_glide_ligand_efficiency>
-0.120471

> <r_i_glide_ligand_efficiency_ln>
-0.925614

> <r_i_glide_ligand_efficiency_sa>
-0.39407

> <r_i_glide_lipo>
-2.27283

> <r_i_glide_metal>
0

> <r_i_glide_rewards>
-0.0814313

> <s_i_glide_gridfile>
wee1_glide-grid

> <s_m_Source_File>
wee1_decoys_glide_SP.sdf

> <s_m_Source_Path>
/Users/zhangxujun/Desktop

> <s_m_entry_id>
3631

> <s_m_entry_name>
wee1_decoys_glide_SP.3356

> <s_m_subgroup_title>
wee1_decoys_glide_SP

> <s_m_subgroupid>
wee1_decoys_glide_SP


$$$$
