ZINC27265196_5155
                    3D
 Schrodinger Suite 2024-2.
 61 66  0  0  1  0            999 V2000
    0.7615   51.7567   20.4410 C   0  0  0  0  0  0
   -0.3137   51.6556   21.3162 C   0  0  0  0  0  0
   -0.1913   52.0816   22.6347 C   0  0  0  0  0  0
    1.0308   52.6289   23.0949 C   0  0  0  0  0  0
    2.1355   52.7619   22.2081 C   0  0  0  0  0  0
    1.9731   52.2966   20.8665 C   0  0  0  0  0  0
    3.3350   53.3401   22.7392 C   0  0  0  0  0  0
    3.4100   53.6968   24.1068 C   0  0  0  0  0  0
    2.2710   53.4785   24.9132 C   0  0  0  0  0  0
    1.1111   52.9935   24.3944 N   0  0  0  0  0  0
    2.2868   53.7202   26.3987 C   0  0  0  0  0  0
    1.2840   53.2655   27.1931 C   0  0  0  0  0  0
    1.0602   53.4644   28.6120 C   0  0  0  0  0  0
    0.4769   52.5439   29.4786 C   0  0  0  0  0  0
    0.3041   53.0448   30.7717 C   0  0  0  0  0  0
    0.7044   54.3659   30.8821 C   0  0  0  0  0  0
    1.3692   54.9818   29.4120 S   0  0  0  0  0  0
    3.4944   54.4877   26.9405 C   0  0  0  0  0  0
    4.7738   54.0308   26.2454 C   0  0  0  0  0  0
    4.6861   54.2881   24.7388 C   0  0  0  0  0  0
    4.5407   53.5091   21.8572 C   0  0  0  0  0  0
    5.5044   52.7679   22.0181 O   0  0  0  0  0  0
    4.4534   54.4966   20.9466 N   0  0  0  0  0  0
    5.5044   55.0447   20.1914 C   0  0  0  0  0  0
    6.7810   55.2968   20.7143 C   0  0  0  0  0  0
    7.7473   55.9201   19.9158 C   0  0  0  0  0  0
    7.4225   56.3005   18.6028 C   0  0  0  0  0  0
    6.1784   56.0486   18.0986 N   0  0  0  0  0  0
    5.2468   55.4495   18.8818 C   0  0  0  0  0  0
    8.3676   56.8646   17.7332 N   0  0  0  0  0  0
    8.0648   57.1948   16.3298 C   0  0  0  0  0  0
    7.6242   58.6681   16.1462 C   0  0  0  0  0  0
    8.3037   59.5953   17.0644 N   0  0  0  0  0  0
    9.1074   59.2447   18.0845 C   0  0  0  0  0  0
    9.5047   60.0966   18.8800 O   0  0  0  0  0  0
    9.4862   57.7382   18.1647 C   0  0  0  0  0  0
    0.6592   51.4102   19.4227 H   0  0  0  0  0  0
   -1.2454   51.2305   20.9731 H   0  0  0  0  0  0
   -1.0220   51.9816   23.3186 H   0  0  0  0  0  0
    2.7917   52.3567   20.1635 H   0  0  0  0  0  0
    0.4972   52.6648   26.7606 H   0  0  0  0  0  0
    0.1863   51.5449   29.1864 H   0  0  0  0  0  0
   -0.1129   52.4751   31.5913 H   0  0  0  0  0  0
    0.6709   54.9913   31.7626 H   0  0  0  0  0  0
    3.3420   55.5519   26.7917 H   0  0  0  0  0  0
    3.6216   54.3288   28.0102 H   0  0  0  0  0  0
    5.6339   54.5580   26.6600 H   0  0  0  0  0  0
    4.9448   52.9706   26.4414 H   0  0  0  0  0  0
    4.7067   55.3578   24.5532 H   0  0  0  0  0  0
    5.5940   53.8885   24.2888 H   0  0  0  0  0  0
    3.5366   54.8955   20.7987 H   0  0  0  0  0  0
    7.0267   55.0157   21.7285 H   0  0  0  0  0  0
    8.7364   56.0760   20.3183 H   0  0  0  0  0  0
    4.2760   55.2974   18.4312 H   0  0  0  0  0  0
    8.9913   57.0301   15.7772 H   0  0  0  0  0  0
    7.3276   56.5134   15.9037 H   0  0  0  0  0  0
    7.7153   58.9817   15.1061 H   0  0  0  0  0  0
    6.5695   58.7260   16.4206 H   0  0  0  0  0  0
    7.9911   60.5586   17.0605 H   0  0  0  0  0  0
    9.8427   57.5151   19.1695 H   0  0  0  0  0  0
   10.3465   57.5925   17.5097 H   0  0  0  0  0  0
  1  6  2  0  0  0
  1  2  1  0  0  0
  1 37  1  0  0  0
  2  3  2  0  0  0
  2 38  1  0  0  0
  3  4  1  0  0  0
  3 39  1  0  0  0
  4 10  2  0  0  0
  4  5  1  0  0  0
  5  6  1  0  0  0
  5  7  2  0  0  0
  6 40  1  0  0  0
  7  8  1  0  0  0
  7 21  1  0  0  0
  8 20  1  0  0  0
  8  9  2  0  0  0
  9 10  1  0  0  0
  9 11  1  0  0  0
 11 12  2  0  0  0
 11 18  1  0  0  0
 12 13  1  0  0  0
 12 41  1  0  0  0
 13 17  1  0  0  0
 13 14  2  0  0  0
 14 15  1  0  0  0
 14 42  1  0  0  0
 15 16  2  0  0  0
 15 43  1  0  0  0
 16 17  1  0  0  0
 16 44  1  0  0  0
 18 19  1  0  0  0
 18 45  1  0  0  0
 18 46  1  0  0  0
 19 20  1  0  0  0
 19 47  1  0  0  0
 19 48  1  0  0  0
 20 49  1  0  0  0
 20 50  1  0  0  0
 21 22  2  0  0  0
 21 23  1  0  0  0
 23 24  1  0  0  0
 23 51  1  0  0  0
 24 29  2  0  0  0
 24 25  1  0  0  0
 25 26  2  0  0  0
 25 52  1  0  0  0
 26 27  1  0  0  0
 26 53  1  0  0  0
 27 28  2  0  0  0
 27 30  1  0  0  0
 28 29  1  0  0  0
 29 54  1  0  0  0
 30 36  1  0  0  0
 30 31  1  0  0  0
 31 32  1  0  0  0
 31 55  1  0  0  0
 31 56  1  0  0  0
 32 33  1  0  0  0
 32 57  1  0  0  0
 32 58  1  0  0  0
 33 34  1  0  0  0
 33 59  1  0  0  0
 34 35  2  0  0  0
 34 36  1  0  0  0
 36 60  1  0  0  0
 36 61  1  0  0  0
M  END
> <i_i_glide_confnum>
195

> <i_i_glide_lignum>
5156

> <i_i_glide_posenum>
73

> <i_i_glide_rotatable_bonds>
5

> <i_m_Source_File_Index>
1715

> <b_m_subgroup_collapsed>
0

> <r_i_docking_score>
-7.19164

> <r_i_glide_ecoul>
-9.46635

> <r_i_glide_eff_state_penalty>
0

> <r_i_glide_einternal>
3.16545

> <r_i_glide_emodel>
-78.064

> <r_i_glide_energy>
-54.9639

> <r_i_glide_erotb>
0.332006

> <r_i_glide_esite>
-0.103848

> <r_i_glide_evdw>
-45.4975

> <r_i_glide_gscore>
-7.19164

> <r_i_glide_hbond>
-0.35357

> <r_i_glide_ligand_efficiency>
-0.199768

> <r_i_glide_ligand_efficiency_ln>
-1.56902

> <r_i_glide_ligand_efficiency_sa>
-0.659619

> <r_i_glide_lipo>
-3.14676

> <r_i_glide_metal>
0

> <r_i_glide_rewards>
-0.224637

> <s_i_glide_gridfile>
wee1_glide-grid

> <s_m_Source_File>
wee1_decoys_glide_SP.sdf

> <s_m_Source_Path>
/Users/zhangxujun/Desktop

> <s_m_entry_id>
1990

> <s_m_entry_name>
wee1_decoys_glide_SP.1715

> <s_m_subgroup_title>
wee1_decoys_glide_SP

> <s_m_subgroupid>
wee1_decoys_glide_SP


$$$$
