ZINC67339785_1361
                    3D
 Schrodinger Suite 2024-2.
 47 49  0  0  1  0            999 V2000
    0.0908   50.7394   24.9267 C   0  0  0  0  0  0
    0.7462   51.7202   25.8813 C   0  0  0  0  0  0
    0.7350   51.5379   27.2727 C   0  0  0  0  0  0
    1.3743   52.5457   27.9726 C   0  0  0  0  0  0
    2.1029   53.6949   26.9178 S   0  0  0  0  0  0
    1.5045   52.8591   25.5097 C   0  0  0  0  0  0
    1.4998   53.4439   24.1739 C   0  0  0  0  0  0
    0.3737   53.5266   23.6810 O   0  0  0  0  0  0
    2.6343   53.6909   23.4205 N   0  0  0  0  0  0
    2.4568   53.4356   21.9641 C   0  0  0  0  0  0
    3.3967   52.2524   21.6123 C   0  0  2  0  0  0
    3.1849   51.3913   22.2512 H   0  0  0  0  0  0
    4.8680   52.6680   21.7940 C   0  0  0  0  0  0
    5.0750   53.4626   23.0817 C   0  0  0  0  0  0
    3.9758   53.9023   23.8718 C   0  0  0  0  0  0
    4.2572   54.7769   24.9324 C   0  0  0  0  0  0
    5.5612   55.0579   25.3299 C   0  0  0  0  0  0
    6.6266   54.5480   24.6038 C   0  0  0  0  0  0
    6.3798   53.7790   23.4753 C   0  0  0  0  0  0
    3.2318   51.7830   20.1355 N   0  3  0  0  0  0
    2.1343   50.7089   19.9807 C   0  0  0  0  0  0
    3.0572   52.8925   19.0726 C   0  0  0  0  0  0
    1.5048   52.6818   29.7624 S   0  0  0  0  0  0
    1.6401   54.1058   30.0832 O   0  0  0  0  0  0
    2.5023   51.6977   30.1888 O   0  0  0  0  0  0
   -0.0822   52.1391   30.2611 N   0  0  0  0  0  0
   -0.8670   51.1120   24.5598 H   0  0  0  0  0  0
    0.7141   50.5576   24.0508 H   0  0  0  0  0  0
   -0.0752   49.7626   25.3831 H   0  0  0  0  0  0
    0.2322   50.7070   27.7497 H   0  0  0  0  0  0
    1.4379   53.2993   21.5965 H   0  0  0  0  0  0
    2.8741   54.2881   21.4282 H   0  0  0  0  0  0
    5.5063   51.7836   21.7894 H   0  0  0  0  0  0
    5.2032   53.2985   20.9700 H   0  0  0  0  0  0
    3.4651   55.2959   25.4400 H   0  0  0  0  0  0
    5.7423   55.6967   26.1801 H   0  0  0  0  0  0
    7.6421   54.7806   24.8820 H   0  0  0  0  0  0
    7.2210   53.4343   22.8924 H   0  0  0  0  0  0
    1.1754   51.1648   20.2334 H   0  0  0  0  0  0
    2.1576   50.3663   18.9436 H   0  0  0  0  0  0
    2.3777   49.8852   20.6540 H   0  0  0  0  0  0
    2.0491   53.2964   19.1646 H   0  0  0  0  0  0
    3.8120   53.6614   19.2348 H   0  0  0  0  0  0
    3.2016   52.4192   18.0991 H   0  0  0  0  0  0
   -0.1747   51.1208   30.2631 H   0  0  0  0  0  0
   -0.3529   52.4974   31.1827 H   0  0  0  0  0  0
    4.0965   51.3141   19.8815 H   0  0  0  0  0  0
  1  2  1  0  0  0
  1 27  1  0  0  0
  1 28  1  0  0  0
  1 29  1  0  0  0
  2  6  2  0  0  0
  2  3  1  0  0  0
  3  4  2  0  0  0
  3 30  1  0  0  0
  4  5  1  0  0  0
  4 23  1  0  0  0
  5  6  1  0  0  0
  6  7  1  0  0  0
  7  8  2  0  0  0
  7  9  1  0  0  0
  9 15  1  0  0  0
  9 10  1  0  0  0
 10 11  1  0  0  0
 10 31  1  0  0  0
 10 32  1  0  0  0
 11 12  1  0  0  0
 11 13  1  0  0  0
 11 20  1  0  0  0
 13 14  1  0  0  0
 13 33  1  0  0  0
 13 34  1  0  0  0
 14 19  2  0  0  0
 14 15  1  0  0  0
 15 16  2  0  0  0
 16 17  1  0  0  0
 16 35  1  0  0  0
 17 18  2  0  0  0
 17 36  1  0  0  0
 18 19  1  0  0  0
 18 37  1  0  0  0
 19 38  1  0  0  0
 20 21  1  0  0  0
 20 22  1  0  0  0
 20 47  1  0  0  0
 21 39  1  0  0  0
 21 40  1  0  0  0
 21 41  1  0  0  0
 22 42  1  0  0  0
 22 43  1  0  0  0
 22 44  1  0  0  0
 23 24  2  0  0  0
 23 25  2  0  0  0
 23 26  1  0  0  0
 26 45  1  0  0  0
 26 46  1  0  0  0
M  CHG  1  20   1
M  END
> <i_i_glide_confnum>
11

> <i_i_glide_lignum>
1362

> <i_i_glide_posenum>
386

> <i_i_glide_rotatable_bonds>
4

> <i_m_Source_File_Index>
5570

> <b_m_subgroup_collapsed>
0

> <r_i_docking_score>
-6.12224

> <r_i_glide_ecoul>
-7.73559

> <r_i_glide_eff_state_penalty>
0

> <r_i_glide_einternal>
12.6472

> <r_i_glide_emodel>
-51.5674

> <r_i_glide_energy>
-40.9193

> <r_i_glide_erotb>
0.267999

> <r_i_glide_esite>
-0.147127

> <r_i_glide_evdw>
-33.1837

> <r_i_glide_gscore>
-6.12224

> <r_i_glide_hbond>
-0.0366453

> <r_i_glide_ligand_efficiency>
-0.24489

> <r_i_glide_ligand_efficiency_ln>
-1.45116

> <r_i_glide_ligand_efficiency_sa>
-0.716062

> <r_i_glide_lipo>
-2.32812

> <r_i_glide_metal>
0

> <r_i_glide_rewards>
-1.05882

> <s_i_glide_gridfile>
wee1_glide-grid

> <s_m_Source_File>
wee1_decoys_glide_SP.sdf

> <s_m_Source_Path>
/Users/zhangxujun/Desktop

> <s_m_entry_id>
5845

> <s_m_entry_name>
wee1_decoys_glide_SP.5570

> <s_m_subgroup_title>
wee1_decoys_glide_SP

> <s_m_subgroupid>
wee1_decoys_glide_SP


$$$$
