ZINC36019590_4241
                    3D
 Schrodinger Suite 2024-2.
 77 81  0  0  1  0            999 V2000
    1.2878   53.5375   13.5470 C   0  0  0  0  0  0
    2.1688   53.4238   14.7795 C   0  0  0  0  0  0
    2.8892   54.5296   15.2258 C   0  0  0  0  0  0
    3.6872   54.4397   16.3585 C   0  0  0  0  0  0
    3.7752   53.2177   17.0471 C   0  0  0  0  0  0
    3.0711   52.1001   16.5784 C   0  0  0  0  0  0
    2.2639   52.2089   15.4501 C   0  0  0  0  0  0
    4.5335   53.0120   18.2175 N   0  0  0  0  0  0
    5.0536   53.9271   19.0829 C   0  0  0  0  0  0
    5.1426   55.1326   18.8387 O   0  0  0  0  0  0
    5.5044   53.3897   20.2557 N   0  0  0  0  0  0
    4.6861   52.3862   20.9521 C   0  0  0  0  0  0
    3.6787   53.1070   21.8844 C   0  0  0  0  0  0
    4.2813   54.1315   22.7600 N   0  0  0  0  0  0
    5.2531   54.9952   22.0687 C   0  0  0  0  0  0
    6.2214   54.2688   21.1996 C   0  0  0  0  0  0
    4.1927   54.0962   24.1518 C   0  0  0  0  0  0
    5.3891   54.2190   24.8842 C   0  0  0  0  0  0
    5.3926   54.2038   26.2712 C   0  0  0  0  0  0
    4.1975   54.1270   26.9721 C   0  0  0  0  0  0
    2.9982   54.0912   26.2510 C   0  0  0  0  0  0
    2.9699   53.9503   24.8604 C   0  0  0  0  0  0
    1.6163   53.8754   24.1666 C   0  0  0  0  0  0
    1.3965   54.6910   23.2786 O   0  0  0  0  0  0
    0.6686   52.9613   24.5505 N   0  0  0  0  0  0
   -0.6495   52.8932   23.8873 C   0  0  0  0  0  0
   -0.6973   51.5815   23.0750 C   0  0  0  0  0  0
   -0.4829   50.3542   23.9741 C   0  0  0  0  0  0
    0.7848   50.5225   24.8193 C   0  0  0  0  0  0
    0.8574   51.8950   25.5424 C   0  0  0  0  0  0
    4.3030   54.1062   28.3775 N   0  0  0  0  0  0
    3.4685   53.6225   29.3232 C   0  0  0  0  0  0
    3.8713   53.5784   30.4782 O   0  0  0  0  0  0
    2.0886   53.0276   28.9941 C   0  0  0  0  0  0
    1.6311   51.8716   29.8822 C   0  0  0  0  0  0
    0.1389   51.7777   29.5361 C   0  0  0  0  0  0
   -0.3040   53.2190   29.2706 C   0  0  0  0  0  0
    0.9614   54.0657   29.1453 C   0  0  0  0  0  0
    1.8489   53.9520   12.7046 H   0  0  0  0  0  0
    0.8894   52.5711   13.2394 H   0  0  0  0  0  0
    0.4422   54.2036   13.7491 H   0  0  0  0  0  0
    2.8297   55.4646   14.6902 H   0  0  0  0  0  0
    4.2250   55.3241   16.6793 H   0  0  0  0  0  0
    3.1295   51.1495   17.0935 H   0  0  0  0  0  0
    1.7140   51.3466   15.1123 H   0  0  0  0  0  0
    4.6506   52.0314   18.4565 H   0  0  0  0  0  0
    5.3578   51.8259   21.6019 H   0  0  0  0  0  0
    4.2580   51.6298   20.2895 H   0  0  0  0  0  0
    3.1688   52.3579   22.4895 H   0  0  0  0  0  0
    2.9206   53.6128   21.2835 H   0  0  0  0  0  0
    4.7017   55.6955   21.4635 H   0  0  0  0  0  0
    5.8935   55.5708   22.7473 H   0  0  0  0  0  0
    7.0035   54.8654   20.7210 H   0  0  0  0  0  0
    6.7043   53.7050   22.0033 H   0  0  0  0  0  0
    6.3372   54.2978   24.3743 H   0  0  0  0  0  0
    6.3333   54.2578   26.7962 H   0  0  0  0  0  0
    2.0549   54.1822   26.7523 H   0  0  0  0  0  0
   -1.4177   52.8779   24.6649 H   0  0  0  0  0  0
   -0.8686   53.7597   23.2837 H   0  0  0  0  0  0
   -1.6604   51.4828   22.5768 H   0  0  0  0  0  0
    0.0536   51.6163   22.2844 H   0  0  0  0  0  0
   -0.4126   49.4618   23.3592 H   0  0  0  0  0  0
   -1.3554   50.2158   24.6153 H   0  0  0  0  0  0
    1.6589   50.3978   24.1793 H   0  0  0  0  0  0
    0.8522   49.7276   25.5620 H   0  0  0  0  0  0
    1.7636   52.0401   26.1187 H   0  0  0  0  0  0
    0.0321   51.9760   26.2569 H   0  0  0  0  0  0
    5.1946   54.4105   28.7321 H   0  0  0  0  0  0
    2.1785   52.5700   28.0223 H   0  0  0  0  0  0
    1.7929   52.0823   30.9408 H   0  0  0  0  0  0
    2.1511   50.9616   29.6171 H   0  0  0  0  0  0
   -0.4781   51.3085   30.2971 H   0  0  0  0  0  0
    0.0140   51.1853   28.6284 H   0  0  0  0  0  0
   -0.8949   53.5979   30.0977 H   0  0  0  0  0  0
   -0.8938   53.2610   28.3517 H   0  0  0  0  0  0
    0.8911   54.7956   28.3424 H   0  0  0  0  0  0
    1.1000   54.6431   30.0630 H   0  0  0  0  0  0
  1  2  1  0  0  0
  1 39  1  0  0  0
  1 40  1  0  0  0
  1 41  1  0  0  0
  2  7  2  0  0  0
  2  3  1  0  0  0
  3  4  2  0  0  0
  3 42  1  0  0  0
  4  5  1  0  0  0
  4 43  1  0  0  0
  5  6  2  0  0  0
  5  8  1  0  0  0
  6  7  1  0  0  0
  6 44  1  0  0  0
  7 45  1  0  0  0
  8  9  1  0  0  0
  8 46  1  0  0  0
  9 10  2  0  0  0
  9 11  1  0  0  0
 11 16  1  0  0  0
 11 12  1  0  0  0
 12 13  1  0  0  0
 12 47  1  0  0  0
 12 48  1  0  0  0
 13 14  1  0  0  0
 13 49  1  0  0  0
 13 50  1  0  0  0
 14 15  1  0  0  0
 14 17  1  0  0  0
 15 16  1  0  0  0
 15 51  1  0  0  0
 15 52  1  0  0  0
 16 53  1  0  0  0
 16 54  1  0  0  0
 17 22  2  0  0  0
 17 18  1  0  0  0
 18 19  2  0  0  0
 18 55  1  0  0  0
 19 20  1  0  0  0
 19 56  1  0  0  0
 20 21  2  0  0  0
 20 31  1  0  0  0
 21 22  1  0  0  0
 21 57  1  0  0  0
 22 23  1  0  0  0
 23 24  2  0  0  0
 23 25  1  0  0  0
 25 30  1  0  0  0
 25 26  1  0  0  0
 26 27  1  0  0  0
 26 58  1  0  0  0
 26 59  1  0  0  0
 27 28  1  0  0  0
 27 60  1  0  0  0
 27 61  1  0  0  0
 28 29  1  0  0  0
 28 62  1  0  0  0
 28 63  1  0  0  0
 29 30  1  0  0  0
 29 64  1  0  0  0
 29 65  1  0  0  0
 30 66  1  0  0  0
 30 67  1  0  0  0
 31 32  1  0  0  0
 31 68  1  0  0  0
 32 33  2  0  0  0
 32 34  1  0  0  0
 34 38  1  0  0  0
 34 35  1  0  0  0
 34 69  1  0  0  0
 35 36  1  0  0  0
 35 70  1  0  0  0
 35 71  1  0  0  0
 36 37  1  0  0  0
 36 72  1  0  0  0
 36 73  1  0  0  0
 37 38  1  0  0  0
 37 74  1  0  0  0
 37 75  1  0  0  0
 38 76  1  0  0  0
 38 77  1  0  0  0
M  END
> <i_i_glide_confnum>
2154

> <i_i_glide_lignum>
4242

> <i_i_glide_posenum>
63

> <i_i_glide_rotatable_bonds>
9

> <i_m_Source_File_Index>
34

> <b_m_subgroup_collapsed>
0

> <r_i_docking_score>
-3.96064

> <r_i_glide_ecoul>
-5.15822

> <r_i_glide_eff_state_penalty>
0

> <r_i_glide_einternal>
10.4886

> <r_i_glide_emodel>
-29.4454

> <r_i_glide_energy>
-32.165

> <r_i_glide_erotb>
0.689622

> <r_i_glide_esite>
-0.143776

> <r_i_glide_evdw>
-27.0068

> <r_i_glide_gscore>
-3.96064

> <r_i_glide_hbond>
-0.456

> <r_i_glide_ligand_efficiency>
-0.104227

> <r_i_glide_ligand_efficiency_ln>
-0.85403

> <r_i_glide_ligand_efficiency_sa>
-0.350409

> <r_i_glide_lipo>
-2.41581

> <r_i_glide_metal>
0

> <r_i_glide_rewards>
0.489404

> <s_i_glide_gridfile>
wee1_glide-grid

> <s_m_Source_File>
wee1_decoys_glide_SP.sdf

> <s_m_Source_Path>
/Users/zhangxujun/Desktop

> <s_m_entry_id>
309

> <s_m_entry_name>
wee1_decoys_glide_SP.34

> <s_m_subgroup_title>
wee1_decoys_glide_SP

> <s_m_subgroupid>
wee1_decoys_glide_SP


$$$$
