ZINC64046760_2227
                    3D
 Schrodinger Suite 2024-2.
 51 55  0  0  1  0            999 V2000
   -2.2413   50.5978   21.4126 C   0  0  0  0  0  0
   -1.4092   51.4408   20.6856 C   0  0  0  0  0  0
   -0.3041   52.0231   21.3009 C   0  0  0  0  0  0
   -0.0079   51.7866   22.6562 C   0  0  0  0  0  0
   -0.8501   50.9027   23.3886 C   0  0  0  0  0  0
   -1.9619   50.3338   22.7498 C   0  0  0  0  0  0
   -0.6449   50.5256   24.8621 C   0  0  0  0  0  0
   -1.5106   51.6762   25.9780 S   0  0  0  0  0  0
   -0.3560   51.7903   27.3071 C   0  0  0  0  0  0
    0.9536   51.6521   27.2759 N   0  0  0  0  0  0
    1.3325   51.8986   28.5657 C   0  0  0  0  0  0
    2.5968   51.9167   29.1752 C   0  0  0  0  0  0
    2.6672   52.2242   30.5395 C   0  0  0  0  0  0
    1.5118   52.4954   31.2842 C   0  0  0  0  0  0
    0.2457   52.4957   30.6981 C   0  0  0  0  0  0
    0.1935   52.1862   29.3375 C   0  0  0  0  0  0
   -0.8911   52.0989   28.5238 O   0  0  0  0  0  0
    1.2183   52.4445   23.2559 C   0  0  0  0  0  0
    1.9043   51.8569   24.0873 O   0  0  0  0  0  0
    1.5045   53.6951   22.8107 N   0  0  0  0  0  0
    2.6850   54.3469   23.2109 N   0  0  0  0  0  0
    3.8870   53.8554   22.8254 C   0  0  0  0  0  0
    4.0634   53.2840   21.7476 O   0  0  0  0  0  0
    4.9972   54.1019   23.7224 C   0  0  0  0  0  0
    4.9640   54.2100   25.0719 C   0  0  0  0  0  0
    3.8817   54.0992   26.0696 C   0  0  0  0  0  0
    4.1355   54.2643   27.3816 C   0  0  0  0  0  0
    5.5043   54.5248   27.7929 C   0  0  0  0  0  0
    6.5138   54.6409   26.8910 C   0  0  0  0  0  0
    6.2663   54.4918   25.5196 C   0  0  0  0  0  0
    7.1042   54.5665   24.5067 N   0  3  0  0  0  0
    6.4210   54.2488   23.2504 C   0  0  0  0  0  0
   -3.0969   50.1415   20.9406 H   0  0  0  0  0  0
   -1.6129   51.6361   19.6440 H   0  0  0  0  0  0
    0.3297   52.6597   20.6940 H   0  0  0  0  0  0
   -2.6156   49.6683   23.2950 H   0  0  0  0  0  0
   -1.0737   49.5383   25.0340 H   0  0  0  0  0  0
    0.4002   50.3808   25.1189 H   0  0  0  0  0  0
    3.4872   51.6975   28.6049 H   0  0  0  0  0  0
    3.6246   52.2340   31.0378 H   0  0  0  0  0  0
    1.5893   52.6831   32.3462 H   0  0  0  0  0  0
   -0.6483   52.6667   31.2800 H   0  0  0  0  0  0
    1.2128   54.0137   21.8977 H   0  0  0  0  0  0
    2.5591   54.8423   24.0810 H   0  0  0  0  0  0
    2.8618   53.8696   25.7955 H   0  0  0  0  0  0
    3.3462   54.1994   28.1137 H   0  0  0  0  0  0
    5.7296   54.6380   28.8468 H   0  0  0  0  0  0
    7.5052   54.8303   27.2754 H   0  0  0  0  0  0
    6.5915   55.0599   22.5408 H   0  0  0  0  0  0
    6.8347   53.3128   22.8821 H   0  0  0  0  0  0
    8.1051   54.7642   24.5417 H   0  0  0  0  0  0
  1  6  2  0  0  0
  1  2  1  0  0  0
  1 33  1  0  0  0
  2  3  2  0  0  0
  2 34  1  0  0  0
  3  4  1  0  0  0
  3 35  1  0  0  0
  4  5  2  0  0  0
  4 18  1  0  0  0
  5  6  1  0  0  0
  5  7  1  0  0  0
  6 36  1  0  0  0
  7  8  1  0  0  0
  7 37  1  0  0  0
  7 38  1  0  0  0
  8  9  1  0  0  0
  9 17  1  0  0  0
  9 10  2  0  0  0
 10 11  1  0  0  0
 11 16  2  0  0  0
 11 12  1  0  0  0
 12 13  2  0  0  0
 12 39  1  0  0  0
 13 14  1  0  0  0
 13 40  1  0  0  0
 14 15  2  0  0  0
 14 41  1  0  0  0
 15 16  1  0  0  0
 15 42  1  0  0  0
 16 17  1  0  0  0
 18 19  2  0  0  0
 18 20  1  0  0  0
 20 21  1  0  0  0
 20 43  1  0  0  0
 21 22  1  0  0  0
 21 44  1  0  0  0
 22 23  2  0  0  0
 22 24  1  0  0  0
 24 32  1  0  0  0
 24 25  2  0  0  0
 25 30  1  0  0  0
 25 26  1  0  0  0
 26 27  2  0  0  0
 26 45  1  0  0  0
 27 28  1  0  0  0
 27 46  1  0  0  0
 28 29  2  0  0  0
 28 47  1  0  0  0
 29 30  1  0  0  0
 29 48  1  0  0  0
 30 31  2  0  0  0
 31 32  1  0  0  0
 31 51  1  0  0  0
 32 49  1  0  0  0
 32 50  1  0  0  0
M  CHG  1  31   1
M  END
> <i_i_glide_confnum>
112

> <i_i_glide_lignum>
2228

> <i_i_glide_posenum>
315

> <i_i_glide_rotatable_bonds>
8

> <i_m_Source_File_Index>
1767

> <b_m_subgroup_collapsed>
0

> <r_i_docking_score>
-6.18036

> <r_i_glide_ecoul>
-3.76169

> <r_i_glide_eff_state_penalty>
0

> <r_i_glide_einternal>
8.36483

> <r_i_glide_emodel>
-71.2281

> <r_i_glide_energy>
-51.8791

> <r_i_glide_erotb>
0.711497

> <r_i_glide_esite>
0

> <r_i_glide_evdw>
-48.1175

> <r_i_glide_gscore>
-6.18036

> <r_i_glide_hbond>
-0.229388

> <r_i_glide_ligand_efficiency>
-0.193136

> <r_i_glide_ligand_efficiency_ln>
-1.38395

> <r_i_glide_ligand_efficiency_sa>
-0.61317

> <r_i_glide_lipo>
-2.73805

> <r_i_glide_metal>
0

> <r_i_glide_rewards>
-0.9543

> <s_i_glide_gridfile>
wee1_glide-grid

> <s_m_Source_File>
wee1_decoys_glide_SP.sdf

> <s_m_Source_Path>
/Users/zhangxujun/Desktop

> <s_m_entry_id>
2042

> <s_m_entry_name>
wee1_decoys_glide_SP.1767

> <s_m_subgroup_title>
wee1_decoys_glide_SP

> <s_m_subgroupid>
wee1_decoys_glide_SP


$$$$
