ZINC16614614_2866
                    3D
 Schrodinger Suite 2024-2.
 70 72  0  0  1  0            999 V2000
    0.2992   53.7484   31.9580 C   0  0  0  0  0  0
    0.3082   53.2942   30.5093 C   0  0  0  0  0  0
    1.0115   54.0206   29.5479 C   0  0  0  0  0  0
    1.0445   53.5779   28.2289 C   0  0  0  0  0  0
    0.3637   52.4100   27.8535 C   0  0  0  0  0  0
   -0.3651   51.7079   28.8224 C   0  0  0  0  0  0
   -0.3899   52.1432   30.1415 C   0  0  0  0  0  0
    0.4231   51.8777   26.4534 C   0  0  0  0  0  0
   -0.0762   50.7195   26.0721 N   0  0  0  0  0  0
    0.1884   50.4132   24.7448 N   0  0  0  0  0  0
    0.8862   51.3529   24.1477 C   0  0  0  0  0  0
    1.2333   52.7215   25.1543 S   0  0  0  0  0  0
    1.4112   51.3470   22.8687 N   0  0  0  0  0  0
    1.3781   50.3275   21.9811 C   0  0  0  0  0  0
    0.7745   49.2715   22.1644 O   0  0  0  0  0  0
    2.2117   50.5065   20.6751 C   0  0  1  0  0  0
    3.1019   49.8975   20.8448 H   0  0  0  0  0  0
    1.5030   49.9417   19.3955 C   0  0  0  0  0  0
    1.5359   48.4032   19.2977 C   0  0  0  0  0  0
    0.0757   50.4781   19.1537 C   0  0  0  0  0  0
    2.6395   51.8974   20.4564 N   0  0  0  0  0  0
    3.8778   52.3651   20.6628 C   0  0  0  0  0  0
    4.8505   51.6486   20.8815 O   0  0  0  0  0  0
    3.9056   53.7076   20.5984 N   0  0  0  0  0  0
    5.0789   54.4833   20.6201 C   0  0  0  0  0  0
    5.4055   55.1872   19.4322 C   0  0  0  0  0  0
    6.5978   55.9184   19.3879 C   0  0  0  0  0  0
    7.4425   55.9695   20.4843 C   0  0  0  0  0  0
    7.0895   55.3283   21.6632 C   0  0  0  0  0  0
    5.9066   54.5778   21.7709 C   0  0  0  0  0  0
    5.5898   53.8641   23.1118 C   0  0  0  0  0  0
    6.7213   53.8842   24.1646 C   0  0  0  0  0  0
    4.2851   54.3477   23.7718 C   0  0  0  0  0  0
    4.4946   55.1464   18.1854 C   0  0  0  0  0  0
    4.5630   56.4086   17.2961 C   0  0  0  0  0  0
    4.7500   53.8787   17.3438 C   0  0  0  0  0  0
    0.6378   54.7796   32.0681 H   0  0  0  0  0  0
   -0.7094   53.6984   32.3717 H   0  0  0  0  0  0
    0.9200   53.0874   32.5629 H   0  0  0  0  0  0
    1.5427   54.9204   29.8217 H   0  0  0  0  0  0
    1.6105   54.1455   27.5077 H   0  0  0  0  0  0
   -0.9070   50.8098   28.5597 H   0  0  0  0  0  0
   -0.9403   51.5779   30.8818 H   0  0  0  0  0  0
    1.9372   52.1629   22.6007 H   0  0  0  0  0  0
    2.1026   50.2775   18.5465 H   0  0  0  0  0  0
    0.8951   47.9236   20.0382 H   0  0  0  0  0  0
    1.1942   48.0728   18.3135 H   0  0  0  0  0  0
    2.5488   48.0192   19.4311 H   0  0  0  0  0  0
   -0.6153   50.1601   19.9327 H   0  0  0  0  0  0
    0.0648   51.5679   19.1185 H   0  0  0  0  0  0
   -0.3167   50.1153   18.2030 H   0  0  0  0  0  0
    1.9399   52.5204   20.0871 H   0  0  0  0  0  0
    3.0583   54.1825   20.3178 H   0  0  0  0  0  0
    6.8995   56.4333   18.4887 H   0  0  0  0  0  0
    8.3835   56.4966   20.4200 H   0  0  0  0  0  0
    7.7819   55.4196   22.4822 H   0  0  0  0  0  0
    5.4660   52.8113   22.8824 H   0  0  0  0  0  0
    7.6437   53.4576   23.7665 H   0  0  0  0  0  0
    6.9345   54.8957   24.5113 H   0  0  0  0  0  0
    6.4500   53.2976   25.0431 H   0  0  0  0  0  0
    3.4603   54.4704   23.0681 H   0  0  0  0  0  0
    3.9566   53.6356   24.5311 H   0  0  0  0  0  0
    4.4328   55.2963   24.2831 H   0  0  0  0  0  0
    3.4609   55.1228   18.5343 H   0  0  0  0  0  0
    4.4545   57.3177   17.8895 H   0  0  0  0  0  0
    5.5007   56.4740   16.7432 H   0  0  0  0  0  0
    3.7583   56.4066   16.5592 H   0  0  0  0  0  0
    4.6417   52.9663   17.9316 H   0  0  0  0  0  0
    4.0499   53.8110   16.5112 H   0  0  0  0  0  0
    5.7586   53.8772   16.9282 H   0  0  0  0  0  0
  1  2  1  0  0  0
  1 37  1  0  0  0
  1 38  1  0  0  0
  1 39  1  0  0  0
  2  7  2  0  0  0
  2  3  1  0  0  0
  3  4  2  0  0  0
  3 40  1  0  0  0
  4  5  1  0  0  0
  4 41  1  0  0  0
  5  6  2  0  0  0
  5  8  1  0  0  0
  6  7  1  0  0  0
  6 42  1  0  0  0
  7 43  1  0  0  0
  8 12  1  0  0  0
  8  9  2  0  0  0
  9 10  1  0  0  0
 10 11  2  0  0  0
 11 12  1  0  0  0
 11 13  1  0  0  0
 13 14  1  0  0  0
 13 44  1  0  0  0
 14 15  2  0  0  0
 14 16  1  0  0  0
 16 17  1  0  0  0
 16 18  1  0  0  0
 16 21  1  0  0  0
 18 19  1  0  0  0
 18 20  1  0  0  0
 18 45  1  0  0  0
 19 46  1  0  0  0
 19 47  1  0  0  0
 19 48  1  0  0  0
 20 49  1  0  0  0
 20 50  1  0  0  0
 20 51  1  0  0  0
 21 22  1  0  0  0
 21 52  1  0  0  0
 22 23  2  0  0  0
 22 24  1  0  0  0
 24 25  1  0  0  0
 24 53  1  0  0  0
 25 30  2  0  0  0
 25 26  1  0  0  0
 26 27  2  0  0  0
 26 34  1  0  0  0
 27 28  1  0  0  0
 27 54  1  0  0  0
 28 29  2  0  0  0
 28 55  1  0  0  0
 29 30  1  0  0  0
 29 56  1  0  0  0
 30 31  1  0  0  0
 31 32  1  0  0  0
 31 33  1  0  0  0
 31 57  1  0  0  0
 32 58  1  0  0  0
 32 59  1  0  0  0
 32 60  1  0  0  0
 33 61  1  0  0  0
 33 62  1  0  0  0
 33 63  1  0  0  0
 34 35  1  0  0  0
 34 36  1  0  0  0
 34 64  1  0  0  0
 35 65  1  0  0  0
 35 66  1  0  0  0
 35 67  1  0  0  0
 36 68  1  0  0  0
 36 69  1  0  0  0
 36 70  1  0  0  0
M  END
> <i_i_glide_confnum>
188

> <i_i_glide_lignum>
2867

> <i_i_glide_posenum>
167

> <i_i_glide_rotatable_bonds>
11

> <i_m_Source_File_Index>
5629

> <b_m_subgroup_collapsed>
0

> <r_i_docking_score>
-5.65113

> <r_i_glide_ecoul>
-6.25663

> <r_i_glide_eff_state_penalty>
0

> <r_i_glide_einternal>
9.64692

> <r_i_glide_emodel>
-68.7726

> <r_i_glide_energy>
-54.9488

> <r_i_glide_erotb>
0.668778

> <r_i_glide_esite>
-0.0732385

> <r_i_glide_evdw>
-48.6922

> <r_i_glide_gscore>
-5.65113

> <r_i_glide_hbond>
-0.32

> <r_i_glide_ligand_efficiency>
-0.161461

> <r_i_glide_ligand_efficiency_ln>
-1.24055

> <r_i_glide_ligand_efficiency_sa>
-0.528149

> <r_i_glide_lipo>
-2.37977

> <r_i_glide_metal>
0

> <r_i_glide_rewards>
-0.173797

> <s_i_glide_gridfile>
wee1_glide-grid

> <s_m_Source_File>
wee1_decoys_glide_SP.sdf

> <s_m_Source_Path>
/Users/zhangxujun/Desktop

> <s_m_entry_id>
5904

> <s_m_entry_name>
wee1_decoys_glide_SP.5629

> <s_m_subgroup_title>
wee1_decoys_glide_SP

> <s_m_subgroupid>
wee1_decoys_glide_SP


$$$$
