ZINC16017153_5143
                    3D
 Schrodinger Suite 2024-2.
 54 56  0  0  1  0            999 V2000
    9.1403   54.9720   18.5626 C   0  0  0  0  0  0
    8.6872   56.2249   19.3391 C   0  0  0  0  0  0
    8.6249   57.4396   18.3825 C   0  0  0  0  0  0
    7.3458   55.9566   20.0596 C   0  0  0  0  0  0
    6.2871   56.2812   19.5201 O   0  0  0  0  0  0
    7.4203   55.3769   21.2808 N   0  0  0  0  0  0
    6.3527   54.9299   22.0839 C   0  0  0  0  0  0
    5.1258   54.4961   21.5598 C   0  0  0  0  0  0
    4.1090   54.0888   22.4171 C   0  0  0  0  0  0
    4.3066   54.0967   23.7987 C   0  0  0  0  0  0
    5.5452   54.4947   24.3223 C   0  0  0  0  0  0
    6.5622   54.9023   23.4640 C   0  0  0  0  0  0
    3.2372   53.6320   24.5796 N   0  0  0  0  0  0
    3.0137   53.7703   25.9047 C   0  0  0  0  0  0
    3.6740   54.4966   26.6485 O   0  0  0  0  0  0
    1.8314   52.9833   26.4341 C   0  0  0  0  0  0
    0.7045   52.7966   25.6149 C   0  0  0  0  0  0
   -0.4147   52.0964   26.0659 C   0  0  0  0  0  0
   -0.4133   51.5407   27.3430 C   0  0  0  0  0  0
    0.7022   51.6964   28.1617 C   0  0  0  0  0  0
    1.8220   52.4055   27.7230 C   0  0  0  0  0  0
    3.3055   52.4921   28.9265 Br  0  0  0  0  0  0
   -1.8374   51.9063   24.9905 S   0  0  0  0  0  0
   -3.0310   51.8568   25.8419 O   0  0  0  0  0  0
   -1.7223   52.9047   23.9201 O   0  0  0  0  0  0
   -1.6286   50.3175   24.2463 N   0  0  0  0  0  0
   -0.4638   50.1066   23.3507 C   0  0  0  0  0  0
    0.3731   49.1190   24.1392 C   0  0  0  0  0  0
   -0.6795   48.2117   24.7405 C   0  0  0  0  0  0
   -1.8763   49.1072   25.0853 C   0  0  0  0  0  0
    9.2013   54.0970   19.2077 H   0  0  0  0  0  0
   10.1301   55.1154   18.1256 H   0  0  0  0  0  0
    8.4525   54.7263   17.7520 H   0  0  0  0  0  0
    9.4381   56.4468   20.0998 H   0  0  0  0  0  0
    8.2857   58.3468   18.8824 H   0  0  0  0  0  0
    9.6048   57.6536   17.9580 H   0  0  0  0  0  0
    7.9402   57.2602   17.5525 H   0  0  0  0  0  0
    8.3345   55.3033   21.7048 H   0  0  0  0  0  0
    4.9429   54.4746   20.4942 H   0  0  0  0  0  0
    3.1679   53.7688   21.9915 H   0  0  0  0  0  0
    5.7413   54.4788   25.3828 H   0  0  0  0  0  0
    7.5042   55.2187   23.8833 H   0  0  0  0  0  0
    2.5630   53.0834   24.0714 H   0  0  0  0  0  0
    0.6678   53.2306   24.6253 H   0  0  0  0  0  0
   -1.2662   50.9813   27.7046 H   0  0  0  0  0  0
    0.6987   51.2475   29.1460 H   0  0  0  0  0  0
   -0.8058   49.6281   22.4321 H   0  0  0  0  0  0
    0.0057   51.0326   23.0128 H   0  0  0  0  0  0
    1.0929   48.5841   23.5172 H   0  0  0  0  0  0
    0.9403   49.6297   24.9217 H   0  0  0  0  0  0
   -0.3114   47.6980   25.6259 H   0  0  0  0  0  0
   -0.9691   47.4471   24.0179 H   0  0  0  0  0  0
   -1.7892   49.3057   26.1534 H   0  0  0  0  0  0
   -2.7613   48.5497   24.7799 H   0  0  0  0  0  0
  1  2  1  0  0  0
  1 31  1  0  0  0
  1 32  1  0  0  0
  1 33  1  0  0  0
  2  3  1  0  0  0
  2  4  1  0  0  0
  2 34  1  0  0  0
  3 35  1  0  0  0
  3 36  1  0  0  0
  3 37  1  0  0  0
  4  5  2  0  0  0
  4  6  1  0  0  0
  6  7  1  0  0  0
  6 38  1  0  0  0
  7 12  2  0  0  0
  7  8  1  0  0  0
  8  9  2  0  0  0
  8 39  1  0  0  0
  9 10  1  0  0  0
  9 40  1  0  0  0
 10 11  2  0  0  0
 10 13  1  0  0  0
 11 12  1  0  0  0
 11 41  1  0  0  0
 12 42  1  0  0  0
 13 14  1  0  0  0
 13 43  1  0  0  0
 14 15  2  0  0  0
 14 16  1  0  0  0
 16 21  2  0  0  0
 16 17  1  0  0  0
 17 18  2  0  0  0
 17 44  1  0  0  0
 18 19  1  0  0  0
 18 23  1  0  0  0
 19 20  2  0  0  0
 19 45  1  0  0  0
 20 21  1  0  0  0
 20 46  1  0  0  0
 21 22  1  0  0  0
 23 24  2  0  0  0
 23 25  2  0  0  0
 23 26  1  0  0  0
 26 30  1  0  0  0
 26 27  1  0  0  0
 27 28  1  0  0  0
 27 47  1  0  0  0
 27 48  1  0  0  0
 28 29  1  0  0  0
 28 49  1  0  0  0
 28 50  1  0  0  0
 29 30  1  0  0  0
 29 51  1  0  0  0
 29 52  1  0  0  0
 30 53  1  0  0  0
 30 54  1  0  0  0
M  END
> <i_i_glide_confnum>
4

> <i_i_glide_lignum>
5144

> <i_i_glide_posenum>
106

> <i_i_glide_rotatable_bonds>
8

> <i_m_Source_File_Index>
3958

> <b_m_subgroup_collapsed>
0

> <r_i_docking_score>
-4.86071

> <r_i_glide_ecoul>
-5.26018

> <r_i_glide_eff_state_penalty>
0

> <r_i_glide_einternal>
3.70733

> <r_i_glide_emodel>
-58.2392

> <r_i_glide_energy>
-45.7109

> <r_i_glide_erotb>
0.583582

> <r_i_glide_esite>
-0.0253865

> <r_i_glide_evdw>
-40.4507

> <r_i_glide_gscore>
-4.86071

> <r_i_glide_hbond>
-0.0378611

> <r_i_glide_ligand_efficiency>
-0.162024

> <r_i_glide_ligand_efficiency_ln>
-1.10441

> <r_i_glide_ligand_efficiency_sa>
-0.503445

> <r_i_glide_lipo>
-2.18433

> <r_i_glide_metal>
0

> <r_i_glide_rewards>
-0.385146

> <s_i_glide_gridfile>
wee1_glide-grid

> <s_m_Source_File>
wee1_decoys_glide_SP.sdf

> <s_m_Source_Path>
/Users/zhangxujun/Desktop

> <s_m_entry_id>
4233

> <s_m_entry_name>
wee1_decoys_glide_SP.3958

> <s_m_subgroup_title>
wee1_decoys_glide_SP

> <s_m_subgroupid>
wee1_decoys_glide_SP


$$$$
