ZINC12858083_3408
                    3D
 Schrodinger Suite 2024-2.
 58 61  0  0  1  0            999 V2000
    1.1049   55.7423   29.4953 C   0  0  0  0  0  0
    2.5146   55.1495   29.4991 C   0  0  0  0  0  0
    2.6088   53.6397   29.1665 C   0  0  2  0  0  0
    1.9401   53.1289   29.8618 H   0  0  0  0  0  0
    4.0130   53.0567   29.3770 C   0  0  0  0  0  0
    5.0130   53.8022   28.4790 C   0  0  0  0  0  0
    4.5377   53.8598   27.0207 C   0  0  0  0  0  0
    3.1927   53.5958   26.6450 C   0  0  0  0  0  0
    2.8675   53.5580   25.2606 C   0  0  0  0  0  0
    3.8929   53.8929   24.3273 C   0  0  0  0  0  0
    3.9236   53.9832   22.8843 C   0  0  0  0  0  0
    5.1484   54.4126   22.3636 C   0  0  0  0  0  0
    6.3717   54.5194   23.6209 S   0  0  0  0  0  0
    5.1826   54.1653   24.8509 C   0  0  0  0  0  0
    5.5192   54.1233   26.1289 N   0  0  0  0  0  0
    5.5049   54.6287   20.9668 C   0  0  0  0  0  0
    4.7564   54.2617   20.0609 O   0  0  0  0  0  0
    6.6637   55.2975   20.7689 N   0  0  0  0  0  0
    7.2450   55.7007   19.5536 C   0  0  0  0  0  0
    8.6082   55.9913   19.5890 C   0  0  0  0  0  0
    9.2727   56.3820   18.4305 C   0  0  0  0  0  0
    8.5829   56.4957   17.2141 C   0  0  0  0  0  0
    7.2087   56.2230   17.1885 C   0  0  0  0  0  0
    6.5420   55.8342   18.3458 C   0  0  0  0  0  0
    9.2768   56.8865   15.9417 C   0  0  0  0  0  0
    8.7117   56.9215   14.8432 O   0  0  0  0  0  0
   10.5873   57.2106   16.1225 O   0  0  0  0  0  0
   11.4231   57.5937   15.0349 C   0  0  0  0  0  0
   11.1927   59.0579   14.6225 C   0  0  0  0  0  0
    2.8504   53.7087   22.0818 N   0  0  0  0  0  0
    1.4832   53.0874   24.7548 C   0  0  0  0  0  0
    0.6133   52.6555   25.6629 F   0  0  0  0  0  0
    0.8969   54.0781   24.0831 F   0  0  0  0  0  0
    1.6584   52.0592   23.9265 F   0  0  0  0  0  0
    2.1568   53.2750   27.7424 C   0  0  0  0  0  0
    1.1082   56.7626   29.8831 H   0  0  0  0  0  0
    0.7067   55.7911   28.4823 H   0  0  0  0  0  0
    0.4204   55.1584   30.1105 H   0  0  0  0  0  0
    2.9441   55.2966   30.4816 H   0  0  0  0  0  0
    3.1194   55.7369   28.8116 H   0  0  0  0  0  0
    4.3045   53.1772   30.4203 H   0  0  0  0  0  0
    4.0322   51.9868   29.1559 H   0  0  0  0  0  0
    5.9894   53.3163   28.5386 H   0  0  0  0  0  0
    5.1731   54.8172   28.8484 H   0  0  0  0  0  0
    7.2201   55.4715   21.5920 H   0  0  0  0  0  0
    9.1696   55.9030   20.5089 H   0  0  0  0  0  0
   10.3330   56.5812   18.4934 H   0  0  0  0  0  0
    6.6421   56.3063   16.2708 H   0  0  0  0  0  0
    5.4821   55.6432   18.2757 H   0  0  0  0  0  0
   11.2843   56.9227   14.1815 H   0  0  0  0  0  0
   12.4595   57.4723   15.3548 H   0  0  0  0  0  0
   11.8891   59.3515   13.8373 H   0  0  0  0  0  0
   11.3382   59.7325   15.4686 H   0  0  0  0  0  0
   10.1815   59.2103   14.2413 H   0  0  0  0  0  0
    1.9626   53.3872   22.4417 H   0  0  0  0  0  0
    2.9023   53.8738   21.0795 H   0  0  0  0  0  0
    1.2154   53.7843   27.5463 H   0  0  0  0  0  0
    1.9434   52.2059   27.7113 H   0  0  0  0  0  0
  1  2  1  0  0  0
  1 36  1  0  0  0
  1 37  1  0  0  0
  1 38  1  0  0  0
  2  3  1  0  0  0
  2 39  1  0  0  0
  2 40  1  0  0  0
  3  4  1  0  0  0
  3 35  1  0  0  0
  3  5  1  0  0  0
  5  6  1  0  0  0
  5 41  1  0  0  0
  5 42  1  0  0  0
  6  7  1  0  0  0
  6 43  1  0  0  0
  6 44  1  0  0  0
  7 15  2  0  0  0
  7  8  1  0  0  0
  8  9  2  0  0  0
  8 35  1  0  0  0
  9 10  1  0  0  0
  9 31  1  0  0  0
 10 14  2  0  0  0
 10 11  1  0  0  0
 11 12  2  0  0  0
 11 30  1  0  0  0
 12 13  1  0  0  0
 12 16  1  0  0  0
 13 14  1  0  0  0
 14 15  1  0  0  0
 16 17  2  0  0  0
 16 18  1  0  0  0
 18 19  1  0  0  0
 18 45  1  0  0  0
 19 24  2  0  0  0
 19 20  1  0  0  0
 20 21  2  0  0  0
 20 46  1  0  0  0
 21 22  1  0  0  0
 21 47  1  0  0  0
 22 23  2  0  0  0
 22 25  1  0  0  0
 23 24  1  0  0  0
 23 48  1  0  0  0
 24 49  1  0  0  0
 25 26  2  0  0  0
 25 27  1  0  0  0
 27 28  1  0  0  0
 28 29  1  0  0  0
 28 50  1  0  0  0
 28 51  1  0  0  0
 29 52  1  0  0  0
 29 53  1  0  0  0
 29 54  1  0  0  0
 30 55  1  0  0  0
 30 56  1  0  0  0
 31 32  1  0  0  0
 31 33  1  0  0  0
 31 34  1  0  0  0
 35 57  1  0  0  0
 35 58  1  0  0  0
M  END
> <i_i_glide_confnum>
48

> <i_i_glide_lignum>
3409

> <i_i_glide_posenum>
285

> <i_i_glide_rotatable_bonds>
8

> <i_m_Source_File_Index>
4096

> <b_m_subgroup_collapsed>
0

> <r_i_docking_score>
-6.14451

> <r_i_glide_ecoul>
-0.101841

> <r_i_glide_eff_state_penalty>
0

> <r_i_glide_einternal>
0.771458

> <r_i_glide_emodel>
-56.3145

> <r_i_glide_energy>
-40.9817

> <r_i_glide_erotb>
0.421322

> <r_i_glide_esite>
-0.0060328

> <r_i_glide_evdw>
-40.8799

> <r_i_glide_gscore>
-6.14451

> <r_i_glide_hbond>
-0.0548007

> <r_i_glide_ligand_efficiency>
-0.180721

> <r_i_glide_ligand_efficiency_ln>
-1.35749

> <r_i_glide_ligand_efficiency_sa>
-0.585465

> <r_i_glide_lipo>
-3.52536

> <r_i_glide_metal>
0

> <r_i_glide_rewards>
-0.92036

> <s_i_glide_gridfile>
wee1_glide-grid

> <s_m_Source_File>
wee1_decoys_glide_SP.sdf

> <s_m_Source_Path>
/Users/zhangxujun/Desktop

> <s_m_entry_id>
4371

> <s_m_entry_name>
wee1_decoys_glide_SP.4096

> <s_m_subgroup_title>
wee1_decoys_glide_SP

> <s_m_subgroupid>
wee1_decoys_glide_SP


$$$$
