ZINC64893868_2842
                    3D
 Schrodinger Suite 2024-2.
 49 52  0  0  1  0            999 V2000
    5.2145   55.2936   18.1754 C   0  0  0  0  0  0
    5.0364   54.4570   19.3505 N   0  0  0  0  0  0
    5.5268   54.6560   20.6131 C   0  0  0  0  0  0
    5.1041   53.5704   21.3499 C   0  0  0  0  0  0
    4.2621   52.8317   20.4840 C   0  0  0  0  0  0
    4.2503   53.3749   19.2784 N   0  0  0  0  0  0
    3.4395   51.7145   20.8968 C   0  0  0  0  0  0
    3.0680   51.6102   22.0695 O   0  0  0  0  0  0
    3.1044   50.8471   19.9150 N   0  0  0  0  0  0
    2.1310   49.8324   19.9778 C   0  0  0  0  0  0
    2.2975   48.7328   19.1306 C   0  0  0  0  0  0
    1.3468   47.7159   19.1066 C   0  0  0  0  0  0
    0.2210   47.8037   19.9232 C   0  0  0  0  0  0
    0.0406   48.8957   20.7691 C   0  0  0  0  0  0
    0.9925   49.9111   20.7989 C   0  0  0  0  0  0
    5.5579   53.3705   22.7854 C   0  0  0  0  0  0
    6.3618   54.5108   23.3091 N   0  0  0  0  0  0
    7.2366   55.2451   22.3599 C   0  0  0  0  0  0
    6.4666   55.7393   21.1028 C   0  0  0  0  0  0
    6.2988   54.8875   24.6193 C   0  0  0  0  0  0
    6.6390   55.9977   25.0334 O   0  0  0  0  0  0
    5.7953   53.9510   25.4467 N   0  0  0  0  0  0
    4.9424   54.2032   26.5136 C   0  0  0  0  0  0
    5.4472   54.3310   27.8127 C   0  0  0  0  0  0
    4.5645   54.4971   28.8819 C   0  0  0  0  0  0
    3.1858   54.5377   28.6541 C   0  0  0  0  0  0
    2.6880   54.3848   27.3636 C   0  0  0  0  0  0
    3.5589   54.2189   26.2908 C   0  0  0  0  0  0
    3.0525   54.0707   25.0438 F   0  0  0  0  0  0
    1.9668   54.8253   30.0817 Br  0  0  0  0  0  0
    6.2415   55.6570   18.1373 H   0  0  0  0  0  0
    5.0090   54.7226   17.2658 H   0  0  0  0  0  0
    4.5309   56.1420   18.2320 H   0  0  0  0  0  0
    3.6357   50.8984   19.0489 H   0  0  0  0  0  0
    3.1563   48.6611   18.4817 H   0  0  0  0  0  0
    1.4787   46.8687   18.4490 H   0  0  0  0  0  0
   -0.5205   47.0190   19.8991 H   0  0  0  0  0  0
   -0.8349   48.9581   21.3991 H   0  0  0  0  0  0
    0.8279   50.7588   21.4453 H   0  0  0  0  0  0
    4.6784   53.1738   23.3981 H   0  0  0  0  0  0
    6.1324   52.4511   22.8754 H   0  0  0  0  0  0
    8.0177   54.5513   22.0511 H   0  0  0  0  0  0
    7.7323   56.0948   22.8328 H   0  0  0  0  0  0
    7.1804   56.0316   20.3314 H   0  0  0  0  0  0
    5.9044   56.6421   21.3339 H   0  0  0  0  0  0
    5.6683   53.0325   25.0432 H   0  0  0  0  0  0
    6.5134   54.3076   27.9946 H   0  0  0  0  0  0
    4.9522   54.6204   29.8827 H   0  0  0  0  0  0
    1.6211   54.4004   27.1910 H   0  0  0  0  0  0
  1  2  1  0  0  0
  1 31  1  0  0  0
  1 32  1  0  0  0
  1 33  1  0  0  0
  2  6  1  0  0  0
  2  3  1  0  0  0
  3 19  1  0  0  0
  3  4  2  0  0  0
  4  5  1  0  0  0
  4 16  1  0  0  0
  5  6  2  0  0  0
  5  7  1  0  0  0
  7  8  2  0  0  0
  7  9  1  0  0  0
  9 10  1  0  0  0
  9 34  1  0  0  0
 10 15  2  0  0  0
 10 11  1  0  0  0
 11 12  2  0  0  0
 11 35  1  0  0  0
 12 13  1  0  0  0
 12 36  1  0  0  0
 13 14  2  0  0  0
 13 37  1  0  0  0
 14 15  1  0  0  0
 14 38  1  0  0  0
 15 39  1  0  0  0
 16 17  1  0  0  0
 16 40  1  0  0  0
 16 41  1  0  0  0
 17 18  1  0  0  0
 17 20  1  0  0  0
 18 19  1  0  0  0
 18 42  1  0  0  0
 18 43  1  0  0  0
 19 44  1  0  0  0
 19 45  1  0  0  0
 20 21  2  0  0  0
 20 22  1  0  0  0
 22 23  1  0  0  0
 22 46  1  0  0  0
 23 28  2  0  0  0
 23 24  1  0  0  0
 24 25  2  0  0  0
 24 47  1  0  0  0
 25 26  1  0  0  0
 25 48  1  0  0  0
 26 27  2  0  0  0
 26 30  1  0  0  0
 27 28  1  0  0  0
 27 49  1  0  0  0
 28 29  1  0  0  0
M  END
> <i_i_glide_confnum>
161

> <i_i_glide_lignum>
2843

> <i_i_glide_posenum>
261

> <i_i_glide_rotatable_bonds>
6

> <i_m_Source_File_Index>
2422

> <b_m_subgroup_collapsed>
0

> <r_i_docking_score>
-6.08903

> <r_i_glide_ecoul>
-6.11861

> <r_i_glide_eff_state_penalty>
0

> <r_i_glide_einternal>
17.1091

> <r_i_glide_emodel>
-59.122

> <r_i_glide_energy>
-50.0434

> <r_i_glide_erotb>
0.543824

> <r_i_glide_esite>
-0.0954481

> <r_i_glide_evdw>
-43.9248

> <r_i_glide_gscore>
-6.08903

> <r_i_glide_hbond>
-0.253635

> <r_i_glide_ligand_efficiency>
-0.202968

> <r_i_glide_ligand_efficiency_ln>
-1.38349

> <r_i_glide_ligand_efficiency_sa>
-0.630667

> <r_i_glide_lipo>
-2.26358

> <r_i_glide_metal>
0

> <r_i_glide_rewards>
-0.906155

> <s_i_glide_gridfile>
wee1_glide-grid

> <s_m_Source_File>
wee1_decoys_glide_SP.sdf

> <s_m_Source_Path>
/Users/zhangxujun/Desktop

> <s_m_entry_id>
2697

> <s_m_entry_name>
wee1_decoys_glide_SP.2422

> <s_m_subgroup_title>
wee1_decoys_glide_SP

> <s_m_subgroupid>
wee1_decoys_glide_SP


$$$$
