ZINC39653014_5537
                    3D
 Schrodinger Suite 2024-2.
 70 73  0  0  1  0            999 V2000
    6.3611   55.7373   19.0175 C   0  0  0  0  0  0
    6.9502   55.7932   20.3145 O   0  0  0  0  0  0
    6.2945   55.1914   21.3702 C   0  0  0  0  0  0
    5.0795   54.4979   21.2612 C   0  0  0  0  0  0
    4.4634   53.9531   22.3897 C   0  0  0  0  0  0
    5.0759   54.0911   23.6392 C   0  0  0  0  0  0
    6.3042   54.7576   23.7698 C   0  0  0  0  0  0
    6.8914   55.2974   22.6243 C   0  0  0  0  0  0
    6.9738   54.9383   24.9655 O   0  0  0  0  0  0
    6.4294   54.3855   26.1606 C   0  0  0  0  0  0
    3.1214   53.2414   22.2621 C   0  0  0  0  0  0
    3.1601   51.9897   21.3594 C   0  0  0  0  0  0
    1.9100   51.2276   21.3835 N   0  0  0  0  0  0
    1.5735   50.3363   22.3328 C   0  0  0  0  0  0
    2.3044   50.0967   23.2814 O   0  0  0  0  0  0
    0.2132   49.5980   22.2501 C   0  0  2  0  0  0
    0.4029   48.5805   22.5862 H   0  0  0  0  0  0
   -0.3505   49.5484   20.8166 C   0  0  0  0  0  0
   -1.1131   50.8007   20.7255 N   0  0  0  0  0  0
   -1.4293   51.3466   22.0575 C   0  0  0  0  0  0
   -0.9058   50.3012   23.0761 C   0  0  0  0  0  0
   -0.5510   50.9373   24.4504 C   0  0  0  0  0  0
   -0.0356   49.8835   25.4612 C   0  0  0  0  0  0
   -1.1290   48.8176   25.6810 N   0  3  0  0  0  0
   -1.6815   48.2027   24.3760 C   0  0  0  0  0  0
   -2.0874   49.3410   23.4087 C   0  0  0  0  0  0
   -1.4259   51.4647   19.5831 C   0  0  0  0  0  0
   -2.0986   52.4965   19.5893 O   0  0  0  0  0  0
   -0.9446   50.9342   18.2554 C   0  0  0  0  0  0
    0.4193   50.7325   18.0056 C   0  0  0  0  0  0
    0.8473   50.2735   16.7640 C   0  0  0  0  0  0
   -0.0788   50.0381   15.7425 C   0  0  0  0  0  0
   -1.4417   50.2554   15.9843 C   0  0  0  0  0  0
   -1.8694   50.7047   17.2300 C   0  0  0  0  0  0
    0.4029   49.5339   14.3838 C   0  0  0  0  0  0
    1.3106   48.5671   14.5376 F   0  0  0  0  0  0
   -0.5970   49.0445   13.6483 F   0  0  0  0  0  0
    0.9626   50.5430   13.7158 F   0  0  0  0  0  0
    6.9935   56.2717   18.3082 H   0  0  0  0  0  0
    6.2649   54.7083   18.6615 H   0  0  0  0  0  0
    5.3773   56.2134   19.0054 H   0  0  0  0  0  0
    4.5920   54.4007   20.3024 H   0  0  0  0  0  0
    4.5867   53.6750   24.5063 H   0  0  0  0  0  0
    7.8313   55.8253   22.7125 H   0  0  0  0  0  0
    7.0860   54.6176   26.9991 H   0  0  0  0  0  0
    5.4502   54.8110   26.3819 H   0  0  0  0  0  0
    6.3445   53.2990   26.0996 H   0  0  0  0  0  0
    2.3871   53.9505   21.8797 H   0  0  0  0  0  0
    2.7691   52.9612   23.2541 H   0  0  0  0  0  0
    3.9907   51.3501   21.6696 H   0  0  0  0  0  0
    3.4323   52.2622   20.3378 H   0  0  0  0  0  0
    1.2425   51.4276   20.6536 H   0  0  0  0  0  0
   -1.0295   48.6989   20.7376 H   0  0  0  0  0  0
    0.4501   49.4128   20.0957 H   0  0  0  0  0  0
   -0.8345   52.2560   22.1808 H   0  0  0  0  0  0
   -2.4682   51.6302   22.2265 H   0  0  0  0  0  0
    0.2244   51.6937   24.3243 H   0  0  0  0  0  0
   -1.4037   51.4783   24.8652 H   0  0  0  0  0  0
    0.8462   49.3384   25.1280 H   0  0  0  0  0  0
    0.1682   50.3071   26.4445 H   0  0  0  0  0  0
   -0.7814   48.0964   26.3095 H   0  0  0  0  0  0
   -0.9049   47.5445   23.9884 H   0  0  0  0  0  0
   -2.5344   47.5914   24.6738 H   0  0  0  0  0  0
   -2.9343   49.8930   23.8188 H   0  0  0  0  0  0
   -2.4760   48.8862   22.4964 H   0  0  0  0  0  0
    1.1618   50.9382   18.7621 H   0  0  0  0  0  0
    1.9052   50.1123   16.5937 H   0  0  0  0  0  0
   -2.1730   50.0844   15.2061 H   0  0  0  0  0  0
   -2.9265   50.8770   17.3914 H   0  0  0  0  0  0
   -1.8856   49.2367   26.2088 H   0  0  0  0  0  0
  1  2  1  0  0  0
  1 39  1  0  0  0
  1 40  1  0  0  0
  1 41  1  0  0  0
  2  3  1  0  0  0
  3  8  2  0  0  0
  3  4  1  0  0  0
  4  5  2  0  0  0
  4 42  1  0  0  0
  5  6  1  0  0  0
  5 11  1  0  0  0
  6  7  2  0  0  0
  6 43  1  0  0  0
  7  8  1  0  0  0
  7  9  1  0  0  0
  8 44  1  0  0  0
  9 10  1  0  0  0
 10 45  1  0  0  0
 10 46  1  0  0  0
 10 47  1  0  0  0
 11 12  1  0  0  0
 11 48  1  0  0  0
 11 49  1  0  0  0
 12 13  1  0  0  0
 12 50  1  0  0  0
 12 51  1  0  0  0
 13 14  1  0  0  0
 13 52  1  0  0  0
 14 15  2  0  0  0
 14 16  1  0  0  0
 16 17  1  0  0  0
 16 21  1  0  0  0
 16 18  1  0  0  0
 18 19  1  0  0  0
 18 53  1  0  0  0
 18 54  1  0  0  0
 19 20  1  0  0  0
 19 27  1  0  0  0
 20 21  1  0  0  0
 20 55  1  0  0  0
 20 56  1  0  0  0
 21 26  1  0  0  0
 21 22  1  0  0  0
 22 23  1  0  0  0
 22 57  1  0  0  0
 22 58  1  0  0  0
 23 24  1  0  0  0
 23 59  1  0  0  0
 23 60  1  0  0  0
 24 25  1  0  0  0
 24 61  1  0  0  0
 24 70  1  0  0  0
 25 26  1  0  0  0
 25 62  1  0  0  0
 25 63  1  0  0  0
 26 64  1  0  0  0
 26 65  1  0  0  0
 27 28  2  0  0  0
 27 29  1  0  0  0
 29 34  2  0  0  0
 29 30  1  0  0  0
 30 31  2  0  0  0
 30 66  1  0  0  0
 31 32  1  0  0  0
 31 67  1  0  0  0
 32 33  2  0  0  0
 32 35  1  0  0  0
 33 34  1  0  0  0
 33 68  1  0  0  0
 34 69  1  0  0  0
 35 36  1  0  0  0
 35 37  1  0  0  0
 35 38  1  0  0  0
M  CHG  1  24   1
M  END
> <i_i_glide_confnum>
143

> <i_i_glide_lignum>
5538

> <i_i_glide_posenum>
154

> <i_i_glide_rotatable_bonds>
10

> <i_m_Source_File_Index>
5114

> <b_m_subgroup_collapsed>
0

> <r_i_docking_score>
-5.07944

> <r_i_glide_ecoul>
-10.0966

> <r_i_glide_eff_state_penalty>
0

> <r_i_glide_einternal>
10.9216

> <r_i_glide_emodel>
-52.5311

> <r_i_glide_energy>
-41.7022

> <r_i_glide_erotb>
0.530889

> <r_i_glide_esite>
-0.152542

> <r_i_glide_evdw>
-31.6056

> <r_i_glide_gscore>
-5.07944

> <r_i_glide_hbond>
-0.527596

> <r_i_glide_ligand_efficiency>
-0.137282

> <r_i_glide_ligand_efficiency_ln>
-1.10161

> <r_i_glide_ligand_efficiency_sa>
-0.457454

> <r_i_glide_lipo>
-1.66842

> <r_i_glide_metal>
0

> <r_i_glide_rewards>
-0.166996

> <s_i_glide_gridfile>
wee1_glide-grid

> <s_m_Source_File>
wee1_decoys_glide_SP.sdf

> <s_m_Source_Path>
/Users/zhangxujun/Desktop

> <s_m_entry_id>
5389

> <s_m_entry_name>
wee1_decoys_glide_SP.5114

> <s_m_subgroup_title>
wee1_decoys_glide_SP

> <s_m_subgroupid>
wee1_decoys_glide_SP


$$$$
