ZINC39671432_388
                    3D
 Schrodinger Suite 2024-2.
 64 68  0  0  1  0            999 V2000
   -0.8987   45.9727   19.9980 C   0  0  0  0  0  0
   -1.3835   46.8637   20.9532 C   0  0  0  0  0  0
   -1.0230   48.2138   20.9540 C   0  0  0  0  0  0
   -0.1641   48.6380   19.9351 C   0  0  0  0  0  0
    0.3526   49.8818   19.6414 N   0  0  0  0  0  0
    1.1240   49.8402   18.5057 C   0  0  0  0  0  0
    0.2116   50.7448   20.1514 H   0  0  0  0  0  0
    1.1718   48.5245   18.0787 C   0  0  0  0  0  0
    0.3449   47.7453   18.9461 C   0  0  0  0  0  0
   -0.0291   46.3945   18.9928 C   0  0  0  0  0  0
    1.7236   51.1004   17.9189 C   0  0  0  0  0  0
    2.9533   51.5131   18.5876 N   0  0  0  0  0  0
    3.0408   52.2248   19.7186 C   0  0  0  0  0  0
    2.0498   52.4965   20.3984 O   0  0  0  0  0  0
    4.4668   52.7438   20.0670 C   0  0  2  0  0  0
    5.1248   51.8742   20.1332 H   0  0  0  0  0  0
    4.4195   53.3944   21.4685 C   0  0  0  0  0  0
    5.5045   54.3728   21.4435 N   0  0  0  0  0  0
    6.0039   54.6024   20.0821 C   0  0  0  0  0  0
    5.0356   53.8640   19.1325 C   0  0  0  0  0  0
    5.6947   53.2965   17.8514 C   0  0  0  0  0  0
    6.4082   54.3950   17.0355 C   0  0  0  0  0  0
    5.3525   55.4461   16.6201 N   0  3  0  0  0  0
    4.5409   56.0348   17.7963 C   0  0  0  0  0  0
    3.9600   54.8668   18.6248 C   0  0  0  0  0  0
    6.1653   54.8834   22.5164 C   0  0  0  0  0  0
    7.1381   55.6238   22.3618 O   0  0  0  0  0  0
    5.7287   54.5619   23.9369 C   0  0  0  0  0  0
    6.7026   54.4296   24.9325 C   0  0  0  0  0  0
    6.3469   54.2000   26.2580 C   0  0  0  0  0  0
    5.0083   54.1063   26.6255 C   0  0  0  0  0  0
    4.0223   54.2517   25.6403 C   0  0  0  0  0  0
    4.3793   54.4887   24.3133 C   0  0  0  0  0  0
    4.7613   53.8875   27.9687 O   0  0  0  0  0  0
    3.4267   53.8003   28.4601 C   0  0  0  0  0  0
    3.5020   53.6066   29.7776 F   0  0  0  0  0  0
    2.7507   54.9330   28.2597 F   0  0  0  0  0  0
    2.7718   52.7618   27.9367 F   0  0  0  0  0  0
   -1.2015   44.9376   20.0397 H   0  0  0  0  0  0
   -2.0511   46.4975   21.7196 H   0  0  0  0  0  0
   -1.4091   48.8930   21.7018 H   0  0  0  0  0  0
    1.7310   48.1894   17.2172 H   0  0  0  0  0  0
    0.3380   45.6995   18.2558 H   0  0  0  0  0  0
    1.9852   50.9264   16.8739 H   0  0  0  0  0  0
    1.0100   51.9264   17.9136 H   0  0  0  0  0  0
    3.8147   51.1368   18.1913 H   0  0  0  0  0  0
    3.5056   53.9845   21.5580 H   0  0  0  0  0  0
    4.5226   52.6304   22.2424 H   0  0  0  0  0  0
    6.9645   54.0969   20.0091 H   0  0  0  0  0  0
    6.2204   55.6371   19.8310 H   0  0  0  0  0  0
    6.4451   52.5558   18.1341 H   0  0  0  0  0  0
    4.9825   52.7411   17.2417 H   0  0  0  0  0  0
    7.1805   54.9217   17.5983 H   0  0  0  0  0  0
    6.8400   54.0065   16.1098 H   0  0  0  0  0  0
    5.7942   56.1955   16.0998 H   0  0  0  0  0  0
    5.2157   56.6891   18.3485 H   0  0  0  0  0  0
    3.7567   56.6538   17.3533 H   0  0  0  0  0  0
    3.1525   54.3823   18.0763 H   0  0  0  0  0  0
    3.5040   55.2964   19.5070 H   0  0  0  0  0  0
    7.7505   54.4975   24.6798 H   0  0  0  0  0  0
    7.1106   54.0863   27.0105 H   0  0  0  0  0  0
    2.9720   54.1938   25.8828 H   0  0  0  0  0  0
    3.5848   54.6455   23.6010 H   0  0  0  0  0  0
    4.7038   55.0036   15.9825 H   0  0  0  0  0  0
  1  2  2  0  0  0
  1 39  1  0  0  0
  1 10  1  0  0  0
  2  3  1  0  0  0
  2 40  1  0  0  0
  3  4  2  0  0  0
  3 41  1  0  0  0
  4  5  1  0  0  0
  4  9  1  0  0  0
  5  7  1  0  0  0
  5  6  1  0  0  0
  6  8  2  0  0  0
  6 11  1  0  0  0
  8  9  1  0  0  0
  8 42  1  0  0  0
  9 10  2  0  0  0
 10 43  1  0  0  0
 11 12  1  0  0  0
 11 44  1  0  0  0
 11 45  1  0  0  0
 12 13  1  0  0  0
 12 46  1  0  0  0
 13 14  2  0  0  0
 13 15  1  0  0  0
 15 16  1  0  0  0
 15 20  1  0  0  0
 15 17  1  0  0  0
 17 18  1  0  0  0
 17 47  1  0  0  0
 17 48  1  0  0  0
 18 19  1  0  0  0
 18 26  1  0  0  0
 19 20  1  0  0  0
 19 49  1  0  0  0
 19 50  1  0  0  0
 20 25  1  0  0  0
 20 21  1  0  0  0
 21 22  1  0  0  0
 21 51  1  0  0  0
 21 52  1  0  0  0
 22 23  1  0  0  0
 22 53  1  0  0  0
 22 54  1  0  0  0
 23 24  1  0  0  0
 23 55  1  0  0  0
 23 64  1  0  0  0
 24 25  1  0  0  0
 24 56  1  0  0  0
 24 57  1  0  0  0
 25 58  1  0  0  0
 25 59  1  0  0  0
 26 27  2  0  0  0
 26 28  1  0  0  0
 28 33  2  0  0  0
 28 29  1  0  0  0
 29 30  2  0  0  0
 29 60  1  0  0  0
 30 31  1  0  0  0
 30 61  1  0  0  0
 31 32  2  0  0  0
 31 34  1  0  0  0
 32 33  1  0  0  0
 32 62  1  0  0  0
 33 63  1  0  0  0
 34 35  1  0  0  0
 35 36  1  0  0  0
 35 37  1  0  0  0
 35 38  1  0  0  0
M  CHG  1  23   1
M  END
> <i_i_glide_confnum>
16

> <i_i_glide_lignum>
389

> <i_i_glide_posenum>
85

> <i_i_glide_rotatable_bonds>
8

> <i_m_Source_File_Index>
401

> <b_m_subgroup_collapsed>
0

> <r_i_docking_score>
-5.56861

> <r_i_glide_ecoul>
-4.41721

> <r_i_glide_eff_state_penalty>
0

> <r_i_glide_einternal>
5.93366

> <r_i_glide_emodel>
-53.2088

> <r_i_glide_energy>
-39.0905

> <r_i_glide_erotb>
0.487279

> <r_i_glide_esite>
-0.137411

> <r_i_glide_evdw>
-34.6733

> <r_i_glide_gscore>
-5.56861

> <r_i_glide_hbond>
-0.16

> <r_i_glide_ligand_efficiency>
-0.154684

> <r_i_glide_ligand_efficiency_ln>
-1.21492

> <r_i_glide_ligand_efficiency_sa>
-0.510754

> <r_i_glide_lipo>
-2.08656

> <r_i_glide_metal>
0

> <r_i_glide_rewards>
-1.27567

> <s_i_glide_gridfile>
wee1_glide-grid

> <s_m_Source_File>
wee1_decoys_glide_SP.sdf

> <s_m_Source_Path>
/Users/zhangxujun/Desktop

> <s_m_entry_id>
676

> <s_m_entry_name>
wee1_decoys_glide_SP.401

> <s_m_subgroup_title>
wee1_decoys_glide_SP

> <s_m_subgroupid>
wee1_decoys_glide_SP


$$$$
