ZINC38546313_6047
                    3D
 Schrodinger Suite 2024-2.
 66 70  0  0  1  0            999 V2000
    1.9316   54.5758   29.9675 C   0  0  0  0  0  0
    1.3458   53.1904   29.6408 C   0  0  2  0  0  0
    1.9641   52.5415   28.3801 C   0  0  0  0  0  0
    1.1358   51.4087   27.7550 C   0  0  0  0  0  0
   -0.3184   51.9044   27.5856 N   0  3  2  0  0  0
   -0.8898   51.9586   29.0244 C   0  0  0  0  0  0
   -0.1971   53.1215   29.7656 C   0  0  0  0  0  0
   -1.1608   50.9659   26.6662 C   0  0  1  0  0  0
   -1.0637   50.0953   27.2834 H   0  0  0  0  0  0
   -2.6729   51.2615   26.5968 C   0  0  0  0  0  0
   -3.5404   50.4967   27.3966 C   0  0  0  0  0  0
   -4.9144   50.7115   27.3766 C   0  0  0  0  0  0
   -5.4503   51.6864   26.5448 C   0  0  0  0  0  0
   -4.6100   52.4287   25.7187 C   0  0  0  0  0  0
   -3.2194   52.2144   25.7194 C   0  0  0  0  0  0
   -2.3652   52.8960   24.8791 O   0  0  0  0  0  0
   -2.9028   53.4779   23.6989 C   0  0  0  0  0  0
   -0.5007   50.5737   25.3217 C   0  0  0  0  0  0
    0.3637   51.3508   24.4924 C   0  0  0  0  0  0
    0.7562   50.6920   23.3188 C   0  0  0  0  0  0
    0.1363   49.0870   23.2456 S   0  0  0  0  0  0
   -0.7009   49.3137   24.7502 C   0  0  0  0  0  0
   -1.4842   48.3003   25.2817 N   0  0  0  0  0  0
   -2.4636   47.6715   24.5981 C   0  0  0  0  0  0
   -2.7096   47.8243   23.3995 O   0  0  0  0  0  0
   -3.2590   46.7769   25.3938 C   0  0  0  0  0  0
   -4.4331   46.0944   25.0906 C   0  0  0  0  0  0
   -4.8099   45.4033   26.2439 C   0  0  0  0  0  0
   -3.8514   45.6961   27.1987 C   0  0  0  0  0  0
   -2.8959   46.4990   26.6750 O   0  0  0  0  0  0
    1.5643   51.3030   22.1777 C   0  0  0  0  0  0
    2.1723   52.6561   22.6109 C   0  0  0  0  0  0
    1.2011   53.4951   23.4546 C   0  0  0  0  0  0
    0.8202   52.7794   24.7615 C   0  0  0  0  0  0
    1.7141   55.2884   29.1711 H   0  0  0  0  0  0
    1.5043   54.9858   30.8818 H   0  0  0  0  0  0
    3.0151   54.5371   30.0803 H   0  0  0  0  0  0
    1.6664   52.5098   30.4330 H   0  0  0  0  0  0
    3.0097   52.2670   28.5298 H   0  0  0  0  0  0
    1.9825   53.3143   27.6102 H   0  0  0  0  0  0
    1.1427   50.4968   28.3484 H   0  0  0  0  0  0
    1.5044   51.1449   26.7802 H   0  0  0  0  0  0
   -1.9660   52.0966   28.9720 H   0  0  0  0  0  0
   -0.7209   50.9922   29.5045 H   0  0  0  0  0  0
   -0.5770   54.0138   29.2693 H   0  0  0  0  0  0
   -0.5109   53.2017   30.8073 H   0  0  0  0  0  0
   -3.1627   49.7097   28.0378 H   0  0  0  0  0  0
   -5.5610   50.1132   28.0017 H   0  0  0  0  0  0
   -6.5175   51.8542   26.5237 H   0  0  0  0  0  0
   -5.0609   53.1643   25.0706 H   0  0  0  0  0  0
   -2.0955   53.6962   23.0062 H   0  0  0  0  0  0
   -3.5762   52.7869   23.1927 H   0  0  0  0  0  0
   -3.4316   54.4082   23.9125 H   0  0  0  0  0  0
   -1.4815   48.1887   26.2917 H   0  0  0  0  0  0
   -4.9610   46.1169   24.1475 H   0  0  0  0  0  0
   -5.6786   44.7735   26.3726 H   0  0  0  0  0  0
   -3.6957   45.3874   28.2230 H   0  0  0  0  0  0
    2.3538   50.6295   21.8426 H   0  0  0  0  0  0
    0.9067   51.4728   21.3247 H   0  0  0  0  0  0
    3.0882   52.4921   23.1810 H   0  0  0  0  0  0
    2.4745   53.2173   21.7244 H   0  0  0  0  0  0
    1.6408   54.4688   23.6772 H   0  0  0  0  0  0
    0.3042   53.6953   22.8827 H   0  0  0  0  0  0
    0.0282   53.2967   25.2810 H   0  0  0  0  0  0
    1.6941   52.7980   25.4087 H   0  0  0  0  0  0
   -0.3648   52.8080   27.1369 H   0  0  0  0  0  0
  1  2  1  0  0  0
  1 35  1  0  0  0
  1 36  1  0  0  0
  1 37  1  0  0  0
  2  7  1  0  0  0
  2  3  1  0  0  0
  2 38  1  0  0  0
  3  4  1  0  0  0
  3 39  1  0  0  0
  3 40  1  0  0  0
  4  5  1  0  0  0
  4 41  1  0  0  0
  4 42  1  0  0  0
  5  6  1  0  0  0
  5  8  1  0  0  0
  5 66  1  0  0  0
  6  7  1  0  0  0
  6 43  1  0  0  0
  6 44  1  0  0  0
  7 45  1  0  0  0
  7 46  1  0  0  0
  8  9  1  0  0  0
  8 10  1  0  0  0
  8 18  1  0  0  0
 10 15  2  0  0  0
 10 11  1  0  0  0
 11 12  2  0  0  0
 11 47  1  0  0  0
 12 13  1  0  0  0
 12 48  1  0  0  0
 13 14  2  0  0  0
 13 49  1  0  0  0
 14 15  1  0  0  0
 14 50  1  0  0  0
 15 16  1  0  0  0
 16 17  1  0  0  0
 17 51  1  0  0  0
 17 52  1  0  0  0
 17 53  1  0  0  0
 18 22  2  0  0  0
 18 19  1  0  0  0
 19 34  1  0  0  0
 19 20  2  0  0  0
 20 21  1  0  0  0
 20 31  1  0  0  0
 21 22  1  0  0  0
 22 23  1  0  0  0
 23 24  1  0  0  0
 23 54  1  0  0  0
 24 25  2  0  0  0
 24 26  1  0  0  0
 26 30  1  0  0  0
 26 27  2  0  0  0
 27 28  1  0  0  0
 27 55  1  0  0  0
 28 29  2  0  0  0
 28 56  1  0  0  0
 29 30  1  0  0  0
 29 57  1  0  0  0
 31 32  1  0  0  0
 31 58  1  0  0  0
 31 59  1  0  0  0
 32 33  1  0  0  0
 32 60  1  0  0  0
 32 61  1  0  0  0
 33 34  1  0  0  0
 33 62  1  0  0  0
 33 63  1  0  0  0
 34 64  1  0  0  0
 34 65  1  0  0  0
M  CHG  1   5   1
M  END
> <i_i_glide_confnum>
10

> <i_i_glide_lignum>
6048

> <i_i_glide_posenum>
146

> <i_i_glide_rotatable_bonds>
7

> <i_m_Source_File_Index>
4620

> <b_m_subgroup_collapsed>
0

> <r_i_docking_score>
-3.32753

> <r_i_glide_ecoul>
-3.20024

> <r_i_glide_eff_state_penalty>
0

> <r_i_glide_einternal>
9.5348

> <r_i_glide_emodel>
-39.2887

> <r_i_glide_energy>
-34.799

> <r_i_glide_erotb>
0.558144

> <r_i_glide_esite>
-0.167891

> <r_i_glide_evdw>
-31.5988

> <r_i_glide_gscore>
-3.32753

> <r_i_glide_hbond>
-0.139523

> <r_i_glide_ligand_efficiency>
-0.100834

> <r_i_glide_ligand_efficiency_ln>
-0.740026

> <r_i_glide_ligand_efficiency_sa>
-0.32343

> <r_i_glide_lipo>
-1.2849

> <r_i_glide_metal>
0

> <r_i_glide_rewards>
-0.233384

> <s_i_glide_gridfile>
wee1_glide-grid

> <s_m_Source_File>
wee1_decoys_glide_SP.sdf

> <s_m_Source_Path>
/Users/zhangxujun/Desktop

> <s_m_entry_id>
4895

> <s_m_entry_name>
wee1_decoys_glide_SP.4620

> <s_m_subgroup_title>
wee1_decoys_glide_SP

> <s_m_subgroupid>
wee1_decoys_glide_SP


$$$$
