ZINC12006320_3208
                    3D
 Schrodinger Suite 2024-2.
 48 51  0  0  1  0            999 V2000
    2.9195   54.4780   28.9332 C   0  0  0  0  0  0
    4.0103   54.3378   27.8966 C   0  0  0  0  0  0
    5.3245   54.4982   28.1619 C   0  0  0  0  0  0
    6.2902   54.4318   27.0941 C   0  0  0  0  0  0
    7.4999   54.4955   27.2454 O   0  0  0  0  0  0
    5.7179   54.2844   25.8791 N   0  0  0  0  0  0
    6.3721   54.2373   25.1158 H   0  0  0  0  0  0
    4.3745   54.1198   25.6278 C   0  0  0  0  0  0
    3.5435   54.1389   26.6269 N   0  0  0  0  0  0
    3.9081   53.9199   24.3119 N   0  0  0  0  0  0
    2.6851   53.4345   23.8673 C   0  0  0  0  0  0
    2.7715   53.4240   22.4845 C   0  0  0  0  0  0
    4.0543   53.8870   22.1798 C   0  0  0  0  0  0
    4.7270   54.1715   23.2693 N   0  0  0  0  0  0
    4.6336   54.0625   20.8683 C   0  0  0  0  0  0
    5.6787   54.8223   20.3526 C   0  0  0  0  0  0
    5.7348   54.5607   18.9817 C   0  0  0  0  0  0
    4.7351   53.6389   18.7241 C   0  0  0  0  0  0
    4.0681   53.3421   19.8658 O   0  0  0  0  0  0
    1.6914   53.0297   24.7428 N   0  0  0  0  0  0
    0.4832   52.5114   24.4496 C   0  0  0  0  0  0
    0.0473   52.3825   23.3025 O   0  0  0  0  0  0
   -0.3507   52.0950   25.6473 C   0  0  0  0  0  0
    0.0850   52.3228   26.9635 C   0  0  0  0  0  0
   -0.6799   51.9329   28.0636 C   0  0  0  0  0  0
   -1.9074   51.2969   27.8505 C   0  0  0  0  0  0
   -2.3681   51.0539   26.5502 C   0  0  0  0  0  0
   -1.5874   51.4591   25.4604 C   0  0  0  0  0  0
   -3.6972   50.3411   26.2981 C   0  0  0  0  0  0
   -4.4470   50.2482   27.3984 F   0  0  0  0  0  0
   -4.4010   51.0008   25.3764 F   0  0  0  0  0  0
   -3.4596   49.1104   25.8453 F   0  0  0  0  0  0
   -0.1378   52.2108   29.4630 C   0  0  0  0  0  0
    1.0868   51.6966   29.5823 F   0  0  0  0  0  0
   -0.8954   51.6960   30.4214 F   0  0  0  0  0  0
   -0.0741   53.5286   29.6598 F   0  0  0  0  0  0
    2.7416   53.5125   29.4018 H   0  0  0  0  0  0
    3.2185   55.1817   29.7080 H   0  0  0  0  0  0
    1.9873   54.8390   28.4949 H   0  0  0  0  0  0
    5.6862   54.7029   29.1564 H   0  0  0  0  0  0
    2.0168   53.1104   21.7778 H   0  0  0  0  0  0
    6.3193   55.4920   20.9063 H   0  0  0  0  0  0
    6.4205   54.9846   18.2615 H   0  0  0  0  0  0
    4.3961   53.1262   17.8355 H   0  0  0  0  0  0
    1.9335   53.1591   25.7160 H   0  0  0  0  0  0
    1.0286   52.8084   27.1674 H   0  0  0  0  0  0
   -2.4959   50.9696   28.6996 H   0  0  0  0  0  0
   -1.9496   51.2604   24.4602 H   0  0  0  0  0  0
  1  2  1  0  0  0
  1 37  1  0  0  0
  1 38  1  0  0  0
  1 39  1  0  0  0
  2  9  1  0  0  0
  2  3  2  0  0  0
  3  4  1  0  0  0
  3 40  1  0  0  0
  4  5  2  0  0  0
  4  6  1  0  0  0
  6  7  1  0  0  0
  6  8  1  0  0  0
  8  9  2  0  0  0
  8 10  1  0  0  0
 10 14  1  0  0  0
 10 11  1  0  0  0
 11 12  2  0  0  0
 11 20  1  0  0  0
 12 13  1  0  0  0
 12 41  1  0  0  0
 13 14  2  0  0  0
 13 15  1  0  0  0
 15 19  1  0  0  0
 15 16  2  0  0  0
 16 17  1  0  0  0
 16 42  1  0  0  0
 17 18  2  0  0  0
 17 43  1  0  0  0
 18 19  1  0  0  0
 18 44  1  0  0  0
 20 21  1  0  0  0
 20 45  1  0  0  0
 21 22  2  0  0  0
 21 23  1  0  0  0
 23 28  2  0  0  0
 23 24  1  0  0  0
 24 25  2  0  0  0
 24 46  1  0  0  0
 25 26  1  0  0  0
 25 33  1  0  0  0
 26 27  2  0  0  0
 26 47  1  0  0  0
 27 28  1  0  0  0
 27 29  1  0  0  0
 28 48  1  0  0  0
 29 30  1  0  0  0
 29 31  1  0  0  0
 29 32  1  0  0  0
 33 34  1  0  0  0
 33 35  1  0  0  0
 33 36  1  0  0  0
M  END
> <i_i_glide_confnum>
8

> <i_i_glide_lignum>
3209

> <i_i_glide_posenum>
154

> <i_i_glide_rotatable_bonds>
7

> <i_m_Source_File_Index>
2006

> <b_m_subgroup_collapsed>
0

> <r_i_docking_score>
-5.51166

> <r_i_glide_ecoul>
-2.72262

> <r_i_glide_eff_state_penalty>
0

> <r_i_glide_einternal>
1.70293

> <r_i_glide_emodel>
-65.2585

> <r_i_glide_energy>
-48.5039

> <r_i_glide_erotb>
0.41233

> <r_i_glide_esite>
-0.194082

> <r_i_glide_evdw>
-45.7812

> <r_i_glide_gscore>
-5.51166

> <r_i_glide_hbond>
-0.27577

> <r_i_glide_ligand_efficiency>
-0.157476

> <r_i_glide_ligand_efficiency_ln>
-1.20993

> <r_i_glide_ligand_efficiency_sa>
-0.515114

> <r_i_glide_lipo>
-1.79798

> <r_i_glide_metal>
0

> <r_i_glide_rewards>
-0.958701

> <s_i_glide_gridfile>
wee1_glide-grid

> <s_m_Source_File>
wee1_decoys_glide_SP.sdf

> <s_m_Source_Path>
/Users/zhangxujun/Desktop

> <s_m_entry_id>
2281

> <s_m_entry_name>
wee1_decoys_glide_SP.2006

> <s_m_subgroup_title>
wee1_decoys_glide_SP

> <s_m_subgroupid>
wee1_decoys_glide_SP


$$$$
