ZINC38966303_5456
                    3D
 Schrodinger Suite 2024-2.
 44 46  0  0  1  0            999 V2000
   -4.7949   51.4959   24.8859 C   0  0  0  0  0  0
   -3.6704   51.5462   23.8336 C   0  0  0  0  0  0
   -2.9852   52.9244   23.6785 C   0  0  0  0  0  0
   -2.7596   50.4456   23.9334 O   0  0  0  0  0  0
   -1.7599   50.3860   24.8853 C   0  0  0  0  0  0
   -0.7803   49.4105   24.6940 C   0  0  0  0  0  0
    0.3034   49.3109   25.5629 C   0  0  0  0  0  0
    0.4163   50.1950   26.6330 C   0  0  0  0  0  0
   -0.5755   51.1487   26.8771 C   0  0  0  0  0  0
   -1.6561   51.2325   25.9989 C   0  0  0  0  0  0
   -0.5020   52.1553   28.0289 C   0  0  1  0  0  0
   -0.8956   53.1084   27.6812 H   0  0  0  0  0  0
   -1.2956   51.6962   29.1224 N   0  0  0  0  0  0
   -0.5976   51.7523   30.1621 N   0  3  0  0  0  0
    0.6947   52.2417   30.0130 C   0  0  0  0  0  0
    1.7545   52.4917   31.2728 S   0  0  0  0  0  0
    0.7882   52.4158   28.6648 N   0  0  0  0  0  0
    1.9240   52.9293   28.1032 N   0  0  0  0  0  0
    1.9372   53.2705   26.8748 C   0  0  0  0  0  0
    3.1294   53.7710   26.1746 C   0  0  0  0  0  0
    3.0424   53.9112   24.7802 C   0  0  0  0  0  0
    4.1414   54.3131   24.0252 C   0  0  0  0  0  0
    5.3515   54.5937   24.6522 C   0  0  0  0  0  0
    5.4515   54.4938   26.0371 C   0  0  0  0  0  0
    4.3549   54.0912   26.8032 C   0  0  0  0  0  0
    4.5285   54.0310   28.1659 O   0  0  0  0  0  0
    7.1043   54.8969   26.8809 Br  0  0  0  0  0  0
    3.9821   54.4911   22.1368 Br  0  0  0  0  0  0
   -5.4827   52.3325   24.7642 H   0  0  0  0  0  0
   -4.4381   51.5120   25.9127 H   0  0  0  0  0  0
   -5.3789   50.5823   24.7706 H   0  0  0  0  0  0
   -4.1712   51.3589   22.8827 H   0  0  0  0  0  0
   -3.7155   53.6993   23.4543 H   0  0  0  0  0  0
   -2.4415   53.2662   24.5535 H   0  0  0  0  0  0
   -2.2786   52.9010   22.8497 H   0  0  0  0  0  0
   -0.8535   48.7367   23.8536 H   0  0  0  0  0  0
    1.0608   48.5550   25.4062 H   0  0  0  0  0  0
    1.2750   50.1138   27.2810 H   0  0  0  0  0  0
   -2.4072   51.9736   26.2055 H   0  0  0  0  0  0
    1.0567   53.1922   26.2426 H   0  0  0  0  0  0
    2.1236   53.6871   24.2544 H   0  0  0  0  0  0
    6.2063   54.9018   24.0663 H   0  0  0  0  0  0
    5.4209   54.2719   28.4265 H   0  0  0  0  0  0
   -1.0093   51.4940   31.0592 H   0  0  0  0  0  0
  1  2  1  0  0  0
  1 29  1  0  0  0
  1 30  1  0  0  0
  1 31  1  0  0  0
  2  3  1  0  0  0
  2  4  1  0  0  0
  2 32  1  0  0  0
  3 33  1  0  0  0
  3 34  1  0  0  0
  3 35  1  0  0  0
  4  5  1  0  0  0
  5 10  2  0  0  0
  5  6  1  0  0  0
  6  7  2  0  0  0
  6 36  1  0  0  0
  7  8  1  0  0  0
  7 37  1  0  0  0
  8  9  2  0  0  0
  8 38  1  0  0  0
  9 10  1  0  0  0
  9 11  1  0  0  0
 10 39  1  0  0  0
 11 12  1  0  0  0
 11 17  1  0  0  0
 11 13  1  0  0  0
 13 14  2  0  0  0
 14 15  1  0  0  0
 14 44  1  0  0  0
 15 16  2  0  0  0
 15 17  1  0  0  0
 17 18  1  0  0  0
 18 19  2  0  0  0
 19 20  1  0  0  0
 19 40  1  0  0  0
 20 25  2  0  0  0
 20 21  1  0  0  0
 21 22  2  0  0  0
 21 41  1  0  0  0
 22 23  1  0  0  0
 22 28  1  0  0  0
 23 24  2  0  0  0
 23 42  1  0  0  0
 24 25  1  0  0  0
 24 27  1  0  0  0
 25 26  1  0  0  0
 26 43  1  0  0  0
M  CHG  1  14   1
M  END
> <i_i_glide_confnum>
7

> <i_i_glide_lignum>
5457

> <i_i_glide_posenum>
302

> <i_i_glide_rotatable_bonds>
6

> <i_m_Source_File_Index>
3954

> <b_m_subgroup_collapsed>
0

> <r_i_docking_score>
-4.50089

> <r_i_glide_ecoul>
-2.58429

> <r_i_glide_eff_state_penalty>
0

> <r_i_glide_einternal>
1.47505

> <r_i_glide_emodel>
-56.3351

> <r_i_glide_energy>
-42.5747

> <r_i_glide_erotb>
0.311383

> <r_i_glide_esite>
-0.162053

> <r_i_glide_evdw>
-39.9904

> <r_i_glide_gscore>
-4.50089

> <r_i_glide_hbond>
-0.148049

> <r_i_glide_ligand_efficiency>
-0.1667

> <r_i_glide_ligand_efficiency_ln>
-1.04773

> <r_i_glide_ligand_efficiency_sa>
-0.500099

> <r_i_glide_lipo>
-1.59966

> <r_i_glide_metal>
0

> <r_i_glide_rewards>
-0.515344

> <s_i_glide_gridfile>
wee1_glide-grid

> <s_m_Source_File>
wee1_decoys_glide_SP.sdf

> <s_m_Source_Path>
/Users/zhangxujun/Desktop

> <s_m_entry_id>
4229

> <s_m_entry_name>
wee1_decoys_glide_SP.3954

> <s_m_subgroup_title>
wee1_decoys_glide_SP

> <s_m_subgroupid>
wee1_decoys_glide_SP


$$$$
