ZINC00793190_2075
                    3D
 Schrodinger Suite 2024-2.
 48 52  0  0  1  0            999 V2000
    5.4046   54.1162   28.2439 C   0  0  0  0  0  0
    4.1495   53.6745   27.8259 C   0  0  0  0  0  0
    3.7470   53.8310   26.4954 C   0  0  0  0  0  0
    4.6206   54.4555   25.5881 C   0  0  0  0  0  0
    5.8761   54.8968   26.0097 C   0  0  0  0  0  0
    6.2707   54.7194   27.3347 C   0  0  0  0  0  0
    6.9396   55.6768   24.8964 Cl  0  0  0  0  0  0
    2.4855   53.2987   26.1663 N   0  0  0  0  0  0
    1.8167   53.3046   24.9916 C   0  0  0  0  0  0
    2.1560   53.9283   23.9867 O   0  0  0  0  0  0
    0.6138   52.4922   24.9981 C   0  0  0  0  0  0
    0.2566   51.5260   25.9642 C   0  0  0  0  0  0
   -0.9477   50.9975   25.5580 C   0  0  0  0  0  0
   -1.2138   51.5773   24.3325 N   0  0  0  0  0  0
   -0.2904   52.5112   24.0365 N   0  0  0  0  0  0
   -2.4222   51.3750   23.5154 C   0  0  2  0  0  0
   -3.0391   52.2636   23.6436 H   0  0  0  0  0  0
   -3.2048   50.1636   24.0891 C   0  0  0  0  0  0
   -3.1566   50.0162   25.6266 C   0  0  2  0  0  0
   -3.6445   50.8726   26.0976 H   0  0  0  0  0  0
   -1.7632   50.0190   26.0816 N   0  0  0  0  0  0
   -3.9423   48.7884   26.0869 C   0  0  0  0  0  0
   -5.1818   48.9529   26.7399 C   0  0  0  0  0  0
   -5.9289   47.8420   27.1608 C   0  0  0  0  0  0
   -5.4063   46.5788   26.9036 C   0  0  0  0  0  0
   -4.2134   46.4112   26.2611 C   0  0  0  0  0  0
   -3.4463   47.4933   25.8441 C   0  0  0  0  0  0
   -3.9816   45.0860   26.0812 O   0  0  0  0  0  0
   -4.9680   44.4195   26.8209 C   0  0  0  0  0  0
   -5.9460   45.3617   27.1753 O   0  0  0  0  0  0
   -2.1355   51.2064   22.0013 C   0  0  0  0  0  0
   -3.2505   50.8939   21.3362 F   0  0  0  0  0  0
   -1.6554   52.3161   21.4484 F   0  0  0  0  0  0
   -1.2611   50.2271   21.7707 F   0  0  0  0  0  0
    5.7073   53.9970   29.2728 H   0  0  0  0  0  0
    3.4993   53.1983   28.5458 H   0  0  0  0  0  0
    4.3571   54.5947   24.5532 H   0  0  0  0  0  0
    7.2353   55.0637   27.6802 H   0  0  0  0  0  0
    2.0415   52.7853   26.9096 H   0  0  0  0  0  0
    0.7914   51.2386   26.8567 H   0  0  0  0  0  0
   -4.2407   50.1998   23.7468 H   0  0  0  0  0  0
   -2.8059   49.2450   23.6515 H   0  0  0  0  0  0
   -1.6952   49.7912   27.0716 H   0  0  0  0  0  0
   -5.5712   49.9434   26.9232 H   0  0  0  0  0  0
   -6.8778   47.9720   27.6573 H   0  0  0  0  0  0
   -2.4990   47.3509   25.3449 H   0  0  0  0  0  0
   -4.4990   44.0124   27.7152 H   0  0  0  0  0  0
   -5.4122   43.6108   26.2378 H   0  0  0  0  0  0
  1  6  2  0  0  0
  1  2  1  0  0  0
  1 35  1  0  0  0
  2  3  2  0  0  0
  2 36  1  0  0  0
  3  4  1  0  0  0
  3  8  1  0  0  0
  4  5  2  0  0  0
  4 37  1  0  0  0
  5  6  1  0  0  0
  5  7  1  0  0  0
  6 38  1  0  0  0
  8  9  1  0  0  0
  8 39  1  0  0  0
  9 10  2  0  0  0
  9 11  1  0  0  0
 11 15  2  0  0  0
 11 12  1  0  0  0
 12 13  2  0  0  0
 12 40  1  0  0  0
 13 21  1  0  0  0
 13 14  1  0  0  0
 14 15  1  0  0  0
 14 16  1  0  0  0
 16 17  1  0  0  0
 16 18  1  0  0  0
 16 31  1  0  0  0
 18 19  1  0  0  0
 18 41  1  0  0  0
 18 42  1  0  0  0
 19 20  1  0  0  0
 19 21  1  0  0  0
 19 22  1  0  0  0
 21 43  1  0  0  0
 22 27  2  0  0  0
 22 23  1  0  0  0
 23 24  2  0  0  0
 23 44  1  0  0  0
 24 25  1  0  0  0
 24 45  1  0  0  0
 25 30  1  0  0  0
 25 26  2  0  0  0
 26 27  1  0  0  0
 26 28  1  0  0  0
 27 46  1  0  0  0
 28 29  1  0  0  0
 29 30  1  0  0  0
 29 47  1  0  0  0
 29 48  1  0  0  0
 31 32  1  0  0  0
 31 33  1  0  0  0
 31 34  1  0  0  0
M  END
> <i_i_glide_confnum>
1

> <i_i_glide_lignum>
2076

> <i_i_glide_posenum>
231

> <i_i_glide_rotatable_bonds>
5

> <i_m_Source_File_Index>
6094

> <b_m_subgroup_collapsed>
0

> <r_i_docking_score>
-4.90755

> <r_i_glide_ecoul>
-4.09559

> <r_i_glide_eff_state_penalty>
0

> <r_i_glide_einternal>
0.723415

> <r_i_glide_emodel>
-53.1855

> <r_i_glide_energy>
-39.8133

> <r_i_glide_erotb>
0.37327

> <r_i_glide_esite>
-0.181642

> <r_i_glide_evdw>
-35.7177

> <r_i_glide_gscore>
-4.90755

> <r_i_glide_hbond>
-0.306626

> <r_i_glide_ligand_efficiency>
-0.153361

> <r_i_glide_ligand_efficiency_ln>
-1.09893

> <r_i_glide_ligand_efficiency_sa>
-0.486891

> <r_i_glide_lipo>
-1.86948

> <r_i_glide_metal>
0

> <r_i_glide_rewards>
-0.522854

> <s_i_glide_gridfile>
wee1_glide-grid

> <s_m_Source_File>
wee1_decoys_glide_SP.sdf

> <s_m_Source_Path>
/Users/zhangxujun/Desktop

> <s_m_entry_id>
6369

> <s_m_entry_name>
wee1_decoys_glide_SP.6094

> <s_m_subgroup_title>
wee1_decoys_glide_SP

> <s_m_subgroupid>
wee1_decoys_glide_SP


$$$$
