ZINC19877491_4980
                    3D
 Schrodinger Suite 2024-2.
 69 73  0  0  1  0            999 V2000
    7.2104   56.6423   13.9534 C   0  0  0  0  0  0
    6.6303   56.2727   15.3066 C   0  0  0  0  0  0
    5.2646   55.9955   15.4213 C   0  0  0  0  0  0
    4.6922   55.6396   16.6437 C   0  0  0  0  0  0
    5.5229   55.5618   17.7697 C   0  0  0  0  0  0
    6.9085   55.8418   17.6503 C   0  0  0  0  0  0
    7.4741   56.1958   16.4185 C   0  0  0  0  0  0
    7.6642   55.6635   19.2252 S   0  0  0  0  0  0
    6.0868   55.2481   19.8826 C   0  0  0  0  0  0
    5.1055   55.2316   19.0195 N   0  0  0  0  0  0
    5.9029   54.9467   21.3406 C   0  0  0  0  0  0
    6.8884   55.2960   22.2681 C   0  0  0  0  0  0
    6.7046   55.0509   23.6236 C   0  0  0  0  0  0
    5.5361   54.4363   24.0828 C   0  0  0  0  0  0
    4.5439   54.0926   23.1611 C   0  0  0  0  0  0
    4.7255   54.3443   21.8021 C   0  0  0  0  0  0
    5.2915   54.0959   25.4270 N   0  0  0  0  0  0
    6.0496   54.2960   26.5341 C   0  0  0  0  0  0
    7.1035   54.9192   26.5419 O   0  0  0  0  0  0
    5.5806   53.7029   27.8808 C   0  0  0  0  0  0
    4.0799   53.3135   27.8530 N   0  3  1  0  0  0
    3.7100   52.2816   28.9364 C   0  0  0  0  0  0
    2.2684   51.8181   28.5921 C   0  0  0  0  0  0
    1.1892   52.9602   28.6144 C   0  0  2  0  0  0
    1.7560   54.1152   27.7019 C   0  0  0  0  0  0
    3.1914   54.5714   27.9985 C   0  0  0  0  0  0
    1.1272   53.5103   30.0982 C   0  0  0  0  0  0
    1.5006   52.8249   31.0500 O   0  0  0  0  0  0
    0.7018   54.7515   30.3375 N   0  0  0  0  0  0
   -0.1665   52.5095   28.1566 N   0  0  0  0  0  0
   -0.2919   52.1314   26.7272 C   0  0  0  0  0  0
   -1.7584   51.9671   26.2831 C   0  0  0  0  0  0
   -2.4881   50.9157   27.1183 C   0  0  0  0  0  0
   -2.2977   51.2355   28.6049 C   0  0  0  0  0  0
   -0.8133   51.4590   28.9825 C   0  0  0  0  0  0
    6.6582   56.1606   13.1459 H   0  0  0  0  0  0
    7.1778   57.7221   13.8049 H   0  0  0  0  0  0
    8.2445   56.3075   13.8643 H   0  0  0  0  0  0
    4.6329   56.0593   14.5465 H   0  0  0  0  0  0
    3.6359   55.4280   16.7202 H   0  0  0  0  0  0
    8.5309   56.4054   16.3332 H   0  0  0  0  0  0
    7.8107   55.7654   21.9591 H   0  0  0  0  0  0
    7.5038   55.3403   24.2837 H   0  0  0  0  0  0
    3.6275   53.6186   23.4829 H   0  0  0  0  0  0
    3.9425   54.0725   21.1075 H   0  0  0  0  0  0
    4.4287   53.5960   25.5490 H   0  0  0  0  0  0
    5.7309   54.3923   28.7144 H   0  0  0  0  0  0
    6.1460   52.7923   28.0841 H   0  0  0  0  0  0
    4.4189   51.4596   28.8821 H   0  0  0  0  0  0
    3.8234   52.7584   29.9116 H   0  0  0  0  0  0
    1.9724   51.0391   29.2930 H   0  0  0  0  0  0
    2.2058   51.2397   27.6758 H   0  0  0  0  0  0
    1.6699   53.9007   26.6430 H   0  0  0  0  0  0
    1.0913   54.9772   27.7542 H   0  0  0  0  0  0
    3.5020   55.2928   27.2419 H   0  0  0  0  0  0
    3.3387   54.9979   28.9934 H   0  0  0  0  0  0
    0.6780   55.0792   31.2921 H   0  0  0  0  0  0
    0.3038   55.3112   29.6003 H   0  0  0  0  0  0
    0.2855   51.2278   26.5257 H   0  0  0  0  0  0
    0.1000   52.8906   26.0605 H   0  0  0  0  0  0
   -1.7854   51.6698   25.2343 H   0  0  0  0  0  0
   -2.2689   52.9302   26.3263 H   0  0  0  0  0  0
   -3.5491   50.8903   26.8659 H   0  0  0  0  0  0
   -2.0924   49.9266   26.8824 H   0  0  0  0  0  0
   -2.9015   52.0955   28.8796 H   0  0  0  0  0  0
   -2.6970   50.4183   29.2055 H   0  0  0  0  0  0
   -0.2519   50.5252   28.9003 H   0  0  0  0  0  0
   -0.7941   51.7320   30.0376 H   0  0  0  0  0  0
    3.9205   52.8576   26.9660 H   0  0  0  0  0  0
  1  2  1  0  0  0
  1 36  1  0  0  0
  1 37  1  0  0  0
  1 38  1  0  0  0
  2  7  2  0  0  0
  2  3  1  0  0  0
  3  4  2  0  0  0
  3 39  1  0  0  0
  4  5  1  0  0  0
  4 40  1  0  0  0
  5 10  1  0  0  0
  5  6  2  0  0  0
  6  7  1  0  0  0
  6  8  1  0  0  0
  7 41  1  0  0  0
  8  9  1  0  0  0
  9 10  2  0  0  0
  9 11  1  0  0  0
 11 16  2  0  0  0
 11 12  1  0  0  0
 12 13  2  0  0  0
 12 42  1  0  0  0
 13 14  1  0  0  0
 13 43  1  0  0  0
 14 15  2  0  0  0
 14 17  1  0  0  0
 15 16  1  0  0  0
 15 44  1  0  0  0
 16 45  1  0  0  0
 17 18  1  0  0  0
 17 46  1  0  0  0
 18 19  2  0  0  0
 18 20  1  0  0  0
 20 21  1  0  0  0
 20 47  1  0  0  0
 20 48  1  0  0  0
 21 26  1  0  0  0
 21 22  1  0  0  0
 21 69  1  0  0  0
 22 23  1  0  0  0
 22 49  1  0  0  0
 22 50  1  0  0  0
 23 24  1  0  0  0
 23 51  1  0  0  0
 23 52  1  0  0  0
 24 25  1  0  0  0
 24 27  1  0  0  0
 24 30  1  0  0  0
 25 26  1  0  0  0
 25 53  1  0  0  0
 25 54  1  0  0  0
 26 55  1  0  0  0
 26 56  1  0  0  0
 27 28  2  0  0  0
 27 29  1  0  0  0
 29 57  1  0  0  0
 29 58  1  0  0  0
 30 35  1  0  0  0
 30 31  1  0  0  0
 31 32  1  0  0  0
 31 59  1  0  0  0
 31 60  1  0  0  0
 32 33  1  0  0  0
 32 61  1  0  0  0
 32 62  1  0  0  0
 33 34  1  0  0  0
 33 63  1  0  0  0
 33 64  1  0  0  0
 34 35  1  0  0  0
 34 65  1  0  0  0
 34 66  1  0  0  0
 35 67  1  0  0  0
 35 68  1  0  0  0
M  CHG  1  21   1
M  END
> <i_i_glide_confnum>
12

> <i_i_glide_lignum>
4981

> <i_i_glide_posenum>
224

> <i_i_glide_rotatable_bonds>
7

> <i_m_Source_File_Index>
4029

> <b_m_subgroup_collapsed>
0

> <r_i_docking_score>
-6.19529

> <r_i_glide_ecoul>
-4.73837

> <r_i_glide_eff_state_penalty>
0

> <r_i_glide_einternal>
13.4873

> <r_i_glide_emodel>
-62.3264

> <r_i_glide_energy>
-49.7715

> <r_i_glide_erotb>
0.503465

> <r_i_glide_esite>
0

> <r_i_glide_evdw>
-45.0332

> <r_i_glide_gscore>
-6.19529

> <r_i_glide_hbond>
-0.346596

> <r_i_glide_ligand_efficiency>
-0.177008

> <r_i_glide_ligand_efficiency_ln>
-1.36

> <r_i_glide_ligand_efficiency_sa>
-0.579006

> <r_i_glide_lipo>
-2.66819

> <r_i_glide_metal>
0

> <r_i_glide_rewards>
-0.721554

> <s_i_glide_gridfile>
wee1_glide-grid

> <s_m_Source_File>
wee1_decoys_glide_SP.sdf

> <s_m_Source_Path>
/Users/zhangxujun/Desktop

> <s_m_entry_id>
4304

> <s_m_entry_name>
wee1_decoys_glide_SP.4029

> <s_m_subgroup_title>
wee1_decoys_glide_SP

> <s_m_subgroupid>
wee1_decoys_glide_SP


$$$$
