ZINC20885412_5988
                    3D
 Schrodinger Suite 2024-2.
 66 71  0  0  1  0            999 V2000
    9.5844   54.4981   17.9310 C   0  0  0  0  0  0
    8.6899   55.7453   18.0515 C   0  0  0  0  0  0
    8.0845   56.1357   16.6909 C   0  0  0  0  0  0
    7.6059   55.5689   19.1356 C   0  0  0  0  0  0
    6.7179   54.5075   18.7839 O   0  0  0  0  0  0
    5.7449   54.1160   19.6825 C   0  0  0  0  0  0
    4.9832   53.0026   19.3387 C   0  0  0  0  0  0
    4.0144   52.5051   20.2059 C   0  0  0  0  0  0
    3.7705   53.1305   21.4324 C   0  0  0  0  0  0
    4.5277   54.2630   21.7686 C   0  0  0  0  0  0
    5.5047   54.7503   20.9074 C   0  0  0  0  0  0
    2.7099   52.5431   22.3870 C   0  0  1  0  0  0
    3.0985   51.5503   22.6139 H   0  0  0  0  0  0
    2.5354   53.3373   23.7063 C   0  0  0  0  0  0
    1.4578   52.7139   24.5912 C   0  0  0  0  0  0
    0.4263   51.9698   24.1093 C   0  0  0  0  0  0
   -0.6679   51.3120   24.9892 C   0  0  1  0  0  0
   -0.9092   50.3642   24.5045 H   0  0  0  0  0  0
   -0.2150   50.8601   26.3117 N   0  0  0  0  0  0
    0.0901   51.7937   27.3181 C   0  0  0  0  0  0
   -0.5143   51.6955   28.5785 C   0  0  0  0  0  0
   -0.2378   52.5967   29.6013 C   0  0  0  0  0  0
    0.6435   53.6435   29.3697 C   0  0  0  0  0  0
    1.2692   53.7502   28.1309 C   0  0  0  0  0  0
    1.0337   52.8272   27.1015 C   0  0  0  0  0  0
    1.7832   52.9074   25.9182 N   0  0  0  0  0  0
   -2.0347   52.0601   25.0442 C   0  0  0  0  0  0
   -2.3770   53.0395   24.0799 C   0  0  0  0  0  0
   -3.6128   53.6963   24.0854 C   0  0  0  0  0  0
   -4.5000   53.3731   25.1005 C   0  0  0  0  0  0
   -4.2042   52.4261   26.0363 C   0  0  0  0  0  0
   -2.9938   51.7382   26.0310 C   0  0  0  0  0  0
   -5.2585   52.2879   26.8811 O   0  0  0  0  0  0
   -6.1649   53.3053   26.5404 C   0  0  0  0  0  0
   -5.7421   53.8739   25.3299 O   0  0  0  0  0  0
    0.2849   51.7366   22.6431 C   0  0  0  0  0  0
   -0.6990   51.1773   22.1574 O   0  0  0  0  0  0
    1.3451   52.3342   21.7012 C   0  0  0  0  0  0
    9.0143   53.6183   17.6308 H   0  0  0  0  0  0
   10.0658   54.2702   18.8818 H   0  0  0  0  0  0
   10.3748   54.6461   17.1951 H   0  0  0  0  0  0
    9.3302   56.5686   18.3711 H   0  0  0  0  0  0
    7.4320   55.3526   16.3031 H   0  0  0  0  0  0
    7.4931   57.0487   16.7677 H   0  0  0  0  0  0
    8.8621   56.3143   15.9472 H   0  0  0  0  0  0
    8.0887   55.3593   20.0918 H   0  0  0  0  0  0
    7.0466   56.4997   19.2531 H   0  0  0  0  0  0
    5.1632   52.4968   18.4001 H   0  0  0  0  0  0
    3.4663   51.6211   19.9154 H   0  0  0  0  0  0
    4.3827   54.7840   22.7009 H   0  0  0  0  0  0
    6.0671   55.6189   21.2124 H   0  0  0  0  0  0
    3.5159   53.2979   24.1877 H   0  0  0  0  0  0
    2.2495   54.3777   23.5383 H   0  0  0  0  0  0
   -0.7945   50.1108   26.6687 H   0  0  0  0  0  0
   -1.2178   50.8978   28.7730 H   0  0  0  0  0  0
   -0.7217   52.4857   30.5627 H   0  0  0  0  0  0
    0.8525   54.3593   30.1506 H   0  0  0  0  0  0
    1.9768   54.5529   27.9762 H   0  0  0  0  0  0
    2.6374   53.4248   26.0534 H   0  0  0  0  0  0
   -1.6868   53.3246   23.3036 H   0  0  0  0  0  0
   -3.8435   54.4478   23.3462 H   0  0  0  0  0  0
   -2.8002   50.9773   26.7730 H   0  0  0  0  0  0
   -6.1527   54.0711   27.3171 H   0  0  0  0  0  0
   -7.1647   52.8874   26.4299 H   0  0  0  0  0  0
    0.9734   53.2968   21.3540 H   0  0  0  0  0  0
    1.4125   51.6835   20.8298 H   0  0  0  0  0  0
  1  2  1  0  0  0
  1 39  1  0  0  0
  1 40  1  0  0  0
  1 41  1  0  0  0
  2  3  1  0  0  0
  2  4  1  0  0  0
  2 42  1  0  0  0
  3 43  1  0  0  0
  3 44  1  0  0  0
  3 45  1  0  0  0
  4  5  1  0  0  0
  4 46  1  0  0  0
  4 47  1  0  0  0
  5  6  1  0  0  0
  6 11  2  0  0  0
  6  7  1  0  0  0
  7  8  2  0  0  0
  7 48  1  0  0  0
  8  9  1  0  0  0
  8 49  1  0  0  0
  9 10  2  0  0  0
  9 12  1  0  0  0
 10 11  1  0  0  0
 10 50  1  0  0  0
 11 51  1  0  0  0
 12 13  1  0  0  0
 12 38  1  0  0  0
 12 14  1  0  0  0
 14 15  1  0  0  0
 14 52  1  0  0  0
 14 53  1  0  0  0
 15 26  1  0  0  0
 15 16  2  0  0  0
 16 17  1  0  0  0
 16 36  1  0  0  0
 17 18  1  0  0  0
 17 19  1  0  0  0
 17 27  1  0  0  0
 19 20  1  0  0  0
 19 54  1  0  0  0
 20 25  2  0  0  0
 20 21  1  0  0  0
 21 22  2  0  0  0
 21 55  1  0  0  0
 22 23  1  0  0  0
 22 56  1  0  0  0
 23 24  2  0  0  0
 23 57  1  0  0  0
 24 25  1  0  0  0
 24 58  1  0  0  0
 25 26  1  0  0  0
 26 59  1  0  0  0
 27 32  2  0  0  0
 27 28  1  0  0  0
 28 29  2  0  0  0
 28 60  1  0  0  0
 29 30  1  0  0  0
 29 61  1  0  0  0
 30 35  1  0  0  0
 30 31  2  0  0  0
 31 32  1  0  0  0
 31 33  1  0  0  0
 32 62  1  0  0  0
 33 34  1  0  0  0
 34 35  1  0  0  0
 34 63  1  0  0  0
 34 64  1  0  0  0
 36 37  2  0  0  0
 36 38  1  0  0  0
 38 65  1  0  0  0
 38 66  1  0  0  0
M  END
> <i_i_glide_confnum>
180

> <i_i_glide_lignum>
5989

> <i_i_glide_posenum>
259

> <i_i_glide_rotatable_bonds>
5

> <i_m_Source_File_Index>
905

> <b_m_subgroup_collapsed>
0

> <r_i_docking_score>
-4.57584

> <r_i_glide_ecoul>
-1.86129

> <r_i_glide_eff_state_penalty>
0

> <r_i_glide_einternal>
6.35536

> <r_i_glide_emodel>
-49.6611

> <r_i_glide_energy>
-41.7881

> <r_i_glide_erotb>
0.348592

> <r_i_glide_esite>
-0.0444957

> <r_i_glide_evdw>
-39.9268

> <r_i_glide_gscore>
-4.57584

> <r_i_glide_hbond>
-0.0806906

> <r_i_glide_ligand_efficiency>
-0.127107

> <r_i_glide_ligand_efficiency_ln>
-0.998325

> <r_i_glide_ligand_efficiency_sa>
-0.419697

> <r_i_glide_lipo>
-2.29764

> <r_i_glide_metal>
0

> <r_i_glide_rewards>
-0.226073

> <s_i_glide_gridfile>
wee1_glide-grid

> <s_m_Source_File>
wee1_decoys_glide_SP.sdf

> <s_m_Source_Path>
/Users/zhangxujun/Desktop

> <s_m_entry_id>
1180

> <s_m_entry_name>
wee1_decoys_glide_SP.905

> <s_m_subgroup_title>
wee1_decoys_glide_SP

> <s_m_subgroupid>
wee1_decoys_glide_SP


$$$$
