ZINC37136564_1832
                    3D
 Schrodinger Suite 2024-2.
 42 44  0  0  1  0            999 V2000
    5.4192   54.4974   24.6359 C   0  0  0  0  0  0
    5.2049   54.1413   23.3060 C   0  0  0  0  0  0
    3.9226   53.7762   22.8840 C   0  0  0  0  0  0
    2.8721   53.7316   23.7973 C   0  0  0  0  0  0
    3.1032   54.0497   25.1332 C   0  0  0  0  0  0
    4.3720   54.4598   25.5617 C   0  0  0  0  0  0
    4.6724   54.8692   26.8779 N   0  0  0  0  0  0
    3.9880   54.4324   28.1032 C   0  0  0  0  0  0
    3.9476   52.8971   28.1889 C   0  0  0  0  0  0
    3.3027   52.4274   29.5120 C   0  0  0  0  0  0
    1.9006   53.0303   29.6286 C   0  0  0  0  0  0
    1.9562   54.5673   29.6413 C   0  0  0  0  0  0
    2.6016   55.0872   28.3423 C   0  0  0  0  0  0
    1.1141   52.6092   28.5558 O   0  0  0  0  0  0
   -0.0890   52.0342   29.0084 C   0  0  0  0  0  0
   -0.0952   52.3703   30.4906 C   0  0  0  0  0  0
    1.2706   52.5725   30.7770 O   0  0  0  0  0  0
    3.6564   53.4834   21.5402 N   0  0  0  0  0  0
    4.2743   52.5223   20.8338 C   0  0  0  0  0  0
    5.1042   51.7379   21.2811 O   0  0  0  0  0  0
    3.9060   52.4967   19.5589 N   0  0  0  0  0  0
    6.4099   54.7988   24.9406 H   0  0  0  0  0  0
    6.0253   54.1727   22.6028 H   0  0  0  0  0  0
    1.8812   53.4391   23.4801 H   0  0  0  0  0  0
    2.2716   53.9695   25.8072 H   0  0  0  0  0  0
    5.6571   55.0303   27.0222 H   0  0  0  0  0  0
    4.6289   54.7327   28.9351 H   0  0  0  0  0  0
    3.3670   52.4913   27.3631 H   0  0  0  0  0  0
    4.9549   52.4909   28.0977 H   0  0  0  0  0  0
    3.2363   51.3399   29.5583 H   0  0  0  0  0  0
    3.9052   52.7635   30.3572 H   0  0  0  0  0  0
    2.5646   54.8913   30.4815 H   0  0  0  0  0  0
    0.9537   54.9743   29.7852 H   0  0  0  0  0  0
    2.6977   56.1650   28.4320 H   0  0  0  0  0  0
    1.8943   54.8964   27.5421 H   0  0  0  0  0  0
   -0.9458   52.4961   28.5204 H   0  0  0  0  0  0
   -0.0897   50.9560   28.8441 H   0  0  0  0  0  0
   -0.6754   53.2570   30.7413 H   0  0  0  0  0  0
   -0.4952   51.5296   31.0572 H   0  0  0  0  0  0
    2.8757   53.9594   21.1117 H   0  0  0  0  0  0
    3.2152   53.1305   19.1926 H   0  0  0  0  0  0
    4.3473   51.8096   18.9510 H   0  0  0  0  0  0
  1  6  2  0  0  0
  1  2  1  0  0  0
  1 22  1  0  0  0
  2  3  2  0  0  0
  2 23  1  0  0  0
  3  4  1  0  0  0
  3 18  1  0  0  0
  4  5  2  0  0  0
  4 24  1  0  0  0
  5  6  1  0  0  0
  5 25  1  0  0  0
  6  7  1  0  0  0
  7  8  1  0  0  0
  7 26  1  0  0  0
  8 13  1  0  0  0
  8  9  1  0  0  0
  8 27  1  0  0  0
  9 10  1  0  0  0
  9 28  1  0  0  0
  9 29  1  0  0  0
 10 11  1  0  0  0
 10 30  1  0  0  0
 10 31  1  0  0  0
 11 17  1  0  0  0
 11 12  1  0  0  0
 11 14  1  0  0  0
 12 13  1  0  0  0
 12 32  1  0  0  0
 12 33  1  0  0  0
 13 34  1  0  0  0
 13 35  1  0  0  0
 14 15  1  0  0  0
 15 16  1  0  0  0
 15 36  1  0  0  0
 15 37  1  0  0  0
 16 17  1  0  0  0
 16 38  1  0  0  0
 16 39  1  0  0  0
 18 19  1  0  0  0
 18 40  1  0  0  0
 19 20  2  0  0  0
 19 21  1  0  0  0
 21 41  1  0  0  0
 21 42  1  0  0  0
M  END
> <i_i_glide_confnum>
30

> <i_i_glide_lignum>
1833

> <i_i_glide_posenum>
4

> <i_i_glide_rotatable_bonds>
4

> <i_m_Source_File_Index>
5296

> <b_m_subgroup_collapsed>
0

> <r_i_docking_score>
-5.74357

> <r_i_glide_ecoul>
-5.70407

> <r_i_glide_eff_state_penalty>
0

> <r_i_glide_einternal>
8.52926

> <r_i_glide_emodel>
-50.5501

> <r_i_glide_energy>
-40.9877

> <r_i_glide_erotb>
0.644642

> <r_i_glide_esite>
-0.0539435

> <r_i_glide_evdw>
-35.2837

> <r_i_glide_gscore>
-5.74357

> <r_i_glide_hbond>
-0.33922

> <r_i_glide_ligand_efficiency>
-0.273504

> <r_i_glide_ligand_efficiency_ln>
-1.42009

> <r_i_glide_ligand_efficiency_sa>
-0.754576

> <r_i_glide_lipo>
-2.49758

> <r_i_glide_metal>
0

> <r_i_glide_rewards>
-0.877677

> <s_i_glide_gridfile>
wee1_glide-grid

> <s_m_Source_File>
wee1_decoys_glide_SP.sdf

> <s_m_Source_Path>
/Users/zhangxujun/Desktop

> <s_m_entry_id>
5571

> <s_m_entry_name>
wee1_decoys_glide_SP.5296

> <s_m_subgroup_title>
wee1_decoys_glide_SP

> <s_m_subgroupid>
wee1_decoys_glide_SP


$$$$
