ZINC33631716_2914
                    3D
 Schrodinger Suite 2024-2.
 77 80  0  0  1  0            999 V2000
    2.4581   52.1161   28.5184 C   0  0  0  0  0  0
    1.1290   51.4147   28.2102 C   0  0  0  0  0  0
    0.0328   52.3845   27.7327 C   0  0  0  0  0  0
   -1.3370   51.7111   27.4792 C   0  0  0  0  0  0
   -1.4049   50.6764   26.3213 C   0  0  1  0  0  0
   -0.7297   49.8597   26.5856 H   0  0  0  0  0  0
   -2.8250   50.0509   26.2393 C   0  0  0  0  0  0
   -2.9595   48.8545   25.2789 C   0  0  0  0  0  0
   -0.9657   51.2812   24.9690 C   0  0  0  0  0  0
   -1.5046   52.3131   24.5639 O   0  0  0  0  0  0
    0.0089   50.6143   24.3131 N   0  0  0  0  0  0
    0.5969   50.8842   23.0636 C   0  0  0  0  0  0
    0.1652   51.8776   22.1697 C   0  0  0  0  0  0
    0.8211   52.0607   20.9559 C   0  0  0  0  0  0
    1.9106   51.2560   20.6189 C   0  0  0  0  0  0
    2.3258   50.2535   21.4969 C   0  0  0  0  0  0
    1.6776   50.0736   22.7137 C   0  0  0  0  0  0
    2.6687   51.4846   19.3056 C   0  0  2  0  0  0
    3.4820   50.7561   19.2817 H   0  0  0  0  0  0
    3.3324   52.8718   19.1922 C   0  0  0  0  0  0
    3.1054   53.6979   18.1441 C   0  0  0  0  0  0
    2.1929   53.3119   17.1978 N   0  3  0  0  0  0
    1.5502   52.1396   17.1789 C   0  0  0  0  0  0
    1.8817   51.1991   18.0818 N   0  0  0  0  0  0
    1.4945   49.7792   17.9429 C   0  0  0  0  0  0
    0.9131   49.5000   16.5456 C   0  0  0  0  0  0
   -0.2931   50.3826   16.1927 C   0  0  0  0  0  0
    0.2097   52.1148   16.0835 S   0  0  0  0  0  0
    3.6972   55.0827   17.9043 C   0  0  0  0  0  0
    4.3178   53.1866   20.2012 C   0  0  0  0  0  0
    5.5044   52.9433   20.0139 O   0  0  0  0  0  0
    3.8045   53.7337   21.3234 N   0  0  0  0  0  0
    4.4980   54.0952   22.4928 C   0  0  0  0  0  0
    3.7876   54.0596   23.6948 C   0  0  0  0  0  0
    4.4288   54.3632   24.8951 C   0  0  0  0  0  0
    5.7847   54.7286   24.9025 C   0  0  0  0  0  0
    6.4698   54.8128   23.6943 C   0  0  0  0  0  0
    5.8407   54.4957   22.4955 C   0  0  0  0  0  0
    6.5113   55.0217   26.0389 O   0  0  0  0  0  0
    5.9566   54.6943   27.3080 C   0  0  0  0  0  0
    3.1913   51.4019   28.8920 H   0  0  0  0  0  0
    2.3370   52.8868   29.2784 H   0  0  0  0  0  0
    2.8768   52.5826   27.6253 H   0  0  0  0  0  0
    1.2982   50.6467   27.4569 H   0  0  0  0  0  0
    0.7815   50.8965   29.1047 H   0  0  0  0  0  0
   -0.1049   53.1608   28.4876 H   0  0  0  0  0  0
    0.3664   52.8998   26.8322 H   0  0  0  0  0  0
   -1.6584   51.2311   28.4053 H   0  0  0  0  0  0
   -2.0712   52.4946   27.2819 H   0  0  0  0  0  0
   -3.1147   49.7045   27.2326 H   0  0  0  0  0  0
   -3.5571   50.8142   25.9730 H   0  0  0  0  0  0
   -3.9700   48.4444   25.3099 H   0  0  0  0  0  0
   -2.7505   49.1366   24.2464 H   0  0  0  0  0  0
   -2.2719   48.0556   25.5592 H   0  0  0  0  0  0
    0.3785   49.8008   24.7839 H   0  0  0  0  0  0
   -0.6714   52.5197   22.3891 H   0  0  0  0  0  0
    0.4946   52.8400   20.2809 H   0  0  0  0  0  0
    3.1612   49.6171   21.2470 H   0  0  0  0  0  0
    2.0265   49.2976   23.3804 H   0  0  0  0  0  0
    2.3648   49.1527   18.1152 H   0  0  0  0  0  0
    0.7672   49.5534   18.7232 H   0  0  0  0  0  0
    1.7033   49.6262   15.8008 H   0  0  0  0  0  0
    0.6252   48.4500   16.4872 H   0  0  0  0  0  0
   -0.7315   50.1026   15.2354 H   0  0  0  0  0  0
   -1.0701   50.3132   16.9544 H   0  0  0  0  0  0
    4.4208   55.0477   17.0871 H   0  0  0  0  0  0
    2.9165   55.8012   17.6471 H   0  0  0  0  0  0
    4.2109   55.4794   18.7846 H   0  0  0  0  0  0
    2.7983   53.8171   21.3540 H   0  0  0  0  0  0
    2.7478   53.7634   23.7118 H   0  0  0  0  0  0
    3.8628   54.3016   25.8094 H   0  0  0  0  0  0
    7.5042   55.1153   23.6867 H   0  0  0  0  0  0
    6.4101   54.5756   21.5815 H   0  0  0  0  0  0
    6.6965   54.8943   28.0816 H   0  0  0  0  0  0
    5.0738   55.2956   27.5265 H   0  0  0  0  0  0
    5.6948   53.6361   27.3707 H   0  0  0  0  0  0
    1.9555   53.9634   16.4652 H   0  0  0  0  0  0
  1  2  1  0  0  0
  1 41  1  0  0  0
  1 42  1  0  0  0
  1 43  1  0  0  0
  2  3  1  0  0  0
  2 44  1  0  0  0
  2 45  1  0  0  0
  3  4  1  0  0  0
  3 46  1  0  0  0
  3 47  1  0  0  0
  4  5  1  0  0  0
  4 48  1  0  0  0
  4 49  1  0  0  0
  5  6  1  0  0  0
  5  7  1  0  0  0
  5  9  1  0  0  0
  7  8  1  0  0  0
  7 50  1  0  0  0
  7 51  1  0  0  0
  8 52  1  0  0  0
  8 53  1  0  0  0
  8 54  1  0  0  0
  9 10  2  0  0  0
  9 11  1  0  0  0
 11 12  1  0  0  0
 11 55  1  0  0  0
 12 17  2  0  0  0
 12 13  1  0  0  0
 13 14  2  0  0  0
 13 56  1  0  0  0
 14 15  1  0  0  0
 14 57  1  0  0  0
 15 16  2  0  0  0
 15 18  1  0  0  0
 16 17  1  0  0  0
 16 58  1  0  0  0
 17 59  1  0  0  0
 18 19  1  0  0  0
 18 24  1  0  0  0
 18 20  1  0  0  0
 20 21  2  0  0  0
 20 30  1  0  0  0
 21 22  1  0  0  0
 21 29  1  0  0  0
 22 23  2  0  0  0
 22 77  1  0  0  0
 23 28  1  0  0  0
 23 24  1  0  0  0
 24 25  1  0  0  0
 25 26  1  0  0  0
 25 60  1  0  0  0
 25 61  1  0  0  0
 26 27  1  0  0  0
 26 62  1  0  0  0
 26 63  1  0  0  0
 27 28  1  0  0  0
 27 64  1  0  0  0
 27 65  1  0  0  0
 29 66  1  0  0  0
 29 67  1  0  0  0
 29 68  1  0  0  0
 30 31  2  0  0  0
 30 32  1  0  0  0
 32 33  1  0  0  0
 32 69  1  0  0  0
 33 38  2  0  0  0
 33 34  1  0  0  0
 34 35  2  0  0  0
 34 70  1  0  0  0
 35 36  1  0  0  0
 35 71  1  0  0  0
 36 37  2  0  0  0
 36 39  1  0  0  0
 37 38  1  0  0  0
 37 72  1  0  0  0
 38 73  1  0  0  0
 39 40  1  0  0  0
 40 74  1  0  0  0
 40 75  1  0  0  0
 40 76  1  0  0  0
M  CHG  1  22   1
M  END
> <i_i_glide_confnum>
342

> <i_i_glide_lignum>
2915

> <i_i_glide_posenum>
242

> <i_i_glide_rotatable_bonds>
12

> <i_m_Source_File_Index>
876

> <b_m_subgroup_collapsed>
0

> <r_i_docking_score>
-5.28706

> <r_i_glide_ecoul>
-6.9187

> <r_i_glide_eff_state_penalty>
0

> <r_i_glide_einternal>
4.59585

> <r_i_glide_emodel>
-65.5474

> <r_i_glide_energy>
-50.0623

> <r_i_glide_erotb>
0.647444

> <r_i_glide_esite>
-0.121011

> <r_i_glide_evdw>
-43.1436

> <r_i_glide_gscore>
-5.28706

> <r_i_glide_hbond>
-0.184472

> <r_i_glide_ligand_efficiency>
-0.139133

> <r_i_glide_ligand_efficiency_ln>
-1.14005

> <r_i_glide_ligand_efficiency_sa>
-0.467762

> <r_i_glide_lipo>
-2.46583

> <r_i_glide_metal>
0

> <r_i_glide_rewards>
0.0317992

> <s_i_glide_gridfile>
wee1_glide-grid

> <s_m_Source_File>
wee1_decoys_glide_SP.sdf

> <s_m_Source_Path>
/Users/zhangxujun/Desktop

> <s_m_entry_id>
1151

> <s_m_entry_name>
wee1_decoys_glide_SP.876

> <s_m_subgroup_title>
wee1_decoys_glide_SP

> <s_m_subgroupid>
wee1_decoys_glide_SP


$$$$
