ZINC26841482_771
                    3D
 Schrodinger Suite 2024-2.
 57 61  0  0  1  0            999 V2000
    5.7273   54.6810   28.6708 C   0  0  0  0  0  0
    4.7967   53.5064   28.3311 C   0  0  0  0  0  0
    3.5196   53.9149   27.7159 N   0  0  0  0  0  0
    2.3644   54.0503   28.4954 C   0  0  0  0  0  0
    2.5416   54.7379   29.6814 N   0  5  0  0  0  0
    1.2022   53.5452   28.0336 C   0  0  0  0  0  0
    1.1044   52.9172   26.7062 C   0  0  0  0  0  0
    2.2073   53.3124   25.7786 C   0  0  0  0  0  0
    3.3640   53.7786   26.3321 C   0  0  0  0  0  0
    4.4222   54.1501   25.5360 N   0  3  0  0  0  0
    4.4224   54.1116   24.1943 C   0  0  0  0  0  0
    5.5653   54.4946   23.4668 C   0  0  0  0  0  0
    5.4973   54.3932   22.1198 C   0  0  0  0  0  0
    4.3001   53.9349   21.4622 C   0  0  0  0  0  0
    3.2170   53.6257   22.1839 C   0  0  0  0  0  0
    3.2631   53.7099   23.5731 N   0  0  0  0  0  0
    2.0097   53.3708   24.3278 C   0  0  0  0  0  0
    0.9588   53.2452   23.6917 O   0  0  0  0  0  0
    6.8046   55.0828   24.1162 C   0  0  0  0  0  0
    0.1214   52.0032   26.4443 C   0  0  0  0  0  0
    0.0095   51.1911   25.3675 N   0  0  0  0  0  0
   -1.0267   50.4587   25.3493 C   0  0  0  0  0  0
   -1.9750   50.6618   26.4804 C   0  0  0  0  0  0
   -1.1945   51.6976   27.6112 S   0  0  0  0  0  0
   -3.1814   50.0959   26.5853 N   0  3  0  0  0  0
   -4.0941   50.2711   27.6562 C   0  0  0  0  0  0
   -4.2118   51.2907   28.3375 O   0  0  0  0  0  0
   -4.9571   49.0337   27.8724 C   0  0  0  0  0  0
   -1.2678   49.4592   24.2873 C   0  0  0  0  0  0
   -1.7813   48.1892   24.5943 C   0  0  0  0  0  0
   -1.9994   47.2583   23.5835 C   0  0  0  0  0  0
   -1.6959   47.5837   22.2644 C   0  0  0  0  0  0
   -1.1693   48.8337   21.9475 C   0  0  0  0  0  0
   -0.9521   49.7692   22.9562 C   0  0  0  0  0  0
   -1.8998   46.6725   21.2869 F   0  0  0  0  0  0
    6.7054   54.3130   28.9819 H   0  0  0  0  0  0
    5.8914   55.3371   27.8159 H   0  0  0  0  0  0
    5.3407   55.2858   29.4976 H   0  0  0  0  0  0
    4.5960   52.9341   29.2387 H   0  0  0  0  0  0
    5.3180   52.8044   27.6759 H   0  0  0  0  0  0
    1.6102   54.8012   30.1190 H   0  0  0  0  0  0
    0.3150   53.6845   28.6330 H   0  0  0  0  0  0
    6.3346   54.7043   21.5099 H   0  0  0  0  0  0
    4.2667   53.8639   20.3827 H   0  0  0  0  0  0
    2.2970   53.2951   21.7187 H   0  0  0  0  0  0
    7.5041   55.4688   23.3757 H   0  0  0  0  0  0
    6.5342   55.9114   24.7701 H   0  0  0  0  0  0
    7.3063   54.3197   24.7087 H   0  0  0  0  0  0
   -3.4692   49.4418   25.8670 H   0  0  0  0  0  0
   -5.5780   48.8291   27.0007 H   0  0  0  0  0  0
   -4.3277   48.1659   28.0805 H   0  0  0  0  0  0
   -5.6134   49.1791   28.7301 H   0  0  0  0  0  0
   -1.9807   47.9016   25.6183 H   0  0  0  0  0  0
   -2.3896   46.2815   23.8218 H   0  0  0  0  0  0
   -0.9270   49.0736   20.9226 H   0  0  0  0  0  0
   -0.5396   50.7352   22.6983 H   0  0  0  0  0  0
    5.2740   54.4561   25.9822 H   0  0  0  0  0  0
  1  2  1  0  0  0
  1 36  1  0  0  0
  1 37  1  0  0  0
  1 38  1  0  0  0
  2  3  1  0  0  0
  2 39  1  0  0  0
  2 40  1  0  0  0
  3  9  1  0  0  0
  3  4  1  0  0  0
  4  5  1  0  0  0
  4  6  2  0  0  0
  5 41  1  0  0  0
  6  7  1  0  0  0
  6 42  1  0  0  0
  7  8  1  0  0  0
  7 20  2  3  0  0
  8 17  1  0  0  0
  8  9  2  0  0  0
  9 10  1  0  0  0
 10 11  2  0  0  0
 10 57  1  0  0  0
 11 16  1  0  0  0
 11 12  1  0  0  0
 12 13  2  0  0  0
 12 19  1  0  0  0
 13 14  1  0  0  0
 13 43  1  0  0  0
 14 15  2  0  0  0
 14 44  1  0  0  0
 15 16  1  0  0  0
 15 45  1  0  0  0
 16 17  1  0  0  0
 17 18  2  0  0  0
 19 46  1  0  0  0
 19 47  1  0  0  0
 19 48  1  0  0  0
 20 24  1  0  0  0
 20 21  1  0  0  0
 21 22  2  0  0  0
 22 23  1  0  0  0
 22 29  1  0  0  0
 23 24  1  0  0  0
 23 25  2  0  0  0
 25 26  1  0  0  0
 25 49  1  0  0  0
 26 27  2  0  0  0
 26 28  1  0  0  0
 28 50  1  0  0  0
 28 51  1  0  0  0
 28 52  1  0  0  0
 29 34  2  0  0  0
 29 30  1  0  0  0
 30 31  2  0  0  0
 30 53  1  0  0  0
 31 32  1  0  0  0
 31 54  1  0  0  0
 32 33  2  0  0  0
 32 35  1  0  0  0
 33 34  1  0  0  0
 33 55  1  0  0  0
 34 56  1  0  0  0
M  CHG  3   5  -1  10   1  25   1
M  END
> <i_i_glide_confnum>
2

> <i_i_glide_lignum>
772

> <i_i_glide_posenum>
156

> <i_i_glide_rotatable_bonds>
3

> <i_m_Source_File_Index>
1136

> <b_m_subgroup_collapsed>
0

> <r_i_docking_score>
-5.18908

> <r_i_glide_ecoul>
2.17578

> <r_i_glide_eff_state_penalty>
0

> <r_i_glide_einternal>
1.67062

> <r_i_glide_emodel>
-56.9241

> <r_i_glide_energy>
-40.8324

> <r_i_glide_erotb>
0.16978

> <r_i_glide_esite>
-0.267616

> <r_i_glide_evdw>
-43.0082

> <r_i_glide_gscore>
-5.18908

> <r_i_glide_hbond>
-0.0958547

> <r_i_glide_ligand_efficiency>
-0.148259

> <r_i_glide_ligand_efficiency_ln>
-1.13912

> <r_i_glide_ligand_efficiency_sa>
-0.484966

> <r_i_glide_lipo>
-2.21523

> <r_i_glide_metal>
0

> <r_i_glide_rewards>
-0.956109

> <s_i_glide_gridfile>
wee1_glide-grid

> <s_m_Source_File>
wee1_decoys_glide_SP.sdf

> <s_m_Source_Path>
/Users/zhangxujun/Desktop

> <s_m_entry_id>
1411

> <s_m_entry_name>
wee1_decoys_glide_SP.1136

> <s_m_subgroup_title>
wee1_decoys_glide_SP

> <s_m_subgroupid>
wee1_decoys_glide_SP


$$$$
