ZINC62214258_236
                    3D
 Schrodinger Suite 2024-2.
 58 61  0  0  1  0            999 V2000
   -0.0700   52.3532   30.8327 C   0  0  0  0  0  0
    1.1998   53.2092   30.6314 N   0  3  0  0  0  0
    1.0092   54.2447   29.5092 C   0  0  0  0  0  0
    2.2961   55.0839   29.3965 C   0  0  0  0  0  0
    3.5035   54.2778   29.1495 N   0  0  0  0  0  0
    3.6801   53.1526   30.0791 C   0  0  0  0  0  0
    2.4085   52.3061   30.3134 C   0  0  0  0  0  0
    4.2114   54.3405   27.9591 C   0  0  0  0  0  0
    5.6088   54.3717   27.9829 C   0  0  0  0  0  0
    6.3340   54.4849   26.7998 C   0  0  0  0  0  0
    5.6683   54.5560   25.5755 C   0  0  0  0  0  0
    4.2665   54.4960   25.5450 C   0  0  0  0  0  0
    3.5473   54.3781   26.7304 C   0  0  0  0  0  0
    6.4536   54.7648   24.4272 N   0  0  0  0  0  0
    6.1371   54.4967   23.1441 C   0  0  0  0  0  0
    5.1648   53.8214   22.7966 O   0  0  0  0  0  0
    7.1021   55.0949   22.1078 C   0  0  0  0  0  0
    6.4987   55.0922   20.7718 N   0  0  0  0  0  0
    6.3549   56.1683   19.9880 C   0  0  0  0  0  0
    6.7044   57.2967   20.3396 O   0  0  0  0  0  0
    5.7588   55.8923   18.5918 C   0  0  1  0  0  0
    5.2344   54.9411   18.4926 H   0  0  0  0  0  0
    5.1883   57.0963   17.8510 C   0  0  0  0  0  0
    6.4728   56.4611   17.3712 C   0  0  1  0  0  0
    6.3686   55.8558   16.4695 H   0  0  0  0  0  0
    7.8089   57.1939   17.3995 C   0  0  0  0  0  0
    8.9758   56.4822   17.6864 C   0  0  0  0  0  0
   10.2059   57.1352   17.6875 C   0  0  0  0  0  0
   10.2625   58.4985   17.4050 C   0  0  0  0  0  0
    9.1013   59.2137   17.1145 C   0  0  0  0  0  0
    7.8725   58.5599   17.1079 C   0  0  0  0  0  0
   -0.2717   51.7829   29.9228 H   0  0  0  0  0  0
    0.1210   51.6969   31.6801 H   0  0  0  0  0  0
   -0.8937   53.0215   31.0758 H   0  0  0  0  0  0
    0.1815   54.8773   29.8302 H   0  0  0  0  0  0
    0.7541   53.7137   28.5896 H   0  0  0  0  0  0
    2.1722   55.8406   28.6188 H   0  0  0  0  0  0
    2.4702   55.6276   30.3253 H   0  0  0  0  0  0
    4.0133   53.6098   31.0076 H   0  0  0  0  0  0
    4.4908   52.4978   29.7526 H   0  0  0  0  0  0
    2.5338   51.6964   31.2080 H   0  0  0  0  0  0
    2.1450   51.6952   29.4465 H   0  0  0  0  0  0
    6.1399   54.3417   28.9236 H   0  0  0  0  0  0
    7.4118   54.5203   26.8511 H   0  0  0  0  0  0
    3.7190   54.5657   24.6166 H   0  0  0  0  0  0
    2.4687   54.3379   26.6898 H   0  0  0  0  0  0
    7.3489   55.2057   24.5731 H   0  0  0  0  0  0
    7.3973   56.0976   22.4146 H   0  0  0  0  0  0
    8.0108   54.4967   22.0815 H   0  0  0  0  0  0
    6.1386   54.2042   20.4520 H   0  0  0  0  0  0
    4.2839   56.9685   17.2547 H   0  0  0  0  0  0
    5.2495   58.0966   18.2758 H   0  0  0  0  0  0
    8.9292   55.4265   17.9085 H   0  0  0  0  0  0
   11.1087   56.5859   17.9166 H   0  0  0  0  0  0
   11.2174   59.0028   17.4080 H   0  0  0  0  0  0
    9.1492   60.2680   16.8862 H   0  0  0  0  0  0
    6.9747   59.1180   16.8797 H   0  0  0  0  0  0
    1.3798   53.7121   31.4903 H   0  0  0  0  0  0
  1  2  1  0  0  0
  1 32  1  0  0  0
  1 33  1  0  0  0
  1 34  1  0  0  0
  2  7  1  0  0  0
  2  3  1  0  0  0
  2 58  1  0  0  0
  3  4  1  0  0  0
  3 35  1  0  0  0
  3 36  1  0  0  0
  4  5  1  0  0  0
  4 37  1  0  0  0
  4 38  1  0  0  0
  5  6  1  0  0  0
  5  8  1  0  0  0
  6  7  1  0  0  0
  6 39  1  0  0  0
  6 40  1  0  0  0
  7 41  1  0  0  0
  7 42  1  0  0  0
  8 13  2  0  0  0
  8  9  1  0  0  0
  9 10  2  0  0  0
  9 43  1  0  0  0
 10 11  1  0  0  0
 10 44  1  0  0  0
 11 12  2  0  0  0
 11 14  1  0  0  0
 12 13  1  0  0  0
 12 45  1  0  0  0
 13 46  1  0  0  0
 14 15  1  0  0  0
 14 47  1  0  0  0
 15 16  2  0  0  0
 15 17  1  0  0  0
 17 18  1  0  0  0
 17 48  1  0  0  0
 17 49  1  0  0  0
 18 19  1  0  0  0
 18 50  1  0  0  0
 19 20  2  0  0  0
 19 21  1  0  0  0
 21 22  1  0  0  0
 21 24  1  0  0  0
 21 23  1  0  0  0
 23 24  1  0  0  0
 23 51  1  0  0  0
 23 52  1  0  0  0
 24 25  1  0  0  0
 24 26  1  0  0  0
 26 31  2  0  0  0
 26 27  1  0  0  0
 27 28  2  0  0  0
 27 53  1  0  0  0
 28 29  1  0  0  0
 28 54  1  0  0  0
 29 30  2  0  0  0
 29 55  1  0  0  0
 30 31  1  0  0  0
 30 56  1  0  0  0
 31 57  1  0  0  0
M  CHG  1   2   1
M  END
> <i_i_glide_confnum>
183

> <i_i_glide_lignum>
237

> <i_i_glide_posenum>
291

> <i_i_glide_rotatable_bonds>
8

> <i_m_Source_File_Index>
5774

> <b_m_subgroup_collapsed>
0

> <r_i_docking_score>
-5.6901

> <r_i_glide_ecoul>
-2.94084

> <r_i_glide_eff_state_penalty>
0

> <r_i_glide_einternal>
9.05267

> <r_i_glide_emodel>
-59.385

> <r_i_glide_energy>
-44.7711

> <r_i_glide_erotb>
1.0093

> <r_i_glide_esite>
-0.00503753

> <r_i_glide_evdw>
-41.8303

> <r_i_glide_gscore>
-5.6901

> <r_i_glide_hbond>
-0.32

> <r_i_glide_ligand_efficiency>
-0.19621

> <r_i_glide_ligand_efficiency_ln>
-1.30289

> <r_i_glide_ligand_efficiency_sa>
-0.602821

> <r_i_glide_lipo>
-2.39792

> <r_i_glide_metal>
0

> <r_i_glide_rewards>
-1.44381

> <s_i_glide_gridfile>
wee1_glide-grid

> <s_m_Source_File>
wee1_decoys_glide_SP.sdf

> <s_m_Source_Path>
/Users/zhangxujun/Desktop

> <s_m_entry_id>
6049

> <s_m_entry_name>
wee1_decoys_glide_SP.5774

> <s_m_subgroup_title>
wee1_decoys_glide_SP

> <s_m_subgroupid>
wee1_decoys_glide_SP


$$$$
