ZINC39609545_3061
                    3D
 Schrodinger Suite 2024-2.
 73 76  0  0  1  0            999 V2000
    5.6234   53.1602   28.3635 C   0  0  0  0  0  0
    5.4812   54.6582   28.0621 C   0  0  0  0  0  0
    6.1906   55.0225   26.8770 O   0  0  0  0  0  0
    5.6795   54.6966   25.6351 C   0  0  0  0  0  0
    6.4933   54.9771   24.5359 C   0  0  0  0  0  0
    6.0775   54.6706   23.2420 C   0  0  0  0  0  0
    4.8250   54.0950   23.0337 C   0  0  0  0  0  0
    3.9951   53.7942   24.1193 C   0  0  0  0  0  0
    4.4220   54.1060   25.4132 C   0  0  0  0  0  0
    2.6954   53.0257   23.8988 C   0  0  0  0  0  0
    1.3967   53.7660   24.2692 C   0  0  0  0  0  0
    0.2214   52.8874   24.2511 N   0  0  0  0  0  0
   -0.2225   52.2695   23.1425 C   0  0  0  0  0  0
    0.2742   52.4934   22.0376 O   0  0  0  0  0  0
   -1.4651   51.3427   23.2685 C   0  0  1  0  0  0
   -1.9166   51.4901   24.2472 H   0  0  0  0  0  0
   -2.4614   51.6384   22.1273 C   0  0  0  0  0  0
   -1.9575   50.8184   21.0153 N   0  0  0  0  0  0
   -1.0564   49.7530   21.4868 C   0  0  0  0  0  0
   -1.1147   49.8360   23.0287 C   0  0  0  0  0  0
    0.1594   49.2462   23.7000 C   0  0  0  0  0  0
    0.0712   49.2902   25.2399 C   0  0  0  0  0  0
   -1.1529   48.4580   25.6817 N   0  3  0  0  0  0
   -2.4768   48.8661   25.0037 C   0  0  0  0  0  0
   -2.2567   48.8667   23.4769 C   0  0  0  0  0  0
   -2.1534   51.1682   19.7186 C   0  0  0  0  0  0
   -2.8959   52.0961   19.3851 O   0  0  0  0  0  0
   -1.4347   50.3827   18.6501 C   0  0  0  0  0  0
   -0.0383   50.3885   18.5670 C   0  0  0  0  0  0
    0.6125   49.6558   17.5762 C   0  0  0  0  0  0
   -0.1171   48.9017   16.6406 C   0  0  0  0  0  0
   -1.5232   48.9125   16.7074 C   0  0  0  0  0  0
   -2.1677   49.6608   17.7039 C   0  0  0  0  0  0
   -2.3475   48.1088   15.6961 C   0  0  0  0  0  0
   -2.0977   48.5409   14.4596 F   0  0  0  0  0  0
   -2.0234   46.8167   15.7759 F   0  0  0  0  0  0
   -3.6614   48.2139   15.9088 F   0  0  0  0  0  0
    0.4751   48.1416   15.6452 O   0  0  0  0  0  0
    1.8945   48.0967   15.5400 C   0  0  0  0  0  0
    5.1049   52.8955   29.2825 H   0  0  0  0  0  0
    6.6737   52.8968   28.4812 H   0  0  0  0  0  0
    5.2134   52.5385   27.5682 H   0  0  0  0  0  0
    4.4346   54.9589   28.0125 H   0  0  0  0  0  0
    5.9038   55.2272   28.8884 H   0  0  0  0  0  0
    7.4630   55.4279   24.6826 H   0  0  0  0  0  0
    6.7246   54.8840   22.4029 H   0  0  0  0  0  0
    4.5210   53.8486   22.0258 H   0  0  0  0  0  0
    3.7771   53.8511   26.2383 H   0  0  0  0  0  0
    2.6557   52.7014   22.8583 H   0  0  0  0  0  0
    2.7048   52.1019   24.4764 H   0  0  0  0  0  0
    1.4985   54.1551   25.2814 H   0  0  0  0  0  0
    1.2689   54.6643   23.6617 H   0  0  0  0  0  0
   -0.2573   52.7407   25.1273 H   0  0  0  0  0  0
   -3.4471   51.2963   22.4438 H   0  0  0  0  0  0
   -2.4949   52.7111   21.9270 H   0  0  0  0  0  0
   -0.0391   50.0194   21.1970 H   0  0  0  0  0  0
   -1.2353   48.7548   21.0850 H   0  0  0  0  0  0
    0.3324   48.2225   23.3657 H   0  0  0  0  0  0
    1.0486   49.7939   23.3810 H   0  0  0  0  0  0
    0.9378   48.8307   25.7216 H   0  0  0  0  0  0
   -0.0699   50.2942   25.6401 H   0  0  0  0  0  0
   -0.9594   47.4847   25.4961 H   0  0  0  0  0  0
   -3.2167   48.1294   25.3222 H   0  0  0  0  0  0
   -2.7543   49.8353   25.4186 H   0  0  0  0  0  0
   -3.2004   49.1329   22.9978 H   0  0  0  0  0  0
   -2.0596   47.8505   23.1290 H   0  0  0  0  0  0
    0.5539   50.9690   19.2618 H   0  0  0  0  0  0
    1.6930   49.6880   17.5460 H   0  0  0  0  0  0
   -3.2484   49.6705   17.7559 H   0  0  0  0  0  0
    2.1741   47.4389   14.7183 H   0  0  0  0  0  0
    2.3044   49.0857   15.3235 H   0  0  0  0  0  0
    2.3445   47.6973   16.4491 H   0  0  0  0  0  0
   -1.2698   48.4981   26.7012 H   0  0  0  0  0  0
  1  2  1  0  0  0
  1 40  1  0  0  0
  1 41  1  0  0  0
  1 42  1  0  0  0
  2  3  1  0  0  0
  2 43  1  0  0  0
  2 44  1  0  0  0
  3  4  1  0  0  0
  4  9  2  0  0  0
  4  5  1  0  0  0
  5  6  2  0  0  0
  5 45  1  0  0  0
  6  7  1  0  0  0
  6 46  1  0  0  0
  7  8  2  0  0  0
  7 47  1  0  0  0
  8  9  1  0  0  0
  8 10  1  0  0  0
  9 48  1  0  0  0
 10 11  1  0  0  0
 10 49  1  0  0  0
 10 50  1  0  0  0
 11 12  1  0  0  0
 11 51  1  0  0  0
 11 52  1  0  0  0
 12 13  1  0  0  0
 12 53  1  0  0  0
 13 14  2  0  0  0
 13 15  1  0  0  0
 15 16  1  0  0  0
 15 20  1  0  0  0
 15 17  1  0  0  0
 17 18  1  0  0  0
 17 54  1  0  0  0
 17 55  1  0  0  0
 18 19  1  0  0  0
 18 26  1  0  0  0
 19 20  1  0  0  0
 19 56  1  0  0  0
 19 57  1  0  0  0
 20 25  1  0  0  0
 20 21  1  0  0  0
 21 22  1  0  0  0
 21 58  1  0  0  0
 21 59  1  0  0  0
 22 23  1  0  0  0
 22 60  1  0  0  0
 22 61  1  0  0  0
 23 24  1  0  0  0
 23 62  1  0  0  0
 23 73  1  0  0  0
 24 25  1  0  0  0
 24 63  1  0  0  0
 24 64  1  0  0  0
 25 65  1  0  0  0
 25 66  1  0  0  0
 26 27  2  0  0  0
 26 28  1  0  0  0
 28 33  2  0  0  0
 28 29  1  0  0  0
 29 30  2  0  0  0
 29 67  1  0  0  0
 30 31  1  0  0  0
 30 68  1  0  0  0
 31 32  2  0  0  0
 31 38  1  0  0  0
 32 33  1  0  0  0
 32 34  1  0  0  0
 33 69  1  0  0  0
 34 35  1  0  0  0
 34 36  1  0  0  0
 34 37  1  0  0  0
 38 39  1  0  0  0
 39 70  1  0  0  0
 39 71  1  0  0  0
 39 72  1  0  0  0
M  CHG  1  23   1
M  END
> <i_i_glide_confnum>
45

> <i_i_glide_lignum>
3062

> <i_i_glide_posenum>
39

> <i_i_glide_rotatable_bonds>
11

> <i_m_Source_File_Index>
4645

> <b_m_subgroup_collapsed>
0

> <r_i_docking_score>
-5.95355

> <r_i_glide_ecoul>
-10.0476

> <r_i_glide_eff_state_penalty>
0

> <r_i_glide_einternal>
3.37668

> <r_i_glide_emodel>
-60.8145

> <r_i_glide_energy>
-43.4377

> <r_i_glide_erotb>
0.577752

> <r_i_glide_esite>
-0.113528

> <r_i_glide_evdw>
-33.3901

> <r_i_glide_gscore>
-5.95355

> <r_i_glide_hbond>
-0.52

> <r_i_glide_ligand_efficiency>
-0.156672

> <r_i_glide_ligand_efficiency_ln>
-1.28376

> <r_i_glide_ligand_efficiency_sa>
-0.526729

> <r_i_glide_lipo>
-2.61134

> <r_i_glide_metal>
0

> <r_i_glide_rewards>
-0.109794

> <s_i_glide_gridfile>
wee1_glide-grid

> <s_m_Source_File>
wee1_decoys_glide_SP.sdf

> <s_m_Source_Path>
/Users/zhangxujun/Desktop

> <s_m_entry_id>
4920

> <s_m_entry_name>
wee1_decoys_glide_SP.4645

> <s_m_subgroup_title>
wee1_decoys_glide_SP

> <s_m_subgroupid>
wee1_decoys_glide_SP


$$$$
