ZINC44593512_1687
                    3D
 Schrodinger Suite 2024-2.
 35 36  0  0  1  0            999 V2000
    0.8335   53.8541   23.6817 C   0  0  0  0  0  0
    0.8012   53.0098   24.9418 C   0  0  0  0  0  0
    1.6151   53.3966   26.0027 C   0  0  0  0  0  0
    1.6537   52.6767   27.1886 C   0  0  0  0  0  0
    0.8172   51.5683   27.3416 C   0  0  0  0  0  0
   -0.0368   51.1898   26.2994 C   0  0  0  0  0  0
   -0.0454   51.8988   25.0821 C   0  0  0  0  0  0
   -0.9883   51.5022   23.9402 C   0  0  0  0  0  0
   -0.8785   50.0967   26.4817 N   0  0  0  0  0  0
    2.8359   53.1849   28.4355 S   0  0  0  0  0  0
    2.7017   54.6351   28.6177 O   0  0  0  0  0  0
    2.7384   52.2529   29.5655 O   0  0  0  0  0  0
    4.4080   52.8967   27.6817 N   0  0  0  0  0  0
    5.0311   53.7276   26.7851 C   0  0  0  0  0  0
    4.7756   54.0967   25.4716 C   0  0  0  0  0  0
    5.8189   54.9422   25.0970 C   0  0  0  0  0  0
    6.7044   55.0719   26.0503 N   0  0  0  0  0  0
    6.2517   54.2960   27.0464 N   0  0  0  0  0  0
    7.0778   54.0967   28.2177 C   0  0  0  0  0  0
    1.7277   54.4761   23.6203 H   0  0  0  0  0  0
    0.8224   53.2325   22.7858 H   0  0  0  0  0  0
   -0.0437   54.4967   23.6817 H   0  0  0  0  0  0
    2.2165   54.2869   25.9174 H   0  0  0  0  0  0
    0.8309   51.0008   28.2615 H   0  0  0  0  0  0
   -1.9016   51.0321   24.3040 H   0  0  0  0  0  0
   -0.4890   50.8165   23.2552 H   0  0  0  0  0  0
   -1.3281   52.3710   23.3772 H   0  0  0  0  0  0
   -0.8956   49.5466   27.3488 H   0  0  0  0  0  0
   -1.4361   49.7774   25.7064 H   0  0  0  0  0  0
    4.7044   51.9347   27.7609 H   0  0  0  0  0  0
    3.9631   53.7793   24.8391 H   0  0  0  0  0  0
    5.9432   55.4217   24.1367 H   0  0  0  0  0  0
    7.2590   53.0309   28.3530 H   0  0  0  0  0  0
    8.0306   54.6020   28.0817 H   0  0  0  0  0  0
    6.5593   54.4962   29.0892 H   0  0  0  0  0  0
  1  2  1  0  0  0
  1 20  1  0  0  0
  1 21  1  0  0  0
  1 22  1  0  0  0
  2  7  2  0  0  0
  2  3  1  0  0  0
  3  4  2  0  0  0
  3 23  1  0  0  0
  4  5  1  0  0  0
  4 10  1  0  0  0
  5  6  2  0  0  0
  5 24  1  0  0  0
  6  7  1  0  0  0
  6  9  1  0  0  0
  7  8  1  0  0  0
  8 25  1  0  0  0
  8 26  1  0  0  0
  8 27  1  0  0  0
  9 28  1  0  0  0
  9 29  1  0  0  0
 10 11  2  0  0  0
 10 12  2  0  0  0
 10 13  1  0  0  0
 13 14  1  0  0  0
 13 30  1  0  0  0
 14 18  1  0  0  0
 14 15  2  0  0  0
 15 16  1  0  0  0
 15 31  1  0  0  0
 16 17  2  0  0  0
 16 32  1  0  0  0
 17 18  1  0  0  0
 18 19  1  0  0  0
 19 33  1  0  0  0
 19 34  1  0  0  0
 19 35  1  0  0  0
M  END
> <i_i_glide_confnum>
10

> <i_i_glide_lignum>
1688

> <i_i_glide_posenum>
215

> <i_i_glide_rotatable_bonds>
3

> <i_m_Source_File_Index>
4851

> <b_m_subgroup_collapsed>
0

> <r_i_docking_score>
-6.25951

> <r_i_glide_ecoul>
-6.734

> <r_i_glide_eff_state_penalty>
0

> <r_i_glide_einternal>
1.63283

> <r_i_glide_emodel>
-45.4041

> <r_i_glide_energy>
-33.8244

> <r_i_glide_erotb>
0.689305

> <r_i_glide_esite>
-0.1

> <r_i_glide_evdw>
-27.0904

> <r_i_glide_gscore>
-6.25951

> <r_i_glide_hbond>
-0.443001

> <r_i_glide_ligand_efficiency>
-0.329448

> <r_i_glide_ligand_efficiency_ln>
-1.58692

> <r_i_glide_ligand_efficiency_sa>
-0.879099

> <r_i_glide_lipo>
-1.62874

> <r_i_glide_metal>
0

> <r_i_glide_rewards>
-2.41245

> <s_i_glide_gridfile>
wee1_glide-grid

> <s_m_Source_File>
wee1_decoys_glide_SP.sdf

> <s_m_Source_Path>
/Users/zhangxujun/Desktop

> <s_m_entry_id>
5126

> <s_m_entry_name>
wee1_decoys_glide_SP.4851

> <s_m_subgroup_title>
wee1_decoys_glide_SP

> <s_m_subgroupid>
wee1_decoys_glide_SP


$$$$
