ZINC13369739_2245
                    3D
 Schrodinger Suite 2024-2.
 63 66  0  0  1  0            999 V2000
    3.9571   53.0446   19.4799 C   0  0  0  0  0  0
    4.4421   52.7927   20.8998 C   0  0  0  0  0  0
    4.6734   51.6481   21.2793 O   0  0  0  0  0  0
    4.5931   53.8771   21.6784 N   0  0  0  0  0  0
    5.0458   53.8907   23.0796 C   0  0  2  0  0  0
    5.4561   52.8978   23.2785 H   0  0  0  0  0  0
    3.9063   54.1298   24.1079 C   0  0  2  0  0  0
    3.5314   55.1470   23.9941 H   0  0  0  0  0  0
    4.4586   53.9412   25.5293 C   0  0  1  0  0  0
    4.7279   52.8968   25.6684 H   0  0  0  0  0  0
    5.7026   54.8140   25.7385 C   0  0  1  0  0  0
    5.3843   55.8570   25.6821 H   0  0  0  0  0  0
    6.1957   54.5484   27.1762 C   0  0  0  0  0  0
    5.1253   54.7508   28.1177 O   0  0  0  0  0  0
    3.9907   53.9735   27.7948 C   0  0  2  0  0  0
    4.2708   52.9171   27.8517 H   0  0  0  0  0  0
    3.5038   54.3086   26.5204 O   0  0  0  0  0  0
    2.8527   54.2101   28.8008 C   0  0  0  0  0  0
    2.5315   55.5017   29.2236 C   0  0  0  0  0  0
    1.4582   55.7130   30.0819 C   0  0  0  0  0  0
    0.7049   54.6247   30.5206 C   0  0  0  0  0  0
    1.0179   53.3301   30.1103 C   0  0  0  0  0  0
    2.0916   53.1241   29.2469 C   0  0  0  0  0  0
    6.6949   54.5296   24.7307 O   0  0  0  0  0  0
    6.2329   54.8341   23.4249 C   0  0  1  0  0  0
    5.9908   55.8801   23.5268 H   0  0  0  0  0  0
    7.2659   54.6824   22.4818 O   0  0  0  0  0  0
    7.3448   55.4697   21.3344 C   0  0  0  0  0  0
    8.5453   55.4432   20.6311 C   0  0  0  0  0  0
    8.7008   56.0974   19.4149 C   0  0  0  0  0  0
    7.6520   56.8587   18.8820 C   0  0  0  0  0  0
    6.4472   56.9093   19.5946 C   0  0  0  0  0  0
    6.3046   56.2341   20.8022 C   0  0  0  0  0  0
    7.8540   57.6169   17.5457 C   0  0  0  0  0  0
    9.1004   58.5320   17.6395 C   0  0  0  0  0  0
    6.6531   58.5238   17.1663 C   0  0  0  0  0  0
    8.0538   56.5936   16.4020 C   0  0  0  0  0  0
    2.7871   53.2947   23.8700 O   0  0  0  0  0  0
    4.3328   53.9942   19.0956 H   0  0  0  0  0  0
    4.3039   52.2510   18.8167 H   0  0  0  0  0  0
    2.8659   53.0663   19.4499 H   0  0  0  0  0  0
    4.3957   54.7720   21.2560 H   0  0  0  0  0  0
    6.5963   53.5397   27.2907 H   0  0  0  0  0  0
    7.0136   55.2257   27.4237 H   0  0  0  0  0  0
    3.1046   56.3477   28.8842 H   0  0  0  0  0  0
    1.2132   56.7142   30.4087 H   0  0  0  0  0  0
   -0.1212   54.7842   31.1947 H   0  0  0  0  0  0
    0.4258   52.4944   30.4549 H   0  0  0  0  0  0
    2.3171   52.1233   28.9108 H   0  0  0  0  0  0
    9.3783   54.8968   21.0310 H   0  0  0  0  0  0
    9.6489   56.0243   18.9041 H   0  0  0  0  0  0
    5.5997   57.4679   19.2296 H   0  0  0  0  0  0
    5.3521   56.2868   21.2817 H   0  0  0  0  0  0
    9.2384   59.1161   16.7277 H   0  0  0  0  0  0
   10.0222   57.9690   17.7900 H   0  0  0  0  0  0
    9.0117   59.2380   18.4666 H   0  0  0  0  0  0
    5.7329   57.9532   17.0273 H   0  0  0  0  0  0
    6.4613   59.2901   17.9218 H   0  0  0  0  0  0
    6.8302   59.0565   16.2307 H   0  0  0  0  0  0
    7.1862   55.9395   16.2970 H   0  0  0  0  0  0
    8.2044   57.0875   15.4406 H   0  0  0  0  0  0
    8.9221   55.9537   16.5698 H   0  0  0  0  0  0
    2.5760   53.3390   22.9334 H   0  0  0  0  0  0
  1  2  1  0  0  0
  1 39  1  0  0  0
  1 40  1  0  0  0
  1 41  1  0  0  0
  2  3  2  0  0  0
  2  4  1  0  0  0
  4  5  1  0  0  0
  4 42  1  0  0  0
  5  6  1  0  0  0
  5 25  1  0  0  0
  5  7  1  0  0  0
  7  8  1  0  0  0
  7  9  1  0  0  0
  7 38  1  0  0  0
  9 10  1  0  0  0
  9 17  1  0  0  0
  9 11  1  0  0  0
 11 12  1  0  0  0
 11 13  1  0  0  0
 11 24  1  0  0  0
 13 14  1  0  0  0
 13 43  1  0  0  0
 13 44  1  0  0  0
 14 15  1  0  0  0
 15 16  1  0  0  0
 15 17  1  0  0  0
 15 18  1  0  0  0
 18 23  2  0  0  0
 18 19  1  0  0  0
 19 20  2  0  0  0
 19 45  1  0  0  0
 20 21  1  0  0  0
 20 46  1  0  0  0
 21 22  2  0  0  0
 21 47  1  0  0  0
 22 23  1  0  0  0
 22 48  1  0  0  0
 23 49  1  0  0  0
 24 25  1  0  0  0
 25 26  1  0  0  0
 25 27  1  0  0  0
 27 28  1  0  0  0
 28 33  2  0  0  0
 28 29  1  0  0  0
 29 30  2  0  0  0
 29 50  1  0  0  0
 30 31  1  0  0  0
 30 51  1  0  0  0
 31 32  2  0  0  0
 31 34  1  0  0  0
 32 33  1  0  0  0
 32 52  1  0  0  0
 33 53  1  0  0  0
 34 35  1  0  0  0
 34 36  1  0  0  0
 34 37  1  0  0  0
 35 54  1  0  0  0
 35 55  1  0  0  0
 35 56  1  0  0  0
 36 57  1  0  0  0
 36 58  1  0  0  0
 36 59  1  0  0  0
 37 60  1  0  0  0
 37 61  1  0  0  0
 37 62  1  0  0  0
 38 63  1  0  0  0
M  END
> <i_i_glide_confnum>
29

> <i_i_glide_lignum>
2246

> <i_i_glide_posenum>
136

> <i_i_glide_rotatable_bonds>
7

> <i_m_Source_File_Index>
6052

> <b_m_subgroup_collapsed>
0

> <r_i_docking_score>
-6.63186

> <r_i_glide_ecoul>
-3.73047

> <r_i_glide_eff_state_penalty>
0

> <r_i_glide_einternal>
7.7294

> <r_i_glide_emodel>
-57.5273

> <r_i_glide_energy>
-43.1744

> <r_i_glide_erotb>
0.40989

> <r_i_glide_esite>
0

> <r_i_glide_evdw>
-39.444

> <r_i_glide_gscore>
-6.63186

> <r_i_glide_hbond>
0

> <r_i_glide_ligand_efficiency>
-0.207246

> <r_i_glide_ligand_efficiency_ln>
-1.48506

> <r_i_glide_ligand_efficiency_sa>
-0.657964

> <r_i_glide_lipo>
-3.27027

> <r_i_glide_metal>
0

> <r_i_glide_rewards>
-1.23972

> <s_i_glide_gridfile>
wee1_glide-grid

> <s_m_Source_File>
wee1_decoys_glide_SP.sdf

> <s_m_Source_Path>
/Users/zhangxujun/Desktop

> <s_m_entry_id>
6327

> <s_m_entry_name>
wee1_decoys_glide_SP.6052

> <s_m_subgroup_title>
wee1_decoys_glide_SP

> <s_m_subgroupid>
wee1_decoys_glide_SP


$$$$
