ZINC36678185_4682
                    3D
 Schrodinger Suite 2024-2.
 43 44  0  0  1  0            999 V2000
   -3.0368   49.6456   24.8937 C   0  0  0  0  0  0
   -1.6075   49.9781   25.3797 C   0  0  2  0  0  0
   -1.5559   49.6069   26.4092 H   0  0  0  0  0  0
   -1.3971   51.5183   25.4333 C   0  0  0  0  0  0
   -0.2007   51.9517   26.1789 N   0  0  0  0  0  0
   -0.1852   52.0358   27.5255 C   0  0  0  0  0  0
   -1.0653   51.6943   28.3163 O   0  0  0  0  0  0
    1.1306   52.7215   27.8939 C   0  0  0  0  0  0
    1.9460   51.7197   28.7789 C   0  0  0  0  0  0
    3.1743   52.2320   29.5659 C   0  0  0  0  0  0
    4.1608   53.1133   28.7736 C   0  0  0  0  0  0
    4.2170   54.5926   29.2051 C   0  0  0  0  0  0
    2.8817   55.2991   29.5272 C   0  0  0  0  0  0
    1.7961   55.2380   28.4473 C   0  0  0  0  0  0
    0.7726   54.0808   28.5802 C   0  0  0  0  0  0
    1.6728   52.8972   26.5725 N   0  0  0  0  0  0
    0.9177   52.4240   25.5797 C   0  0  0  0  0  0
    1.2723   52.2958   24.4107 O   0  0  0  0  0  0
   -0.5304   49.2671   24.5464 C   0  0  0  0  0  0
   -0.3326   49.3866   22.8995 S   0  0  0  0  0  0
    0.3011   48.4992   25.2816 N   0  0  0  0  0  0
   -3.2100   48.5678   24.8810 H   0  0  0  0  0  0
   -3.7853   50.0774   25.5596 H   0  0  0  0  0  0
   -3.2318   50.0271   23.8894 H   0  0  0  0  0  0
   -1.3713   51.9209   24.4186 H   0  0  0  0  0  0
   -2.2686   51.9839   25.8976 H   0  0  0  0  0  0
    1.2867   51.2883   29.5310 H   0  0  0  0  0  0
    2.2726   50.8790   28.1627 H   0  0  0  0  0  0
    2.8445   52.7340   30.4747 H   0  0  0  0  0  0
    3.7141   51.3516   29.9258 H   0  0  0  0  0  0
    5.1639   52.6982   28.8802 H   0  0  0  0  0  0
    3.9720   53.0479   27.7035 H   0  0  0  0  0  0
    4.8585   54.6763   30.0814 H   0  0  0  0  0  0
    4.7370   55.1538   28.4269 H   0  0  0  0  0  0
    2.4753   54.9648   30.4812 H   0  0  0  0  0  0
    3.1045   56.3551   29.6814 H   0  0  0  0  0  0
    1.2326   56.1721   28.5044 H   0  0  0  0  0  0
    2.2660   55.2559   27.4668 H   0  0  0  0  0  0
   -0.1386   54.4838   28.1328 H   0  0  0  0  0  0
    0.5098   53.9200   29.6274 H   0  0  0  0  0  0
    2.3984   53.5777   26.4118 H   0  0  0  0  0  0
    0.1319   48.3604   26.2698 H   0  0  0  0  0  0
    1.0701   48.0212   24.8327 H   0  0  0  0  0  0
  1  2  1  0  0  0
  1 22  1  0  0  0
  1 23  1  0  0  0
  1 24  1  0  0  0
  2  3  1  0  0  0
  2  4  1  0  0  0
  2 19  1  0  0  0
  4  5  1  0  0  0
  4 25  1  0  0  0
  4 26  1  0  0  0
  5 17  1  0  0  0
  5  6  1  0  0  0
  6  7  2  0  0  0
  6  8  1  0  0  0
  8 15  1  0  0  0
  8  9  1  0  0  0
  8 16  1  0  0  0
  9 10  1  0  0  0
  9 27  1  0  0  0
  9 28  1  0  0  0
 10 11  1  0  0  0
 10 29  1  0  0  0
 10 30  1  0  0  0
 11 12  1  0  0  0
 11 31  1  0  0  0
 11 32  1  0  0  0
 12 13  1  0  0  0
 12 33  1  0  0  0
 12 34  1  0  0  0
 13 14  1  0  0  0
 13 35  1  0  0  0
 13 36  1  0  0  0
 14 15  1  0  0  0
 14 37  1  0  0  0
 14 38  1  0  0  0
 15 39  1  0  0  0
 15 40  1  0  0  0
 16 17  1  0  0  0
 16 41  1  0  0  0
 17 18  2  0  0  0
 19 20  2  0  0  0
 19 21  1  0  0  0
 21 42  1  0  0  0
 21 43  1  0  0  0
M  END
> <i_i_glide_confnum>
48

> <i_i_glide_lignum>
4683

> <i_i_glide_posenum>
364

> <i_i_glide_rotatable_bonds>
3

> <i_m_Source_File_Index>
2937

> <b_m_subgroup_collapsed>
0

> <r_i_docking_score>
-5.09072

> <r_i_glide_ecoul>
-2.70595

> <r_i_glide_eff_state_penalty>
0

> <r_i_glide_einternal>
0.351932

> <r_i_glide_emodel>
-38.3648

> <r_i_glide_energy>
-29.1897

> <r_i_glide_erotb>
0.207278

> <r_i_glide_esite>
-0.110729

> <r_i_glide_evdw>
-26.4837

> <r_i_glide_gscore>
-5.09072

> <r_i_glide_hbond>
-0.352572

> <r_i_glide_ligand_efficiency>
-0.254536

> <r_i_glide_ligand_efficiency_ln>
-1.27404

> <r_i_glide_ligand_efficiency_sa>
-0.690917

> <r_i_glide_lipo>
-1.58318

> <r_i_glide_metal>
0

> <r_i_glide_rewards>
-1.52143

> <s_i_glide_gridfile>
wee1_glide-grid

> <s_m_Source_File>
wee1_decoys_glide_SP.sdf

> <s_m_Source_Path>
/Users/zhangxujun/Desktop

> <s_m_entry_id>
3212

> <s_m_entry_name>
wee1_decoys_glide_SP.2937

> <s_m_subgroup_title>
wee1_decoys_glide_SP

> <s_m_subgroupid>
wee1_decoys_glide_SP


$$$$
