ZINC12572944_3513
                    3D
 Schrodinger Suite 2024-2.
 47 49  0  0  1  0            999 V2000
   -0.0224   48.7191   24.2936 C   0  0  0  0  0  0
    0.7211   49.5041   23.4094 C   0  0  0  0  0  0
    0.5930   50.8960   23.4266 C   0  0  0  0  0  0
   -0.3415   51.4878   24.2852 C   0  0  0  0  0  0
   -1.0627   50.7018   25.1918 C   0  0  0  0  0  0
   -0.8983   49.3162   25.1990 C   0  0  0  0  0  0
   -2.1271   51.4664   26.4084 S   0  0  0  0  0  0
   -2.2232   52.8966   26.1072 O   0  0  0  0  0  0
   -3.3309   50.6362   26.5083 O   0  0  0  0  0  0
   -1.2750   51.2967   27.9549 N   0  0  0  0  0  0
   -0.1357   52.0284   28.3270 C   0  0  0  0  0  0
    0.1886   52.0970   29.6823 C   0  0  0  0  0  0
    1.3572   52.7373   30.0941 C   0  0  0  0  0  0
    2.2046   53.3130   29.1456 C   0  0  0  0  0  0
    1.8700   53.2803   27.7945 C   0  0  0  0  0  0
    0.7027   52.6437   27.3927 C   0  0  0  0  0  0
    3.6915   54.1039   29.6816 S   0  0  0  0  0  0
    5.0117   53.7990   28.4736 C   0  0  0  0  0  0
    5.1846   52.4972   28.2616 F   0  0  0  0  0  0
    4.7859   54.4210   27.3172 F   0  0  0  0  0  0
    1.4397   51.6591   22.6046 N   0  0  0  0  0  0
    2.1918   52.6974   23.0287 C   0  0  0  0  0  0
    2.1464   53.1701   24.1671 O   0  0  0  0  0  0
    3.0614   53.0919   22.0773 N   0  0  0  0  0  0
    4.2571   53.8159   22.2525 C   0  0  0  0  0  0
    4.9844   53.8315   23.4547 C   0  0  0  0  0  0
    6.2072   54.4987   23.5348 C   0  0  0  0  0  0
    6.7046   55.1761   22.4220 C   0  0  0  0  0  0
    5.9824   55.1801   21.2284 C   0  0  0  0  0  0
    4.7711   54.4896   21.1402 C   0  0  0  0  0  0
    6.5886   56.0446   19.8652 Cl  0  0  0  0  0  0
    0.1150   47.6483   24.3096 H   0  0  0  0  0  0
    1.4358   49.0272   22.7551 H   0  0  0  0  0  0
   -0.4588   52.5626   24.2886 H   0  0  0  0  0  0
   -1.4301   48.7080   25.9203 H   0  0  0  0  0  0
   -1.4710   50.4348   28.4555 H   0  0  0  0  0  0
   -0.4578   51.6400   30.4208 H   0  0  0  0  0  0
    1.6009   52.7729   31.1464 H   0  0  0  0  0  0
    2.4989   53.7378   27.0460 H   0  0  0  0  0  0
    0.4793   52.6365   26.3438 H   0  0  0  0  0  0
    5.9548   54.1908   28.8589 H   0  0  0  0  0  0
    1.6671   51.2589   21.7073 H   0  0  0  0  0  0
    2.8370   52.8627   21.1209 H   0  0  0  0  0  0
    4.6302   53.3022   24.3276 H   0  0  0  0  0  0
    6.7692   54.4912   24.4581 H   0  0  0  0  0  0
    7.6500   55.6962   22.4869 H   0  0  0  0  0  0
    4.2295   54.4860   20.2039 H   0  0  0  0  0  0
  1  6  2  0  0  0
  1  2  1  0  0  0
  1 32  1  0  0  0
  2  3  2  0  0  0
  2 33  1  0  0  0
  3  4  1  0  0  0
  3 21  1  0  0  0
  4  5  2  0  0  0
  4 34  1  0  0  0
  5  6  1  0  0  0
  5  7  1  0  0  0
  6 35  1  0  0  0
  7  8  2  0  0  0
  7  9  2  0  0  0
  7 10  1  0  0  0
 10 11  1  0  0  0
 10 36  1  0  0  0
 11 16  2  0  0  0
 11 12  1  0  0  0
 12 13  2  0  0  0
 12 37  1  0  0  0
 13 14  1  0  0  0
 13 38  1  0  0  0
 14 15  2  0  0  0
 14 17  1  0  0  0
 15 16  1  0  0  0
 15 39  1  0  0  0
 16 40  1  0  0  0
 17 18  1  0  0  0
 18 19  1  0  0  0
 18 20  1  0  0  0
 18 41  1  0  0  0
 21 22  1  0  0  0
 21 42  1  0  0  0
 22 23  2  0  0  0
 22 24  1  0  0  0
 24 25  1  0  0  0
 24 43  1  0  0  0
 25 30  2  0  0  0
 25 26  1  0  0  0
 26 27  2  0  0  0
 26 44  1  0  0  0
 27 28  1  0  0  0
 27 45  1  0  0  0
 28 29  2  0  0  0
 28 46  1  0  0  0
 29 30  1  0  0  0
 29 31  1  0  0  0
 30 47  1  0  0  0
M  END
> <i_i_glide_confnum>
190

> <i_i_glide_lignum>
3514

> <i_i_glide_posenum>
158

> <i_i_glide_rotatable_bonds>
9

> <i_m_Source_File_Index>
698

> <b_m_subgroup_collapsed>
0

> <r_i_docking_score>
-5.21772

> <r_i_glide_ecoul>
-5.96159

> <r_i_glide_eff_state_penalty>
0

> <r_i_glide_einternal>
9.44294

> <r_i_glide_emodel>
-61.7122

> <r_i_glide_energy>
-51.4469

> <r_i_glide_erotb>
0.60688

> <r_i_glide_esite>
-0.188387

> <r_i_glide_evdw>
-45.4853

> <r_i_glide_gscore>
-5.21772

> <r_i_glide_hbond>
-0.144917

> <r_i_glide_ligand_efficiency>
-0.168314

> <r_i_glide_ligand_efficiency_ln>
-1.17676

> <r_i_glide_ligand_efficiency_sa>
-0.528737

> <r_i_glide_lipo>
-2.18961

> <r_i_glide_metal>
0

> <r_i_glide_rewards>
-0.133186

> <s_i_glide_gridfile>
wee1_glide-grid

> <s_m_Source_File>
wee1_decoys_glide_SP.sdf

> <s_m_Source_Path>
/Users/zhangxujun/Desktop

> <s_m_entry_id>
973

> <s_m_entry_name>
wee1_decoys_glide_SP.698

> <s_m_subgroup_title>
wee1_decoys_glide_SP

> <s_m_subgroupid>
wee1_decoys_glide_SP


$$$$
