ZINC35664859_1036
                    3D
 Schrodinger Suite 2024-2.
 74 78  0  0  1  0            999 V2000
    1.5197   52.0984   31.5674 C   0  0  0  0  0  0
    1.0360   52.3708   30.2847 C   0  0  0  0  0  0
    2.0592   52.5381   29.3478 C   0  0  0  0  0  0
    3.6277   52.4966   30.0939 S   0  0  0  0  0  0
    2.9075   52.0967   31.6176 C   0  0  0  0  0  0
    1.9565   52.8162   27.9479 C   0  0  0  0  0  0
    2.7407   53.5810   27.3834 O   0  0  0  0  0  0
    0.9770   52.1044   27.3570 N   0  0  0  0  0  0
    0.7040   51.9715   25.9895 C   0  0  0  0  0  0
    1.0650   52.9087   25.0217 C   0  0  0  0  0  0
    0.7599   52.6792   23.6868 C   0  0  0  0  0  0
    0.0765   51.5247   23.2677 C   0  0  0  0  0  0
   -0.3035   50.5691   24.2559 C   0  0  0  0  0  0
    0.0448   50.8113   25.5977 C   0  0  0  0  0  0
   -0.8546   49.1901   23.9107 C   0  0  0  0  0  0
   -0.4702   48.6244   22.8842 O   0  0  0  0  0  0
   -1.7123   48.5829   24.7822 N   0  0  0  0  0  0
   -2.1216   47.1839   24.5490 C   0  0  0  0  0  0
   -3.3899   47.2021   23.6610 C   0  0  0  0  0  0
   -4.5159   48.0474   24.2905 C   0  0  0  0  0  0
   -4.0032   49.4349   24.7301 C   0  0  0  0  0  0
   -2.7089   49.3384   25.5730 C   0  0  0  0  0  0
   -0.2251   51.3909   21.9070 N   0  0  0  0  0  0
    0.5835   52.0676   20.8711 C   0  0  0  0  0  0
    0.3649   51.5652   19.4267 C   0  0  0  0  0  0
   -1.0790   51.5554   19.1382 N   0  0  0  0  0  0
   -1.8695   50.7518   20.0822 C   0  0  0  0  0  0
   -1.6405   51.2915   21.5084 C   0  0  0  0  0  0
   -1.6965   52.4976   18.3730 C   0  0  0  0  0  0
   -2.8958   52.7565   18.4817 O   0  0  0  0  0  0
   -0.9250   53.0975   17.4436 N   0  0  0  0  0  0
   -1.3810   53.8834   16.2866 C   0  0  0  0  0  0
   -2.2284   55.1441   16.6279 C   0  0  0  0  0  0
   -1.4364   56.2030   17.4239 C   0  0  0  0  0  0
   -0.1567   56.6264   16.6745 C   0  0  0  0  0  0
    0.6912   55.4134   16.2396 C   0  0  0  0  0  0
   -0.1639   54.3809   15.4684 C   0  0  0  0  0  0
    0.8801   51.9136   32.4221 H   0  0  0  0  0  0
   -0.0188   52.4155   30.0510 H   0  0  0  0  0  0
    3.5308   51.9248   32.4814 H   0  0  0  0  0  0
    0.4601   51.4808   27.9583 H   0  0  0  0  0  0
    1.5714   53.8253   25.2827 H   0  0  0  0  0  0
    1.0547   53.4404   22.9798 H   0  0  0  0  0  0
   -0.1670   50.0645   26.3538 H   0  0  0  0  0  0
   -1.3004   46.5728   24.1699 H   0  0  0  0  0  0
   -2.3445   46.7535   25.5278 H   0  0  0  0  0  0
   -3.1385   47.5868   22.6704 H   0  0  0  0  0  0
   -3.7422   46.1836   23.5013 H   0  0  0  0  0  0
   -4.9152   47.5228   25.1611 H   0  0  0  0  0  0
   -5.3464   48.1556   23.5905 H   0  0  0  0  0  0
   -4.7757   49.9417   25.3093 H   0  0  0  0  0  0
   -3.8297   50.0669   23.8579 H   0  0  0  0  0  0
   -2.8918   48.7578   26.4808 H   0  0  0  0  0  0
   -2.3600   50.2960   25.9543 H   0  0  0  0  0  0
    0.3040   53.1201   20.8826 H   0  0  0  0  0  0
    1.6429   51.9808   21.1182 H   0  0  0  0  0  0
    0.9576   52.1461   18.7194 H   0  0  0  0  0  0
    0.7352   50.5405   19.3653 H   0  0  0  0  0  0
   -1.5267   49.7168   20.0483 H   0  0  0  0  0  0
   -2.9302   50.7288   19.8284 H   0  0  0  0  0  0
   -2.2221   50.7005   22.2133 H   0  0  0  0  0  0
   -2.0372   52.3086   21.5411 H   0  0  0  0  0  0
    0.0260   52.7692   17.3759 H   0  0  0  0  0  0
   -1.9823   53.2131   15.6686 H   0  0  0  0  0  0
   -2.5882   55.5943   15.7010 H   0  0  0  0  0  0
   -3.1331   54.8719   17.1693 H   0  0  0  0  0  0
   -2.0604   57.0772   17.6144 H   0  0  0  0  0  0
   -1.1704   55.8012   18.4005 H   0  0  0  0  0  0
   -0.4340   57.2056   15.7923 H   0  0  0  0  0  0
    0.4402   57.2948   17.2945 H   0  0  0  0  0  0
    1.5222   55.7474   15.6178 H   0  0  0  0  0  0
    1.1401   54.9466   17.1177 H   0  0  0  0  0  0
    0.4604   53.5339   15.1783 H   0  0  0  0  0  0
   -0.5051   54.8216   14.5296 H   0  0  0  0  0  0
  1  5  2  0  0  0
  1  2  1  0  0  0
  1 38  1  0  0  0
  2  3  2  0  0  0
  2 39  1  0  0  0
  3  4  1  0  0  0
  3  6  1  0  0  0
  4  5  1  0  0  0
  5 40  1  0  0  0
  6  7  2  0  0  0
  6  8  1  0  0  0
  8  9  1  0  0  0
  8 41  1  0  0  0
  9 14  2  0  0  0
  9 10  1  0  0  0
 10 11  2  0  0  0
 10 42  1  0  0  0
 11 12  1  0  0  0
 11 43  1  0  0  0
 12 13  2  0  0  0
 12 23  1  0  0  0
 13 14  1  0  0  0
 13 15  1  0  0  0
 14 44  1  0  0  0
 15 16  2  0  0  0
 15 17  1  0  0  0
 17 22  1  0  0  0
 17 18  1  0  0  0
 18 19  1  0  0  0
 18 45  1  0  0  0
 18 46  1  0  0  0
 19 20  1  0  0  0
 19 47  1  0  0  0
 19 48  1  0  0  0
 20 21  1  0  0  0
 20 49  1  0  0  0
 20 50  1  0  0  0
 21 22  1  0  0  0
 21 51  1  0  0  0
 21 52  1  0  0  0
 22 53  1  0  0  0
 22 54  1  0  0  0
 23 28  1  0  0  0
 23 24  1  0  0  0
 24 25  1  0  0  0
 24 55  1  0  0  0
 24 56  1  0  0  0
 25 26  1  0  0  0
 25 57  1  0  0  0
 25 58  1  0  0  0
 26 27  1  0  0  0
 26 29  1  0  0  0
 27 28  1  0  0  0
 27 59  1  0  0  0
 27 60  1  0  0  0
 28 61  1  0  0  0
 28 62  1  0  0  0
 29 30  2  0  0  0
 29 31  1  0  0  0
 31 32  1  0  0  0
 31 63  1  0  0  0
 32 37  1  0  0  0
 32 33  1  0  0  0
 32 64  1  0  0  0
 33 34  1  0  0  0
 33 65  1  0  0  0
 33 66  1  0  0  0
 34 35  1  0  0  0
 34 67  1  0  0  0
 34 68  1  0  0  0
 35 36  1  0  0  0
 35 69  1  0  0  0
 35 70  1  0  0  0
 36 37  1  0  0  0
 36 71  1  0  0  0
 36 72  1  0  0  0
 37 73  1  0  0  0
 37 74  1  0  0  0
M  END
> <i_i_glide_confnum>
93

> <i_i_glide_lignum>
1037

> <i_i_glide_posenum>
29

> <i_i_glide_rotatable_bonds>
9

> <i_m_Source_File_Index>
24

> <b_m_subgroup_collapsed>
0

> <r_i_docking_score>
-3.79927

> <r_i_glide_ecoul>
-7.26111

> <r_i_glide_eff_state_penalty>
0

> <r_i_glide_einternal>
4.10344

> <r_i_glide_emodel>
-58.4652

> <r_i_glide_energy>
-49.8595

> <r_i_glide_erotb>
0.675093

> <r_i_glide_esite>
-0.114029

> <r_i_glide_evdw>
-42.5984

> <r_i_glide_gscore>
-3.79927

> <r_i_glide_hbond>
-0.282613

> <r_i_glide_ligand_efficiency>
-0.102683

> <r_i_glide_ligand_efficiency_ln>
-0.823973

> <r_i_glide_ligand_efficiency_sa>
-0.342162

> <r_i_glide_lipo>
-0.882886

> <r_i_glide_metal>
0

> <r_i_glide_rewards>
0.0242517

> <s_i_glide_gridfile>
wee1_glide-grid

> <s_m_Source_File>
wee1_decoys_glide_SP.sdf

> <s_m_Source_Path>
/Users/zhangxujun/Desktop

> <s_m_entry_id>
299

> <s_m_entry_name>
wee1_decoys_glide_SP.24

> <s_m_subgroup_title>
wee1_decoys_glide_SP

> <s_m_subgroupid>
wee1_decoys_glide_SP


$$$$
