ZINC00694733_5125
                    3D
 Schrodinger Suite 2024-2.
 49 51  0  0  1  0            999 V2000
    7.0752   55.7392   20.6805 C   0  0  0  0  0  0
    7.4655   55.3403   22.1061 C   0  0  0  0  0  0
    6.3049   54.8889   22.7909 O   0  0  0  0  0  0
    6.2150   54.8915   24.1455 C   0  0  0  0  0  0
    7.1042   55.2967   24.8950 O   0  0  0  0  0  0
    4.9024   54.3974   24.6298 C   0  0  0  0  0  0
    4.5783   54.2278   26.0082 C   0  0  0  0  0  0
    3.2411   53.8526   26.2284 C   0  0  0  0  0  0
    2.3599   53.6967   24.7590 S   0  0  0  0  0  0
    3.8051   53.9905   23.8316 C   0  0  0  0  0  0
    3.8268   53.8540   22.4428 N   0  0  0  0  0  0
    3.2703   52.8793   21.6636 C   0  0  0  0  0  0
    3.7950   52.8965   20.0777 S   0  0  0  0  0  0
    2.3946   51.9961   22.2507 N   0  0  0  0  0  0
    1.5548   51.0498   21.7516 C   0  0  0  0  0  0
    1.3335   50.8570   20.5543 O   0  0  0  0  0  0
    0.8838   50.2561   22.7752 C   0  0  0  0  0  0
   -0.0877   49.2458   22.5423 C   0  0  0  0  0  0
   -0.4150   48.7539   23.7943 C   0  0  0  0  0  0
    0.3375   49.4649   24.6805 N   0  0  0  0  0  0
    1.1055   50.3737   24.0762 N   0  0  0  0  0  0
    0.4282   49.2965   26.1176 C   0  0  0  0  0  0
   -0.8144   48.6221   20.8932 Br  0  0  0  0  0  0
    2.6182   53.5129   27.5800 C   0  0  0  0  0  0
    3.5613   53.9811   28.7146 C   0  0  2  0  0  0
    3.4841   55.0663   28.8103 H   0  0  0  0  0  0
    5.0125   53.5768   28.4010 C   0  0  0  0  0  0
    5.5617   54.3380   27.1833 C   0  0  0  0  0  0
    3.1129   53.3840   30.0610 C   0  0  0  0  0  0
    7.9439   56.0951   20.1266 H   0  0  0  0  0  0
    6.6597   54.8917   20.1347 H   0  0  0  0  0  0
    6.3282   56.5335   20.6829 H   0  0  0  0  0  0
    7.9046   56.1976   22.6138 H   0  0  0  0  0  0
    8.2120   54.5461   22.0826 H   0  0  0  0  0  0
    4.5686   54.3777   21.9961 H   0  0  0  0  0  0
    2.3927   52.0278   23.2588 H   0  0  0  0  0  0
   -1.0852   47.9749   24.1255 H   0  0  0  0  0  0
   -0.4196   48.7150   26.4809 H   0  0  0  0  0  0
    0.4267   50.2681   26.6123 H   0  0  0  0  0  0
    1.3491   48.7607   26.3561 H   0  0  0  0  0  0
    1.6367   53.9776   27.6867 H   0  0  0  0  0  0
    2.4772   52.4323   27.6381 H   0  0  0  0  0  0
    5.6475   53.8075   29.2556 H   0  0  0  0  0  0
    5.0954   52.4953   28.2809 H   0  0  0  0  0  0
    6.5346   53.9152   26.9317 H   0  0  0  0  0  0
    5.7416   55.3818   27.4369 H   0  0  0  0  0  0
    3.0678   52.2948   30.0218 H   0  0  0  0  0  0
    3.8141   53.6460   30.8530 H   0  0  0  0  0  0
    2.1238   53.7441   30.3464 H   0  0  0  0  0  0
  1  2  1  0  0  0
  1 30  1  0  0  0
  1 31  1  0  0  0
  1 32  1  0  0  0
  2  3  1  0  0  0
  2 33  1  0  0  0
  2 34  1  0  0  0
  3  4  1  0  0  0
  4  5  2  0  0  0
  4  6  1  0  0  0
  6 10  2  0  0  0
  6  7  1  0  0  0
  7 28  1  0  0  0
  7  8  2  0  0  0
  8  9  1  0  0  0
  8 24  1  0  0  0
  9 10  1  0  0  0
 10 11  1  0  0  0
 11 12  1  0  0  0
 11 35  1  0  0  0
 12 13  2  0  0  0
 12 14  1  0  0  0
 14 15  1  0  0  0
 14 36  1  0  0  0
 15 16  2  0  0  0
 15 17  1  0  0  0
 17 21  2  0  0  0
 17 18  1  0  0  0
 18 19  2  0  0  0
 18 23  1  0  0  0
 19 20  1  0  0  0
 19 37  1  0  0  0
 20 21  1  0  0  0
 20 22  1  0  0  0
 22 38  1  0  0  0
 22 39  1  0  0  0
 22 40  1  0  0  0
 24 25  1  0  0  0
 24 41  1  0  0  0
 24 42  1  0  0  0
 25 26  1  0  0  0
 25 27  1  0  0  0
 25 29  1  0  0  0
 27 28  1  0  0  0
 27 43  1  0  0  0
 27 44  1  0  0  0
 28 45  1  0  0  0
 28 46  1  0  0  0
 29 47  1  0  0  0
 29 48  1  0  0  0
 29 49  1  0  0  0
M  END
> <i_i_glide_confnum>
85

> <i_i_glide_lignum>
5126

> <i_i_glide_posenum>
229

> <i_i_glide_rotatable_bonds>
8

> <i_m_Source_File_Index>
1947

> <b_m_subgroup_collapsed>
0

> <r_i_docking_score>
-5.94689

> <r_i_glide_ecoul>
-1.1967

> <r_i_glide_eff_state_penalty>
0

> <r_i_glide_einternal>
7.967

> <r_i_glide_emodel>
-59.0735

> <r_i_glide_energy>
-45.7103

> <r_i_glide_erotb>
0.603501

> <r_i_glide_esite>
-0.0241611

> <r_i_glide_evdw>
-44.5136

> <r_i_glide_gscore>
-5.94689

> <r_i_glide_hbond>
-0.32

> <r_i_glide_ligand_efficiency>
-0.212389

> <r_i_glide_ligand_efficiency_ln>
-1.37272

> <r_i_glide_ligand_efficiency_sa>
-0.644937

> <r_i_glide_lipo>
-2.47828

> <r_i_glide_metal>
0

> <r_i_glide_rewards>
-1.32276

> <s_i_glide_gridfile>
wee1_glide-grid

> <s_m_Source_File>
wee1_decoys_glide_SP.sdf

> <s_m_Source_Path>
/Users/zhangxujun/Desktop

> <s_m_entry_id>
2222

> <s_m_entry_name>
wee1_decoys_glide_SP.1947

> <s_m_subgroup_title>
wee1_decoys_glide_SP

> <s_m_subgroupid>
wee1_decoys_glide_SP


$$$$
