ZINC13029503_5384
                    3D
 Schrodinger Suite 2024-2.
 71 75  0  0  1  0            999 V2000
   -3.6952   49.9060   28.0463 C   0  0  0  0  0  0
   -3.9299   51.1651   27.2335 C   0  0  0  0  0  0
   -5.2204   51.7091   27.2262 C   0  0  0  0  0  0
   -5.5033   52.8562   26.4890 C   0  0  0  0  0  0
   -4.4905   53.4802   25.7719 C   0  0  0  0  0  0
   -3.2071   52.9391   25.7781 C   0  0  0  0  0  0
   -2.8941   51.7731   26.4890 C   0  0  0  0  0  0
   -1.5091   51.1191   26.3472 C   0  0  1  0  0  0
   -1.3892   50.4032   27.1613 H   0  0  0  0  0  0
   -1.4421   50.1742   25.1143 C   0  0  0  0  0  0
   -2.2883   50.2812   24.2239 O   0  0  0  0  0  0
   -0.4125   49.3075   25.0589 N   0  0  0  0  0  0
   -0.0156   48.4925   23.8993 C   0  0  0  0  0  0
   -1.1716   47.7355   23.1924 C   0  0  0  0  0  0
   -1.3265   48.3824   21.8102 C   0  0  0  0  0  0
    0.0712   48.8913   21.4576 C   0  0  0  0  0  0
    0.6638   49.3384   22.7969 C   0  0  0  0  0  0
   -0.3557   52.0974   26.4924 N   0  0  0  0  0  0
    0.4527   52.4965   25.3663 C   0  0  0  0  0  0
   -0.0834   52.7878   24.0996 C   0  0  0  0  0  0
    0.7472   53.1178   23.0278 C   0  0  0  0  0  0
    2.1225   53.2357   23.1957 C   0  0  0  0  0  0
    2.6676   52.8993   24.4321 C   0  0  0  0  0  0
    1.8436   52.4969   25.4726 C   0  0  0  0  0  0
    2.8716   53.6679   22.0819 N   0  0  0  0  0  0
    4.2013   53.8738   21.9641 C   0  0  0  0  0  0
    5.0350   53.7295   22.8575 O   0  0  0  0  0  0
    4.6782   54.3454   20.5959 C   0  0  0  0  0  0
   -0.0625   52.5273   27.7793 C   0  0  0  0  0  0
   -0.6149   52.0433   28.7695 O   0  0  0  0  0  0
    0.9149   53.7095   28.0921 C   0  0  0  0  0  0
    2.2958   53.3934   28.4890 N   0  0  0  0  0  0
    3.4956   53.8405   27.9305 C   0  0  0  0  0  0
    3.8282   54.6879   26.8610 C   0  0  0  0  0  0
    5.1785   54.8364   26.5446 C   0  0  0  0  0  0
    6.1735   54.2001   27.2736 C   0  0  0  0  0  0
    5.8506   53.3783   28.3482 C   0  0  0  0  0  0
    4.5000   53.1898   28.6818 C   0  0  0  0  0  0
    3.9146   52.4308   29.6542 N   0  0  0  0  0  0
    2.5488   52.5619   29.5211 N   0  0  0  0  0  0
   -4.5933   49.5462   28.5488 H   0  0  0  0  0  0
   -3.3272   49.1079   27.4004 H   0  0  0  0  0  0
   -2.9343   50.0969   28.8062 H   0  0  0  0  0  0
   -6.0142   51.2342   27.7843 H   0  0  0  0  0  0
   -6.5029   53.2637   26.4830 H   0  0  0  0  0  0
   -4.6978   54.3723   25.1993 H   0  0  0  0  0  0
   -2.4583   53.4339   25.1967 H   0  0  0  0  0  0
    0.2107   49.2710   25.8541 H   0  0  0  0  0  0
    0.6932   47.7324   24.2292 H   0  0  0  0  0  0
   -2.1044   47.7186   23.7585 H   0  0  0  0  0  0
   -0.8955   46.6936   23.0350 H   0  0  0  0  0  0
   -2.0246   49.2184   21.8630 H   0  0  0  0  0  0
   -1.7109   47.6853   21.0649 H   0  0  0  0  0  0
    0.0396   49.7052   20.7333 H   0  0  0  0  0  0
    0.6693   48.0974   21.0109 H   0  0  0  0  0  0
    1.7519   49.2680   22.8259 H   0  0  0  0  0  0
    0.4235   50.3920   22.9187 H   0  0  0  0  0  0
   -1.1347   52.6945   23.8914 H   0  0  0  0  0  0
    0.3178   53.2707   22.0514 H   0  0  0  0  0  0
    3.7274   52.9091   24.6182 H   0  0  0  0  0  0
    2.3101   52.1346   26.3703 H   0  0  0  0  0  0
    2.3222   53.8901   21.2601 H   0  0  0  0  0  0
    3.9027   54.8946   20.0615 H   0  0  0  0  0  0
    5.5373   55.0097   20.7052 H   0  0  0  0  0  0
    4.9797   53.4906   19.9895 H   0  0  0  0  0  0
    0.9801   54.4200   27.2815 H   0  0  0  0  0  0
    0.4797   54.2890   28.9078 H   0  0  0  0  0  0
    3.1044   55.1989   26.2589 H   0  0  0  0  0  0
    5.4583   55.4583   25.7071 H   0  0  0  0  0  0
    7.2096   54.3392   27.0003 H   0  0  0  0  0  0
    6.6423   52.8968   28.8818 H   0  0  0  0  0  0
  1  2  1  0  0  0
  1 41  1  0  0  0
  1 42  1  0  0  0
  1 43  1  0  0  0
  2  7  2  0  0  0
  2  3  1  0  0  0
  3  4  2  0  0  0
  3 44  1  0  0  0
  4  5  1  0  0  0
  4 45  1  0  0  0
  5  6  2  0  0  0
  5 46  1  0  0  0
  6  7  1  0  0  0
  6 47  1  0  0  0
  7  8  1  0  0  0
  8  9  1  0  0  0
  8 10  1  0  0  0
  8 18  1  0  0  0
 10 11  2  0  0  0
 10 12  1  0  0  0
 12 13  1  0  0  0
 12 48  1  0  0  0
 13 17  1  0  0  0
 13 14  1  0  0  0
 13 49  1  0  0  0
 14 15  1  0  0  0
 14 50  1  0  0  0
 14 51  1  0  0  0
 15 16  1  0  0  0
 15 52  1  0  0  0
 15 53  1  0  0  0
 16 17  1  0  0  0
 16 54  1  0  0  0
 16 55  1  0  0  0
 17 56  1  0  0  0
 17 57  1  0  0  0
 18 19  1  0  0  0
 18 29  1  0  0  0
 19 24  2  0  0  0
 19 20  1  0  0  0
 20 21  2  0  0  0
 20 58  1  0  0  0
 21 22  1  0  0  0
 21 59  1  0  0  0
 22 23  2  0  0  0
 22 25  1  0  0  0
 23 24  1  0  0  0
 23 60  1  0  0  0
 24 61  1  0  0  0
 25 26  1  0  0  0
 25 62  1  0  0  0
 26 27  2  0  0  0
 26 28  1  0  0  0
 28 63  1  0  0  0
 28 64  1  0  0  0
 28 65  1  0  0  0
 29 30  2  0  0  0
 29 31  1  0  0  0
 31 32  1  0  0  0
 31 66  1  0  0  0
 31 67  1  0  0  0
 32 40  1  0  0  0
 32 33  1  0  0  0
 33 38  2  0  0  0
 33 34  1  0  0  0
 34 35  2  0  0  0
 34 68  1  0  0  0
 35 36  1  0  0  0
 35 69  1  0  0  0
 36 37  2  0  0  0
 36 70  1  0  0  0
 37 38  1  0  0  0
 37 71  1  0  0  0
 38 39  1  0  0  0
 39 40  2  0  0  0
M  END
> <i_i_glide_confnum>
426

> <i_i_glide_lignum>
5385

> <i_i_glide_posenum>
153

> <i_i_glide_rotatable_bonds>
11

> <i_m_Source_File_Index>
1936

> <b_m_subgroup_collapsed>
0

> <r_i_docking_score>
-6.02245

> <r_i_glide_ecoul>
-4.96949

> <r_i_glide_eff_state_penalty>
0

> <r_i_glide_einternal>
21.9208

> <r_i_glide_emodel>
-54.6971

> <r_i_glide_energy>
-47.4004

> <r_i_glide_erotb>
0.598143

> <r_i_glide_esite>
-0.0923681

> <r_i_glide_evdw>
-42.4309

> <r_i_glide_gscore>
-6.02245

> <r_i_glide_hbond>
-0.315785

> <r_i_glide_ligand_efficiency>
-0.154422

> <r_i_glide_ligand_efficiency_ln>
-1.29138

> <r_i_glide_ligand_efficiency_sa>
-0.523677

> <r_i_glide_lipo>
-2.99042

> <r_i_glide_metal>
0

> <r_i_glide_rewards>
-0.355049

> <s_i_glide_gridfile>
wee1_glide-grid

> <s_m_Source_File>
wee1_decoys_glide_SP.sdf

> <s_m_Source_Path>
/Users/zhangxujun/Desktop

> <s_m_entry_id>
2211

> <s_m_entry_name>
wee1_decoys_glide_SP.1936

> <s_m_subgroup_title>
wee1_decoys_glide_SP

> <s_m_subgroupid>
wee1_decoys_glide_SP


$$$$
