ZINC08846199_2489
                    3D
 Schrodinger Suite 2024-2.
 49 52  0  0  1  0            999 V2000
    5.8221   57.6960   17.3923 C   0  0  0  0  0  0
    6.1005   56.1843   17.4105 C   0  0  0  0  0  0
    5.8625   55.6289   18.7012 O   0  0  0  0  0  0
    6.7925   55.6940   19.6911 C   0  0  0  0  0  0
    7.9049   56.2086   19.5500 O   0  0  0  0  0  0
    6.3044   55.1429   20.9970 C   0  0  0  0  0  0
    5.0640   54.4967   21.1157 C   0  0  0  0  0  0
    4.5944   54.1005   22.3646 C   0  0  0  0  0  0
    5.3536   54.3499   23.5122 C   0  0  0  0  0  0
    6.6286   54.9025   23.3877 C   0  0  0  0  0  0
    7.1000   55.2973   22.1393 C   0  0  0  0  0  0
    4.7829   54.0966   24.8653 C   0  0  0  0  0  0
    5.2995   54.0968   26.1549 C   0  0  0  0  0  0
    4.2439   53.7886   27.0153 C   0  0  0  0  0  0
    3.1107   53.6245   26.2279 C   0  0  0  0  0  0
    3.4527   53.8220   24.9294 O   0  0  0  0  0  0
    1.6378   53.3432   26.4966 C   0  0  2  0  0  0
    1.1065   54.1335   25.9856 H   0  0  0  0  0  0
    1.2380   53.3989   27.9802 C   0  0  0  0  0  0
    1.5247   54.5100   28.7845 C   0  0  0  0  0  0
    1.1928   54.5241   30.1384 C   0  0  0  0  0  0
    0.5641   53.4212   30.7153 C   0  0  0  0  0  0
    0.2078   52.3353   29.9240 C   0  0  0  0  0  0
    0.5457   52.3255   28.5730 C   0  0  0  0  0  0
    0.1720   51.2031   27.8690 O   0  0  0  0  0  0
    0.4326   51.1367   26.5439 C   0  0  0  0  0  0
    1.0978   52.0741   25.8349 C   0  0  0  0  0  0
    1.2713   51.9110   24.4260 C   0  0  0  0  0  0
    1.3933   51.7925   23.2819 N   0  0  0  0  0  0
   -0.0957   49.9611   26.0821 N   0  0  0  0  0  0
    0.3044   53.3966   32.0815 N   0  0  0  0  0  0
    5.9751   58.1098   16.3953 H   0  0  0  0  0  0
    4.7922   57.9091   17.6810 H   0  0  0  0  0  0
    6.4796   58.2361   18.0745 H   0  0  0  0  0  0
    7.1178   55.9716   17.0750 H   0  0  0  0  0  0
    5.4326   55.6884   16.7051 H   0  0  0  0  0  0
    4.4281   54.3328   20.2560 H   0  0  0  0  0  0
    3.6131   53.6524   22.4369 H   0  0  0  0  0  0
    7.2404   55.0811   24.2592 H   0  0  0  0  0  0
    8.0751   55.7627   22.0815 H   0  0  0  0  0  0
    6.3235   54.2861   26.4393 H   0  0  0  0  0  0
    4.2957   53.7009   28.0904 H   0  0  0  0  0  0
    2.0283   55.3661   28.3584 H   0  0  0  0  0  0
    1.4456   55.3863   30.7388 H   0  0  0  0  0  0
   -0.3195   51.4942   30.3513 H   0  0  0  0  0  0
    0.0529   49.6498   25.1341 H   0  0  0  0  0  0
   -0.5289   49.3126   26.7331 H   0  0  0  0  0  0
   -0.3379   52.6788   32.4396 H   0  0  0  0  0  0
    0.3557   54.2706   32.5802 H   0  0  0  0  0  0
  1  2  1  0  0  0
  1 32  1  0  0  0
  1 33  1  0  0  0
  1 34  1  0  0  0
  2  3  1  0  0  0
  2 35  1  0  0  0
  2 36  1  0  0  0
  3  4  1  0  0  0
  4  5  2  0  0  0
  4  6  1  0  0  0
  6 11  2  0  0  0
  6  7  1  0  0  0
  7  8  2  0  0  0
  7 37  1  0  0  0
  8  9  1  0  0  0
  8 38  1  0  0  0
  9 10  2  0  0  0
  9 12  1  0  0  0
 10 11  1  0  0  0
 10 39  1  0  0  0
 11 40  1  0  0  0
 12 16  1  0  0  0
 12 13  2  0  0  0
 13 14  1  0  0  0
 13 41  1  0  0  0
 14 15  2  0  0  0
 14 42  1  0  0  0
 15 16  1  0  0  0
 15 17  1  0  0  0
 17 18  1  0  0  0
 17 27  1  0  0  0
 17 19  1  0  0  0
 19 24  2  0  0  0
 19 20  1  0  0  0
 20 21  2  0  0  0
 20 43  1  0  0  0
 21 22  1  0  0  0
 21 44  1  0  0  0
 22 23  2  0  0  0
 22 31  1  0  0  0
 23 24  1  0  0  0
 23 45  1  0  0  0
 24 25  1  0  0  0
 25 26  1  0  0  0
 26 27  2  0  0  0
 26 30  1  0  0  0
 27 28  1  0  0  0
 28 29  3  0  0  0
 30 46  1  0  0  0
 30 47  1  0  0  0
 31 48  1  0  0  0
 31 49  1  0  0  0
M  END
> <i_i_glide_confnum>
2

> <i_i_glide_lignum>
2490

> <i_i_glide_posenum>
2

> <i_i_glide_rotatable_bonds>
6

> <i_m_Source_File_Index>
610

> <b_m_subgroup_collapsed>
0

> <r_i_docking_score>
-7.08421

> <r_i_glide_ecoul>
-6.66077

> <r_i_glide_eff_state_penalty>
0

> <r_i_glide_einternal>
2.69601

> <r_i_glide_emodel>
-67.3166

> <r_i_glide_energy>
-48.1543

> <r_i_glide_erotb>
0.486896

> <r_i_glide_esite>
-0.171542

> <r_i_glide_evdw>
-41.4935

> <r_i_glide_gscore>
-7.08421

> <r_i_glide_hbond>
-0.274899

> <r_i_glide_ligand_efficiency>
-0.23614

> <r_i_glide_ligand_efficiency_ln>
-1.60961

> <r_i_glide_ligand_efficiency_sa>
-0.733742

> <r_i_glide_lipo>
-2.98485

> <r_i_glide_metal>
0

> <r_i_glide_rewards>
-1.06602

> <s_i_glide_gridfile>
wee1_glide-grid

> <s_m_Source_File>
wee1_decoys_glide_SP.sdf

> <s_m_Source_Path>
/Users/zhangxujun/Desktop

> <s_m_entry_id>
885

> <s_m_entry_name>
wee1_decoys_glide_SP.610

> <s_m_subgroup_title>
wee1_decoys_glide_SP

> <s_m_subgroupid>
wee1_decoys_glide_SP


$$$$
