ZINC38847398_5713
                    3D
 Schrodinger Suite 2024-2.
 71 74  0  0  1  0            999 V2000
    2.4741   47.4251   12.4293 C   0  0  0  0  0  0
    1.9318   47.3244   13.8447 C   0  0  0  0  0  0
    0.6038   47.6628   14.1071 C   0  0  0  0  0  0
    0.1166   47.6088   15.4118 C   0  0  0  0  0  0
    0.9586   47.2097   16.4538 C   0  0  0  0  0  0
    2.2912   46.8842   16.1916 C   0  0  0  0  0  0
    2.7739   46.9351   14.8854 C   0  0  0  0  0  0
    0.3296   47.1368   18.1345 S   0  0  0  0  0  0
    1.1003   46.0961   18.8256 O   0  0  0  0  0  0
   -1.1317   47.0641   18.0364 O   0  0  0  0  0  0
    0.7627   48.7002   18.8453 N   0  0  0  0  0  0
    2.1388   48.9910   19.2897 C   0  0  0  0  0  0
    2.1055   49.3996   20.7758 C   0  0  0  0  0  0
    1.0806   50.5479   21.0348 C   0  0  0  0  0  0
   -0.3227   50.2567   20.4202 C   0  0  0  0  0  0
   -0.1971   49.8183   18.9422 C   0  0  0  0  0  0
    0.9481   50.7699   22.5753 C   0  0  0  0  0  0
    0.6152   49.7762   23.2273 O   0  0  0  0  0  0
    1.2179   51.9929   23.1570 N   0  0  0  0  0  0
    1.6158   53.1547   22.3252 C   0  0  0  0  0  0
    3.0882   53.1739   21.8398 C   0  0  0  0  0  0
    4.0638   53.8374   22.8286 C   0  0  0  0  0  0
    5.5032   53.8627   22.2670 N   0  3  0  0  0  0
    5.6416   54.7567   21.0144 C   0  0  0  0  0  0
    6.5150   54.2772   23.3578 C   0  0  0  0  0  0
    1.0802   52.1988   24.5539 C   0  0  0  0  0  0
    0.3135   51.4974   25.3626 N   0  0  0  0  0  0
    0.4343   51.8785   26.6628 C   0  0  0  0  0  0
   -0.2421   51.2976   27.7417 C   0  0  0  0  0  0
   -0.0011   51.7903   29.0272 C   0  0  0  0  0  0
    0.9000   52.8456   29.2583 C   0  0  0  0  0  0
    1.5741   53.4331   28.1829 C   0  0  0  0  0  0
    1.3348   52.9459   26.8913 C   0  0  0  0  0  0
    1.9842   53.4796   25.3575 S   0  0  0  0  0  0
    1.1772   53.3725   30.5078 O   0  0  0  0  0  0
    0.4538   52.8947   31.6371 C   0  0  0  0  0  0
    1.9777   48.2285   11.8811 H   0  0  0  0  0  0
    3.5390   47.6671   12.4289 H   0  0  0  0  0  0
    2.3176   46.4898   11.8854 H   0  0  0  0  0  0
   -0.0511   47.9756   13.3064 H   0  0  0  0  0  0
   -0.9103   47.8761   15.6091 H   0  0  0  0  0  0
    2.9584   46.6064   16.9958 H   0  0  0  0  0  0
    3.8133   46.6995   14.7026 H   0  0  0  0  0  0
    2.5582   49.7709   18.6513 H   0  0  0  0  0  0
    2.7592   48.1069   19.1423 H   0  0  0  0  0  0
    3.1058   49.7217   21.0426 H   0  0  0  0  0  0
    1.8390   48.4952   21.3204 H   0  0  0  0  0  0
    1.4731   51.4314   20.5445 H   0  0  0  0  0  0
   -0.8137   49.4267   20.9302 H   0  0  0  0  0  0
   -0.9546   51.1455   20.4353 H   0  0  0  0  0  0
    0.1524   50.6291   18.3021 H   0  0  0  0  0  0
   -1.1634   49.5019   18.5475 H   0  0  0  0  0  0
    0.9380   53.2316   21.4748 H   0  0  0  0  0  0
    1.4083   54.0883   22.8520 H   0  0  0  0  0  0
    3.4339   52.1704   21.5911 H   0  0  0  0  0  0
    3.1038   53.7354   20.9067 H   0  0  0  0  0  0
    3.7957   54.8710   23.0623 H   0  0  0  0  0  0
    4.1377   53.2714   23.7578 H   0  0  0  0  0  0
    5.1516   55.6980   21.2540 H   0  0  0  0  0  0
    6.7017   54.8969   20.7979 H   0  0  0  0  0  0
    5.1516   54.2556   20.1781 H   0  0  0  0  0  0
    6.2963   55.3019   23.6624 H   0  0  0  0  0  0
    6.4089   53.5871   24.1980 H   0  0  0  0  0  0
    7.5127   54.2006   22.9262 H   0  0  0  0  0  0
   -0.9327   50.4765   27.5907 H   0  0  0  0  0  0
   -0.5307   51.3235   29.8475 H   0  0  0  0  0  0
    2.2617   54.2482   28.3573 H   0  0  0  0  0  0
    0.7054   53.4846   32.5187 H   0  0  0  0  0  0
    0.6911   51.8546   31.8569 H   0  0  0  0  0  0
   -0.6182   52.9911   31.4787 H   0  0  0  0  0  0
    5.7302   52.9151   21.9956 H   0  0  0  0  0  0
  1  2  1  0  0  0
  1 37  1  0  0  0
  1 38  1  0  0  0
  1 39  1  0  0  0
  2  7  2  0  0  0
  2  3  1  0  0  0
  3  4  2  0  0  0
  3 40  1  0  0  0
  4  5  1  0  0  0
  4 41  1  0  0  0
  5  6  2  0  0  0
  5  8  1  0  0  0
  6  7  1  0  0  0
  6 42  1  0  0  0
  7 43  1  0  0  0
  8  9  2  0  0  0
  8 10  2  0  0  0
  8 11  1  0  0  0
 11 16  1  0  0  0
 11 12  1  0  0  0
 12 13  1  0  0  0
 12 44  1  0  0  0
 12 45  1  0  0  0
 13 14  1  0  0  0
 13 46  1  0  0  0
 13 47  1  0  0  0
 14 15  1  0  0  0
 14 17  1  0  0  0
 14 48  1  0  0  0
 15 16  1  0  0  0
 15 49  1  0  0  0
 15 50  1  0  0  0
 16 51  1  0  0  0
 16 52  1  0  0  0
 17 18  2  0  0  0
 17 19  1  0  0  0
 19 20  1  0  0  0
 19 26  1  0  0  0
 20 21  1  0  0  0
 20 53  1  0  0  0
 20 54  1  0  0  0
 21 22  1  0  0  0
 21 55  1  0  0  0
 21 56  1  0  0  0
 22 23  1  0  0  0
 22 57  1  0  0  0
 22 58  1  0  0  0
 23 24  1  0  0  0
 23 25  1  0  0  0
 23 71  1  0  0  0
 24 59  1  0  0  0
 24 60  1  0  0  0
 24 61  1  0  0  0
 25 62  1  0  0  0
 25 63  1  0  0  0
 25 64  1  0  0  0
 26 34  1  0  0  0
 26 27  2  0  0  0
 27 28  1  0  0  0
 28 33  2  0  0  0
 28 29  1  0  0  0
 29 30  2  0  0  0
 29 65  1  0  0  0
 30 31  1  0  0  0
 30 66  1  0  0  0
 31 32  2  0  0  0
 31 35  1  0  0  0
 32 33  1  0  0  0
 32 67  1  0  0  0
 33 34  1  0  0  0
 35 36  1  0  0  0
 36 68  1  0  0  0
 36 69  1  0  0  0
 36 70  1  0  0  0
M  CHG  1  23   1
M  END
> <i_i_glide_confnum>
115

> <i_i_glide_lignum>
5714

> <i_i_glide_posenum>
126

> <i_i_glide_rotatable_bonds>
10

> <i_m_Source_File_Index>
1224

> <b_m_subgroup_collapsed>
0

> <r_i_docking_score>
-3.85088

> <r_i_glide_ecoul>
-2.93739

> <r_i_glide_eff_state_penalty>
0

> <r_i_glide_einternal>
2.70901

> <r_i_glide_emodel>
-56.9171

> <r_i_glide_energy>
-43.9162

> <r_i_glide_erotb>
0.583525

> <r_i_glide_esite>
-0.0433772

> <r_i_glide_evdw>
-40.9788

> <r_i_glide_gscore>
-3.85088

> <r_i_glide_hbond>
0

> <r_i_glide_ligand_efficiency>
-0.106969

> <r_i_glide_ligand_efficiency_ln>
-0.840158

> <r_i_glide_ligand_efficiency_sa>
-0.353204

> <r_i_glide_lipo>
-1.66805

> <r_i_glide_metal>
0

> <r_i_glide_rewards>
-0.23343

> <s_i_glide_gridfile>
wee1_glide-grid

> <s_m_Source_File>
wee1_decoys_glide_SP.sdf

> <s_m_Source_Path>
/Users/zhangxujun/Desktop

> <s_m_entry_id>
1499

> <s_m_entry_name>
wee1_decoys_glide_SP.1224

> <s_m_subgroup_title>
wee1_decoys_glide_SP

> <s_m_subgroupid>
wee1_decoys_glide_SP


$$$$
