ZINC58847739_6127
                    3D
 Schrodinger Suite 2024-2.
 54 59  0  0  1  0            999 V2000
   -4.7079   51.9908   26.4839 C   0  0  0  0  0  0
   -5.8566   52.1962   27.2614 C   0  0  0  0  0  0
   -5.8828   51.6344   28.5309 C   0  0  0  0  0  0
   -4.8397   50.8969   29.0092 C   0  0  0  0  0  0
   -3.6935   50.6756   28.2553 C   0  0  0  0  0  0
   -3.6068   51.2390   26.9656 C   0  0  0  0  0  0
   -2.3348   51.0259   26.1058 C   0  0  2  0  0  0
   -2.3915   49.9789   25.8026 H   0  0  0  0  0  0
   -0.9937   51.2172   26.8842 C   0  0  2  0  0  0
   -0.9352   50.4127   27.6123 H   0  0  0  0  0  0
   -0.8776   52.4962   27.7063 C   0  0  0  0  0  0
    0.5846   52.8509   27.6449 C   0  0  0  0  0  0
    1.2223   52.0974   26.7393 C   0  0  0  0  0  0
    0.2976   51.1046   26.0511 C   0  0  2  0  0  0
    0.6921   50.0880   26.1198 H   0  0  0  0  0  0
    0.1045   51.4109   24.5653 C   0  0  0  0  0  0
    1.1872   51.3636   23.6713 C   0  0  0  0  0  0
    1.0397   51.7384   22.3332 C   0  0  0  0  0  0
   -0.2201   52.0859   21.8498 C   0  0  0  0  0  0
   -1.3153   52.0908   22.7067 C   0  0  0  0  0  0
   -1.1524   51.7950   24.0596 C   0  0  0  0  0  0
   -2.3027   51.8058   24.8636 N   0  0  0  0  0  0
    2.4594   51.8709   21.2469 S   0  0  0  0  0  0
    3.4826   50.9146   21.6817 O   0  0  0  0  0  0
    1.9483   51.8637   19.8728 O   0  0  0  0  0  0
    3.1063   53.4944   21.5217 N   0  0  0  0  0  0
    3.9181   53.7979   22.6216 C   0  0  0  0  0  0
    5.3032   53.7084   22.4614 C   0  0  0  0  0  0
    6.1650   54.0401   23.5085 C   0  0  0  0  0  0
    5.6420   54.4266   24.7416 C   0  0  0  0  0  0
    4.2597   54.4983   24.9171 C   0  0  0  0  0  0
    3.3954   54.2228   23.8541 C   0  0  0  0  0  0
    1.7029   54.4964   24.0794 Cl  0  0  0  0  0  0
    6.7044   54.8327   26.0413 Cl  0  0  0  0  0  0
   -5.1063   50.5174   30.2868 O   0  0  0  0  0  0
   -6.4583   50.8245   30.4887 C   0  0  0  0  0  0
   -6.8365   51.7404   29.4945 O   0  0  0  0  0  0
   -4.6876   52.4352   25.5010 H   0  0  0  0  0  0
   -6.6811   52.7829   26.8850 H   0  0  0  0  0  0
   -2.8870   50.0970   28.6743 H   0  0  0  0  0  0
   -1.4762   53.2967   27.2808 H   0  0  0  0  0  0
   -1.2042   52.3320   28.7345 H   0  0  0  0  0  0
    1.0174   53.6323   28.2522 H   0  0  0  0  0  0
    2.2707   52.1712   26.4926 H   0  0  0  0  0  0
    2.1675   51.0975   24.0394 H   0  0  0  0  0  0
   -0.3505   52.3632   20.8134 H   0  0  0  0  0  0
   -2.2887   52.3552   22.3196 H   0  0  0  0  0  0
   -3.2034   51.8860   24.4176 H   0  0  0  0  0  0
    2.5795   54.2410   21.0810 H   0  0  0  0  0  0
    5.7086   53.3994   21.5095 H   0  0  0  0  0  0
    7.2349   53.9859   23.3660 H   0  0  0  0  0  0
    3.8585   54.8191   25.8671 H   0  0  0  0  0  0
   -7.0501   49.9124   30.3839 H   0  0  0  0  0  0
   -6.6209   51.2290   31.4885 H   0  0  0  0  0  0
  1  6  2  0  0  0
  1  2  1  0  0  0
  1 38  1  0  0  0
  2  3  2  0  0  0
  2 39  1  0  0  0
  3 37  1  0  0  0
  3  4  1  0  0  0
  4  5  2  0  0  0
  4 35  1  0  0  0
  5  6  1  0  0  0
  5 40  1  0  0  0
  6  7  1  0  0  0
  7  8  1  0  0  0
  7 22  1  0  0  0
  7  9  1  0  0  0
  9 10  1  0  0  0
  9 14  1  0  0  0
  9 11  1  0  0  0
 11 12  1  0  0  0
 11 41  1  0  0  0
 11 42  1  0  0  0
 12 13  2  0  0  0
 12 43  1  0  0  0
 13 14  1  0  0  0
 13 44  1  0  0  0
 14 15  1  0  0  0
 14 16  1  0  0  0
 16 21  2  0  0  0
 16 17  1  0  0  0
 17 18  2  0  0  0
 17 45  1  0  0  0
 18 19  1  0  0  0
 18 23  1  0  0  0
 19 20  2  0  0  0
 19 46  1  0  0  0
 20 21  1  0  0  0
 20 47  1  0  0  0
 21 22  1  0  0  0
 22 48  1  0  0  0
 23 24  2  0  0  0
 23 25  2  0  0  0
 23 26  1  0  0  0
 26 27  1  0  0  0
 26 49  1  0  0  0
 27 32  2  0  0  0
 27 28  1  0  0  0
 28 29  2  0  0  0
 28 50  1  0  0  0
 29 30  1  0  0  0
 29 51  1  0  0  0
 30 31  2  0  0  0
 30 34  1  0  0  0
 31 32  1  0  0  0
 31 52  1  0  0  0
 32 33  1  0  0  0
 35 36  1  0  0  0
 36 37  1  0  0  0
 36 53  1  0  0  0
 36 54  1  0  0  0
M  END
> <i_i_glide_confnum>
11

> <i_i_glide_lignum>
6128

> <i_i_glide_posenum>
155

> <i_i_glide_rotatable_bonds>
4

> <i_m_Source_File_Index>
4042

> <b_m_subgroup_collapsed>
0

> <r_i_docking_score>
-4.85789

> <r_i_glide_ecoul>
-3.08103

> <r_i_glide_eff_state_penalty>
0

> <r_i_glide_einternal>
6.74744

> <r_i_glide_emodel>
-51.3752

> <r_i_glide_energy>
-42.1987

> <r_i_glide_erotb>
0.308966

> <r_i_glide_esite>
-0.0364186

> <r_i_glide_evdw>
-39.1177

> <r_i_glide_gscore>
-4.85789

> <r_i_glide_hbond>
-0.32

> <r_i_glide_ligand_efficiency>
-0.142879

> <r_i_glide_ligand_efficiency_ln>
-1.07324

> <r_i_glide_ligand_efficiency_sa>
-0.462873

> <r_i_glide_lipo>
-2.2819

> <r_i_glide_metal>
0

> <r_i_glide_rewards>
-0.110505

> <s_i_glide_gridfile>
wee1_glide-grid

> <s_m_Source_File>
wee1_decoys_glide_SP.sdf

> <s_m_Source_Path>
/Users/zhangxujun/Desktop

> <s_m_entry_id>
4317

> <s_m_entry_name>
wee1_decoys_glide_SP.4042

> <s_m_subgroup_title>
wee1_decoys_glide_SP

> <s_m_subgroupid>
wee1_decoys_glide_SP


$$$$
