ZINC09763519_6032
                    3D
 Schrodinger Suite 2024-2.
 69 73  0  0  1  0            999 V2000
   -6.0620   51.2940   28.4729 C   0  0  0  0  0  0
   -4.9565   50.7200   29.0978 C   0  0  0  0  0  0
   -3.7475   50.6331   28.4137 C   0  0  0  0  0  0
   -3.6455   51.1206   27.1072 C   0  0  0  0  0  0
   -4.7589   51.6922   26.4850 C   0  0  0  0  0  0
   -5.9689   51.7791   27.1695 C   0  0  0  0  0  0
   -2.3150   51.0493   26.3717 C   0  0  0  0  0  0
   -1.6526   52.4369   26.2950 C   0  0  0  0  0  0
   -0.2550   52.4089   25.8159 N   0  0  0  0  0  0
    0.7440   51.9474   26.8058 C   0  0  0  0  0  0
    0.6551   52.6091   28.1740 C   0  0  0  0  0  0
    0.0621   51.9109   29.2252 C   0  0  0  0  0  0
   -0.0261   52.4967   30.4809 C   0  0  0  0  0  0
    0.4849   53.7753   30.6900 C   0  0  0  0  0  0
    1.0956   54.4724   29.6488 C   0  0  0  0  0  0
    1.1821   53.8869   28.3875 C   0  0  0  0  0  0
    0.0279   52.6205   24.5003 C   0  0  0  0  0  0
   -0.8576   52.8967   23.6823 O   0  0  0  0  0  0
    1.5126   52.5811   24.0250 C   0  0  2  0  0  0
    2.0321   51.7244   24.4549 H   0  0  0  0  0  0
    2.1581   53.9427   24.3491 C   0  0  0  0  0  0
    3.5901   53.9739   23.8666 C   0  0  0  0  0  0
    4.6170   54.4967   24.6624 C   0  0  0  0  0  0
    5.9265   54.5603   24.1928 C   0  0  0  0  0  0
    6.2213   54.1011   22.9147 C   0  0  0  0  0  0
    5.2108   53.5498   22.1305 C   0  0  0  0  0  0
    3.8938   53.4564   22.5956 C   0  0  0  0  0  0
    2.8541   52.7267   21.7428 C   0  0  0  0  0  0
    1.0275   50.9472   22.1055 C   0  0  0  0  0  0
    1.1427   50.6065   20.6323 C   0  0  0  0  0  0
    0.3710   51.2868   19.6859 C   0  0  0  0  0  0
    0.5987   51.0696   18.3291 C   0  0  0  0  0  0
    1.5896   50.1747   17.9328 C   0  0  0  0  0  0
    2.3044   49.4444   18.8808 C   0  0  0  0  0  0
    2.0808   49.6549   20.2319 C   0  0  0  0  0  0
    1.9044   50.0472   16.6054 O   0  0  0  0  0  0
   -7.0021   51.3556   29.0011 H   0  0  0  0  0  0
   -5.0333   50.3358   30.1050 H   0  0  0  0  0  0
   -2.8955   50.1768   28.9002 H   0  0  0  0  0  0
   -4.6867   52.0701   25.4755 H   0  0  0  0  0  0
   -6.8321   52.2177   26.6908 H   0  0  0  0  0  0
   -2.4873   50.6520   25.3705 H   0  0  0  0  0  0
   -1.6685   50.3327   26.8817 H   0  0  0  0  0  0
   -1.6691   52.8963   27.2813 H   0  0  0  0  0  0
   -2.2516   53.0747   25.6426 H   0  0  0  0  0  0
    0.6360   50.8675   26.9234 H   0  0  0  0  0  0
    1.7701   52.0968   26.4772 H   0  0  0  0  0  0
   -0.3437   50.9201   29.0712 H   0  0  0  0  0  0
   -0.4954   51.9500   31.2817 H   0  0  0  0  0  0
    0.4050   54.2251   31.6694 H   0  0  0  0  0  0
    1.4904   55.4640   29.8163 H   0  0  0  0  0  0
    1.6492   54.4333   27.5834 H   0  0  0  0  0  0
    2.1253   54.1393   25.4195 H   0  0  0  0  0  0
    1.6125   54.7577   23.8673 H   0  0  0  0  0  0
    4.3965   54.8759   25.6495 H   0  0  0  0  0  0
    6.7080   54.9772   24.8108 H   0  0  0  0  0  0
    7.2333   54.1609   22.5397 H   0  0  0  0  0  0
    5.4610   53.1680   21.1506 H   0  0  0  0  0  0
    3.3054   51.7879   21.4205 H   0  0  0  0  0  0
    2.5688   53.2971   20.8575 H   0  0  0  0  0  0
   -0.0127   50.8639   22.4218 H   0  0  0  0  0  0
    1.6222   50.2651   22.7183 H   0  0  0  0  0  0
   -0.3608   52.0186   19.9952 H   0  0  0  0  0  0
    0.0468   51.6259   17.5862 H   0  0  0  0  0  0
    3.0734   48.7533   18.5648 H   0  0  0  0  0  0
    2.6804   49.1186   20.9542 H   0  0  0  0  0  0
    2.8254   49.6968   16.4857 H   0  0  0  0  0  0
    1.5162   52.3817   22.4798 N   0  3  1  0  0  0
    0.8252   53.0243   22.1149 H   0  0  0  0  0  0
  1  6  2  0  0  0
  1  2  1  0  0  0
  1 37  1  0  0  0
  2  3  2  0  0  0
  2 38  1  0  0  0
  3  4  1  0  0  0
  3 39  1  0  0  0
  4  5  2  0  0  0
  4  7  1  0  0  0
  5  6  1  0  0  0
  5 40  1  0  0  0
  6 41  1  0  0  0
  7  8  1  0  0  0
  7 42  1  0  0  0
  7 43  1  0  0  0
  8  9  1  0  0  0
  8 44  1  0  0  0
  8 45  1  0  0  0
  9 10  1  0  0  0
  9 17  1  0  0  0
 10 11  1  0  0  0
 10 46  1  0  0  0
 10 47  1  0  0  0
 11 16  2  0  0  0
 11 12  1  0  0  0
 12 13  2  0  0  0
 12 48  1  0  0  0
 13 14  1  0  0  0
 13 49  1  0  0  0
 14 15  2  0  0  0
 14 50  1  0  0  0
 15 16  1  0  0  0
 15 51  1  0  0  0
 16 52  1  0  0  0
 17 18  2  0  0  0
 17 19  1  0  0  0
 19 20  1  0  0  0
 19 21  1  0  0  0
 19 68  1  0  0  0
 21 22  1  0  0  0
 21 53  1  0  0  0
 21 54  1  0  0  0
 22 27  2  0  0  0
 22 23  1  0  0  0
 23 24  2  0  0  0
 23 55  1  0  0  0
 24 25  1  0  0  0
 24 56  1  0  0  0
 25 26  2  0  0  0
 25 57  1  0  0  0
 26 27  1  0  0  0
 26 58  1  0  0  0
 27 28  1  0  0  0
 28 59  1  0  0  0
 28 60  1  0  0  0
 28 68  1  0  0  0
 29 30  1  0  0  0
 29 61  1  0  0  0
 29 62  1  0  0  0
 29 68  1  0  0  0
 30 35  2  0  0  0
 30 31  1  0  0  0
 31 32  2  0  0  0
 31 63  1  0  0  0
 32 33  1  0  0  0
 32 64  1  0  0  0
 33 34  2  0  0  0
 33 36  1  0  0  0
 34 35  1  0  0  0
 34 65  1  0  0  0
 35 66  1  0  0  0
 36 67  1  0  0  0
 68 69  1  0  0  0
M  CHG  1  68   1
M  END
> <i_i_glide_confnum>
205

> <i_i_glide_lignum>
6033

> <i_i_glide_posenum>
252

> <i_i_glide_rotatable_bonds>
10

> <i_m_Source_File_Index>
2331

> <b_m_subgroup_collapsed>
0

> <r_i_docking_score>
-6.39093

> <r_i_glide_ecoul>
-12.1147

> <r_i_glide_eff_state_penalty>
0

> <r_i_glide_einternal>
5.33475

> <r_i_glide_emodel>
-70.4385

> <r_i_glide_energy>
-50.1236

> <r_i_glide_erotb>
0.621649

> <r_i_glide_esite>
0

> <r_i_glide_evdw>
-38.0089

> <r_i_glide_gscore>
-6.39093

> <r_i_glide_hbond>
-0.129086

> <r_i_glide_ligand_efficiency>
-0.177526

> <r_i_glide_ligand_efficiency_ln>
-1.39433

> <r_i_glide_ligand_efficiency_sa>
-0.586177

> <r_i_glide_lipo>
-2.81568

> <r_i_glide_metal>
0

> <r_i_glide_rewards>
-0.350166

> <s_i_glide_gridfile>
wee1_glide-grid

> <s_m_Source_File>
wee1_decoys_glide_SP.sdf

> <s_m_Source_Path>
/Users/zhangxujun/Desktop

> <s_m_entry_id>
2606

> <s_m_entry_name>
wee1_decoys_glide_SP.2331

> <s_m_subgroup_title>
wee1_decoys_glide_SP

> <s_m_subgroupid>
wee1_decoys_glide_SP


$$$$
