ZINC60204830_3650
                    3D
 Schrodinger Suite 2024-2.
 41 43  0  0  1  0            999 V2000
   -6.9100   52.0590   26.0592 C   0  0  0  0  0  0
   -6.0767   51.6760   27.1476 O   0  0  0  0  0  0
   -4.7004   51.6667   26.9905 C   0  0  0  0  0  0
   -4.0554   52.0077   25.7928 C   0  0  0  0  0  0
   -2.6598   51.9997   25.6798 C   0  0  0  0  0  0
   -1.8847   51.6991   26.8223 C   0  0  0  0  0  0
   -2.5292   51.2966   27.9996 C   0  0  0  0  0  0
   -3.9302   51.2746   28.0928 C   0  0  0  0  0  0
   -4.6148   50.9207   29.2423 O   0  0  0  0  0  0
   -3.9695   50.0987   30.2090 C   0  0  0  0  0  0
   -0.4819   51.8364   26.7775 N   0  0  0  0  0  0
    0.2776   52.5417   27.6457 C   0  0  0  0  0  0
   -0.0901   52.8848   28.7704 O   0  0  0  0  0  0
    1.5690   52.9609   27.1215 C   0  0  0  0  0  0
    2.7415   53.2280   27.8307 C   0  0  0  0  0  0
    3.8192   53.6993   26.9942 C   0  0  0  0  0  0
    3.4090   53.7766   25.6247 C   0  0  0  0  0  0
    1.7432   53.2969   25.4032 S   0  0  0  0  0  0
    4.2777   54.1852   24.6019 C   0  0  0  0  0  0
    5.5815   54.5262   24.9379 C   0  0  0  0  0  0
    6.0064   54.4814   26.2573 C   0  0  0  0  0  0
    5.1540   54.0862   27.2860 C   0  0  0  0  0  0
    5.8049   54.0976   28.8816 Cl  0  0  0  0  0  0
    6.6823   55.0295   23.7077 Cl  0  0  0  0  0  0
    2.9084   53.0086   29.5385 Cl  0  0  0  0  0  0
   -2.0601   52.3355   24.3353 C   0  0  0  0  0  0
   -2.4501   53.2967   23.6803 O   0  0  0  0  0  0
   -1.1175   51.5096   23.8800 N   0  0  0  0  0  0
   -7.9531   52.0186   26.3744 H   0  0  0  0  0  0
   -6.7961   51.3831   25.2103 H   0  0  0  0  0  0
   -6.7027   53.0810   25.7371 H   0  0  0  0  0  0
   -4.6423   52.2756   24.9262 H   0  0  0  0  0  0
   -1.9249   51.0224   28.8510 H   0  0  0  0  0  0
   -4.6616   49.8900   31.0256 H   0  0  0  0  0  0
   -3.6961   49.1421   29.7624 H   0  0  0  0  0  0
   -3.0843   50.5586   30.6492 H   0  0  0  0  0  0
   -0.0619   51.6369   25.8839 H   0  0  0  0  0  0
    3.9479   54.2311   23.5730 H   0  0  0  0  0  0
    7.0222   54.7586   26.4953 H   0  0  0  0  0  0
   -0.9530   50.6291   24.3449 H   0  0  0  0  0  0
   -0.6958   51.6934   22.9828 H   0  0  0  0  0  0
  1  2  1  0  0  0
  1 29  1  0  0  0
  1 30  1  0  0  0
  1 31  1  0  0  0
  2  3  1  0  0  0
  3  8  2  0  0  0
  3  4  1  0  0  0
  4  5  2  0  0  0
  4 32  1  0  0  0
  5  6  1  0  0  0
  5 26  1  0  0  0
  6  7  2  0  0  0
  6 11  1  0  0  0
  7  8  1  0  0  0
  7 33  1  0  0  0
  8  9  1  0  0  0
  9 10  1  0  0  0
 10 34  1  0  0  0
 10 35  1  0  0  0
 10 36  1  0  0  0
 11 12  1  0  0  0
 11 37  1  0  0  0
 12 13  2  0  0  0
 12 14  1  0  0  0
 14 18  1  0  0  0
 14 15  2  0  0  0
 15 16  1  0  0  0
 15 25  1  0  0  0
 16 22  2  0  0  0
 16 17  1  0  0  0
 17 18  1  0  0  0
 17 19  2  0  0  0
 19 20  1  0  0  0
 19 38  1  0  0  0
 20 21  2  0  0  0
 20 24  1  0  0  0
 21 22  1  0  0  0
 21 39  1  0  0  0
 22 23  1  0  0  0
 26 27  2  0  0  0
 26 28  1  0  0  0
 28 40  1  0  0  0
 28 41  1  0  0  0
M  END
> <i_i_glide_confnum>
7

> <i_i_glide_lignum>
3651

> <i_i_glide_posenum>
199

> <i_i_glide_rotatable_bonds>
6

> <i_m_Source_File_Index>
2357

> <b_m_subgroup_collapsed>
0

> <r_i_docking_score>
-5.21554

> <r_i_glide_ecoul>
-3.15329

> <r_i_glide_eff_state_penalty>
0

> <r_i_glide_einternal>
4.24708

> <r_i_glide_emodel>
-55.8322

> <r_i_glide_energy>
-43.0771

> <r_i_glide_erotb>
0.28563

> <r_i_glide_esite>
-0.0263266

> <r_i_glide_evdw>
-39.9238

> <r_i_glide_gscore>
-5.21554

> <r_i_glide_hbond>
0

> <r_i_glide_ligand_efficiency>
-0.186269

> <r_i_glide_ligand_efficiency_ln>
-1.2039

> <r_i_glide_ligand_efficiency_sa>
-0.565623

> <r_i_glide_lipo>
-2.5538

> <r_i_glide_metal>
0

> <r_i_glide_rewards>
-0.451862

> <s_i_glide_gridfile>
wee1_glide-grid

> <s_m_Source_File>
wee1_decoys_glide_SP.sdf

> <s_m_Source_Path>
/Users/zhangxujun/Desktop

> <s_m_entry_id>
2632

> <s_m_entry_name>
wee1_decoys_glide_SP.2357

> <s_m_subgroup_title>
wee1_decoys_glide_SP

> <s_m_subgroupid>
wee1_decoys_glide_SP


$$$$
