ZINC24609499_2258
                    3D
 Schrodinger Suite 2024-2.
 46 48  0  0  1  0            999 V2000
   -1.3119   51.6947   29.6865 C   0  0  0  0  0  0
   -0.1474   52.3934   29.0432 C   0  0  0  0  0  0
    0.6154   51.7162   28.1018 C   0  0  0  0  0  0
    1.7423   52.3246   27.5755 C   0  0  0  0  0  0
    2.1257   53.6109   27.9709 C   0  0  0  0  0  0
    1.2995   54.3316   28.8644 C   0  0  0  0  0  0
    0.1773   53.6999   29.4062 C   0  0  0  0  0  0
    1.5995   55.7694   29.2780 C   0  0  0  0  0  0
    3.4142   54.0729   27.5697 N   0  0  0  0  0  0
    3.6570   54.2350   26.1718 C   0  0  0  0  0  0
    2.7065   54.0935   25.2663 N   0  0  0  0  0  0
    3.1409   54.0638   24.0187 C   0  0  0  0  0  0
    4.4989   54.3085   23.8682 C   0  0  0  0  0  0
    5.2261   54.4954   25.4307 S   0  0  0  0  0  0
    2.1379   53.6983   22.9401 C   0  0  0  0  0  0
    1.9075   51.8919   22.8333 S   0  0  0  0  0  0
    1.2787   51.7832   21.1914 C   0  0  0  0  0  0
    0.1749   52.3690   20.8056 N   0  0  0  0  0  0
   -0.0009   52.0989   19.4541 N   0  0  0  0  0  0
    1.0392   51.4059   19.0607 C   0  0  0  0  0  0
    1.9005   51.1853   20.1130 N   0  0  0  0  0  0
    3.1053   50.5021   20.0836 N   0  0  0  0  0  0
    1.2684   50.9149   17.6411 C   0  0  0  0  0  0
    0.2186   51.1576   16.8544 F   0  0  0  0  0  0
    2.3238   51.5184   17.0980 F   0  0  0  0  0  0
    1.4846   49.5998   17.6217 F   0  0  0  0  0  0
    4.3428   54.1779   28.5823 C   0  0  0  0  0  0
    4.1194   53.7850   29.7338 O   0  0  0  0  0  0
    5.6890   54.8666   28.4266 C   0  0  0  0  0  0
   -1.2783   50.6232   29.5235 H   0  0  0  0  0  0
   -2.2425   52.0643   29.2664 H   0  0  0  0  0  0
   -1.2954   51.8522   30.7654 H   0  0  0  0  0  0
    0.3569   50.7100   27.8020 H   0  0  0  0  0  0
    2.3387   51.7677   26.8823 H   0  0  0  0  0  0
   -0.4389   54.2191   30.1249 H   0  0  0  0  0  0
    2.3407   55.7993   30.0753 H   0  0  0  0  0  0
    1.9814   56.3401   28.4335 H   0  0  0  0  0  0
    0.7048   56.2876   29.6238 H   0  0  0  0  0  0
    5.0871   54.3325   22.9629 H   0  0  0  0  0  0
    1.1556   54.1160   23.1628 H   0  0  0  0  0  0
    2.4356   54.1004   21.9719 H   0  0  0  0  0  0
    2.9547   49.5283   19.8650 H   0  0  0  0  0  0
    3.7303   50.8964   19.3856 H   0  0  0  0  0  0
    5.6901   55.6956   27.7268 H   0  0  0  0  0  0
    5.9029   55.2960   29.4022 H   0  0  0  0  0  0
    6.4762   54.1558   28.1759 H   0  0  0  0  0  0
  1  2  1  0  0  0
  1 30  1  0  0  0
  1 31  1  0  0  0
  1 32  1  0  0  0
  2  7  2  0  0  0
  2  3  1  0  0  0
  3  4  2  0  0  0
  3 33  1  0  0  0
  4  5  1  0  0  0
  4 34  1  0  0  0
  5  6  2  0  0  0
  5  9  1  0  0  0
  6  7  1  0  0  0
  6  8  1  0  0  0
  7 35  1  0  0  0
  8 36  1  0  0  0
  8 37  1  0  0  0
  8 38  1  0  0  0
  9 10  1  0  0  0
  9 27  1  0  0  0
 10 14  1  0  0  0
 10 11  2  0  0  0
 11 12  1  0  0  0
 12 13  2  0  0  0
 12 15  1  0  0  0
 13 14  1  0  0  0
 13 39  1  0  0  0
 15 16  1  0  0  0
 15 40  1  0  0  0
 15 41  1  0  0  0
 16 17  1  0  0  0
 17 21  1  0  0  0
 17 18  2  0  0  0
 18 19  1  0  0  0
 19 20  2  0  0  0
 20 21  1  0  0  0
 20 23  1  0  0  0
 21 22  1  0  0  0
 22 42  1  0  0  0
 22 43  1  0  0  0
 23 24  1  0  0  0
 23 25  1  0  0  0
 23 26  1  0  0  0
 27 28  2  0  0  0
 27 29  1  0  0  0
 29 44  1  0  0  0
 29 45  1  0  0  0
 29 46  1  0  0  0
M  END
> <i_i_glide_confnum>
56

> <i_i_glide_lignum>
2259

> <i_i_glide_posenum>
173

> <i_i_glide_rotatable_bonds>
7

> <i_m_Source_File_Index>
912

> <b_m_subgroup_collapsed>
0

> <r_i_docking_score>
-5.73836

> <r_i_glide_ecoul>
-5.20057

> <r_i_glide_eff_state_penalty>
0

> <r_i_glide_einternal>
4.96196

> <r_i_glide_emodel>
-56.8231

> <r_i_glide_energy>
-43.2905

> <r_i_glide_erotb>
0.510331

> <r_i_glide_esite>
-0.334832

> <r_i_glide_evdw>
-38.09

> <r_i_glide_gscore>
-5.73836

> <r_i_glide_hbond>
-0.0995023

> <r_i_glide_ligand_efficiency>
-0.197875

> <r_i_glide_ligand_efficiency_ln>
-1.31394

> <r_i_glide_ligand_efficiency_sa>
-0.607934

> <r_i_glide_lipo>
-2.37227

> <r_i_glide_metal>
0

> <r_i_glide_rewards>
-0.757508

> <s_i_glide_gridfile>
wee1_glide-grid

> <s_m_Source_File>
wee1_decoys_glide_SP.sdf

> <s_m_Source_Path>
/Users/zhangxujun/Desktop

> <s_m_entry_id>
1187

> <s_m_entry_name>
wee1_decoys_glide_SP.912

> <s_m_subgroup_title>
wee1_decoys_glide_SP

> <s_m_subgroupid>
wee1_decoys_glide_SP


$$$$
