ZINC63572987_1155
                    3D
 Schrodinger Suite 2024-2.
 61 65  0  0  1  0            999 V2000
    1.5118   47.1673   17.5409 C   0  0  0  0  0  0
    1.0911   47.9099   18.7965 C   0  0  0  0  0  0
   -0.1772   47.7057   19.3446 C   0  0  0  0  0  0
   -0.5731   48.4073   20.4839 C   0  0  0  0  0  0
    0.2907   49.3317   21.0788 C   0  0  0  0  0  0
    1.5842   49.5160   20.5457 C   0  0  0  0  0  0
    1.9648   48.8169   19.3997 C   0  0  0  0  0  0
    2.7466   50.5703   21.2803 Cl  0  0  0  0  0  0
   -0.1552   49.9957   22.2344 N   0  0  0  0  0  0
   -0.2216   51.3394   22.3613 C   0  0  0  0  0  0
   -0.2328   52.0966   21.3878 O   0  0  0  0  0  0
   -0.1591   51.7863   23.6423 N   0  0  0  0  0  0
    0.3903   53.1473   23.8914 C   0  0  0  0  0  0
    1.3819   53.0676   25.0753 C   0  0  0  0  0  0
    0.7041   52.3948   26.2514 C   0  0  0  0  0  0
    0.5368   52.7137   27.5460 C   0  0  0  0  0  0
    0.9730   53.8703   28.3447 C   0  0  0  0  0  0
    0.6730   53.9681   29.6667 C   0  0  0  0  0  0
   -0.0893   52.8633   30.2458 C   0  0  0  0  0  0
   -0.4956   51.7867   29.5218 C   0  0  0  0  0  0
   -0.1947   51.6968   28.1588 C   0  0  0  0  0  0
   -0.4975   50.7497   27.2959 N   0  3  0  0  0  0
    0.0162   51.0772   25.9536 C   0  0  1  0  0  0
    0.7425   50.2969   25.7310 H   0  0  0  0  0  0
   -0.9745   51.1680   24.7351 C   0  0  1  0  0  0
   -1.2367   50.1437   24.4682 H   0  0  0  0  0  0
   -2.3580   51.7991   25.0387 C   0  0  0  0  0  0
   -2.8457   52.8967   24.3155 C   0  0  0  0  0  0
   -4.0741   53.4711   24.6299 C   0  0  0  0  0  0
   -4.8663   52.9397   25.6442 C   0  0  0  0  0  0
   -4.4237   51.7938   26.3221 C   0  0  0  0  0  0
   -3.1921   51.2242   26.0085 C   0  0  0  0  0  0
   -6.0569   53.5940   25.8994 O   0  0  0  0  0  0
   -6.9294   53.0796   26.8996 C   0  0  0  0  0  0
    1.0024   55.0125   30.4813 O   0  0  0  0  0  0
    1.6786   56.1470   29.9394 C   0  0  0  0  0  0
    1.8592   46.1627   17.7822 H   0  0  0  0  0  0
    0.6741   47.0839   16.8472 H   0  0  0  0  0  0
    2.3041   47.6969   17.0099 H   0  0  0  0  0  0
   -0.8611   47.0086   18.8837 H   0  0  0  0  0  0
   -1.5592   48.2385   20.8928 H   0  0  0  0  0  0
    2.9490   48.9777   18.9773 H   0  0  0  0  0  0
   -0.2620   49.4268   23.0596 H   0  0  0  0  0  0
    0.9299   53.5339   23.0219 H   0  0  0  0  0  0
   -0.4007   53.8537   24.1295 H   0  0  0  0  0  0
    2.2641   52.4996   24.7741 H   0  0  0  0  0  0
    1.7390   54.0646   25.3310 H   0  0  0  0  0  0
    1.5274   54.6629   27.8687 H   0  0  0  0  0  0
   -0.3373   52.8964   31.2985 H   0  0  0  0  0  0
   -1.0587   51.0076   30.0194 H   0  0  0  0  0  0
   -2.2910   53.3283   23.4981 H   0  0  0  0  0  0
   -4.4192   54.3351   24.0810 H   0  0  0  0  0  0
   -5.0209   51.3301   27.0928 H   0  0  0  0  0  0
   -2.8945   50.3306   26.5374 H   0  0  0  0  0  0
   -7.2715   52.0724   26.6534 H   0  0  0  0  0  0
   -6.4534   53.0662   27.8829 H   0  0  0  0  0  0
   -7.8115   53.7186   26.9723 H   0  0  0  0  0  0
    1.1053   56.6229   29.1429 H   0  0  0  0  0  0
    1.8212   56.8901   30.7238 H   0  0  0  0  0  0
    2.6658   55.8833   29.5582 H   0  0  0  0  0  0
   -0.9909   49.8828   27.5356 H   0  0  0  0  0  0
  1  2  1  0  0  0
  1 37  1  0  0  0
  1 38  1  0  0  0
  1 39  1  0  0  0
  2  7  2  0  0  0
  2  3  1  0  0  0
  3  4  2  0  0  0
  3 40  1  0  0  0
  4  5  1  0  0  0
  4 41  1  0  0  0
  5  6  2  0  0  0
  5  9  1  0  0  0
  6  7  1  0  0  0
  6  8  1  0  0  0
  7 42  1  0  0  0
  9 10  1  0  0  0
  9 43  1  0  0  0
 10 11  2  0  0  0
 10 12  1  0  0  0
 12 25  1  0  0  0
 12 13  1  0  0  0
 13 14  1  0  0  0
 13 44  1  0  0  0
 13 45  1  0  0  0
 14 15  1  0  0  0
 14 46  1  0  0  0
 14 47  1  0  0  0
 15 23  1  0  0  0
 15 16  2  0  0  0
 16 21  1  0  0  0
 16 17  1  0  0  0
 17 18  2  0  0  0
 17 48  1  0  0  0
 18 19  1  0  0  0
 18 35  1  0  0  0
 19 20  2  0  0  0
 19 49  1  0  0  0
 20 21  1  0  0  0
 20 50  1  0  0  0
 21 22  2  0  0  0
 22 23  1  0  0  0
 22 61  1  0  0  0
 23 24  1  0  0  0
 23 25  1  0  0  0
 25 26  1  0  0  0
 25 27  1  0  0  0
 27 32  2  0  0  0
 27 28  1  0  0  0
 28 29  2  0  0  0
 28 51  1  0  0  0
 29 30  1  0  0  0
 29 52  1  0  0  0
 30 31  2  0  0  0
 30 33  1  0  0  0
 31 32  1  0  0  0
 31 53  1  0  0  0
 32 54  1  0  0  0
 33 34  1  0  0  0
 34 55  1  0  0  0
 34 56  1  0  0  0
 34 57  1  0  0  0
 35 36  1  0  0  0
 36 58  1  0  0  0
 36 59  1  0  0  0
 36 60  1  0  0  0
M  CHG  1  22   1
M  END
> <i_i_glide_confnum>
49

> <i_i_glide_lignum>
1156

> <i_i_glide_posenum>
249

> <i_i_glide_rotatable_bonds>
6

> <i_m_Source_File_Index>
1753

> <b_m_subgroup_collapsed>
0

> <r_i_docking_score>
-4.63237

> <r_i_glide_ecoul>
-4.47285

> <r_i_glide_eff_state_penalty>
0

> <r_i_glide_einternal>
10.8552

> <r_i_glide_emodel>
-54.4026

> <r_i_glide_energy>
-46.1328

> <r_i_glide_erotb>
0.356102

> <r_i_glide_esite>
-0.091043

> <r_i_glide_evdw>
-41.66

> <r_i_glide_gscore>
-4.63237

> <r_i_glide_hbond>
-0.2

> <r_i_glide_ligand_efficiency>
-0.136246

> <r_i_glide_ligand_efficiency_ln>
-1.02342

> <r_i_glide_ligand_efficiency_sa>
-0.441385

> <r_i_glide_lipo>
-1.74343

> <r_i_glide_metal>
0

> <r_i_glide_rewards>
-0.20007

> <s_i_glide_gridfile>
wee1_glide-grid

> <s_m_Source_File>
wee1_decoys_glide_SP.sdf

> <s_m_Source_Path>
/Users/zhangxujun/Desktop

> <s_m_entry_id>
2028

> <s_m_entry_name>
wee1_decoys_glide_SP.1753

> <s_m_subgroup_title>
wee1_decoys_glide_SP

> <s_m_subgroupid>
wee1_decoys_glide_SP


$$$$
