ZINC20683208_3169
                    3D
 Schrodinger Suite 2024-2.
 65 70  0  0  1  0            999 V2000
   -0.7177   51.7676   29.6613 C   0  0  0  0  0  0
   -0.5143   51.4706   28.3107 C   0  0  0  0  0  0
    0.6576   51.8773   27.6703 C   0  0  0  0  0  0
    1.6191   52.5869   28.3847 C   0  0  0  0  0  0
    1.4131   52.8873   29.7416 C   0  0  0  0  0  0
    0.2359   52.4962   30.3757 C   0  0  0  0  0  0
    2.3426   53.5939   30.4745 O   0  0  0  0  0  0
    3.6656   53.5051   29.9458 C   0  0  0  0  0  0
    3.6427   53.8267   28.4304 C   0  0  2  0  0  0
    3.2209   54.8263   28.3062 H   0  0  0  0  0  0
    2.7979   52.8937   27.7374 O   0  0  0  0  0  0
    5.0497   53.8038   27.8104 C   0  0  0  0  0  0
    4.9995   53.8551   26.3521 N   0  0  0  0  0  0
    5.7975   54.5901   25.5679 C   0  0  0  0  0  0
    6.7046   55.2969   26.0184 O   0  0  0  0  0  0
    5.5445   54.5038   24.0806 C   0  0  0  0  0  0
    6.5574   54.8977   23.2054 C   0  0  0  0  0  0
    6.3627   54.8958   21.8326 C   0  0  0  0  0  0
    5.1272   54.5104   21.2968 C   0  0  0  0  0  0
    4.1107   54.0968   22.1608 C   0  0  0  0  0  0
    4.3111   54.0966   23.5416 C   0  0  0  0  0  0
    4.8563   54.4778   19.9128 N   0  0  0  0  0  0
    5.3103   55.2087   18.8397 C   0  0  0  0  0  0
    6.3043   56.5673   18.9606 S   0  0  0  0  0  0
    4.8468   54.7405   17.6256 N   0  0  0  0  0  0
    4.6815   55.6339   16.4478 C   0  0  0  0  0  0
    3.5366   55.1223   15.5350 C   0  0  1  0  0  0
    3.5094   55.7120   14.6171 H   0  0  0  0  0  0
    3.8404   53.6921   15.0848 C   0  0  0  0  0  0
    3.8918   52.8284   16.3459 C   0  0  1  0  0  0
    4.1386   51.8061   16.0490 H   0  0  0  0  0  0
    4.9973   53.2934   17.3269 C   0  0  0  0  0  0
    2.5120   52.7898   17.0184 C   0  0  0  0  0  0
    2.0792   51.6682   17.6368 C   0  0  0  0  0  0
    0.7560   51.6580   18.2202 C   0  0  0  0  0  0
   -0.0124   52.7607   18.1129 C   0  0  0  0  0  0
    0.4215   53.9725   17.4270 C   0  0  0  0  0  0
   -0.3667   54.9146   17.3108 O   0  0  0  0  0  0
    1.7110   53.9447   16.9226 N   0  0  0  0  0  0
    2.1449   55.1868   16.2222 C   0  0  0  0  0  0
   -1.6064   51.4092   30.1607 H   0  0  0  0  0  0
   -1.2529   50.8896   27.7744 H   0  0  0  0  0  0
    0.8268   51.6183   26.6341 H   0  0  0  0  0  0
    0.0723   52.7213   31.4206 H   0  0  0  0  0  0
    4.3047   54.2072   30.4809 H   0  0  0  0  0  0
    4.0539   52.4964   30.1071 H   0  0  0  0  0  0
    5.6510   54.6082   28.2423 H   0  0  0  0  0  0
    5.5631   52.8829   28.0912 H   0  0  0  0  0  0
    4.3777   53.1913   25.9152 H   0  0  0  0  0  0
    7.5045   55.2297   23.5912 H   0  0  0  0  0  0
    7.1943   55.1706   21.2066 H   0  0  0  0  0  0
    3.1507   53.7938   21.7667 H   0  0  0  0  0  0
    3.4919   53.8002   24.1813 H   0  0  0  0  0  0
    4.0713   53.8784   19.6968 H   0  0  0  0  0  0
    4.4425   56.6522   16.7611 H   0  0  0  0  0  0
    5.6248   55.6847   15.8986 H   0  0  0  0  0  0
    3.0806   53.3279   14.3912 H   0  0  0  0  0  0
    4.7921   53.6472   14.5517 H   0  0  0  0  0  0
    5.9793   53.1339   16.8801 H   0  0  0  0  0  0
    4.9693   52.6610   18.2155 H   0  0  0  0  0  0
    2.7050   50.7859   17.6821 H   0  0  0  0  0  0
    0.3957   50.7797   18.7389 H   0  0  0  0  0  0
   -1.0011   52.7634   18.5423 H   0  0  0  0  0  0
    2.0958   56.0303   16.9138 H   0  0  0  0  0  0
    1.3985   55.4462   15.4695 H   0  0  0  0  0  0
  1  6  2  0  0  0
  1  2  1  0  0  0
  1 41  1  0  0  0
  2  3  2  0  0  0
  2 42  1  0  0  0
  3  4  1  0  0  0
  3 43  1  0  0  0
  4 11  1  0  0  0
  4  5  2  0  0  0
  5  6  1  0  0  0
  5  7  1  0  0  0
  6 44  1  0  0  0
  7  8  1  0  0  0
  8  9  1  0  0  0
  8 45  1  0  0  0
  8 46  1  0  0  0
  9 10  1  0  0  0
  9 11  1  0  0  0
  9 12  1  0  0  0
 12 13  1  0  0  0
 12 47  1  0  0  0
 12 48  1  0  0  0
 13 14  1  0  0  0
 13 49  1  0  0  0
 14 15  2  0  0  0
 14 16  1  0  0  0
 16 21  2  0  0  0
 16 17  1  0  0  0
 17 18  2  0  0  0
 17 50  1  0  0  0
 18 19  1  0  0  0
 18 51  1  0  0  0
 19 20  2  0  0  0
 19 22  1  0  0  0
 20 21  1  0  0  0
 20 52  1  0  0  0
 21 53  1  0  0  0
 22 23  1  0  0  0
 22 54  1  0  0  0
 23 24  2  0  0  0
 23 25  1  0  0  0
 25 32  1  0  0  0
 25 26  1  0  0  0
 26 27  1  0  0  0
 26 55  1  0  0  0
 26 56  1  0  0  0
 27 28  1  0  0  0
 27 40  1  0  0  0
 27 29  1  0  0  0
 29 30  1  0  0  0
 29 57  1  0  0  0
 29 58  1  0  0  0
 30 31  1  0  0  0
 30 32  1  0  0  0
 30 33  1  0  0  0
 32 59  1  0  0  0
 32 60  1  0  0  0
 33 39  1  0  0  0
 33 34  2  0  0  0
 34 35  1  0  0  0
 34 61  1  0  0  0
 35 36  2  0  0  0
 35 62  1  0  0  0
 36 37  1  0  0  0
 36 63  1  0  0  0
 37 38  2  0  0  0
 37 39  1  0  0  0
 39 40  1  0  0  0
 40 64  1  0  0  0
 40 65  1  0  0  0
M  END
> <i_i_glide_confnum>
120

> <i_i_glide_lignum>
3170

> <i_i_glide_posenum>
93

> <i_i_glide_rotatable_bonds>
7

> <i_m_Source_File_Index>
3884

> <b_m_subgroup_collapsed>
0

> <r_i_docking_score>
-6.96672

> <r_i_glide_ecoul>
-10.5427

> <r_i_glide_eff_state_penalty>
0

> <r_i_glide_einternal>
5.30276

> <r_i_glide_emodel>
-79.0808

> <r_i_glide_energy>
-56.7596

> <r_i_glide_erotb>
0.461467

> <r_i_glide_esite>
-0.00370715

> <r_i_glide_evdw>
-46.2168

> <r_i_glide_gscore>
-6.96672

> <r_i_glide_hbond>
-0.605006

> <r_i_glide_ligand_efficiency>
-0.18829

> <r_i_glide_ligand_efficiency_ln>
-1.51092

> <r_i_glide_ligand_efficiency_sa>
-0.627423

> <r_i_glide_lipo>
-2.28582

> <r_i_glide_metal>
0

> <r_i_glide_rewards>
-0.641397

> <s_i_glide_gridfile>
wee1_glide-grid

> <s_m_Source_File>
wee1_decoys_glide_SP.sdf

> <s_m_Source_Path>
/Users/zhangxujun/Desktop

> <s_m_entry_id>
4159

> <s_m_entry_name>
wee1_decoys_glide_SP.3884

> <s_m_subgroup_title>
wee1_decoys_glide_SP

> <s_m_subgroupid>
wee1_decoys_glide_SP


$$$$
