ZINC13398400_529
                    3D
 Schrodinger Suite 2024-2.
 57 60  0  0  1  0            999 V2000
    6.5834   54.4957   27.1299 C   0  0  0  0  0  0
    6.5777   54.5164   25.7404 C   0  0  0  0  0  0
    5.3857   54.3258   25.0299 C   0  0  0  0  0  0
    4.2053   54.0972   25.7517 C   0  0  0  0  0  0
    4.1840   54.0539   27.1579 C   0  0  0  0  0  0
    5.4033   54.2721   27.8307 C   0  0  0  0  0  0
    2.9543   53.7615   27.8291 N   0  0  0  0  0  0
    1.7476   53.3001   27.1195 C   0  0  0  0  0  0
    0.6261   53.2842   28.1328 C   0  0  0  0  0  0
    1.3426   53.2259   29.4491 C   0  0  0  0  0  0
    2.7476   53.7543   29.1810 C   0  0  0  0  0  0
    3.5077   54.0955   30.0820 O   0  0  0  0  0  0
    5.3617   54.3192   23.5173 C   0  0  0  0  0  0
    4.4677   53.7221   22.9172 O   0  0  0  0  0  0
    6.3546   55.0186   22.9243 N   0  0  0  0  0  0
    6.6403   55.1940   21.5606 C   0  0  0  0  0  0
    5.7877   54.8366   20.5066 C   0  0  0  0  0  0
    6.2531   54.8750   19.1943 C   0  0  0  0  0  0
    7.5724   55.2544   18.9355 C   0  0  0  0  0  0
    8.3913   55.6833   19.9769 C   0  0  0  0  0  0
    7.9082   55.6950   21.2794 C   0  0  0  0  0  0
    8.2379   55.1300   17.2739 S   0  0  0  0  0  0
    9.6377   54.7093   17.4079 O   0  0  0  0  0  0
    7.2856   54.3149   16.5099 O   0  0  0  0  0  0
    8.2069   56.7636   16.5705 N   0  0  0  0  0  0
    6.9049   57.4742   16.5218 C   0  0  0  0  0  0
    6.7004   58.3524   17.7781 C   0  0  0  0  0  0
    7.9064   59.2964   17.9952 C   0  0  0  0  0  0
    9.2509   58.5161   18.0154 C   0  0  1  0  0  0
    9.2852   57.8751   18.8852 H   0  0  0  0  0  0
    9.3884   57.6529   16.7358 C   0  0  0  0  0  0
   10.4679   59.4533   18.2083 C   0  0  0  0  0  0
   10.3048   60.4967   18.8817 O   0  0  0  0  0  0
    7.5047   54.6408   27.6767 H   0  0  0  0  0  0
    7.5114   54.6661   25.2220 H   0  0  0  0  0  0
    3.2978   53.9304   25.1895 H   0  0  0  0  0  0
    5.4901   54.2514   28.9036 H   0  0  0  0  0  0
    1.4934   53.9627   26.2923 H   0  0  0  0  0  0
    1.9184   52.2998   26.7171 H   0  0  0  0  0  0
   -0.0732   52.4612   27.9791 H   0  0  0  0  0  0
    0.0571   54.2140   28.0817 H   0  0  0  0  0  0
    1.4378   52.1950   29.7934 H   0  0  0  0  0  0
    0.8312   53.7901   30.2301 H   0  0  0  0  0  0
    7.0365   55.4228   23.5455 H   0  0  0  0  0  0
    4.7835   54.4807   20.6769 H   0  0  0  0  0  0
    5.6048   54.5558   18.3917 H   0  0  0  0  0  0
    9.4212   55.9545   19.7899 H   0  0  0  0  0  0
    8.5693   56.0104   22.0725 H   0  0  0  0  0  0
    6.9129   58.1154   15.6402 H   0  0  0  0  0  0
    6.1016   56.7503   16.3830 H   0  0  0  0  0  0
    5.7871   58.9380   17.6674 H   0  0  0  0  0  0
    6.5419   57.7338   18.6603 H   0  0  0  0  0  0
    7.9046   60.0157   17.1730 H   0  0  0  0  0  0
    7.7513   59.8470   18.9241 H   0  0  0  0  0  0
   10.2984   57.0513   16.7115 H   0  0  0  0  0  0
    9.4177   58.3136   15.8676 H   0  0  0  0  0  0
   11.5675   59.1079   17.7243 O   0  5  0  0  0  0
  1  6  2  0  0  0
  1  2  1  0  0  0
  1 34  1  0  0  0
  2  3  2  0  0  0
  2 35  1  0  0  0
  3  4  1  0  0  0
  3 13  1  0  0  0
  4  5  2  0  0  0
  4 36  1  0  0  0
  5  6  1  0  0  0
  5  7  1  0  0  0
  6 37  1  0  0  0
  7 11  1  0  0  0
  7  8  1  0  0  0
  8  9  1  0  0  0
  8 38  1  0  0  0
  8 39  1  0  0  0
  9 10  1  0  0  0
  9 40  1  0  0  0
  9 41  1  0  0  0
 10 11  1  0  0  0
 10 42  1  0  0  0
 10 43  1  0  0  0
 11 12  2  0  0  0
 13 14  2  0  0  0
 13 15  1  0  0  0
 15 16  1  0  0  0
 15 44  1  0  0  0
 16 21  2  0  0  0
 16 17  1  0  0  0
 17 18  2  0  0  0
 17 45  1  0  0  0
 18 19  1  0  0  0
 18 46  1  0  0  0
 19 20  2  0  0  0
 19 22  1  0  0  0
 20 21  1  0  0  0
 20 47  1  0  0  0
 21 48  1  0  0  0
 22 23  2  0  0  0
 22 24  2  0  0  0
 22 25  1  0  0  0
 25 31  1  0  0  0
 25 26  1  0  0  0
 26 27  1  0  0  0
 26 49  1  0  0  0
 26 50  1  0  0  0
 27 28  1  0  0  0
 27 51  1  0  0  0
 27 52  1  0  0  0
 28 29  1  0  0  0
 28 53  1  0  0  0
 28 54  1  0  0  0
 29 30  1  0  0  0
 29 31  1  0  0  0
 29 32  1  0  0  0
 31 55  1  0  0  0
 31 56  1  0  0  0
 32 33  2  0  0  0
 32 57  1  0  0  0
M  CHG  1  57  -1
M  END
> <i_i_glide_confnum>
12

> <i_i_glide_lignum>
530

> <i_i_glide_posenum>
100

> <i_i_glide_rotatable_bonds>
7

> <i_m_Source_File_Index>
1476

> <b_m_subgroup_collapsed>
0

> <r_i_docking_score>
-7.30754

> <r_i_glide_ecoul>
-7.38268

> <r_i_glide_eff_state_penalty>
0

> <r_i_glide_einternal>
3.3521

> <r_i_glide_emodel>
-78.1506

> <r_i_glide_energy>
-51.5582

> <r_i_glide_erotb>
0.547608

> <r_i_glide_esite>
-0.0299852

> <r_i_glide_evdw>
-44.1755

> <r_i_glide_gscore>
-7.30754

> <r_i_glide_hbond>
-0.509137

> <r_i_glide_ligand_efficiency>
-0.221441

> <r_i_glide_ligand_efficiency_ln>
-1.62516

> <r_i_glide_ligand_efficiency_sa>
-0.710278

> <r_i_glide_lipo>
-3.07886

> <r_i_glide_metal>
0

> <r_i_glide_rewards>
-0.920982

> <s_i_glide_gridfile>
wee1_glide-grid

> <s_m_Source_File>
wee1_decoys_glide_SP.sdf

> <s_m_Source_Path>
/Users/zhangxujun/Desktop

> <s_m_entry_id>
1751

> <s_m_entry_name>
wee1_decoys_glide_SP.1476

> <s_m_subgroup_title>
wee1_decoys_glide_SP

> <s_m_subgroupid>
wee1_decoys_glide_SP


$$$$
