ZINC39974628_3740
                    3D
 Schrodinger Suite 2024-2.
 62 64  0  0  1  0            999 V2000
    3.2470   58.4893   16.3691 C   0  0  0  0  0  0
    3.9256   57.4099   15.5043 C   0  0  0  0  0  0
    5.2488   56.8555   16.0558 C   0  0  0  0  0  0
    6.0868   56.4516   15.2519 O   0  0  0  0  0  0
    5.3958   56.8127   17.3987 N   0  0  0  0  0  0
    6.5195   56.4124   18.1469 C   0  0  0  0  0  0
    7.8292   56.3970   17.6395 C   0  0  0  0  0  0
    8.8970   56.0348   18.4573 C   0  0  0  0  0  0
    8.6700   55.6968   19.7872 C   0  0  0  0  0  0
    7.3797   55.6998   20.3105 C   0  0  0  0  0  0
    6.3051   56.0677   19.4864 C   0  0  0  0  0  0
    7.2597   55.4209   21.6834 N   0  0  0  0  0  0
    6.3151   54.7616   22.4184 C   0  0  0  0  0  0
    5.0547   53.8596   21.7676 S   0  0  0  0  0  0
    6.5541   54.9399   23.7538 N   0  0  0  0  0  0
    5.8125   54.6264   24.9071 C   0  0  0  0  0  0
    6.5250   54.3303   26.0676 C   0  0  0  0  0  0
    5.8651   54.0351   27.2553 C   0  0  0  0  0  0
    4.4752   54.0694   27.2863 C   0  0  0  0  0  0
    3.7552   54.4256   26.1444 C   0  0  0  0  0  0
    4.4185   54.6884   24.9573 C   0  0  0  0  0  0
    3.6334   53.6680   28.8074 S   0  0  0  0  0  0
    4.1011   52.3506   29.2557 O   0  0  0  0  0  0
    3.7972   54.8309   29.6817 O   0  0  0  0  0  0
    1.9217   53.5312   28.4013 N   0  0  0  0  0  0
    0.8717   54.1998   29.1950 C   0  0  0  0  0  0
   -0.0048   53.1417   29.9036 C   0  0  1  0  0  0
   -0.8836   53.6615   30.2813 H   0  0  0  0  0  0
   -0.5199   52.0961   28.8763 C   0  0  0  0  0  0
    0.5865   51.4861   27.9832 C   0  0  2  0  0  0
    1.2307   50.8963   28.6349 H   0  0  0  0  0  0
    1.4578   52.5844   27.3689 C   0  0  0  0  0  0
   -0.0079   50.6126   26.8675 C   0  0  0  0  0  0
    0.7282   52.4973   31.0950 C   0  0  0  0  0  0
    2.4127   58.9413   15.8316 H   0  0  0  0  0  0
    3.9324   59.2959   16.6307 H   0  0  0  0  0  0
    2.8249   58.0698   17.2811 H   0  0  0  0  0  0
    3.2451   56.5724   15.3468 H   0  0  0  0  0  0
    4.1205   57.8317   14.5169 H   0  0  0  0  0  0
    4.5867   57.0741   17.9402 H   0  0  0  0  0  0
    8.0450   56.6837   16.6220 H   0  0  0  0  0  0
    9.9037   56.0298   18.0667 H   0  0  0  0  0  0
    9.5044   55.4296   20.4144 H   0  0  0  0  0  0
    5.3056   56.1042   19.8872 H   0  0  0  0  0  0
    8.0895   55.6750   22.2021 H   0  0  0  0  0  0
    7.4687   55.3114   23.9680 H   0  0  0  0  0  0
    7.5919   54.3224   26.0543 H   0  0  0  0  0  0
    6.4272   53.7848   28.1439 H   0  0  0  0  0  0
    2.6814   54.4982   26.1470 H   0  0  0  0  0  0
    3.8322   54.9638   24.0935 H   0  0  0  0  0  0
    1.3411   54.8594   29.9250 H   0  0  0  0  0  0
    0.3006   54.8223   28.5076 H   0  0  0  0  0  0
   -1.0987   51.3047   29.3574 H   0  0  0  0  0  0
   -1.2263   52.5901   28.2096 H   0  0  0  0  0  0
    0.9074   53.1614   26.6247 H   0  0  0  0  0  0
    2.3219   52.1396   26.8765 H   0  0  0  0  0  0
   -0.3297   51.2076   26.0116 H   0  0  0  0  0  0
    0.7064   49.8697   26.5097 H   0  0  0  0  0  0
   -0.8957   50.0962   27.2206 H   0  0  0  0  0  0
    1.6506   52.0039   30.7892 H   0  0  0  0  0  0
    0.9848   53.2428   31.8482 H   0  0  0  0  0  0
    0.1015   51.7523   31.5845 H   0  0  0  0  0  0
  1  2  1  0  0  0
  1 35  1  0  0  0
  1 36  1  0  0  0
  1 37  1  0  0  0
  2  3  1  0  0  0
  2 38  1  0  0  0
  2 39  1  0  0  0
  3  4  2  0  0  0
  3  5  1  0  0  0
  5  6  1  0  0  0
  5 40  1  0  0  0
  6 11  2  0  0  0
  6  7  1  0  0  0
  7  8  2  0  0  0
  7 41  1  0  0  0
  8  9  1  0  0  0
  8 42  1  0  0  0
  9 10  2  0  0  0
  9 43  1  0  0  0
 10 11  1  0  0  0
 10 12  1  0  0  0
 11 44  1  0  0  0
 12 13  1  0  0  0
 12 45  1  0  0  0
 13 14  2  0  0  0
 13 15  1  0  0  0
 15 16  1  0  0  0
 15 46  1  0  0  0
 16 21  2  0  0  0
 16 17  1  0  0  0
 17 18  2  0  0  0
 17 47  1  0  0  0
 18 19  1  0  0  0
 18 48  1  0  0  0
 19 20  2  0  0  0
 19 22  1  0  0  0
 20 21  1  0  0  0
 20 49  1  0  0  0
 21 50  1  0  0  0
 22 23  2  0  0  0
 22 24  2  0  0  0
 22 25  1  0  0  0
 25 32  1  0  0  0
 25 26  1  0  0  0
 26 27  1  0  0  0
 26 51  1  0  0  0
 26 52  1  0  0  0
 27 28  1  0  0  0
 27 29  1  0  0  0
 27 34  1  0  0  0
 29 30  1  0  0  0
 29 53  1  0  0  0
 29 54  1  0  0  0
 30 31  1  0  0  0
 30 32  1  0  0  0
 30 33  1  0  0  0
 32 55  1  0  0  0
 32 56  1  0  0  0
 33 57  1  0  0  0
 33 58  1  0  0  0
 33 59  1  0  0  0
 34 60  1  0  0  0
 34 61  1  0  0  0
 34 62  1  0  0  0
M  END
> <i_i_glide_confnum>
312

> <i_i_glide_lignum>
3741

> <i_i_glide_posenum>
283

> <i_i_glide_rotatable_bonds>
9

> <i_m_Source_File_Index>
4205

> <b_m_subgroup_collapsed>
0

> <r_i_docking_score>
-4.24223

> <r_i_glide_ecoul>
-4.07356

> <r_i_glide_eff_state_penalty>
0

> <r_i_glide_einternal>
16.0773

> <r_i_glide_emodel>
-55.5158

> <r_i_glide_energy>
-56.6626

> <r_i_glide_erotb>
0.718611

> <r_i_glide_esite>
0

> <r_i_glide_evdw>
-52.589

> <r_i_glide_gscore>
-4.24223

> <r_i_glide_hbond>
-0.335867

> <r_i_glide_ligand_efficiency>
-0.13257

> <r_i_glide_ligand_efficiency_ln>
-0.949951

> <r_i_glide_ligand_efficiency_sa>
-0.420882

> <r_i_glide_lipo>
-2.42966

> <r_i_glide_metal>
0

> <r_i_glide_rewards>
1.04517

> <s_i_glide_gridfile>
wee1_glide-grid

> <s_m_Source_File>
wee1_decoys_glide_SP.sdf

> <s_m_Source_Path>
/Users/zhangxujun/Desktop

> <s_m_entry_id>
4480

> <s_m_entry_name>
wee1_decoys_glide_SP.4205

> <s_m_subgroup_title>
wee1_decoys_glide_SP

> <s_m_subgroupid>
wee1_decoys_glide_SP


$$$$
