ZINC21869360_2715
                    3D
 Schrodinger Suite 2024-2.
 53 56  0  0  1  0            999 V2000
    7.8650   57.8484   18.0810 C   0  0  0  0  0  0
    6.8624   56.8179   18.5812 C   0  0  0  0  0  0
    7.2101   56.0005   19.6591 C   0  0  0  0  0  0
    6.3041   55.0699   20.1607 C   0  0  0  0  0  0
    5.0439   54.9191   19.5685 C   0  0  0  0  0  0
    4.6970   55.7273   18.4833 C   0  0  0  0  0  0
    5.5931   56.6830   17.9900 C   0  0  0  0  0  0
    5.1588   57.5765   16.8358 C   0  0  0  0  0  0
    4.0488   54.0909   20.1087 N   0  0  0  0  0  0
    4.2162   52.8712   20.6668 C   0  0  0  0  0  0
    5.2406   52.2009   20.5559 O   0  0  0  0  0  0
    3.0599   52.3408   21.4797 C   0  0  0  0  0  0
    2.8813   50.9588   21.6314 C   0  0  0  0  0  0
    1.8742   50.4627   22.4552 C   0  0  0  0  0  0
    1.0147   51.3357   23.1232 C   0  0  0  0  0  0
    1.1662   52.7130   22.9376 C   0  0  0  0  0  0
    2.1913   53.2109   22.1472 C   0  0  0  0  0  0
    0.0393   50.7642   23.9590 N   0  0  0  0  0  0
   -0.9695   51.6324   25.1377 S   0  0  0  0  0  0
   -1.4101   52.8940   24.5325 O   0  0  0  0  0  0
   -1.9636   50.6572   25.5961 O   0  0  0  0  0  0
    0.1011   52.0132   26.5320 C   0  0  0  0  0  0
   -0.1466   51.4266   27.7799 C   0  0  0  0  0  0
    0.6746   51.7223   28.8714 C   0  0  0  0  0  0
    1.7665   52.5692   28.7120 C   0  0  0  0  0  0
    2.0082   53.1734   27.4706 C   0  0  0  0  0  0
    1.1783   52.8964   26.3867 C   0  0  0  0  0  0
    3.0965   53.9940   27.2468 O   0  0  0  0  0  0
    3.7125   54.4911   28.4404 C   0  0  0  0  0  0
    3.8374   53.3696   29.5017 C   0  0  0  0  0  0
    2.5464   52.8359   29.8211 O   0  0  0  0  0  0
    8.7917   57.8414   18.6565 H   0  0  0  0  0  0
    8.1116   57.6539   17.0363 H   0  0  0  0  0  0
    7.4387   58.8506   18.1351 H   0  0  0  0  0  0
    8.1793   56.0971   20.1296 H   0  0  0  0  0  0
    6.5758   54.4964   21.0354 H   0  0  0  0  0  0
    3.7155   55.6357   18.0406 H   0  0  0  0  0  0
    4.1434   57.3589   16.5015 H   0  0  0  0  0  0
    5.8314   57.4529   15.9863 H   0  0  0  0  0  0
    5.1967   58.6265   17.1307 H   0  0  0  0  0  0
    3.1072   54.4596   20.0822 H   0  0  0  0  0  0
    3.5300   50.2605   21.1214 H   0  0  0  0  0  0
    1.7765   49.3923   22.5765 H   0  0  0  0  0  0
    0.5259   53.4354   23.4097 H   0  0  0  0  0  0
    2.3039   54.2839   22.0816 H   0  0  0  0  0  0
    0.0455   49.7617   24.0583 H   0  0  0  0  0  0
   -0.9754   50.7436   27.9146 H   0  0  0  0  0  0
    0.4553   51.2979   29.8364 H   0  0  0  0  0  0
    1.3952   53.3694   25.4437 H   0  0  0  0  0  0
    3.1071   55.3039   28.8465 H   0  0  0  0  0  0
    4.6946   54.8968   28.1982 H   0  0  0  0  0  0
    4.3041   53.7519   30.4078 H   0  0  0  0  0  0
    4.4717   52.5729   29.1064 H   0  0  0  0  0  0
  1  2  1  0  0  0
  1 32  1  0  0  0
  1 33  1  0  0  0
  1 34  1  0  0  0
  2  7  2  0  0  0
  2  3  1  0  0  0
  3  4  2  0  0  0
  3 35  1  0  0  0
  4  5  1  0  0  0
  4 36  1  0  0  0
  5  6  2  0  0  0
  5  9  1  0  0  0
  6  7  1  0  0  0
  6 37  1  0  0  0
  7  8  1  0  0  0
  8 38  1  0  0  0
  8 39  1  0  0  0
  8 40  1  0  0  0
  9 10  1  0  0  0
  9 41  1  0  0  0
 10 11  2  0  0  0
 10 12  1  0  0  0
 12 17  2  0  0  0
 12 13  1  0  0  0
 13 14  2  0  0  0
 13 42  1  0  0  0
 14 15  1  0  0  0
 14 43  1  0  0  0
 15 16  2  0  0  0
 15 18  1  0  0  0
 16 17  1  0  0  0
 16 44  1  0  0  0
 17 45  1  0  0  0
 18 19  1  0  0  0
 18 46  1  0  0  0
 19 20  2  0  0  0
 19 21  2  0  0  0
 19 22  1  0  0  0
 22 27  2  0  0  0
 22 23  1  0  0  0
 23 24  2  0  0  0
 23 47  1  0  0  0
 24 25  1  0  0  0
 24 48  1  0  0  0
 25 31  1  0  0  0
 25 26  2  0  0  0
 26 27  1  0  0  0
 26 28  1  0  0  0
 27 49  1  0  0  0
 28 29  1  0  0  0
 29 30  1  0  0  0
 29 50  1  0  0  0
 29 51  1  0  0  0
 30 31  1  0  0  0
 30 52  1  0  0  0
 30 53  1  0  0  0
M  END
> <i_i_glide_confnum>
159

> <i_i_glide_lignum>
2716

> <i_i_glide_posenum>
359

> <i_i_glide_rotatable_bonds>
6

> <i_m_Source_File_Index>
4506

> <b_m_subgroup_collapsed>
0

> <r_i_docking_score>
-4.13961

> <r_i_glide_ecoul>
-5.68586

> <r_i_glide_eff_state_penalty>
0

> <r_i_glide_einternal>
6.02329

> <r_i_glide_emodel>
-50.2895

> <r_i_glide_energy>
-43.945

> <r_i_glide_erotb>
0.62254

> <r_i_glide_esite>
-0.0574797

> <r_i_glide_evdw>
-38.2592

> <r_i_glide_gscore>
-4.13961

> <r_i_glide_hbond>
-0.32

> <r_i_glide_ligand_efficiency>
-0.133536

> <r_i_glide_ligand_efficiency_ln>
-0.933608

> <r_i_glide_ligand_efficiency_sa>
-0.419486

> <r_i_glide_lipo>
-1.86054

> <r_i_glide_metal>
0

> <r_i_glide_rewards>
0.241716

> <s_i_glide_gridfile>
wee1_glide-grid

> <s_m_Source_File>
wee1_decoys_glide_SP.sdf

> <s_m_Source_Path>
/Users/zhangxujun/Desktop

> <s_m_entry_id>
4781

> <s_m_entry_name>
wee1_decoys_glide_SP.4506

> <s_m_subgroup_title>
wee1_decoys_glide_SP

> <s_m_subgroupid>
wee1_decoys_glide_SP


$$$$
