ZINC14276648_3164
                    3D
 Schrodinger Suite 2024-2.
 62 66  0  0  1  0            999 V2000
    0.7044   45.5175   17.6702 C   0  0  0  0  0  0
    1.3735   46.4141   16.8408 C   0  0  0  0  0  0
    1.3912   47.7687   17.1631 C   0  0  0  0  0  0
    0.7488   48.2234   18.3184 C   0  0  0  0  0  0
    0.0777   47.3127   19.1459 C   0  0  0  0  0  0
    0.0574   45.9583   18.8226 C   0  0  0  0  0  0
    0.7313   49.7007   18.6273 C   0  0  0  0  0  0
    0.2345   50.4638   17.7953 O   0  0  0  0  0  0
    1.2177   50.1308   19.8232 N   0  0  0  0  0  0
    1.9801   49.2945   20.7595 C   0  0  0  0  0  0
    1.2920   49.3541   22.1398 C   0  0  0  0  0  0
    0.9700   50.7026   22.6389 N   0  0  0  0  0  0
    0.4059   51.5906   21.6036 C   0  0  0  0  0  0
    1.1039   51.5376   20.2238 C   0  0  0  0  0  0
    0.7190   50.9383   23.9888 C   0  0  0  0  0  0
    0.8634   52.2323   24.5000 C   0  0  0  0  0  0
    0.6580   52.4843   25.8487 C   0  0  0  0  0  0
    0.3344   51.4459   26.7268 C   0  0  0  0  0  0
    0.1640   50.1534   26.2278 C   0  0  0  0  0  0
    0.3551   49.9052   24.8698 C   0  0  0  0  0  0
    0.1704   51.6918   28.1067 N   0  0  0  0  0  0
    0.9429   52.4671   28.9274 C   0  0  0  0  0  0
    0.3047   52.8955   30.4098 S   0  0  0  0  0  0
    2.1831   52.7905   28.4321 N   0  0  0  0  0  0
    3.2077   53.5467   28.9045 C   0  0  0  0  0  0
    3.3602   53.8922   30.0803 O   0  0  0  0  0  0
    4.2375   53.9186   27.8633 C   0  0  0  0  0  0
    5.5591   54.1927   28.2422 C   0  0  0  0  0  0
    6.5267   54.5181   27.2928 C   0  0  0  0  0  0
    6.1773   54.5986   25.9515 C   0  0  0  0  0  0
    4.8634   54.3269   25.5510 C   0  0  0  0  0  0
    3.9014   54.0109   26.5007 C   0  0  0  0  0  0
    4.4643   54.4066   24.2326 O   0  0  0  0  0  0
    5.5477   54.3167   23.3006 C   0  0  0  0  0  0
    6.6966   55.2529   23.7470 C   0  0  0  0  0  0
    7.1697   54.8877   25.0451 O   0  0  0  0  0  0
    0.6849   44.4690   17.4122 H   0  0  0  0  0  0
    1.8738   46.0684   15.9489 H   0  0  0  0  0  0
    1.9045   48.4642   16.5136 H   0  0  0  0  0  0
   -0.4426   47.6551   20.0301 H   0  0  0  0  0  0
   -0.4635   45.2562   19.4564 H   0  0  0  0  0  0
    2.9846   49.7094   20.8436 H   0  0  0  0  0  0
    2.1285   48.2681   20.4248 H   0  0  0  0  0  0
    1.9084   48.8284   22.8683 H   0  0  0  0  0  0
    0.3339   48.8393   22.0463 H   0  0  0  0  0  0
   -0.6132   51.2312   21.4544 H   0  0  0  0  0  0
    0.3398   52.6232   21.9381 H   0  0  0  0  0  0
    0.5638   52.1482   19.4988 H   0  0  0  0  0  0
    2.1011   51.9721   20.2967 H   0  0  0  0  0  0
    1.1641   53.0512   23.8627 H   0  0  0  0  0  0
    0.7723   53.4901   26.2178 H   0  0  0  0  0  0
   -0.0980   49.3318   26.8818 H   0  0  0  0  0  0
    0.2330   48.8927   24.5178 H   0  0  0  0  0  0
   -0.6745   51.3111   28.5105 H   0  0  0  0  0  0
    2.3132   52.5076   27.4729 H   0  0  0  0  0  0
    5.8530   54.1487   29.2811 H   0  0  0  0  0  0
    7.5386   54.7171   27.6104 H   0  0  0  0  0  0
    2.8997   53.8409   26.1493 H   0  0  0  0  0  0
    5.9139   53.2897   23.2712 H   0  0  0  0  0  0
    5.2031   54.5712   22.2992 H   0  0  0  0  0  0
    7.5027   55.2362   23.0179 H   0  0  0  0  0  0
    6.3050   56.2706   23.7986 H   0  0  0  0  0  0
  1  6  2  0  0  0
  1  2  1  0  0  0
  1 37  1  0  0  0
  2  3  2  0  0  0
  2 38  1  0  0  0
  3  4  1  0  0  0
  3 39  1  0  0  0
  4  5  2  0  0  0
  4  7  1  0  0  0
  5  6  1  0  0  0
  5 40  1  0  0  0
  6 41  1  0  0  0
  7  8  2  0  0  0
  7  9  1  0  0  0
  9 14  1  0  0  0
  9 10  1  0  0  0
 10 11  1  0  0  0
 10 42  1  0  0  0
 10 43  1  0  0  0
 11 12  1  0  0  0
 11 44  1  0  0  0
 11 45  1  0  0  0
 12 13  1  0  0  0
 12 15  1  0  0  0
 13 14  1  0  0  0
 13 46  1  0  0  0
 13 47  1  0  0  0
 14 48  1  0  0  0
 14 49  1  0  0  0
 15 20  2  0  0  0
 15 16  1  0  0  0
 16 17  2  0  0  0
 16 50  1  0  0  0
 17 18  1  0  0  0
 17 51  1  0  0  0
 18 19  2  0  0  0
 18 21  1  0  0  0
 19 20  1  0  0  0
 19 52  1  0  0  0
 20 53  1  0  0  0
 21 22  1  0  0  0
 21 54  1  0  0  0
 22 23  2  0  0  0
 22 24  1  0  0  0
 24 25  1  0  0  0
 24 55  1  0  0  0
 25 26  2  0  0  0
 25 27  1  0  0  0
 27 32  2  0  0  0
 27 28  1  0  0  0
 28 29  2  0  0  0
 28 56  1  0  0  0
 29 30  1  0  0  0
 29 57  1  0  0  0
 30 36  1  0  0  0
 30 31  2  0  0  0
 31 32  1  0  0  0
 31 33  1  0  0  0
 32 58  1  0  0  0
 33 34  1  0  0  0
 34 35  1  0  0  0
 34 59  1  0  0  0
 34 60  1  0  0  0
 35 36  1  0  0  0
 35 61  1  0  0  0
 35 62  1  0  0  0
M  END
> <i_i_glide_confnum>
299

> <i_i_glide_lignum>
3165

> <i_i_glide_posenum>
381

> <i_i_glide_rotatable_bonds>
8

> <i_m_Source_File_Index>
4845

> <b_m_subgroup_collapsed>
0

> <r_i_docking_score>
-6.71555

> <r_i_glide_ecoul>
-6.00379

> <r_i_glide_eff_state_penalty>
0

> <r_i_glide_einternal>
5.82065

> <r_i_glide_emodel>
-77.565

> <r_i_glide_energy>
-57.6728

> <r_i_glide_erotb>
0.566285

> <r_i_glide_esite>
-0.0640837

> <r_i_glide_evdw>
-51.669

> <r_i_glide_gscore>
-6.71555

> <r_i_glide_hbond>
-0.60731

> <r_i_glide_ligand_efficiency>
-0.186543

> <r_i_glide_ligand_efficiency_ln>
-1.46515

> <r_i_glide_ligand_efficiency_sa>
-0.615952

> <r_i_glide_lipo>
-2.42831

> <r_i_glide_metal>
0

> <r_i_glide_rewards>
-0.698109

> <s_i_glide_gridfile>
wee1_glide-grid

> <s_m_Source_File>
wee1_decoys_glide_SP.sdf

> <s_m_Source_Path>
/Users/zhangxujun/Desktop

> <s_m_entry_id>
5120

> <s_m_entry_name>
wee1_decoys_glide_SP.4845

> <s_m_subgroup_title>
wee1_decoys_glide_SP

> <s_m_subgroupid>
wee1_decoys_glide_SP


$$$$
