ZINC13245588_5787
                    3D
 Schrodinger Suite 2024-2.
 53 56  0  0  1  0            999 V2000
    5.1925   53.2187   18.2433 C   0  0  0  0  0  0
    4.5393   53.2158   19.6086 C   0  0  0  0  0  0
    4.5369   54.3767   20.3771 C   0  0  0  0  0  0
    3.8948   54.3827   21.6103 C   0  0  0  0  0  0
    3.2805   53.2254   22.0978 C   0  0  0  0  0  0
    3.2944   52.0582   21.3284 C   0  0  0  0  0  0
    3.9110   52.0633   20.0823 C   0  0  0  0  0  0
    2.6299   53.2359   23.3583 N   0  0  0  0  0  0
    3.0830   53.6962   24.5936 C   0  0  0  0  0  0
    2.1668   53.5334   25.5145 N   0  0  0  0  0  0
    1.0734   52.9403   24.9157 N   0  0  0  0  0  0
    1.3526   52.7729   23.6475 C   0  0  0  0  0  0
    0.2010   52.0965   22.4815 S   0  0  0  0  0  0
   -1.3612   52.6867   23.2249 C   0  0  0  0  0  0
   -2.0251   51.7402   24.2285 C   0  0  0  0  0  0
   -1.7296   50.5458   24.2559 O   0  0  0  0  0  0
   -2.9563   52.3363   24.9990 N   0  0  0  0  0  0
   -3.7703   51.8390   26.0336 C   0  0  0  0  0  0
   -3.5112   50.6031   26.6503 C   0  0  0  0  0  0
   -4.3220   50.1302   27.6749 C   0  0  0  0  0  0
   -5.4207   50.8719   28.0884 C   0  0  0  0  0  0
   -5.6953   52.0970   27.4888 C   0  0  0  0  0  0
   -4.8700   52.6277   26.4773 C   0  0  0  0  0  0
   -5.1798   54.0126   25.9435 C   0  0  0  0  0  0
   -4.4958   54.4780   25.0009 O   0  0  0  0  0  0
   -6.4269   50.2903   29.3631 Cl  0  0  0  0  0  0
    4.3240   54.2403   24.8612 N   0  0  0  0  0  0
    5.5561   53.9416   24.1268 C   0  0  0  0  0  0
    6.7244   54.2111   25.0624 C   0  0  0  0  0  0
    6.1351   55.1585   26.0813 C   0  0  0  0  0  0
    4.7336   54.5875   26.2209 C   0  0  0  0  0  0
    5.1534   54.2078   17.7826 H   0  0  0  0  0  0
    6.2336   52.9004   18.3124 H   0  0  0  0  0  0
    4.6723   52.5344   17.5681 H   0  0  0  0  0  0
    5.0081   55.2782   20.0099 H   0  0  0  0  0  0
    3.8529   55.2962   22.1814 H   0  0  0  0  0  0
    2.8295   51.1505   21.6853 H   0  0  0  0  0  0
    3.9018   51.1672   19.4803 H   0  0  0  0  0  0
   -2.0749   52.8264   22.4132 H   0  0  0  0  0  0
   -1.2096   53.6687   23.6816 H   0  0  0  0  0  0
   -3.2078   53.2948   24.7655 H   0  0  0  0  0  0
   -2.6608   49.9956   26.3772 H   0  0  0  0  0  0
   -4.0834   49.1888   28.1511 H   0  0  0  0  0  0
   -6.5491   52.6563   27.8447 H   0  0  0  0  0  0
    5.5809   52.8968   23.8237 H   0  0  0  0  0  0
    5.6869   54.5866   23.2611 H   0  0  0  0  0  0
    7.1042   53.2965   25.5198 H   0  0  0  0  0  0
    7.5142   54.6974   24.5055 H   0  0  0  0  0  0
    6.1011   56.1758   25.6863 H   0  0  0  0  0  0
    6.6844   55.1802   27.0256 H   0  0  0  0  0  0
    4.0314   55.2970   26.6516 H   0  0  0  0  0  0
    4.7196   53.6919   26.8472 H   0  0  0  0  0  0
   -6.0965   54.6641   26.4912 O   0  5  0  0  0  0
  1  2  1  0  0  0
  1 32  1  0  0  0
  1 33  1  0  0  0
  1 34  1  0  0  0
  2  7  2  0  0  0
  2  3  1  0  0  0
  3  4  2  0  0  0
  3 35  1  0  0  0
  4  5  1  0  0  0
  4 36  1  0  0  0
  5  6  2  0  0  0
  5  8  1  0  0  0
  6  7  1  0  0  0
  6 37  1  0  0  0
  7 38  1  0  0  0
  8 12  1  0  0  0
  8  9  1  0  0  0
  9 10  2  0  0  0
  9 27  1  0  0  0
 10 11  1  0  0  0
 11 12  2  0  0  0
 12 13  1  0  0  0
 13 14  1  0  0  0
 14 15  1  0  0  0
 14 39  1  0  0  0
 14 40  1  0  0  0
 15 16  2  0  0  0
 15 17  1  0  0  0
 17 18  1  0  0  0
 17 41  1  0  0  0
 18 23  2  0  0  0
 18 19  1  0  0  0
 19 20  2  0  0  0
 19 42  1  0  0  0
 20 21  1  0  0  0
 20 43  1  0  0  0
 21 22  2  0  0  0
 21 26  1  0  0  0
 22 23  1  0  0  0
 22 44  1  0  0  0
 23 24  1  0  0  0
 24 25  2  0  0  0
 24 53  1  0  0  0
 27 31  1  0  0  0
 27 28  1  0  0  0
 28 29  1  0  0  0
 28 45  1  0  0  0
 28 46  1  0  0  0
 29 30  1  0  0  0
 29 47  1  0  0  0
 29 48  1  0  0  0
 30 31  1  0  0  0
 30 49  1  0  0  0
 30 50  1  0  0  0
 31 51  1  0  0  0
 31 52  1  0  0  0
M  CHG  1  53  -1
M  END
> <i_i_glide_confnum>
250

> <i_i_glide_lignum>
5788

> <i_i_glide_posenum>
296

> <i_i_glide_rotatable_bonds>
8

> <i_m_Source_File_Index>
1704

> <b_m_subgroup_collapsed>
0

> <r_i_docking_score>
-4.34193

> <r_i_glide_ecoul>
-0.915575

> <r_i_glide_eff_state_penalty>
0

> <r_i_glide_einternal>
2.33359

> <r_i_glide_emodel>
-53.1455

> <r_i_glide_energy>
-37.9555

> <r_i_glide_erotb>
0.637804

> <r_i_glide_esite>
-0.00251941

> <r_i_glide_evdw>
-37.0399

> <r_i_glide_gscore>
-4.34193

> <r_i_glide_hbond>
-0.227561

> <r_i_glide_ligand_efficiency>
-0.135685

> <r_i_glide_ligand_efficiency_ln>
-0.972276

> <r_i_glide_ligand_efficiency_sa>
-0.430774

> <r_i_glide_lipo>
-1.32487

> <r_i_glide_metal>
0

> <r_i_glide_rewards>
-1.43545

> <s_i_glide_gridfile>
wee1_glide-grid

> <s_m_Source_File>
wee1_decoys_glide_SP.sdf

> <s_m_Source_Path>
/Users/zhangxujun/Desktop

> <s_m_entry_id>
1979

> <s_m_entry_name>
wee1_decoys_glide_SP.1704

> <s_m_subgroup_title>
wee1_decoys_glide_SP

> <s_m_subgroupid>
wee1_decoys_glide_SP


$$$$
