ZINC22516137_6042
                    3D
 Schrodinger Suite 2024-2.
 57 60  0  0  1  0            999 V2000
   -4.4681   51.5105   24.3551 C   0  0  0  0  0  0
   -4.1304   50.3026   24.9625 C   0  0  0  0  0  0
   -3.3712   50.3054   26.1292 C   0  0  0  0  0  0
   -2.9519   51.5173   26.6863 C   0  0  0  0  0  0
   -3.2895   52.7260   26.0675 C   0  0  0  0  0  0
   -4.0469   52.7217   24.8987 C   0  0  0  0  0  0
   -2.1530   51.5094   27.9812 C   0  0  0  0  0  0
   -0.8198   52.0861   27.8315 N   0  0  0  0  0  0
   -0.0951   52.6034   28.8360 C   0  0  0  0  0  0
   -0.4960   52.6787   29.9973 O   0  0  0  0  0  0
    1.3172   53.0957   28.4876 C   0  0  2  0  0  0
    2.3168   52.1068   29.1137 C   0  0  0  0  0  0
    3.7138   52.4966   28.6242 C   0  0  0  0  0  0
    4.0073   53.9709   29.0041 N   0  3  2  0  0  0
    2.9114   55.0152   28.6434 C   0  0  0  0  0  0
    1.5329   54.5027   29.0847 C   0  0  0  0  0  0
    5.4213   54.3973   28.5358 C   0  0  0  0  0  0
    5.6132   54.6193   27.0358 C   0  0  0  0  0  0
    6.7002   55.2663   26.4909 C   0  0  0  0  0  0
    6.6023   55.2935   24.7595 S   0  0  0  0  0  0
    5.0965   54.4408   24.9013 C   0  0  0  0  0  0
    4.7417   54.1876   26.1398 N   0  0  0  0  0  0
    4.3152   53.9804   23.7071 C   0  0  0  0  0  0
    4.9484   53.7355   22.4821 C   0  0  0  0  0  0
    4.2381   53.1833   21.4203 C   0  0  0  0  0  0
    2.8835   52.8694   21.5670 C   0  0  0  0  0  0
    2.2365   53.1591   22.7716 C   0  0  0  0  0  0
    2.9479   53.7069   23.8347 C   0  0  0  0  0  0
    2.1167   52.2166   20.4154 C   0  0  0  0  0  0
    2.2642   50.8955   20.5061 F   0  0  0  0  0  0
    0.8125   52.4958   20.4695 F   0  0  0  0  0  0
    2.5804   52.6119   19.2290 F   0  0  0  0  0  0
   -5.0644   51.5065   23.4535 H   0  0  0  0  0  0
   -4.4606   49.3666   24.5341 H   0  0  0  0  0  0
   -3.1133   49.3664   26.6042 H   0  0  0  0  0  0
   -2.9623   53.6672   26.4829 H   0  0  0  0  0  0
   -4.3125   53.6531   24.4200 H   0  0  0  0  0  0
   -2.7288   52.0149   28.7559 H   0  0  0  0  0  0
   -2.0385   50.4967   28.3514 H   0  0  0  0  0  0
   -0.3666   51.9018   26.9501 H   0  0  0  0  0  0
    1.3752   53.1018   27.3965 H   0  0  0  0  0  0
    2.3258   52.1522   30.2054 H   0  0  0  0  0  0
    2.1548   51.0849   28.7589 H   0  0  0  0  0  0
    3.8018   52.3941   27.5465 H   0  0  0  0  0  0
    4.4745   51.8879   29.1166 H   0  0  0  0  0  0
    2.9414   55.2105   27.5719 H   0  0  0  0  0  0
    3.1622   55.9300   29.1837 H   0  0  0  0  0  0
    0.8115   55.2213   28.6909 H   0  0  0  0  0  0
    1.5280   54.4977   30.1771 H   0  0  0  0  0  0
    5.6309   55.2962   29.1156 H   0  0  0  0  0  0
    6.0943   53.6192   28.8961 H   0  0  0  0  0  0
    7.5031   55.6947   27.0603 H   0  0  0  0  0  0
    6.0033   53.9319   22.3563 H   0  0  0  0  0  0
    4.7485   52.9731   20.4908 H   0  0  0  0  0  0
    1.1876   52.9340   22.8987 H   0  0  0  0  0  0
    2.4361   53.8926   24.7672 H   0  0  0  0  0  0
    4.0231   53.9543   30.0129 H   0  0  0  0  0  0
  1  6  2  0  0  0
  1  2  1  0  0  0
  1 33  1  0  0  0
  2  3  2  0  0  0
  2 34  1  0  0  0
  3  4  1  0  0  0
  3 35  1  0  0  0
  4  5  2  0  0  0
  4  7  1  0  0  0
  5  6  1  0  0  0
  5 36  1  0  0  0
  6 37  1  0  0  0
  7  8  1  0  0  0
  7 38  1  0  0  0
  7 39  1  0  0  0
  8  9  1  0  0  0
  8 40  1  0  0  0
  9 10  2  0  0  0
  9 11  1  0  0  0
 11 16  1  0  0  0
 11 12  1  0  0  0
 11 41  1  0  0  0
 12 13  1  0  0  0
 12 42  1  0  0  0
 12 43  1  0  0  0
 13 14  1  0  0  0
 13 44  1  0  0  0
 13 45  1  0  0  0
 14 15  1  0  0  0
 14 17  1  0  0  0
 14 57  1  0  0  0
 15 16  1  0  0  0
 15 46  1  0  0  0
 15 47  1  0  0  0
 16 48  1  0  0  0
 16 49  1  0  0  0
 17 18  1  0  0  0
 17 50  1  0  0  0
 17 51  1  0  0  0
 18 22  1  0  0  0
 18 19  2  0  0  0
 19 20  1  0  0  0
 19 52  1  0  0  0
 20 21  1  0  0  0
 21 22  2  0  0  0
 21 23  1  0  0  0
 23 28  2  0  0  0
 23 24  1  0  0  0
 24 25  2  0  0  0
 24 53  1  0  0  0
 25 26  1  0  0  0
 25 54  1  0  0  0
 26 27  2  0  0  0
 26 29  1  0  0  0
 27 28  1  0  0  0
 27 55  1  0  0  0
 28 56  1  0  0  0
 29 30  1  0  0  0
 29 31  1  0  0  0
 29 32  1  0  0  0
M  CHG  1  14   1
M  END
> <i_i_glide_confnum>
76

> <i_i_glide_lignum>
6043

> <i_i_glide_posenum>
145

> <i_i_glide_rotatable_bonds>
8

> <i_m_Source_File_Index>
1112

> <b_m_subgroup_collapsed>
0

> <r_i_docking_score>
-5.23456

> <r_i_glide_ecoul>
2.76144

> <r_i_glide_eff_state_penalty>
0

> <r_i_glide_einternal>
7.20706

> <r_i_glide_emodel>
-52.7735

> <r_i_glide_energy>
-40.3761

> <r_i_glide_erotb>
0.569443

> <r_i_glide_esite>
-0.102074

> <r_i_glide_evdw>
-43.1375

> <r_i_glide_gscore>
-5.23456

> <r_i_glide_hbond>
0

> <r_i_glide_ligand_efficiency>
-0.16358

> <r_i_glide_ligand_efficiency_ln>
-1.17216

> <r_i_glide_ligand_efficiency_sa>
-0.519334

> <r_i_glide_lipo>
-3.47705

> <r_i_glide_metal>
0

> <r_i_glide_rewards>
-0.482221

> <s_i_glide_gridfile>
wee1_glide-grid

> <s_m_Source_File>
wee1_decoys_glide_SP.sdf

> <s_m_Source_Path>
/Users/zhangxujun/Desktop

> <s_m_entry_id>
1387

> <s_m_entry_name>
wee1_decoys_glide_SP.1112

> <s_m_subgroup_title>
wee1_decoys_glide_SP

> <s_m_subgroupid>
wee1_decoys_glide_SP


$$$$
