ZINC03841732_3033
                    3D
 Schrodinger Suite 2024-2.
 63 67  0  0  1  0            999 V2000
    2.3187   45.3720   15.2445 C   0  0  0  0  0  0
    1.3764   44.9601   16.2229 O   0  0  0  0  0  0
    1.1009   45.7982   17.2827 C   0  0  0  0  0  0
    1.7340   47.0287   17.5129 C   0  0  0  0  0  0
    1.3722   47.8236   18.6023 C   0  0  0  0  0  0
    0.3935   47.3618   19.4950 C   0  0  0  0  0  0
   -0.2471   46.1314   19.2800 C   0  0  0  0  0  0
    0.1161   45.3675   18.1721 C   0  0  0  0  0  0
   -1.2210   45.5986   20.1042 O   0  0  0  0  0  0
   -1.6984   46.3750   21.1967 C   0  0  0  0  0  0
    2.0813   49.0315   18.7404 N   0  0  0  0  0  0
    1.8329   50.2286   19.3539 C   0  0  0  0  0  0
    0.3909   50.6880   20.0840 S   0  0  0  0  0  0
    2.9433   51.0189   19.2820 N   0  0  0  0  0  0
    3.1103   52.3512   19.8824 C   0  0  1  0  0  0
    2.1641   52.8943   19.8506 H   0  0  0  0  0  0
    3.6241   52.2006   21.3131 C   0  0  0  0  0  0
    5.0362   52.0926   21.1662 O   0  0  0  0  0  0
    5.4577   52.9254   20.0757 C   0  0  1  0  0  0
    6.2397   52.4183   19.5114 H   0  0  0  0  0  0
    4.2332   53.1050   19.1785 C   0  0  2  0  0  0
    4.4164   52.7368   18.1648 H   0  0  0  0  0  0
    4.0141   54.5166   19.1142 O   0  0  0  0  0  0
    5.2462   55.1810   19.3609 C   0  0  0  0  0  0
    5.8818   54.3477   20.4614 C   0  0  1  0  0  0
    6.9632   54.4969   20.4866 H   0  0  0  0  0  0
    5.3221   54.7443   21.7207 O   0  0  0  0  0  0
    5.9236   54.4331   22.8873 C   0  0  0  0  0  0
    7.1011   54.0975   22.9914 O   0  0  0  0  0  0
    4.9905   54.4967   23.9112 N   0  0  0  0  0  0
    5.1975   54.3609   25.2975 C   0  0  0  0  0  0
    6.4478   54.6143   25.8800 C   0  0  0  0  0  0
    6.6410   54.4969   27.2502 C   0  0  0  0  0  0
    5.5945   54.1365   28.0836 C   0  0  0  0  0  0
    4.3134   53.8686   27.5487 C   0  0  0  0  0  0
    4.0982   53.9843   26.1372 C   0  0  0  0  0  0
    2.7952   53.6942   25.6337 C   0  0  0  0  0  0
    1.7728   53.2962   26.4894 C   0  0  0  0  0  0
    1.9911   53.1961   27.8570 C   0  0  0  0  0  0
    3.2417   53.4801   28.3935 C   0  0  0  0  0  0
    2.3253   44.6290   14.4480 H   0  0  0  0  0  0
    2.0451   46.3277   14.7963 H   0  0  0  0  0  0
    3.3255   45.4455   15.6602 H   0  0  0  0  0  0
    2.5038   47.3815   16.8411 H   0  0  0  0  0  0
    0.1490   47.9364   20.3718 H   0  0  0  0  0  0
   -0.3731   44.4194   17.9997 H   0  0  0  0  0  0
   -2.4983   45.8359   21.7021 H   0  0  0  0  0  0
   -0.9152   46.5657   21.9334 H   0  0  0  0  0  0
   -2.1123   47.3282   20.8592 H   0  0  0  0  0  0
    2.9312   49.0310   18.1853 H   0  0  0  0  0  0
    3.7529   50.6607   18.7791 H   0  0  0  0  0  0
    3.1894   51.3613   21.8573 H   0  0  0  0  0  0
    3.3559   53.0611   21.9267 H   0  0  0  0  0  0
    5.1042   56.2220   19.6466 H   0  0  0  0  0  0
    5.8454   55.2228   18.4480 H   0  0  0  0  0  0
    4.0414   54.6689   23.6204 H   0  0  0  0  0  0
    7.2880   54.9136   25.2727 H   0  0  0  0  0  0
    7.6102   54.7026   27.6817 H   0  0  0  0  0  0
    5.7568   54.0567   29.1494 H   0  0  0  0  0  0
    2.5965   53.7574   24.5748 H   0  0  0  0  0  0
    0.7990   53.0609   26.0873 H   0  0  0  0  0  0
    1.1849   52.8886   28.5075 H   0  0  0  0  0  0
    3.4068   53.3933   29.4562 H   0  0  0  0  0  0
  1  2  1  0  0  0
  1 41  1  0  0  0
  1 42  1  0  0  0
  1 43  1  0  0  0
  2  3  1  0  0  0
  3  8  2  0  0  0
  3  4  1  0  0  0
  4  5  2  0  0  0
  4 44  1  0  0  0
  5  6  1  0  0  0
  5 11  1  0  0  0
  6  7  2  0  0  0
  6 45  1  0  0  0
  7  8  1  0  0  0
  7  9  1  0  0  0
  8 46  1  0  0  0
  9 10  1  0  0  0
 10 47  1  0  0  0
 10 48  1  0  0  0
 10 49  1  0  0  0
 11 12  1  0  0  0
 11 50  1  0  0  0
 12 13  2  0  0  0
 12 14  1  0  0  0
 14 15  1  0  0  0
 14 51  1  0  0  0
 15 16  1  0  0  0
 15 21  1  0  0  0
 15 17  1  0  0  0
 17 18  1  0  0  0
 17 52  1  0  0  0
 17 53  1  0  0  0
 18 19  1  0  0  0
 19 20  1  0  0  0
 19 25  1  0  0  0
 19 21  1  0  0  0
 21 22  1  0  0  0
 21 23  1  0  0  0
 23 24  1  0  0  0
 24 25  1  0  0  0
 24 54  1  0  0  0
 24 55  1  0  0  0
 25 26  1  0  0  0
 25 27  1  0  0  0
 27 28  1  0  0  0
 28 29  2  0  0  0
 28 30  1  0  0  0
 30 31  1  0  0  0
 30 56  1  0  0  0
 31 36  2  0  0  0
 31 32  1  0  0  0
 32 33  2  0  0  0
 32 57  1  0  0  0
 33 34  1  0  0  0
 33 58  1  0  0  0
 34 35  2  0  0  0
 34 59  1  0  0  0
 35 40  1  0  0  0
 35 36  1  0  0  0
 36 37  1  0  0  0
 37 38  2  0  0  0
 37 60  1  0  0  0
 38 39  1  0  0  0
 38 61  1  0  0  0
 39 40  2  0  0  0
 39 62  1  0  0  0
 40 63  1  0  0  0
M  END
> <i_i_glide_confnum>
98

> <i_i_glide_lignum>
3034

> <i_i_glide_posenum>
230

> <i_i_glide_rotatable_bonds>
10

> <i_m_Source_File_Index>
559

> <b_m_subgroup_collapsed>
0

> <r_i_docking_score>
-5.64547

> <r_i_glide_ecoul>
-3.77227

> <r_i_glide_eff_state_penalty>
0

> <r_i_glide_einternal>
8.48135

> <r_i_glide_emodel>
-61.1395

> <r_i_glide_energy>
-47.5448

> <r_i_glide_erotb>
0.552114

> <r_i_glide_esite>
-0.245483

> <r_i_glide_evdw>
-43.7726

> <r_i_glide_gscore>
-5.64547

> <r_i_glide_hbond>
-0.304

> <r_i_glide_ligand_efficiency>
-0.156819

> <r_i_glide_ligand_efficiency_ln>
-1.23169

> <r_i_glide_ligand_efficiency_sa>
-0.517804

> <r_i_glide_lipo>
-2.56111

> <r_i_glide_metal>
0

> <r_i_glide_rewards>
-0.33253

> <s_i_glide_gridfile>
wee1_glide-grid

> <s_m_Source_File>
wee1_decoys_glide_SP.sdf

> <s_m_Source_Path>
/Users/zhangxujun/Desktop

> <s_m_entry_id>
834

> <s_m_entry_name>
wee1_decoys_glide_SP.559

> <s_m_subgroup_title>
wee1_decoys_glide_SP

> <s_m_subgroupid>
wee1_decoys_glide_SP


$$$$
