ZINC12378763_4386
                    3D
 Schrodinger Suite 2024-2.
 42 44  0  0  1  0            999 V2000
    8.3036   51.8472   16.8056 C   0  0  0  0  0  0
    7.5033   52.0983   15.5151 C   0  0  0  0  0  0
    6.3166   52.5789   15.4503 N   0  0  0  0  0  0
    5.7082   52.8953   16.6312 N   0  3  0  0  0  0
    4.4147   53.2265   16.7206 C   0  0  0  0  0  0
    3.6048   53.3638   15.6743 N   0  0  0  0  0  0
    3.7167   53.4661   18.3048 S   0  0  0  0  0  0
    5.1354   53.3818   19.4551 C   0  0  1  0  0  0
    5.7183   52.4963   19.2018 H   0  0  0  0  0  0
    5.9766   54.6241   19.4518 C   0  0  0  0  0  0
    6.0413   55.0495   20.9030 C   0  0  0  0  0  0
    6.6903   56.0243   21.2861 O   0  0  0  0  0  0
    5.3017   54.1767   21.6533 N   0  0  0  0  0  0
    4.7050   53.2068   20.8981 C   0  0  0  0  0  0
    3.9828   52.2873   21.2861 O   0  0  0  0  0  0
    5.1918   54.2432   23.0712 C   0  0  0  0  0  0
    3.9416   54.1003   23.6972 C   0  0  0  0  0  0
    3.8358   54.1735   25.0830 C   0  0  0  0  0  0
    4.9754   54.3896   25.8554 C   0  0  0  0  0  0
    6.2212   54.5271   25.2507 C   0  0  0  0  0  0
    6.3319   54.4552   23.8653 C   0  0  0  0  0  0
    4.8439   54.4874   27.5735 Cl  0  0  0  0  0  0
    8.1763   51.7034   14.2683 C   0  0  0  0  0  0
    9.4761   51.2113   14.1086 C   0  0  0  0  0  0
    9.7965   50.8981   12.7869 C   0  0  0  0  0  0
    8.7632   51.1500   11.9040 C   0  0  0  0  0  0
    7.3698   51.7777   12.7169 S   0  0  0  0  0  0
    8.7519   50.8932   10.0191 Br  0  0  0  0  0  0
    8.8557   50.9071   16.7520 H   0  0  0  0  0  0
    9.0257   52.6452   16.9884 H   0  0  0  0  0  0
    7.6670   51.7251   17.6817 H   0  0  0  0  0  0
    3.9799   53.1924   14.7504 H   0  0  0  0  0  0
    2.6274   53.5808   15.8035 H   0  0  0  0  0  0
    6.9898   54.4276   19.0976 H   0  0  0  0  0  0
    5.5527   55.4373   18.8614 H   0  0  0  0  0  0
    3.0440   53.9440   23.1151 H   0  0  0  0  0  0
    2.8712   54.0624   25.5573 H   0  0  0  0  0  0
    7.0997   54.6828   25.8569 H   0  0  0  0  0  0
    7.3093   54.5640   23.4170 H   0  0  0  0  0  0
   10.1805   51.0722   14.9164 H   0  0  0  0  0  0
   10.7527   50.4971   12.4823 H   0  0  0  0  0  0
    6.2122   52.6847   17.4782 H   0  0  0  0  0  0
  1  2  1  0  0  0
  1 29  1  0  0  0
  1 30  1  0  0  0
  1 31  1  0  0  0
  2  3  2  0  0  0
  2 23  1  0  0  0
  3  4  1  0  0  0
  4  5  2  0  0  0
  4 42  1  0  0  0
  5  6  1  0  0  0
  5  7  1  0  0  0
  6 32  1  0  0  0
  6 33  1  0  0  0
  7  8  1  0  0  0
  8  9  1  0  0  0
  8 14  1  0  0  0
  8 10  1  0  0  0
 10 11  1  0  0  0
 10 34  1  0  0  0
 10 35  1  0  0  0
 11 12  2  0  0  0
 11 13  1  0  0  0
 13 14  1  0  0  0
 13 16  1  0  0  0
 14 15  2  0  0  0
 16 21  2  0  0  0
 16 17  1  0  0  0
 17 18  2  0  0  0
 17 36  1  0  0  0
 18 19  1  0  0  0
 18 37  1  0  0  0
 19 20  2  0  0  0
 19 22  1  0  0  0
 20 21  1  0  0  0
 20 38  1  0  0  0
 21 39  1  0  0  0
 23 27  1  0  0  0
 23 24  2  0  0  0
 24 25  1  0  0  0
 24 40  1  0  0  0
 25 26  2  0  0  0
 25 41  1  0  0  0
 26 27  1  0  0  0
 26 28  1  0  0  0
M  CHG  1   4   1
M  END
> <i_i_glide_confnum>
25

> <i_i_glide_lignum>
4387

> <i_i_glide_posenum>
197

> <i_i_glide_rotatable_bonds>
5

> <i_m_Source_File_Index>
527

> <b_m_subgroup_collapsed>
0

> <r_i_docking_score>
-4.75905

> <r_i_glide_ecoul>
-3.51907

> <r_i_glide_eff_state_penalty>
0

> <r_i_glide_einternal>
2.69676

> <r_i_glide_emodel>
-50.1121

> <r_i_glide_energy>
-38.2944

> <r_i_glide_erotb>
0.343052

> <r_i_glide_esite>
-0.13566

> <r_i_glide_evdw>
-34.7754

> <r_i_glide_gscore>
-4.75905

> <r_i_glide_hbond>
0

> <r_i_glide_ligand_efficiency>
-0.176261

> <r_i_glide_ligand_efficiency_ln>
-1.10783

> <r_i_glide_ligand_efficiency_sa>
-0.528783

> <r_i_glide_lipo>
-2.00874

> <r_i_glide_metal>
0

> <r_i_glide_rewards>
-0.691073

> <s_i_glide_gridfile>
wee1_glide-grid

> <s_m_Source_File>
wee1_decoys_glide_SP.sdf

> <s_m_Source_Path>
/Users/zhangxujun/Desktop

> <s_m_entry_id>
802

> <s_m_entry_name>
wee1_decoys_glide_SP.527

> <s_m_subgroup_title>
wee1_decoys_glide_SP

> <s_m_subgroupid>
wee1_decoys_glide_SP


$$$$
