ZINC15268650_2711
                    3D
 Schrodinger Suite 2024-2.
 63 65  0  0  1  0            999 V2000
    6.3773   54.4614   22.8727 C   0  0  0  0  0  0
    5.2027   54.2558   23.8149 C   0  0  0  0  0  0
    5.4443   54.3403   25.1768 C   0  0  0  0  0  0
    4.4333   54.0937   26.0934 C   0  0  0  0  0  0
    3.1581   53.6968   25.6427 C   0  0  0  0  0  0
    2.8865   53.5764   24.2507 C   0  0  0  0  0  0
    3.9194   53.9284   23.3415 C   0  0  0  0  0  0
    3.6716   54.0358   21.8398 C   0  0  0  0  0  0
    1.3005   52.8260   23.6417 S   0  0  0  0  0  0
    1.4346   52.4711   22.2251 O   0  0  0  0  0  0
    0.2139   53.7001   24.0817 O   0  0  0  0  0  0
    1.0942   51.2737   24.4922 N   0  0  0  0  0  0
    1.5621   50.0184   23.8454 C   0  0  0  0  0  0
    0.4187   49.0313   23.5567 C   0  0  0  0  0  0
   -0.4519   48.8246   24.8185 C   0  0  0  0  0  0
   -1.0285   50.1636   25.3350 C   0  0  0  0  0  0
    0.1346   51.1321   25.6315 C   0  0  0  0  0  0
   -1.5754   47.7848   24.5964 C   0  0  0  0  0  0
   -1.6972   47.2306   23.5007 O   0  0  0  0  0  0
   -2.3014   47.4387   25.6817 N   0  0  0  0  0  0
   -3.3592   46.5163   25.7321 C   0  0  0  0  0  0
   -4.2315   46.2708   24.6602 C   0  0  0  0  0  0
   -5.2430   45.3202   24.7873 C   0  0  0  0  0  0
   -5.3900   44.6066   25.9783 C   0  0  0  0  0  0
   -4.5496   44.8970   27.0600 C   0  0  0  0  0  0
   -3.5419   45.8468   26.9387 C   0  0  0  0  0  0
   -6.4149   43.6417   26.0240 N   0  0  0  0  0  0
   -6.5254   42.5708   26.8386 C   0  0  0  0  0  0
   -5.6980   42.2336   27.6819 O   0  0  0  0  0  0
   -7.7808   41.7245   26.6539 C   0  0  0  0  0  0
    2.0864   53.4637   26.7001 C   0  0  0  0  0  0
    4.7830   54.2040   27.5751 C   0  0  0  0  0  0
    6.3055   53.7166   22.0816 H   0  0  0  0  0  0
    6.3643   55.4561   22.4258 H   0  0  0  0  0  0
    7.3382   54.2985   23.3630 H   0  0  0  0  0  0
    6.4330   54.5966   25.5276 H   0  0  0  0  0  0
    4.3562   54.7092   21.3274 H   0  0  0  0  0  0
    3.7047   53.0632   21.3488 H   0  0  0  0  0  0
    2.7045   54.4963   21.6820 H   0  0  0  0  0  0
    2.3042   49.5578   24.4815 H   0  0  0  0  0  0
    2.0862   50.2591   22.9227 H   0  0  0  0  0  0
    0.9039   48.1001   23.2816 H   0  0  0  0  0  0
   -0.1583   49.4468   22.7292 H   0  0  0  0  0  0
    0.1231   48.3994   25.6457 H   0  0  0  0  0  0
   -1.6439   50.6518   24.5762 H   0  0  0  0  0  0
   -1.5754   50.0499   26.2747 H   0  0  0  0  0  0
    0.6948   50.8121   26.5107 H   0  0  0  0  0  0
   -0.2835   52.1062   25.8736 H   0  0  0  0  0  0
   -1.9868   47.7844   26.5881 H   0  0  0  0  0  0
   -4.1356   46.8135   23.7294 H   0  0  0  0  0  0
   -5.9028   45.1366   23.9503 H   0  0  0  0  0  0
   -4.6442   44.3838   28.0036 H   0  0  0  0  0  0
   -2.8908   46.0375   27.7828 H   0  0  0  0  0  0
   -7.1243   43.7352   25.3149 H   0  0  0  0  0  0
   -7.6586   41.0474   25.8072 H   0  0  0  0  0  0
   -8.6575   42.3512   26.4757 H   0  0  0  0  0  0
   -7.9713   41.1242   27.5470 H   0  0  0  0  0  0
    2.1940   54.1417   27.5449 H   0  0  0  0  0  0
    1.1026   53.6942   26.3248 H   0  0  0  0  0  0
    2.1283   52.4460   27.0825 H   0  0  0  0  0  0
    5.8552   54.3127   27.7441 H   0  0  0  0  0  0
    4.2758   55.0545   28.0300 H   0  0  0  0  0  0
    4.4734   53.3038   28.1073 H   0  0  0  0  0  0
  1  2  1  0  0  0
  1 33  1  0  0  0
  1 34  1  0  0  0
  1 35  1  0  0  0
  2  7  2  0  0  0
  2  3  1  0  0  0
  3  4  2  0  0  0
  3 36  1  0  0  0
  4  5  1  0  0  0
  4 32  1  0  0  0
  5  6  2  0  0  0
  5 31  1  0  0  0
  6  7  1  0  0  0
  6  9  1  0  0  0
  7  8  1  0  0  0
  8 37  1  0  0  0
  8 38  1  0  0  0
  8 39  1  0  0  0
  9 10  2  0  0  0
  9 11  2  0  0  0
  9 12  1  0  0  0
 12 17  1  0  0  0
 12 13  1  0  0  0
 13 14  1  0  0  0
 13 40  1  0  0  0
 13 41  1  0  0  0
 14 15  1  0  0  0
 14 42  1  0  0  0
 14 43  1  0  0  0
 15 16  1  0  0  0
 15 18  1  0  0  0
 15 44  1  0  0  0
 16 17  1  0  0  0
 16 45  1  0  0  0
 16 46  1  0  0  0
 17 47  1  0  0  0
 17 48  1  0  0  0
 18 19  2  0  0  0
 18 20  1  0  0  0
 20 21  1  0  0  0
 20 49  1  0  0  0
 21 26  2  0  0  0
 21 22  1  0  0  0
 22 23  2  0  0  0
 22 50  1  0  0  0
 23 24  1  0  0  0
 23 51  1  0  0  0
 24 25  2  0  0  0
 24 27  1  0  0  0
 25 26  1  0  0  0
 25 52  1  0  0  0
 26 53  1  0  0  0
 27 28  1  0  0  0
 27 54  1  0  0  0
 28 29  2  0  0  0
 28 30  1  0  0  0
 30 55  1  0  0  0
 30 56  1  0  0  0
 30 57  1  0  0  0
 31 58  1  0  0  0
 31 59  1  0  0  0
 31 60  1  0  0  0
 32 61  1  0  0  0
 32 62  1  0  0  0
 32 63  1  0  0  0
M  END
> <i_i_glide_confnum>
71

> <i_i_glide_lignum>
2712

> <i_i_glide_posenum>
49

> <i_i_glide_rotatable_bonds>
7

> <i_m_Source_File_Index>
2641

> <b_m_subgroup_collapsed>
0

> <r_i_docking_score>
-5.55895

> <r_i_glide_ecoul>
-6.48226

> <r_i_glide_eff_state_penalty>
0

> <r_i_glide_einternal>
6.87174

> <r_i_glide_emodel>
-56.1346

> <r_i_glide_energy>
-43.4587

> <r_i_glide_erotb>
0.576145

> <r_i_glide_esite>
-0.156794

> <r_i_glide_evdw>
-36.9764

> <r_i_glide_gscore>
-5.55895

> <r_i_glide_hbond>
-0.16

> <r_i_glide_ligand_efficiency>
-0.173717

> <r_i_glide_ligand_efficiency_ln>
-1.2448

> <r_i_glide_ligand_efficiency_sa>
-0.551517

> <r_i_glide_lipo>
-2.22897

> <r_i_glide_metal>
0

> <r_i_glide_rewards>
-0.768166

> <s_i_glide_gridfile>
wee1_glide-grid

> <s_m_Source_File>
wee1_decoys_glide_SP.sdf

> <s_m_Source_Path>
/Users/zhangxujun/Desktop

> <s_m_entry_id>
2916

> <s_m_entry_name>
wee1_decoys_glide_SP.2641

> <s_m_subgroup_title>
wee1_decoys_glide_SP

> <s_m_subgroupid>
wee1_decoys_glide_SP


$$$$
