ZINC09588477_819
                    3D
 Schrodinger Suite 2024-2.
 65 68  0  0  1  0            999 V2000
    4.1020   53.7249   19.0382 C   0  0  0  0  0  0
    3.9851   52.7147   20.1902 C   0  0  1  0  0  0
    4.3751   51.7656   19.8086 H   0  0  0  0  0  0
    4.8548   53.1187   21.4140 C   0  0  0  0  0  0
    4.3365   54.3394   22.2146 C   0  0  0  0  0  0
    4.9309   54.4316   23.6117 C   0  0  0  0  0  0
    6.3038   54.6325   23.7743 C   0  0  0  0  0  0
    6.8347   54.7448   25.0548 C   0  0  0  0  0  0
    6.0030   54.6558   26.1692 C   0  0  0  0  0  0
    4.6336   54.4573   26.0119 C   0  0  0  0  0  0
    4.0951   54.3422   24.7305 C   0  0  0  0  0  0
    2.5739   52.4965   20.5288 N   0  0  0  0  0  0
    2.1057   51.5383   21.3443 C   0  0  0  0  0  0
    2.8368   50.7028   21.8787 O   0  0  0  0  0  0
    0.5805   51.5548   21.5944 C   0  0  0  0  0  0
    0.1663   50.5806   22.6403 N   0  0  0  0  0  0
    0.2436   50.9662   24.0200 C   0  0  0  0  0  0
    0.8124   52.1799   24.4460 C   0  0  0  0  0  0
    0.8900   52.4957   25.8014 C   0  0  0  0  0  0
    0.4142   51.6014   26.7566 C   0  0  0  0  0  0
   -0.1659   50.4016   26.3554 C   0  0  0  0  0  0
   -0.3223   50.1093   24.9925 C   0  0  0  0  0  0
   -0.8237   48.8557   24.5588 N   0  0  0  0  0  0
   -0.0893   48.2986   23.4022 C   0  0  0  0  0  0
   -0.0626   49.2967   22.2156 C   0  0  0  0  0  0
   -0.1967   48.9288   21.0477 O   0  0  0  0  0  0
   -2.1554   48.5294   24.6576 C   0  0  0  0  0  0
   -2.7153   47.7439   23.8826 O   0  0  0  0  0  0
   -2.8368   49.0859   25.6818 N   0  0  0  0  0  0
   -4.2717   48.9434   25.9513 C   0  0  0  0  0  0
   -4.7925   47.5120   26.0847 C   0  0  0  0  0  0
   -4.1521   46.6051   26.9356 C   0  0  0  0  0  0
   -4.6202   45.2979   27.0320 C   0  0  0  0  0  0
   -5.7265   44.8976   26.2840 C   0  0  0  0  0  0
   -6.3710   45.7980   25.4376 C   0  0  0  0  0  0
   -5.9000   47.1060   25.3329 C   0  0  0  0  0  0
    5.1484   53.9219   18.8083 H   0  0  0  0  0  0
    3.6447   53.3416   18.1254 H   0  0  0  0  0  0
    3.6483   54.6834   19.2910 H   0  0  0  0  0  0
    5.8813   53.3046   21.0961 H   0  0  0  0  0  0
    4.9129   52.2596   22.0814 H   0  0  0  0  0  0
    3.2492   54.3082   22.2967 H   0  0  0  0  0  0
    4.5602   55.2654   21.6808 H   0  0  0  0  0  0
    6.9582   54.7091   22.9147 H   0  0  0  0  0  0
    7.8960   54.8963   25.1705 H   0  0  0  0  0  0
    6.4230   54.7426   27.1624 H   0  0  0  0  0  0
    3.9897   54.3878   26.8771 H   0  0  0  0  0  0
    3.0335   54.1954   24.6080 H   0  0  0  0  0  0
    1.9196   53.1450   20.1124 H   0  0  0  0  0  0
    0.2289   52.5536   21.8502 H   0  0  0  0  0  0
    0.0671   51.3475   20.6533 H   0  0  0  0  0  0
    1.2285   52.8845   23.7402 H   0  0  0  0  0  0
    1.3458   53.4214   26.1143 H   0  0  0  0  0  0
    0.5074   51.8280   27.8103 H   0  0  0  0  0  0
   -0.4949   49.6968   27.1037 H   0  0  0  0  0  0
   -0.5092   47.3590   23.0445 H   0  0  0  0  0  0
    0.9495   48.1270   23.6822 H   0  0  0  0  0  0
   -2.3135   49.6433   26.3474 H   0  0  0  0  0  0
   -4.4683   49.4509   26.8962 H   0  0  0  0  0  0
   -4.8259   49.4958   25.1899 H   0  0  0  0  0  0
   -3.2951   46.9137   27.5195 H   0  0  0  0  0  0
   -4.1260   44.5918   27.6818 H   0  0  0  0  0  0
   -6.0866   43.8809   26.3617 H   0  0  0  0  0  0
   -7.2293   45.4828   24.8630 H   0  0  0  0  0  0
   -6.3961   47.7979   24.6671 H   0  0  0  0  0  0
  1  2  1  0  0  0
  1 37  1  0  0  0
  1 38  1  0  0  0
  1 39  1  0  0  0
  2  3  1  0  0  0
  2  4  1  0  0  0
  2 12  1  0  0  0
  4  5  1  0  0  0
  4 40  1  0  0  0
  4 41  1  0  0  0
  5  6  1  0  0  0
  5 42  1  0  0  0
  5 43  1  0  0  0
  6 11  2  0  0  0
  6  7  1  0  0  0
  7  8  2  0  0  0
  7 44  1  0  0  0
  8  9  1  0  0  0
  8 45  1  0  0  0
  9 10  2  0  0  0
  9 46  1  0  0  0
 10 11  1  0  0  0
 10 47  1  0  0  0
 11 48  1  0  0  0
 12 13  1  0  0  0
 12 49  1  0  0  0
 13 14  2  0  0  0
 13 15  1  0  0  0
 15 16  1  0  0  0
 15 50  1  0  0  0
 15 51  1  0  0  0
 16 25  1  0  0  0
 16 17  1  0  0  0
 17 22  2  0  0  0
 17 18  1  0  0  0
 18 19  2  0  0  0
 18 52  1  0  0  0
 19 20  1  0  0  0
 19 53  1  0  0  0
 20 21  2  0  0  0
 20 54  1  0  0  0
 21 22  1  0  0  0
 21 55  1  0  0  0
 22 23  1  0  0  0
 23 24  1  0  0  0
 23 27  1  0  0  0
 24 25  1  0  0  0
 24 56  1  0  0  0
 24 57  1  0  0  0
 25 26  2  0  0  0
 27 28  2  0  0  0
 27 29  1  0  0  0
 29 30  1  0  0  0
 29 58  1  0  0  0
 30 31  1  0  0  0
 30 59  1  0  0  0
 30 60  1  0  0  0
 31 36  2  0  0  0
 31 32  1  0  0  0
 32 33  2  0  0  0
 32 61  1  0  0  0
 33 34  1  0  0  0
 33 62  1  0  0  0
 34 35  2  0  0  0
 34 63  1  0  0  0
 35 36  1  0  0  0
 35 64  1  0  0  0
 36 65  1  0  0  0
M  END
> <i_i_glide_confnum>
120

> <i_i_glide_lignum>
820

> <i_i_glide_posenum>
395

> <i_i_glide_rotatable_bonds>
11

> <i_m_Source_File_Index>
2819

> <b_m_subgroup_collapsed>
0

> <r_i_docking_score>
-4.54664

> <r_i_glide_ecoul>
-5.1772

> <r_i_glide_eff_state_penalty>
0

> <r_i_glide_einternal>
4.67634

> <r_i_glide_emodel>
-56.0406

> <r_i_glide_energy>
-42.3848

> <r_i_glide_erotb>
0.821273

> <r_i_glide_esite>
-0.182018

> <r_i_glide_evdw>
-37.2076

> <r_i_glide_gscore>
-4.54664

> <r_i_glide_hbond>
-0.186638

> <r_i_glide_ligand_efficiency>
-0.129904

> <r_i_glide_ligand_efficiency_ln>
-0.998088

> <r_i_glide_ligand_efficiency_sa>
-0.424925

> <r_i_glide_lipo>
-1.94414

> <r_i_glide_metal>
0

> <r_i_glide_rewards>
-0.418154

> <s_i_glide_gridfile>
wee1_glide-grid

> <s_m_Source_File>
wee1_decoys_glide_SP.sdf

> <s_m_Source_Path>
/Users/zhangxujun/Desktop

> <s_m_entry_id>
3094

> <s_m_entry_name>
wee1_decoys_glide_SP.2819

> <s_m_subgroup_title>
wee1_decoys_glide_SP

> <s_m_subgroupid>
wee1_decoys_glide_SP


$$$$
