ZINC59890765_5113
                    3D
 Schrodinger Suite 2024-2.
 69 71  0  0  1  0            999 V2000
    4.0703   54.2753   24.1890 C   0  0  0  0  0  0
    2.8121   53.5594   23.7117 C   0  0  0  0  0  0
    1.7169   53.5065   24.5823 C   0  0  0  0  0  0
    0.5444   52.8466   24.2229 C   0  0  0  0  0  0
    0.4509   52.2289   22.9758 C   0  0  0  0  0  0
    1.5252   52.2989   22.0899 C   0  0  0  0  0  0
    2.7174   52.9560   22.4375 C   0  0  0  0  0  0
    3.8713   52.9342   21.4590 C   0  0  0  0  0  0
    5.0230   52.6841   21.8190 O   0  0  0  0  0  0
    3.5332   53.1591   20.1786 N   0  0  0  0  0  0
    4.3826   52.8984   19.0112 C   0  0  0  0  0  0
    5.0624   54.1564   18.3730 C   0  0  1  0  0  0
    4.0639   55.3374   18.1183 C   0  0  0  0  0  0
    4.7350   56.6754   17.7097 C   0  0  0  0  0  0
    5.8833   57.0668   18.6644 C   0  0  0  0  0  0
    6.9271   55.9394   18.7464 C   0  0  2  0  0  0
    7.3029   55.7594   17.7392 H   0  0  0  0  0  0
    6.2203   54.6737   19.2852 C   0  0  0  0  0  0
    8.1217   56.3211   19.6382 C   0  0  0  0  0  0
    5.6707   53.7608   16.9742 N   0  3  0  0  0  0
    6.9847   52.9349   17.0081 C   0  0  0  0  0  0
    4.7042   53.0696   15.9747 C   0  0  0  0  0  0
   -0.9929   51.2866   22.4895 S   0  0  0  0  0  0
   -1.7527   52.0969   21.5316 O   0  0  0  0  0  0
   -0.5013   49.9593   22.1089 O   0  0  0  0  0  0
   -1.9891   51.0395   23.9428 N   0  0  0  0  0  0
   -2.9522   51.9297   24.4458 C   0  0  0  0  0  0
   -3.8005   51.4593   25.4473 C   0  0  0  0  0  0
   -4.7833   52.2884   25.9815 C   0  0  0  0  0  0
   -4.9373   53.6000   25.5082 C   0  0  0  0  0  0
   -4.0954   54.0607   24.4996 C   0  0  0  0  0  0
   -3.0908   53.2438   23.9899 C   0  0  0  0  0  0
   -5.8740   54.4966   25.9804 O   0  0  0  0  0  0
   -6.7035   54.1180   27.0689 C   0  0  0  0  0  0
    3.8765   54.9301   25.0380 H   0  0  0  0  0  0
    4.8376   53.5532   24.4681 H   0  0  0  0  0  0
    4.4762   54.8963   23.3952 H   0  0  0  0  0  0
    1.7790   53.9629   25.5592 H   0  0  0  0  0  0
   -0.2713   52.8022   24.9301 H   0  0  0  0  0  0
    1.4383   51.7957   21.1360 H   0  0  0  0  0  0
    2.6005   53.5089   20.0008 H   0  0  0  0  0  0
    3.7133   52.4110   18.3048 H   0  0  0  0  0  0
    5.1400   52.1591   19.2818 H   0  0  0  0  0  0
    3.5066   55.5303   19.0337 H   0  0  0  0  0  0
    3.3038   55.0876   17.3815 H   0  0  0  0  0  0
    5.1177   56.6023   16.6903 H   0  0  0  0  0  0
    3.9887   57.4722   17.6840 H   0  0  0  0  0  0
    6.3524   57.9920   18.3272 H   0  0  0  0  0  0
    5.5084   57.2951   19.6611 H   0  0  0  0  0  0
    6.9681   53.8992   19.4242 H   0  0  0  0  0  0
    5.8503   54.8767   20.2927 H   0  0  0  0  0  0
    7.8184   56.4717   20.6741 H   0  0  0  0  0  0
    8.8800   55.5375   19.6325 H   0  0  0  0  0  0
    8.6047   57.2306   19.2813 H   0  0  0  0  0  0
    6.8263   52.0966   17.6812 H   0  0  0  0  0  0
    7.2202   52.5903   16.0002 H   0  0  0  0  0  0
    7.7931   53.5735   17.3636 H   0  0  0  0  0  0
    4.5641   52.0334   16.2880 H   0  0  0  0  0  0
    3.7555   53.5985   15.9377 H   0  0  0  0  0  0
    5.1806   53.1035   14.9936 H   0  0  0  0  0  0
   -1.8316   50.1819   24.4512 H   0  0  0  0  0  0
   -3.7038   50.4489   25.8185 H   0  0  0  0  0  0
   -5.4187   51.8918   26.7584 H   0  0  0  0  0  0
   -4.2023   55.0680   24.1284 H   0  0  0  0  0  0
   -2.4350   53.6548   23.2413 H   0  0  0  0  0  0
   -7.3441   54.9571   27.3450 H   0  0  0  0  0  0
   -7.3493   53.2772   26.8073 H   0  0  0  0  0  0
   -6.1019   53.8542   27.9397 H   0  0  0  0  0  0
    5.9082   54.6504   16.5537 H   0  0  0  0  0  0
  1  2  1  0  0  0
  1 35  1  0  0  0
  1 36  1  0  0  0
  1 37  1  0  0  0
  2  7  2  0  0  0
  2  3  1  0  0  0
  3  4  2  0  0  0
  3 38  1  0  0  0
  4  5  1  0  0  0
  4 39  1  0  0  0
  5  6  2  0  0  0
  5 23  1  0  0  0
  6  7  1  0  0  0
  6 40  1  0  0  0
  7  8  1  0  0  0
  8  9  2  0  0  0
  8 10  1  0  0  0
 10 11  1  0  0  0
 10 41  1  0  0  0
 11 12  1  0  0  0
 11 42  1  0  0  0
 11 43  1  0  0  0
 12 18  1  0  0  0
 12 13  1  0  0  0
 12 20  1  0  0  0
 13 14  1  0  0  0
 13 44  1  0  0  0
 13 45  1  0  0  0
 14 15  1  0  0  0
 14 46  1  0  0  0
 14 47  1  0  0  0
 15 16  1  0  0  0
 15 48  1  0  0  0
 15 49  1  0  0  0
 16 17  1  0  0  0
 16 18  1  0  0  0
 16 19  1  0  0  0
 18 50  1  0  0  0
 18 51  1  0  0  0
 19 52  1  0  0  0
 19 53  1  0  0  0
 19 54  1  0  0  0
 20 21  1  0  0  0
 20 22  1  0  0  0
 20 69  1  0  0  0
 21 55  1  0  0  0
 21 56  1  0  0  0
 21 57  1  0  0  0
 22 58  1  0  0  0
 22 59  1  0  0  0
 22 60  1  0  0  0
 23 24  2  0  0  0
 23 25  2  0  0  0
 23 26  1  0  0  0
 26 27  1  0  0  0
 26 61  1  0  0  0
 27 32  2  0  0  0
 27 28  1  0  0  0
 28 29  2  0  0  0
 28 62  1  0  0  0
 29 30  1  0  0  0
 29 63  1  0  0  0
 30 31  2  0  0  0
 30 33  1  0  0  0
 31 32  1  0  0  0
 31 64  1  0  0  0
 32 65  1  0  0  0
 33 34  1  0  0  0
 34 66  1  0  0  0
 34 67  1  0  0  0
 34 68  1  0  0  0
M  CHG  1  20   1
M  END
> <i_i_glide_confnum>
52

> <i_i_glide_lignum>
5114

> <i_i_glide_posenum>
289

> <i_i_glide_rotatable_bonds>
9

> <i_m_Source_File_Index>
4354

> <b_m_subgroup_collapsed>
0

> <r_i_docking_score>
-3.50862

> <r_i_glide_ecoul>
-7.85814

> <r_i_glide_eff_state_penalty>
0

> <r_i_glide_einternal>
11.9531

> <r_i_glide_emodel>
-42.8282

> <r_i_glide_energy>
-42.8103

> <r_i_glide_erotb>
0.628795

> <r_i_glide_esite>
-0.0460367

> <r_i_glide_evdw>
-34.9522

> <r_i_glide_gscore>
-3.50862

> <r_i_glide_hbond>
-0.523877

> <r_i_glide_ligand_efficiency>
-0.106322

> <r_i_glide_ligand_efficiency_ln>
-0.780298

> <r_i_glide_ligand_efficiency_sa>
-0.341031

> <r_i_glide_lipo>
-1.97197

> <r_i_glide_metal>
0

> <r_i_glide_rewards>
1.3308

> <s_i_glide_gridfile>
wee1_glide-grid

> <s_m_Source_File>
wee1_decoys_glide_SP.sdf

> <s_m_Source_Path>
/Users/zhangxujun/Desktop

> <s_m_entry_id>
4629

> <s_m_entry_name>
wee1_decoys_glide_SP.4354

> <s_m_subgroup_title>
wee1_decoys_glide_SP

> <s_m_subgroupid>
wee1_decoys_glide_SP


$$$$
