ZINC39657147_3680
                    3D
 Schrodinger Suite 2024-2.
 64 66  0  0  1  0            999 V2000
   -0.4727   51.2946   27.6565 C   0  0  0  0  0  0
    0.5734   50.8896   26.6066 C   0  0  0  0  0  0
   -0.0454   50.4528   25.2470 C   0  0  2  0  0  0
   -0.9870   50.9915   25.1148 H   0  0  0  0  0  0
   -0.4097   48.9540   25.2609 C   0  0  0  0  0  0
    0.8352   50.7819   24.0060 C   0  0  0  0  0  0
    1.1040   52.2817   23.7616 C   0  0  0  0  0  0
    0.4835   53.1286   24.4081 O   0  0  0  0  0  0
    2.0280   52.6351   22.8417 N   0  0  0  0  0  0
    2.3184   54.0402   22.5637 C   0  0  0  0  0  0
    3.5553   53.9891   21.6395 C   0  0  2  0  0  0
    3.5044   54.8176   20.9372 H   0  0  0  0  0  0
    3.4575   52.6024   20.9180 C   0  0  0  0  0  0
    2.7318   51.7051   21.9449 C   0  0  0  0  0  0
    2.5074   52.5835   19.6774 C   0  0  0  0  0  0
    3.0228   53.4411   18.5079 C   0  0  0  0  0  0
    4.4079   52.8967   18.1019 N   0  3  0  0  0  0
    5.4045   52.8222   19.2746 C   0  0  0  0  0  0
    4.7775   51.9679   20.4077 C   0  0  0  0  0  0
    4.8898   54.2132   22.4101 C   0  0  0  0  0  0
    5.9048   54.5482   21.8049 O   0  0  0  0  0  0
    4.8616   54.0967   23.7441 N   0  0  0  0  0  0
    5.9228   54.3238   24.7268 C   0  0  1  0  0  0
    6.6684   53.5451   24.5524 H   0  0  0  0  0  0
    6.6083   55.6994   24.5889 C   0  0  0  0  0  0
    5.3990   54.1372   26.1562 C   0  0  0  0  0  0
    6.3218   53.9492   27.1892 C   0  0  0  0  0  0
    5.8803   53.6965   28.4817 C   0  0  0  0  0  0
    4.5145   53.6040   28.7432 C   0  0  0  0  0  0
    3.5839   53.8210   27.7347 C   0  0  0  0  0  0
    4.0234   54.0968   26.4466 C   0  0  0  0  0  0
    3.9009   53.1446   30.4818 Br  0  0  0  0  0  0
   -0.0013   51.5145   28.6145 H   0  0  0  0  0  0
   -1.1963   50.4969   27.8211 H   0  0  0  0  0  0
   -1.0224   52.1831   27.3448 H   0  0  0  0  0  0
    1.2576   51.7286   26.4818 H   0  0  0  0  0  0
    1.1844   50.0824   27.0106 H   0  0  0  0  0  0
    0.4786   48.3298   25.3736 H   0  0  0  0  0  0
   -1.0854   48.7143   26.0816 H   0  0  0  0  0  0
   -0.9087   48.6555   24.3380 H   0  0  0  0  0  0
    1.7876   50.2555   24.0828 H   0  0  0  0  0  0
    0.3474   50.3880   23.1139 H   0  0  0  0  0  0
    1.4587   54.4906   22.0817 H   0  0  0  0  0  0
    2.4682   54.6580   23.4519 H   0  0  0  0  0  0
    3.5045   51.1762   22.4814 H   0  0  0  0  0  0
    2.1111   50.9467   21.4640 H   0  0  0  0  0  0
    2.3575   51.5620   19.3199 H   0  0  0  0  0  0
    1.5048   52.9092   19.9546 H   0  0  0  0  0  0
    2.3894   53.3587   17.6232 H   0  0  0  0  0  0
    3.1498   54.4961   18.7518 H   0  0  0  0  0  0
    4.3280   51.9404   17.7584 H   0  0  0  0  0  0
    6.3047   52.3660   18.8682 H   0  0  0  0  0  0
    5.6223   53.8560   19.5317 H   0  0  0  0  0  0
    5.5019   51.8549   21.2156 H   0  0  0  0  0  0
    4.5929   50.9448   20.0817 H   0  0  0  0  0  0
    4.0353   53.6595   24.1236 H   0  0  0  0  0  0
    7.4338   55.8057   25.2878 H   0  0  0  0  0  0
    7.0337   55.8562   23.5984 H   0  0  0  0  0  0
    5.9045   56.5070   24.7866 H   0  0  0  0  0  0
    7.3838   53.9778   26.9928 H   0  0  0  0  0  0
    6.6003   53.5537   29.2744 H   0  0  0  0  0  0
    2.5258   53.7562   27.9448 H   0  0  0  0  0  0
    3.2749   54.2523   25.6846 H   0  0  0  0  0  0
    4.7995   53.4393   17.3444 H   0  0  0  0  0  0
  1  2  1  0  0  0
  1 33  1  0  0  0
  1 34  1  0  0  0
  1 35  1  0  0  0
  2  3  1  0  0  0
  2 36  1  0  0  0
  2 37  1  0  0  0
  3  4  1  0  0  0
  3  5  1  0  0  0
  3  6  1  0  0  0
  5 38  1  0  0  0
  5 39  1  0  0  0
  5 40  1  0  0  0
  6  7  1  0  0  0
  6 41  1  0  0  0
  6 42  1  0  0  0
  7  8  2  0  0  0
  7  9  1  0  0  0
  9 14  1  0  0  0
  9 10  1  0  0  0
 10 11  1  0  0  0
 10 43  1  0  0  0
 10 44  1  0  0  0
 11 12  1  0  0  0
 11 13  1  0  0  0
 11 20  1  0  0  0
 13 19  1  0  0  0
 13 14  1  0  0  0
 13 15  1  0  0  0
 14 45  1  0  0  0
 14 46  1  0  0  0
 15 16  1  0  0  0
 15 47  1  0  0  0
 15 48  1  0  0  0
 16 17  1  0  0  0
 16 49  1  0  0  0
 16 50  1  0  0  0
 17 18  1  0  0  0
 17 51  1  0  0  0
 17 64  1  0  0  0
 18 19  1  0  0  0
 18 52  1  0  0  0
 18 53  1  0  0  0
 19 54  1  0  0  0
 19 55  1  0  0  0
 20 21  2  0  0  0
 20 22  1  0  0  0
 22 23  1  0  0  0
 22 56  1  0  0  0
 23 24  1  0  0  0
 23 25  1  0  0  0
 23 26  1  0  0  0
 25 57  1  0  0  0
 25 58  1  0  0  0
 25 59  1  0  0  0
 26 31  2  0  0  0
 26 27  1  0  0  0
 27 28  2  0  0  0
 27 60  1  0  0  0
 28 29  1  0  0  0
 28 61  1  0  0  0
 29 30  2  0  0  0
 29 32  1  0  0  0
 30 31  1  0  0  0
 30 62  1  0  0  0
 31 63  1  0  0  0
M  CHG  1  17   1
M  END
> <i_i_glide_confnum>
229

> <i_i_glide_lignum>
3681

> <i_i_glide_posenum>
62

> <i_i_glide_rotatable_bonds>
8

> <i_m_Source_File_Index>
5287

> <b_m_subgroup_collapsed>
0

> <r_i_docking_score>
-5.55574

> <r_i_glide_ecoul>
-4.09626

> <r_i_glide_eff_state_penalty>
0

> <r_i_glide_einternal>
10.4248

> <r_i_glide_emodel>
-56.3238

> <r_i_glide_energy>
-44.5147

> <r_i_glide_erotb>
0.558541

> <r_i_glide_esite>
-0.1

> <r_i_glide_evdw>
-40.4184

> <r_i_glide_gscore>
-5.55574

> <r_i_glide_hbond>
-0.125336

> <r_i_glide_ligand_efficiency>
-0.191577

> <r_i_glide_ligand_efficiency_ln>
-1.27212

> <r_i_glide_ligand_efficiency_sa>
-0.588586

> <r_i_glide_lipo>
-2.39128

> <r_i_glide_metal>
0

> <r_i_glide_rewards>
-0.862305

> <s_i_glide_gridfile>
wee1_glide-grid

> <s_m_Source_File>
wee1_decoys_glide_SP.sdf

> <s_m_Source_Path>
/Users/zhangxujun/Desktop

> <s_m_entry_id>
5562

> <s_m_entry_name>
wee1_decoys_glide_SP.5287

> <s_m_subgroup_title>
wee1_decoys_glide_SP

> <s_m_subgroupid>
wee1_decoys_glide_SP


$$$$
