ZINC13598343_1836
                    3D
 Schrodinger Suite 2024-2.
 35 37  0  0  1  0            999 V2000
    6.5694   54.3319   23.1170 C   0  0  0  0  0  0
    5.2012   54.1730   23.7563 C   0  0  0  0  0  0
    4.0086   54.0032   23.0288 C   0  0  0  0  0  0
    2.6176   53.9264   24.0790 S   0  0  0  0  0  0
    3.6049   54.1352   25.4705 C   0  0  0  0  0  0
    4.9533   54.2650   25.1447 C   0  0  0  0  0  0
    5.8999   54.4992   26.2427 C   0  0  0  0  0  0
    5.2670   54.4968   27.4525 N   0  0  0  0  0  0
    3.9151   54.3773   27.7005 C   0  0  0  0  0  0
    3.0843   54.1998   26.7287 N   0  0  0  0  0  0
    3.4461   54.5310   29.1503 C   0  0  1  0  0  0
    4.2073   55.0993   29.6836 H   0  0  0  0  0  0
    2.1505   55.3705   29.2769 C   0  0  0  0  0  0
    3.4052   52.9002   29.9776 S   0  0  0  0  0  0
    1.8785   52.2724   29.3625 C   0  0  0  0  0  0
    1.7814   51.6944   28.1704 N   0  0  0  0  0  0
    0.5310   51.3204   28.1324 C   0  0  0  0  0  0
   -0.0939   51.6971   29.2813 N   0  0  0  0  0  0
   -1.0519   51.4994   29.5316 H   0  0  0  0  0  0
    0.7746   52.3155   30.0827 N   0  0  0  0  0  0
   -0.0975   50.6386   27.1350 N   0  0  0  0  0  0
    7.1043   54.7127   26.1991 O   0  0  0  0  0  0
    3.8081   53.9132   21.5337 C   0  0  0  0  0  0
    6.5313   54.5363   22.0481 H   0  0  0  0  0  0
    7.1098   55.1709   23.5547 H   0  0  0  0  0  0
    7.1972   53.4570   23.2848 H   0  0  0  0  0  0
    2.2846   56.3752   28.8746 H   0  0  0  0  0  0
    1.3087   54.9185   28.7517 H   0  0  0  0  0  0
    1.8579   55.4832   30.3208 H   0  0  0  0  0  0
    0.4047   50.4642   26.2781 H   0  0  0  0  0  0
   -0.7122   49.8699   27.4073 H   0  0  0  0  0  0
    3.5514   54.8876   21.1159 H   0  0  0  0  0  0
    4.6965   53.5588   21.0109 H   0  0  0  0  0  0
    2.9996   53.2302   21.2695 H   0  0  0  0  0  0
    5.8951   54.6472   28.2266 H   0  0  0  0  0  0
  1  2  1  0  0  0
  1 24  1  0  0  0
  1 25  1  0  0  0
  1 26  1  0  0  0
  2  6  1  0  0  0
  2  3  2  0  0  0
  3  4  1  0  0  0
  3 23  1  0  0  0
  4  5  1  0  0  0
  5 10  1  0  0  0
  5  6  2  0  0  0
  6  7  1  0  0  0
  7  8  1  0  0  0
  7 22  2  0  0  0
  8  9  1  0  0  0
  8 35  1  0  0  0
  9 10  2  0  0  0
  9 11  1  0  0  0
 11 12  1  0  0  0
 11 13  1  0  0  0
 11 14  1  0  0  0
 13 27  1  0  0  0
 13 28  1  0  0  0
 13 29  1  0  0  0
 14 15  1  0  0  0
 15 20  2  0  0  0
 15 16  1  0  0  0
 16 17  2  0  0  0
 17 18  1  0  0  0
 17 21  1  0  0  0
 18 19  1  0  0  0
 18 20  1  0  0  0
 21 30  1  0  0  0
 21 31  1  0  0  0
 23 32  1  0  0  0
 23 33  1  0  0  0
 23 34  1  0  0  0
M  END
> <i_i_glide_confnum>
18

> <i_i_glide_lignum>
1837

> <i_i_glide_posenum>
116

> <i_i_glide_rotatable_bonds>
3

> <i_m_Source_File_Index>
3648

> <b_m_subgroup_collapsed>
0

> <r_i_docking_score>
-8.35744

> <r_i_glide_ecoul>
-8.31591

> <r_i_glide_eff_state_penalty>
0

> <r_i_glide_einternal>
2.81777

> <r_i_glide_emodel>
-76.7679

> <r_i_glide_energy>
-50.4093

> <r_i_glide_erotb>
0.539687

> <r_i_glide_esite>
-0.122041

> <r_i_glide_evdw>
-42.0934

> <r_i_glide_gscore>
-8.35744

> <r_i_glide_hbond>
-0.456

> <r_i_glide_ligand_efficiency>
-0.397973

> <r_i_glide_ligand_efficiency_ln>
-2.06636

> <r_i_glide_ligand_efficiency_sa>
-1.09798

> <r_i_glide_lipo>
-2.71198

> <r_i_glide_metal>
0

> <r_i_glide_rewards>
-2.25505

> <s_i_glide_gridfile>
wee1_glide-grid

> <s_m_Source_File>
wee1_decoys_glide_SP.sdf

> <s_m_Source_Path>
/Users/zhangxujun/Desktop

> <s_m_entry_id>
3923

> <s_m_entry_name>
wee1_decoys_glide_SP.3648

> <s_m_subgroup_title>
wee1_decoys_glide_SP

> <s_m_subgroupid>
wee1_decoys_glide_SP


$$$$
