ZINC03951738_2385
                    3D
 Schrodinger Suite 2024-2.
 73 75  0  0  1  0            999 V2000
    7.0530   53.8380   27.7441 C   0  0  0  0  0  0
    6.2007   54.1362   26.5358 C   0  0  0  0  0  0
    6.7050   54.4110   25.3555 N   0  0  0  0  0  0
    5.7919   54.5862   24.4242 C   0  0  0  0  0  0
    4.4752   54.4960   24.8760 C   0  0  0  0  0  0
    4.4680   54.1007   26.5619 S   0  0  0  0  0  0
    6.2572   54.9050   23.0797 C   0  0  0  0  0  0
    5.7769   54.4658   21.8921 C   0  0  0  0  0  0
    4.6813   53.4037   21.8146 C   0  0  0  0  0  0
    6.3277   54.9745   20.5399 C   0  0  2  0  0  0
    7.3009   54.5007   20.4171 H   0  0  0  0  0  0
    6.4942   56.5110   20.4520 C   0  0  0  0  0  0
    7.4045   56.9829   19.2963 C   0  0  1  0  0  0
    8.4313   56.6233   19.3692 H   0  0  0  0  0  0
    6.8997   57.3644   17.9356 C   0  0  2  0  0  0
    7.5797   57.3189   17.0835 H   0  0  0  0  0  0
    7.2420   58.3223   18.8985 O   0  0  0  0  0  0
    5.4212   57.2440   17.5470 C   0  0  0  0  0  0
    4.8952   58.4726   16.7957 C   0  0  0  0  0  0
    3.5258   58.2287   16.1307 C   0  0  0  0  0  0
    3.5536   57.2970   14.8815 C   0  0  1  0  0  0
    4.1326   56.4128   15.1336 H   0  0  0  0  0  0
    2.1450   56.7982   14.4380 C   0  0  1  0  0  0
    2.2436   56.3660   13.4403 H   0  0  0  0  0  0
    1.4553   55.7135   15.3404 C   0  0  2  0  0  0
    1.3668   56.1264   16.3454 H   0  0  0  0  0  0
    2.2695   54.3867   15.4529 C   0  0  0  0  0  0
    3.0535   54.0821   14.5512 O   0  0  0  0  0  0
    2.1652   53.4809   16.7342 C   0  0  0  0  0  0
    3.2869   53.9053   17.7659 C   0  0  2  0  0  0
    3.2195   54.9827   17.9357 H   0  0  0  0  0  0
    4.7635   53.5687   17.3699 C   0  0  0  0  0  0
    5.8895   53.9689   18.3471 C   0  0  0  0  0  0
    7.0622   53.7145   18.0828 O   0  0  0  0  0  0
    5.4613   54.6099   19.4576 O   0  0  0  0  0  0
    3.0334   53.2966   19.0201 O   0  0  0  0  0  0
    2.3683   51.9853   16.3411 C   0  0  0  0  0  0
    0.7568   53.5906   17.3965 C   0  0  0  0  0  0
    0.0310   55.4232   14.7807 C   0  0  0  0  0  0
    1.3057   57.9336   14.2787 O   0  0  0  0  0  0
    4.3125   57.9516   13.7031 C   0  0  0  0  0  0
    7.9045   54.5096   27.8268 H   0  0  0  0  0  0
    7.4525   52.8218   27.7125 H   0  0  0  0  0  0
    6.4895   53.9332   28.6761 H   0  0  0  0  0  0
    3.5585   54.6216   24.3210 H   0  0  0  0  0  0
    7.0921   55.5932   23.0829 H   0  0  0  0  0  0
    4.9365   52.6286   21.0885 H   0  0  0  0  0  0
    4.5149   52.8965   22.7643 H   0  0  0  0  0  0
    3.7403   53.8638   21.5213 H   0  0  0  0  0  0
    5.5092   56.9723   20.4126 H   0  0  0  0  0  0
    6.9401   56.8961   21.3631 H   0  0  0  0  0  0
    4.7757   57.0635   18.4039 H   0  0  0  0  0  0
    5.3306   56.3604   16.9210 H   0  0  0  0  0  0
    5.6224   58.8159   16.0596 H   0  0  0  0  0  0
    4.8100   59.2958   17.5033 H   0  0  0  0  0  0
    3.1118   59.1994   15.8525 H   0  0  0  0  0  0
    2.8402   57.8324   16.8814 H   0  0  0  0  0  0
    4.9954   54.0088   16.4018 H   0  0  0  0  0  0
    4.8586   52.4915   17.2398 H   0  0  0  0  0  0
    2.3571   53.8225   19.4664 H   0  0  0  0  0  0
    2.3641   51.3320   17.2177 H   0  0  0  0  0  0
    1.5803   51.6270   15.6766 H   0  0  0  0  0  0
    3.3149   51.7994   15.8301 H   0  0  0  0  0  0
    0.6797   52.9859   18.2993 H   0  0  0  0  0  0
    0.4957   54.6066   17.6852 H   0  0  0  0  0  0
   -0.0234   53.1912   16.7509 H   0  0  0  0  0  0
   -0.5348   54.6947   15.3518 H   0  0  0  0  0  0
   -0.5838   56.3218   14.7770 H   0  0  0  0  0  0
    0.0769   55.0587   13.7537 H   0  0  0  0  0  0
    1.3442   58.4494   15.0882 H   0  0  0  0  0  0
    3.8558   58.8977   13.4092 H   0  0  0  0  0  0
    5.3546   58.1487   13.9504 H   0  0  0  0  0  0
    4.3181   57.3012   12.8283 H   0  0  0  0  0  0
  1  2  1  0  0  0
  1 42  1  0  0  0
  1 43  1  0  0  0
  1 44  1  0  0  0
  2  6  1  0  0  0
  2  3  2  0  0  0
  3  4  1  0  0  0
  4  5  2  0  0  0
  4  7  1  0  0  0
  5  6  1  0  0  0
  5 45  1  0  0  0
  7  8  2  0  0  0
  7 46  1  0  0  0
  8  9  1  0  0  0
  8 10  1  0  0  0
  9 47  1  0  0  0
  9 48  1  0  0  0
  9 49  1  0  0  0
 10 11  1  0  0  0
 10 35  1  0  0  0
 10 12  1  0  0  0
 12 13  1  0  0  0
 12 50  1  0  0  0
 12 51  1  0  0  0
 13 14  1  0  0  0
 13 17  1  0  0  0
 13 15  1  0  0  0
 15 16  1  0  0  0
 15 17  1  0  0  0
 15 18  1  0  0  0
 18 19  1  0  0  0
 18 52  1  0  0  0
 18 53  1  0  0  0
 19 20  1  0  0  0
 19 54  1  0  0  0
 19 55  1  0  0  0
 20 21  1  0  0  0
 20 56  1  0  0  0
 20 57  1  0  0  0
 21 22  1  0  0  0
 21 23  1  0  0  0
 21 41  1  0  0  0
 23 24  1  0  0  0
 23 25  1  0  0  0
 23 40  1  0  0  0
 25 26  1  0  0  0
 25 27  1  0  0  0
 25 39  1  0  0  0
 27 28  2  0  0  0
 27 29  1  0  0  0
 29 30  1  0  0  0
 29 37  1  0  0  0
 29 38  1  0  0  0
 30 31  1  0  0  0
 30 32  1  0  0  0
 30 36  1  0  0  0
 32 33  1  0  0  0
 32 58  1  0  0  0
 32 59  1  0  0  0
 33 34  2  0  0  0
 33 35  1  0  0  0
 36 60  1  0  0  0
 37 61  1  0  0  0
 37 62  1  0  0  0
 37 63  1  0  0  0
 38 64  1  0  0  0
 38 65  1  0  0  0
 38 66  1  0  0  0
 39 67  1  0  0  0
 39 68  1  0  0  0
 39 69  1  0  0  0
 40 70  1  0  0  0
 41 71  1  0  0  0
 41 72  1  0  0  0
 41 73  1  0  0  0
M  END
> <i_i_glide_confnum>
29

> <i_i_glide_lignum>
2386

> <i_i_glide_posenum>
125

> <i_i_glide_rotatable_bonds>
4

> <i_m_Source_File_Index>
6088

> <b_m_subgroup_collapsed>
0

> <r_i_docking_score>
-4.68546

> <r_i_glide_ecoul>
-4.67439

> <r_i_glide_eff_state_penalty>
0

> <r_i_glide_einternal>
7.89005

> <r_i_glide_emodel>
-47.9846

> <r_i_glide_energy>
-40.86

> <r_i_glide_erotb>
0.1672

> <r_i_glide_esite>
-0.022277

> <r_i_glide_evdw>
-36.1857

> <r_i_glide_gscore>
-4.68546

> <r_i_glide_hbond>
-0.0625663

> <r_i_glide_ligand_efficiency>
-0.137808

> <r_i_glide_ligand_efficiency_ln>
-1.03515

> <r_i_glide_ligand_efficiency_sa>
-0.446444

> <r_i_glide_lipo>
-2.09746

> <r_i_glide_metal>
0

> <r_i_glide_rewards>
-0.159915

> <s_i_glide_gridfile>
wee1_glide-grid

> <s_m_Source_File>
wee1_decoys_glide_SP.sdf

> <s_m_Source_Path>
/Users/zhangxujun/Desktop

> <s_m_entry_id>
6363

> <s_m_entry_name>
wee1_decoys_glide_SP.6088

> <s_m_subgroup_title>
wee1_decoys_glide_SP

> <s_m_subgroupid>
wee1_decoys_glide_SP


$$$$
