ZINC12501461_3511
                    3D
 Schrodinger Suite 2024-2.
 41 42  0  0  1  0            999 V2000
   -0.7906   49.3973   24.4912 C   0  0  0  0  0  0
   -0.4819   50.8513   24.9192 C   0  0  2  0  0  0
    0.3380   51.1903   24.2843 H   0  0  0  0  0  0
    0.0618   51.0095   26.3603 C   0  0  0  0  0  0
    0.7044   50.0968   26.8736 O   0  0  0  0  0  0
   -0.1897   52.1763   26.9852 N   0  0  0  0  0  0
    0.0369   52.2612   28.3585 N   0  0  0  0  0  0
    1.1480   52.8231   28.9119 C   0  0  0  0  0  0
    1.1303   52.8967   30.5762 S   0  0  0  0  0  0
    2.1394   53.2356   28.0493 N   0  0  0  0  0  0
    3.2785   53.9526   28.2341 C   0  0  0  0  0  0
    3.6128   54.4985   29.2890 O   0  0  0  0  0  0
    4.1339   54.1075   26.9923 C   0  0  0  0  0  0
    3.5198   54.3217   25.7446 C   0  0  0  0  0  0
    4.2785   54.4966   24.5886 C   0  0  0  0  0  0
    5.6680   54.4683   24.6558 C   0  0  0  0  0  0
    6.2945   54.2387   25.8762 C   0  0  0  0  0  0
    5.5454   54.0464   27.0381 C   0  0  0  0  0  0
    6.4341   53.6977   28.4816 Cl  0  0  0  0  0  0
    6.6133   54.6963   23.2301 Cl  0  0  0  0  0  0
   -1.5681   51.7522   24.6248 O   0  0  0  0  0  0
   -2.7764   51.7760   25.3111 C   0  0  0  0  0  0
   -3.1305   50.8979   26.3521 C   0  0  0  0  0  0
   -4.3475   51.0374   27.0181 C   0  0  0  0  0  0
   -5.2329   52.0492   26.6519 C   0  0  0  0  0  0
   -4.9030   52.9164   25.6128 C   0  0  0  0  0  0
   -3.6833   52.7821   24.9486 C   0  0  0  0  0  0
   -3.2962   53.8923   23.6818 Cl  0  0  0  0  0  0
   -6.7282   52.2383   27.4917 Cl  0  0  0  0  0  0
    0.0789   48.7513   24.6257 H   0  0  0  0  0  0
   -1.6084   48.9511   25.0544 H   0  0  0  0  0  0
   -1.0619   49.3577   23.4365 H   0  0  0  0  0  0
   -0.8110   52.8868   26.6264 H   0  0  0  0  0  0
   -0.8237   52.2137   28.8863 H   0  0  0  0  0  0
    2.0381   52.8821   27.1108 H   0  0  0  0  0  0
    2.4443   54.3718   25.6523 H   0  0  0  0  0  0
    3.7872   54.6670   23.6411 H   0  0  0  0  0  0
    7.3710   54.1895   25.9194 H   0  0  0  0  0  0
   -2.4735   50.1080   26.6847 H   0  0  0  0  0  0
   -4.5954   50.3607   27.8239 H   0  0  0  0  0  0
   -5.5916   53.6977   25.3257 H   0  0  0  0  0  0
  1  2  1  0  0  0
  1 30  1  0  0  0
  1 31  1  0  0  0
  1 32  1  0  0  0
  2  3  1  0  0  0
  2  4  1  0  0  0
  2 21  1  0  0  0
  4  5  2  0  0  0
  4  6  1  0  0  0
  6  7  1  0  0  0
  6 33  1  0  0  0
  7  8  1  0  0  0
  7 34  1  0  0  0
  8  9  2  0  0  0
  8 10  1  0  0  0
 10 11  1  0  0  0
 10 35  1  0  0  0
 11 12  2  0  0  0
 11 13  1  0  0  0
 13 18  2  0  0  0
 13 14  1  0  0  0
 14 15  2  0  0  0
 14 36  1  0  0  0
 15 16  1  0  0  0
 15 37  1  0  0  0
 16 17  2  0  0  0
 16 20  1  0  0  0
 17 18  1  0  0  0
 17 38  1  0  0  0
 18 19  1  0  0  0
 21 22  1  0  0  0
 22 27  2  0  0  0
 22 23  1  0  0  0
 23 24  2  0  0  0
 23 39  1  0  0  0
 24 25  1  0  0  0
 24 40  1  0  0  0
 25 26  2  0  0  0
 25 29  1  0  0  0
 26 27  1  0  0  0
 26 41  1  0  0  0
 27 28  1  0  0  0
M  END
> <i_i_glide_confnum>
81

> <i_i_glide_lignum>
3512

> <i_i_glide_posenum>
85

> <i_i_glide_rotatable_bonds>
9

> <i_m_Source_File_Index>
1455

> <b_m_subgroup_collapsed>
0

> <r_i_docking_score>
-5.03428

> <r_i_glide_ecoul>
-1.67359

> <r_i_glide_eff_state_penalty>
0

> <r_i_glide_einternal>
3.8281

> <r_i_glide_emodel>
-59.2664

> <r_i_glide_energy>
-45.4549

> <r_i_glide_erotb>
0.613261

> <r_i_glide_esite>
-0.0513324

> <r_i_glide_evdw>
-43.7814

> <r_i_glide_gscore>
-5.03428

> <r_i_glide_hbond>
0

> <r_i_glide_ligand_efficiency>
-0.179796

> <r_i_glide_ligand_efficiency_ln>
-1.16206

> <r_i_glide_ligand_efficiency_sa>
-0.545966

> <r_i_glide_lipo>
-2.46363

> <r_i_glide_metal>
0

> <r_i_glide_rewards>
-0.692468

> <s_i_glide_gridfile>
wee1_glide-grid

> <s_m_Source_File>
wee1_decoys_glide_SP.sdf

> <s_m_Source_Path>
/Users/zhangxujun/Desktop

> <s_m_entry_id>
1730

> <s_m_entry_name>
wee1_decoys_glide_SP.1455

> <s_m_subgroup_title>
wee1_decoys_glide_SP

> <s_m_subgroupid>
wee1_decoys_glide_SP


$$$$
