ZINC46846201_5315
                    3D
 Schrodinger Suite 2024-2.
 65 68  0  0  1  0            999 V2000
    1.6897   55.1059   28.5838 C   0  0  0  0  0  0
    2.2668   53.7639   28.0946 C   0  0  0  0  0  0
    1.4392   52.5709   28.6226 C   0  0  0  0  0  0
    2.4686   53.7635   26.5748 C   0  0  0  0  0  0
    3.6244   54.3372   26.0400 C   0  0  0  0  0  0
    3.8471   54.3244   24.6646 C   0  0  0  0  0  0
    2.9436   53.6978   23.7862 C   0  0  0  0  0  0
    1.7400   53.2301   24.3302 C   0  0  0  0  0  0
    1.5104   53.2374   25.7032 C   0  0  0  0  0  0
    3.2180   53.4936   22.2623 C   0  0  2  0  0  0
    2.3534   53.9474   21.7748 H   0  0  0  0  0  0
    3.2724   51.9911   21.7782 C   0  0  0  0  0  0
    2.3043   51.0451   22.3288 N   0  0  0  0  0  0
    1.0330   50.8569   21.9316 C   0  0  0  0  0  0
    0.5364   51.4298   20.9625 O   0  0  0  0  0  0
    0.2204   49.9206   22.8014 C   0  0  0  0  0  0
   -1.0015   49.4097   22.3468 C   0  0  0  0  0  0
   -1.7568   48.5561   23.1539 C   0  0  0  0  0  0
   -1.2998   48.2050   24.4293 C   0  0  0  0  0  0
   -0.0965   48.7276   24.8930 C   0  0  0  0  0  0
    0.6567   49.5689   24.0864 C   0  0  0  0  0  0
   -1.9841   47.3445   25.2992 N   0  0  0  0  0  0
   -3.4881   46.4968   24.9367 S   0  0  0  0  0  0
   -3.4153   46.0170   23.5536 O   0  0  0  0  0  0
   -3.6963   45.5402   26.0277 O   0  0  0  0  0  0
   -4.7642   47.8660   25.0729 C   0  0  0  0  0  0
    4.3920   54.2628   21.7582 N   0  0  0  0  0  0
    5.7079   53.7337   22.1660 C   0  0  0  0  0  0
    6.7863   54.8466   21.9846 C   0  0  0  0  0  0
    6.7324   55.3133   20.5418 C   0  0  0  0  0  0
    5.5979   55.1507   19.7563 C   0  0  0  0  0  0
    5.7536   55.7044   18.4793 C   0  0  0  0  0  0
    7.0076   56.2652   18.2863 C   0  0  0  0  0  0
    8.0187   56.0967   19.6824 S   0  0  0  0  0  0
    4.3968   54.3738   20.2772 C   0  0  0  0  0  0
    2.3236   55.9439   28.2972 H   0  0  0  0  0  0
    0.7029   55.2878   28.1610 H   0  0  0  0  0  0
    1.5945   55.1281   29.6699 H   0  0  0  0  0  0
    3.2579   53.6494   28.5358 H   0  0  0  0  0  0
    1.8212   51.6220   28.2411 H   0  0  0  0  0  0
    1.4760   52.5187   29.7115 H   0  0  0  0  0  0
    0.3886   52.6462   28.3422 H   0  0  0  0  0  0
    4.3534   54.7976   26.6904 H   0  0  0  0  0  0
    4.7392   54.8112   24.3105 H   0  0  0  0  0  0
    0.9660   52.8349   23.6937 H   0  0  0  0  0  0
    0.5792   52.8374   26.0769 H   0  0  0  0  0  0
    3.2413   51.9239   20.6912 H   0  0  0  0  0  0
    4.2331   51.5603   22.0546 H   0  0  0  0  0  0
    2.6490   50.4369   23.0557 H   0  0  0  0  0  0
   -1.3747   49.6670   21.3648 H   0  0  0  0  0  0
   -2.6912   48.1867   22.7647 H   0  0  0  0  0  0
    0.2650   48.4804   25.8822 H   0  0  0  0  0  0
    1.5846   49.9439   24.4821 H   0  0  0  0  0  0
   -1.6746   47.3219   26.2640 H   0  0  0  0  0  0
   -5.7495   47.4433   24.8844 H   0  0  0  0  0  0
   -4.7174   48.2788   26.0801 H   0  0  0  0  0  0
   -4.5341   48.6375   24.3398 H   0  0  0  0  0  0
    5.9044   52.8108   21.6201 H   0  0  0  0  0  0
    5.7344   53.4338   23.2108 H   0  0  0  0  0  0
    7.7836   54.4928   22.2381 H   0  0  0  0  0  0
    6.6113   55.6571   22.6933 H   0  0  0  0  0  0
    4.9853   55.6778   17.7207 H   0  0  0  0  0  0
    7.3850   56.7466   17.3956 H   0  0  0  0  0  0
    3.5045   54.8967   19.9653 H   0  0  0  0  0  0
    4.4090   53.4045   19.7826 H   0  0  0  0  0  0
  1  2  1  0  0  0
  1 36  1  0  0  0
  1 37  1  0  0  0
  1 38  1  0  0  0
  2  3  1  0  0  0
  2  4  1  0  0  0
  2 39  1  0  0  0
  3 40  1  0  0  0
  3 41  1  0  0  0
  3 42  1  0  0  0
  4  9  2  0  0  0
  4  5  1  0  0  0
  5  6  2  0  0  0
  5 43  1  0  0  0
  6  7  1  0  0  0
  6 44  1  0  0  0
  7  8  2  0  0  0
  7 10  1  0  0  0
  8  9  1  0  0  0
  8 45  1  0  0  0
  9 46  1  0  0  0
 10 11  1  0  0  0
 10 12  1  0  0  0
 10 27  1  0  0  0
 12 13  1  0  0  0
 12 47  1  0  0  0
 12 48  1  0  0  0
 13 14  1  0  0  0
 13 49  1  0  0  0
 14 15  2  0  0  0
 14 16  1  0  0  0
 16 21  2  0  0  0
 16 17  1  0  0  0
 17 18  2  0  0  0
 17 50  1  0  0  0
 18 19  1  0  0  0
 18 51  1  0  0  0
 19 20  2  0  0  0
 19 22  1  0  0  0
 20 21  1  0  0  0
 20 52  1  0  0  0
 21 53  1  0  0  0
 22 23  1  0  0  0
 22 54  1  0  0  0
 23 24  2  0  0  0
 23 25  2  0  0  0
 23 26  1  0  0  0
 26 55  1  0  0  0
 26 56  1  0  0  0
 26 57  1  0  0  0
 27 35  1  0  0  0
 27 28  1  0  0  0
 28 29  1  0  0  0
 28 58  1  0  0  0
 28 59  1  0  0  0
 29 30  1  0  0  0
 29 60  1  0  0  0
 29 61  1  0  0  0
 30 34  1  0  0  0
 30 31  2  0  0  0
 31 32  1  0  0  0
 31 35  1  0  0  0
 32 33  2  0  0  0
 32 62  1  0  0  0
 33 34  1  0  0  0
 33 63  1  0  0  0
 35 64  1  0  0  0
 35 65  1  0  0  0
M  END
> <i_i_glide_confnum>
182

> <i_i_glide_lignum>
5316

> <i_i_glide_posenum>
126

> <i_i_glide_rotatable_bonds>
9

> <i_m_Source_File_Index>
858

> <b_m_subgroup_collapsed>
0

> <r_i_docking_score>
-5.61924

> <r_i_glide_ecoul>
-5.74884

> <r_i_glide_eff_state_penalty>
0

> <r_i_glide_einternal>
10.8461

> <r_i_glide_emodel>
-59.2364

> <r_i_glide_energy>
-46.8092

> <r_i_glide_erotb>
0.576572

> <r_i_glide_esite>
-0.318018

> <r_i_glide_evdw>
-41.0604

> <r_i_glide_gscore>
-5.61924

> <r_i_glide_hbond>
-0.039642

> <r_i_glide_ligand_efficiency>
-0.165272

> <r_i_glide_ligand_efficiency_ln>
-1.24145

> <r_i_glide_ligand_efficiency_sa>
-0.535416

> <r_i_glide_lipo>
-2.8461

> <r_i_glide_metal>
0

> <r_i_glide_rewards>
-0.0767016

> <s_i_glide_gridfile>
wee1_glide-grid

> <s_m_Source_File>
wee1_decoys_glide_SP.sdf

> <s_m_Source_Path>
/Users/zhangxujun/Desktop

> <s_m_entry_id>
1133

> <s_m_entry_name>
wee1_decoys_glide_SP.858

> <s_m_subgroup_title>
wee1_decoys_glide_SP

> <s_m_subgroupid>
wee1_decoys_glide_SP


$$$$
