ZINC62562112_1917
                    3D
 Schrodinger Suite 2024-2.
 39 41  0  0  1  0            999 V2000
    0.3662   52.2107   30.7029 C   0  0  0  0  0  0
    0.1604   53.5248   29.9371 C   0  0  0  0  0  0
    0.4702   54.7494   30.8183 C   0  0  0  0  0  0
    0.9159   53.4783   28.6116 C   0  0  0  0  0  0
    2.0537   54.2572   28.3749 C   0  0  0  0  0  0
    2.7048   54.1834   27.1505 C   0  0  0  0  0  0
    2.2152   53.3536   26.1390 C   0  0  0  0  0  0
    1.1046   52.5406   26.3941 C   0  0  0  0  0  0
    0.4572   52.6067   27.6199 C   0  0  0  0  0  0
    2.9048   53.3127   24.7712 C   0  0  1  0  0  0
    3.0990   52.2631   24.6040 H   0  0  0  0  0  0
    1.9307   53.7098   23.6103 C   0  0  0  0  0  0
    0.7034   53.6976   23.6787 O   0  0  0  0  0  0
    2.6036   54.0249   22.4848 N   0  0  0  0  0  0
    3.9781   54.2068   22.3690 C   0  0  0  0  0  0
    4.5596   54.4966   21.1363 C   0  0  0  0  0  0
    5.9046   54.8659   21.0720 C   0  0  0  0  0  0
    6.6815   54.8958   22.2323 C   0  0  0  0  0  0
    6.1236   54.5392   23.4608 C   0  0  0  0  0  0
    4.7622   54.2102   23.5259 C   0  0  0  0  0  0
    4.1645   54.0330   24.7601 O   0  0  0  0  0  0
    6.9201   54.5558   24.6039 N   0  0  0  0  0  0
    6.4556   55.1989   19.8866 F   0  0  0  0  0  0
   -0.0901   51.3765   30.1647 H   0  0  0  0  0  0
   -0.0953   52.2503   31.6855 H   0  0  0  0  0  0
    1.4227   51.9884   30.8533 H   0  0  0  0  0  0
   -0.8955   53.5969   29.6832 H   0  0  0  0  0  0
    0.3095   55.6864   30.2824 H   0  0  0  0  0  0
   -0.1558   54.7671   31.7076 H   0  0  0  0  0  0
    1.5034   54.7399   31.1483 H   0  0  0  0  0  0
    2.4476   54.9286   29.1206 H   0  0  0  0  0  0
    3.5718   54.8050   26.9855 H   0  0  0  0  0  0
    0.7302   51.8695   25.6379 H   0  0  0  0  0  0
   -0.4113   51.9869   27.7909 H   0  0  0  0  0  0
    2.0167   54.2257   21.6837 H   0  0  0  0  0  0
    3.9611   54.4982   20.2361 H   0  0  0  0  0  0
    7.7228   55.1784   22.1632 H   0  0  0  0  0  0
    7.9206   54.6574   24.4761 H   0  0  0  0  0  0
    6.5336   54.1506   25.4448 H   0  0  0  0  0  0
  1  2  1  0  0  0
  1 24  1  0  0  0
  1 25  1  0  0  0
  1 26  1  0  0  0
  2  3  1  0  0  0
  2  4  1  0  0  0
  2 27  1  0  0  0
  3 28  1  0  0  0
  3 29  1  0  0  0
  3 30  1  0  0  0
  4  9  2  0  0  0
  4  5  1  0  0  0
  5  6  2  0  0  0
  5 31  1  0  0  0
  6  7  1  0  0  0
  6 32  1  0  0  0
  7  8  2  0  0  0
  7 10  1  0  0  0
  8  9  1  0  0  0
  8 33  1  0  0  0
  9 34  1  0  0  0
 10 11  1  0  0  0
 10 21  1  0  0  0
 10 12  1  0  0  0
 12 13  2  0  0  0
 12 14  1  0  0  0
 14 15  1  0  0  0
 14 35  1  0  0  0
 15 20  2  0  0  0
 15 16  1  0  0  0
 16 17  2  0  0  0
 16 36  1  0  0  0
 17 18  1  0  0  0
 17 23  1  0  0  0
 18 19  2  0  0  0
 18 37  1  0  0  0
 19 20  1  0  0  0
 19 22  1  0  0  0
 20 21  1  0  0  0
 22 38  1  0  0  0
 22 39  1  0  0  0
M  END
> <i_i_glide_confnum>
3

> <i_i_glide_lignum>
1918

> <i_i_glide_posenum>
51

> <i_i_glide_rotatable_bonds>
2

> <i_m_Source_File_Index>
1318

> <b_m_subgroup_collapsed>
0

> <r_i_docking_score>
-7.02063

> <r_i_glide_ecoul>
-4.30811

> <r_i_glide_eff_state_penalty>
0

> <r_i_glide_einternal>
0.733707

> <r_i_glide_emodel>
-47.7126

> <r_i_glide_energy>
-33.9317

> <r_i_glide_erotb>
0.203777

> <r_i_glide_esite>
0

> <r_i_glide_evdw>
-29.6236

> <r_i_glide_gscore>
-7.02063

> <r_i_glide_hbond>
-0.608

> <r_i_glide_ligand_efficiency>
-0.31912

> <r_i_glide_ligand_efficiency_ln>
-1.7161

> <r_i_glide_ligand_efficiency_sa>
-0.894186

> <r_i_glide_lipo>
-2.62951

> <r_i_glide_metal>
0

> <r_i_glide_rewards>
-1.85951

> <s_i_glide_gridfile>
wee1_glide-grid

> <s_m_Source_File>
wee1_decoys_glide_SP.sdf

> <s_m_Source_Path>
/Users/zhangxujun/Desktop

> <s_m_entry_id>
1593

> <s_m_entry_name>
wee1_decoys_glide_SP.1318

> <s_m_subgroup_title>
wee1_decoys_glide_SP

> <s_m_subgroupid>
wee1_decoys_glide_SP


$$$$
