ZINC40723049_3943
                    3D
 Schrodinger Suite 2024-2.
 35 37  0  0  1  0            999 V2000
    3.8498   54.6820   26.8512 C   0  0  0  0  0  0
    3.0200   54.3897   27.9310 C   0  0  0  0  0  0
    3.4765   53.5425   28.9390 C   0  0  0  0  0  0
    4.7570   52.9977   28.8755 C   0  0  0  0  0  0
    5.5895   53.2994   27.7981 C   0  0  0  0  0  0
    5.1290   54.1285   26.7749 C   0  0  0  0  0  0
    6.2059   54.5096   25.4080 S   0  0  0  0  0  0
    5.2641   54.2060   23.9096 C   0  0  0  0  0  0
    5.8155   54.4961   22.6421 C   0  0  0  0  0  0
    5.0003   54.2508   21.5155 C   0  0  0  0  0  0
    3.7511   53.7283   21.6416 N   0  0  0  0  0  0
    3.3113   53.4849   22.8937 C   0  0  0  0  0  0
    4.0064   53.6979   24.0317 N   0  0  0  0  0  0
    5.4418   54.5983   20.2247 N   0  0  0  0  0  0
    4.7995   54.4810   18.9814 C   0  0  0  0  0  0
    4.1607   53.2901   18.6188 C   0  0  0  0  0  0
    3.5042   53.1811   17.3949 C   0  0  0  0  0  0
    3.4678   54.2690   16.5257 C   0  0  0  0  0  0
    4.0935   55.4641   16.8813 C   0  0  0  0  0  0
    4.7641   55.5728   18.0997 C   0  0  0  0  0  0
    5.5283   57.0759   18.4906 Cl  0  0  0  0  0  0
    2.6489   54.1405   15.0129 Cl  0  0  0  0  0  0
    7.1042   55.0371   22.5016 N   0  0  0  0  0  0
    2.4536   53.1641   30.2760 Cl  0  0  0  0  0  0
    3.5026   55.3416   26.0729 H   0  0  0  0  0  0
    2.0293   54.8170   27.9831 H   0  0  0  0  0  0
    5.1018   52.3372   29.6570 H   0  0  0  0  0  0
    6.5821   52.8761   27.7494 H   0  0  0  0  0  0
    2.3157   53.0751   22.9916 H   0  0  0  0  0  0
    6.2485   55.1998   20.2206 H   0  0  0  0  0  0
    4.1870   52.4324   19.2746 H   0  0  0  0  0  0
    3.0353   52.2458   17.1221 H   0  0  0  0  0  0
    4.0645   56.3075   16.2086 H   0  0  0  0  0  0
    7.7019   55.0859   23.3188 H   0  0  0  0  0  0
    7.5433   55.0136   21.5936 H   0  0  0  0  0  0
  1  6  2  0  0  0
  1  2  1  0  0  0
  1 25  1  0  0  0
  2  3  2  0  0  0
  2 26  1  0  0  0
  3  4  1  0  0  0
  3 24  1  0  0  0
  4  5  2  0  0  0
  4 27  1  0  0  0
  5  6  1  0  0  0
  5 28  1  0  0  0
  6  7  1  0  0  0
  7  8  1  0  0  0
  8 13  2  0  0  0
  8  9  1  0  0  0
  9 10  2  0  0  0
  9 23  1  0  0  0
 10 11  1  0  0  0
 10 14  1  0  0  0
 11 12  2  0  0  0
 12 13  1  0  0  0
 12 29  1  0  0  0
 14 15  1  0  0  0
 14 30  1  0  0  0
 15 20  2  0  0  0
 15 16  1  0  0  0
 16 17  2  0  0  0
 16 31  1  0  0  0
 17 18  1  0  0  0
 17 32  1  0  0  0
 18 19  2  0  0  0
 18 22  1  0  0  0
 19 20  1  0  0  0
 19 33  1  0  0  0
 20 21  1  0  0  0
 23 34  1  0  0  0
 23 35  1  0  0  0
M  END
> <i_i_glide_confnum>
7

> <i_i_glide_lignum>
3944

> <i_i_glide_posenum>
399

> <i_i_glide_rotatable_bonds>
4

> <i_m_Source_File_Index>
5954

> <b_m_subgroup_collapsed>
0

> <r_i_docking_score>
-5.51821

> <r_i_glide_ecoul>
-2.79992

> <r_i_glide_eff_state_penalty>
0

> <r_i_glide_einternal>
0.137939

> <r_i_glide_emodel>
-53.1318

> <r_i_glide_energy>
-38.604

> <r_i_glide_erotb>
0.49509

> <r_i_glide_esite>
0

> <r_i_glide_evdw>
-35.8041

> <r_i_glide_gscore>
-5.51821

> <r_i_glide_hbond>
-0.238859

> <r_i_glide_ligand_efficiency>
-0.229926

> <r_i_glide_ligand_efficiency_ln>
-1.32076

> <r_i_glide_ligand_efficiency_sa>
-0.66322

> <r_i_glide_lipo>
-2.58559

> <r_i_glide_metal>
0

> <r_i_glide_rewards>
-0.978657

> <s_i_glide_gridfile>
wee1_glide-grid

> <s_m_Source_File>
wee1_decoys_glide_SP.sdf

> <s_m_Source_Path>
/Users/zhangxujun/Desktop

> <s_m_entry_id>
6229

> <s_m_entry_name>
wee1_decoys_glide_SP.5954

> <s_m_subgroup_title>
wee1_decoys_glide_SP

> <s_m_subgroupid>
wee1_decoys_glide_SP


$$$$
