ZINC38664691_4396
                    3D
 Schrodinger Suite 2024-2.
 75 76  0  0  1  0            999 V2000
    6.1308   54.5434   27.0106 C   0  0  0  0  0  0
    4.7421   54.1849   27.4867 C   0  0  0  0  0  0
    3.7637   53.8841   26.6652 N   0  0  0  0  0  0
    2.6456   53.5555   27.2891 C   0  0  0  0  0  0
    2.7039   53.6155   28.6788 C   0  0  0  0  0  0
    4.3024   54.0897   29.1625 S   0  0  0  0  0  0
    1.5126   53.1955   26.4490 C   0  0  0  0  0  0
    0.6340   52.1774   26.5919 C   0  0  0  0  0  0
    0.7199   51.1344   27.7023 C   0  0  0  0  0  0
   -0.5004   51.9676   25.5872 C   0  0  2  0  0  0
   -0.4316   52.7872   24.8676 H   0  0  0  0  0  0
   -1.9192   52.0197   26.2146 C   0  0  0  0  0  0
   -3.0547   52.0683   25.1974 C   0  0  0  0  0  0
   -4.3215   51.6172   25.3439 C   0  0  0  0  0  0
   -4.8941   51.0272   26.6351 C   0  0  0  0  0  0
   -5.2158   49.5142   26.5926 C   0  0  0  0  0  0
   -3.9441   48.6615   26.4480 C   0  0  0  0  0  0
   -4.0933   47.1170   26.3806 C   0  0  2  0  0  0
   -3.0869   46.7324   26.2068 H   0  0  0  0  0  0
   -4.9830   46.6005   25.2065 C   0  0  1  0  0  0
   -6.0093   46.8841   25.4442 H   0  0  0  0  0  0
   -4.6677   47.1866   23.7878 C   0  0  1  0  0  0
   -4.7489   48.2615   23.9129 H   0  0  0  0  0  0
   -3.2588   46.8617   23.2206 C   0  0  0  0  0  0
   -2.8523   45.6977   23.2340 O   0  0  0  0  0  0
   -2.3305   47.9847   22.6405 C   0  0  0  0  0  0
   -0.9939   48.0566   23.4816 C   0  0  1  0  0  0
   -0.4953   47.1065   23.3065 H   0  0  0  0  0  0
    0.0429   49.1635   23.1167 C   0  0  0  0  0  0
   -0.2476   50.5988   23.5850 C   0  0  0  0  0  0
   -0.3938   51.5160   22.7762 O   0  0  0  0  0  0
   -0.2991   50.7164   24.9297 O   0  0  0  0  0  0
   -1.2018   48.0360   24.8824 O   0  0  0  0  0  0
   -3.0472   49.3612   22.5500 C   0  0  0  0  0  0
   -2.0060   47.5799   21.1734 C   0  0  0  0  0  0
   -5.7495   46.8088   22.7516 C   0  0  0  0  0  0
   -4.9664   45.1783   25.1930 O   0  0  0  0  0  0
   -4.5174   46.5519   27.7561 C   0  0  0  0  0  0
   -5.3102   51.7024   24.1919 C   0  0  0  0  0  0
    6.1243   54.9848   26.0120 H   0  0  0  0  0  0
    6.7723   53.6607   26.9682 H   0  0  0  0  0  0
    6.6147   55.2613   27.6768 H   0  0  0  0  0  0
    1.9267   53.4041   29.3979 H   0  0  0  0  0  0
    1.3978   53.8562   25.6007 H   0  0  0  0  0  0
   -0.0963   51.2623   28.4141 H   0  0  0  0  0  0
    0.6475   50.1290   27.2819 H   0  0  0  0  0  0
    1.6565   51.1806   28.2570 H   0  0  0  0  0  0
   -2.0602   51.1711   26.8859 H   0  0  0  0  0  0
   -1.9976   52.9190   26.8249 H   0  0  0  0  0  0
   -2.7732   52.4857   24.2409 H   0  0  0  0  0  0
   -4.2518   51.2421   27.4900 H   0  0  0  0  0  0
   -5.8178   51.5694   26.8459 H   0  0  0  0  0  0
   -5.7354   49.2387   27.5107 H   0  0  0  0  0  0
   -5.9120   49.3007   25.7823 H   0  0  0  0  0  0
   -3.3997   49.0045   25.5745 H   0  0  0  0  0  0
   -3.2955   48.9069   27.2853 H   0  0  0  0  0  0
    0.1868   49.1903   22.0373 H   0  0  0  0  0  0
    1.0155   48.8919   23.5306 H   0  0  0  0  0  0
   -0.3602   48.0375   25.3510 H   0  0  0  0  0  0
   -2.4973   50.0613   21.9217 H   0  0  0  0  0  0
   -4.0435   49.2932   22.1095 H   0  0  0  0  0  0
   -3.1383   49.8315   23.5244 H   0  0  0  0  0  0
   -1.3888   48.3269   20.6749 H   0  0  0  0  0  0
   -1.4602   46.6369   21.1140 H   0  0  0  0  0  0
   -2.9088   47.4746   20.5698 H   0  0  0  0  0  0
   -5.6085   47.3396   21.8093 H   0  0  0  0  0  0
   -5.7446   45.7407   22.5316 H   0  0  0  0  0  0
   -6.7449   47.0635   23.1142 H   0  0  0  0  0  0
   -5.2911   44.8734   26.0437 H   0  0  0  0  0  0
   -5.5427   46.8276   28.0059 H   0  0  0  0  0  0
   -4.4437   45.4638   27.7866 H   0  0  0  0  0  0
   -3.8677   46.9296   28.5493 H   0  0  0  0  0  0
   -5.7019   50.7172   23.9414 H   0  0  0  0  0  0
   -6.1450   52.3542   24.4495 H   0  0  0  0  0  0
   -4.8441   52.0957   23.2894 H   0  0  0  0  0  0
  1  2  1  0  0  0
  1 40  1  0  0  0
  1 41  1  0  0  0
  1 42  1  0  0  0
  2  6  1  0  0  0
  2  3  2  0  0  0
  3  4  1  0  0  0
  4  5  2  0  0  0
  4  7  1  0  0  0
  5  6  1  0  0  0
  5 43  1  0  0  0
  7  8  2  0  0  0
  7 44  1  0  0  0
  8  9  1  0  0  0
  8 10  1  0  0  0
  9 45  1  0  0  0
  9 46  1  0  0  0
  9 47  1  0  0  0
 10 11  1  0  0  0
 10 32  1  0  0  0
 10 12  1  0  0  0
 12 13  1  0  0  0
 12 48  1  0  0  0
 12 49  1  0  0  0
 13 14  2  0  0  0
 13 50  1  0  0  0
 14 15  1  0  0  0
 14 39  1  0  0  0
 15 16  1  0  0  0
 15 51  1  0  0  0
 15 52  1  0  0  0
 16 17  1  0  0  0
 16 53  1  0  0  0
 16 54  1  0  0  0
 17 18  1  0  0  0
 17 55  1  0  0  0
 17 56  1  0  0  0
 18 19  1  0  0  0
 18 20  1  0  0  0
 18 38  1  0  0  0
 20 21  1  0  0  0
 20 22  1  0  0  0
 20 37  1  0  0  0
 22 23  1  0  0  0
 22 24  1  0  0  0
 22 36  1  0  0  0
 24 25  2  0  0  0
 24 26  1  0  0  0
 26 27  1  0  0  0
 26 34  1  0  0  0
 26 35  1  0  0  0
 27 28  1  0  0  0
 27 29  1  0  0  0
 27 33  1  0  0  0
 29 30  1  0  0  0
 29 57  1  0  0  0
 29 58  1  0  0  0
 30 31  2  0  0  0
 30 32  1  0  0  0
 33 59  1  0  0  0
 34 60  1  0  0  0
 34 61  1  0  0  0
 34 62  1  0  0  0
 35 63  1  0  0  0
 35 64  1  0  0  0
 35 65  1  0  0  0
 36 66  1  0  0  0
 36 67  1  0  0  0
 36 68  1  0  0  0
 37 69  1  0  0  0
 38 70  1  0  0  0
 38 71  1  0  0  0
 38 72  1  0  0  0
 39 73  1  0  0  0
 39 74  1  0  0  0
 39 75  1  0  0  0
M  END
> <i_i_glide_confnum>
8

> <i_i_glide_lignum>
4397

> <i_i_glide_posenum>
45

> <i_i_glide_rotatable_bonds>
4

> <i_m_Source_File_Index>
4145

> <b_m_subgroup_collapsed>
0

> <r_i_docking_score>
-3.72324

> <r_i_glide_ecoul>
-4.52621

> <r_i_glide_eff_state_penalty>
0

> <r_i_glide_einternal>
5.61972

> <r_i_glide_emodel>
-43.2236

> <r_i_glide_energy>
-36.6409

> <r_i_glide_erotb>
0.16843

> <r_i_glide_esite>
-0.0124684

> <r_i_glide_evdw>
-32.1146

> <r_i_glide_gscore>
-3.72324

> <r_i_glide_hbond>
-0.0222

> <r_i_glide_ligand_efficiency>
-0.109507

> <r_i_glide_ligand_efficiency_ln>
-0.822568

> <r_i_glide_ligand_efficiency_sa>
-0.35476

> <r_i_glide_lipo>
-1.50404

> <r_i_glide_metal>
0

> <r_i_glide_rewards>
-0.0682938

> <s_i_glide_gridfile>
wee1_glide-grid

> <s_m_Source_File>
wee1_decoys_glide_SP.sdf

> <s_m_Source_Path>
/Users/zhangxujun/Desktop

> <s_m_entry_id>
4420

> <s_m_entry_name>
wee1_decoys_glide_SP.4145

> <s_m_subgroup_title>
wee1_decoys_glide_SP

> <s_m_subgroupid>
wee1_decoys_glide_SP


$$$$
