ZINC59310282_4509
                    3D
 Schrodinger Suite 2024-2.
 58 63  0  0  1  0            999 V2000
    5.8116   54.6873   21.4566 C   0  0  0  0  0  0
    6.6178   54.8982   22.5662 C   0  0  0  0  0  0
    6.1139   54.7297   23.8768 C   0  0  0  0  0  0
    6.8894   54.9687   25.0190 C   0  0  0  0  0  0
    6.3843   54.7795   26.2925 C   0  0  0  0  0  0
    5.0618   54.3441   26.4874 C   0  0  0  0  0  0
    4.5336   54.1136   27.7695 C   0  0  0  0  0  0
    3.2358   53.6641   27.9350 C   0  0  0  0  0  0
    2.3776   53.4309   26.8558 C   0  0  0  0  0  0
    2.8479   53.6889   25.5169 C   0  0  0  0  0  0
    4.2156   54.1217   25.3465 C   0  0  0  0  0  0
    4.7487   54.3135   24.0412 C   0  0  0  0  0  0
    3.9243   54.0957   22.8848 C   0  0  0  0  0  0
    4.4902   54.2896   21.6035 C   0  0  0  0  0  0
    2.5901   53.7111   23.0683 C   0  0  0  0  0  0
    2.0715   53.5118   24.3340 C   0  0  0  0  0  0
    1.0255   52.9059   27.1201 C   0  0  0  0  0  0
    0.5735   52.5045   28.2444 N   0  0  0  0  0  0
   -0.7588   52.0062   28.3383 N   0  0  0  0  0  0
   -1.6292   51.7512   27.2917 C   0  0  0  0  0  0
   -2.1759   52.6204   26.4817 N   0  0  0  0  0  0
   -2.7585   51.8539   25.5766 C   0  0  0  0  0  0
   -2.6677   50.5519   25.7755 N   0  0  0  0  0  0
   -1.9340   50.4967   26.8818 N   0  0  0  0  0  0
   -3.5838   52.5830   24.2082 S   0  0  0  0  0  0
   -3.5029   51.2192   23.0051 C   0  0  0  0  0  0
   -2.3044   51.3495   22.0644 C   0  0  0  0  0  0
   -2.4714   51.7151   20.9010 O   0  0  0  0  0  0
   -1.1019   51.0405   22.5797 N   0  0  0  0  0  0
    0.1700   51.0712   21.8495 C   0  0  0  0  0  0
    0.4575   49.8983   20.9074 C   0  0  0  0  0  0
    1.5611   49.9861   20.0509 C   0  0  0  0  0  0
    1.8532   48.9439   19.1731 C   0  0  0  0  0  0
    1.0436   47.8130   19.1497 C   0  0  0  0  0  0
   -0.0599   47.7172   19.9940 C   0  0  0  0  0  0
   -0.3523   48.7556   20.8733 C   0  0  0  0  0  0
    1.3273   46.7984   18.3030 F   0  0  0  0  0  0
    6.2178   54.8294   20.4663 H   0  0  0  0  0  0
    7.6441   55.2095   22.4322 H   0  0  0  0  0  0
    7.9032   55.3039   24.8818 H   0  0  0  0  0  0
    7.0121   54.9559   27.1548 H   0  0  0  0  0  0
    5.1602   54.2779   28.6349 H   0  0  0  0  0  0
    2.8973   53.4857   28.9458 H   0  0  0  0  0  0
    3.8759   54.1329   20.7284 H   0  0  0  0  0  0
    1.9603   53.5660   22.2001 H   0  0  0  0  0  0
    1.0412   53.2009   24.3825 H   0  0  0  0  0  0
    0.3851   52.8895   26.2499 H   0  0  0  0  0  0
   -0.9875   51.6795   29.2689 H   0  0  0  0  0  0
   -4.4218   51.2828   22.4333 H   0  0  0  0  0  0
   -3.5284   50.2312   23.4602 H   0  0  0  0  0  0
   -1.0654   50.7145   23.5354 H   0  0  0  0  0  0
    0.9759   51.1072   22.5841 H   0  0  0  0  0  0
    0.2350   52.0002   21.2777 H   0  0  0  0  0  0
    2.1965   50.8607   20.0548 H   0  0  0  0  0  0
    2.7024   49.0145   18.5057 H   0  0  0  0  0  0
   -0.6825   46.8353   19.9648 H   0  0  0  0  0  0
   -1.2097   48.6616   21.5221 H   0  0  0  0  0  0
   -1.6957   49.6236   27.3681 H   0  0  0  0  0  0
  1 14  2  0  0  0
  1  2  1  0  0  0
  1 38  1  0  0  0
  2  3  2  0  0  0
  2 39  1  0  0  0
  3 12  1  0  0  0
  3  4  1  0  0  0
  4  5  2  0  0  0
  4 40  1  0  0  0
  5  6  1  0  0  0
  5 41  1  0  0  0
  6 11  2  0  0  0
  6  7  1  0  0  0
  7  8  2  0  0  0
  7 42  1  0  0  0
  8  9  1  0  0  0
  8 43  1  0  0  0
  9 10  2  0  0  0
  9 17  1  0  0  0
 10 16  1  0  0  0
 10 11  1  0  0  0
 11 12  1  0  0  0
 12 13  2  0  0  0
 13 14  1  0  0  0
 13 15  1  0  0  0
 14 44  1  0  0  0
 15 16  2  0  0  0
 15 45  1  0  0  0
 16 46  1  0  0  0
 17 18  2  0  0  0
 17 47  1  0  0  0
 18 19  1  0  0  0
 19 20  1  0  0  0
 19 48  1  0  0  0
 20 24  1  0  0  0
 20 21  2  0  0  0
 21 22  1  0  0  0
 22 23  2  0  0  0
 22 25  1  0  0  0
 23 24  1  0  0  0
 24 58  1  0  0  0
 25 26  1  0  0  0
 26 27  1  0  0  0
 26 49  1  0  0  0
 26 50  1  0  0  0
 27 28  2  0  0  0
 27 29  1  0  0  0
 29 30  1  0  0  0
 29 51  1  0  0  0
 30 31  1  0  0  0
 30 52  1  0  0  0
 30 53  1  0  0  0
 31 36  2  0  0  0
 31 32  1  0  0  0
 32 33  2  0  0  0
 32 54  1  0  0  0
 33 34  1  0  0  0
 33 55  1  0  0  0
 34 35  2  0  0  0
 34 37  1  0  0  0
 35 36  1  0  0  0
 35 56  1  0  0  0
 36 57  1  0  0  0
M  END
> <i_i_glide_confnum>
121

> <i_i_glide_lignum>
4510

> <i_i_glide_posenum>
397

> <i_i_glide_rotatable_bonds>
9

> <i_m_Source_File_Index>
784

> <b_m_subgroup_collapsed>
0

> <r_i_docking_score>
-7.5561

> <r_i_glide_ecoul>
-9.80841

> <r_i_glide_eff_state_penalty>
0

> <r_i_glide_einternal>
9.33085

> <r_i_glide_emodel>
-77.2439

> <r_i_glide_energy>
-54.1401

> <r_i_glide_erotb>
0.554118

> <r_i_glide_esite>
-0.242047

> <r_i_glide_evdw>
-44.3316

> <r_i_glide_gscore>
-7.5561

> <r_i_glide_hbond>
-0.236195

> <r_i_glide_ligand_efficiency>
-0.204219

> <r_i_glide_ligand_efficiency_ln>
-1.63874

> <r_i_glide_ligand_efficiency_sa>
-0.680503

> <r_i_glide_lipo>
-3.64761

> <r_i_glide_metal>
0

> <r_i_glide_rewards>
-0.296526

> <s_i_glide_gridfile>
wee1_glide-grid

> <s_m_Source_File>
wee1_decoys_glide_SP.sdf

> <s_m_Source_Path>
/Users/zhangxujun/Desktop

> <s_m_entry_id>
1059

> <s_m_entry_name>
wee1_decoys_glide_SP.784

> <s_m_subgroup_title>
wee1_decoys_glide_SP

> <s_m_subgroupid>
wee1_decoys_glide_SP


$$$$
