ZINC25613576_3420
                    3D
 Schrodinger Suite 2024-2.
 53 56  0  0  1  0            999 V2000
    7.0510   55.5277   18.3580 C   0  0  0  0  0  0
    8.2066   55.8050   19.0848 C   0  0  0  0  0  0
    8.1912   55.6966   20.4710 C   0  0  0  0  0  0
    7.0253   55.2973   21.1297 C   0  0  0  0  0  0
    5.8620   55.0320   20.3931 C   0  0  0  0  0  0
    5.8796   55.1451   19.0060 C   0  0  0  0  0  0
    7.1044   55.2099   22.5275 N   0  0  0  0  0  0
    6.3254   54.5112   23.3755 C   0  0  0  0  0  0
    5.4501   53.7137   23.0346 O   0  0  0  0  0  0
    6.6402   54.8270   24.6478 N   0  0  0  0  0  0
    5.9699   54.4531   25.8272 C   0  0  0  0  0  0
    6.7042   54.4626   27.0134 C   0  0  0  0  0  0
    6.1147   54.0917   28.2167 C   0  0  0  0  0  0
    4.7789   53.7010   28.2492 C   0  0  0  0  0  0
    4.0165   53.6974   27.0787 C   0  0  0  0  0  0
    4.6147   54.0969   25.8703 C   0  0  0  0  0  0
    2.6976   53.2272   27.2070 N   0  0  0  0  0  0
    1.6973   53.1849   26.2973 C   0  0  0  0  0  0
    1.7851   53.6967   25.1841 O   0  0  0  0  0  0
    0.4115   52.4968   26.7509 C   0  0  0  0  0  0
    0.1866   52.2868   28.1281 C   0  0  0  0  0  0
   -0.9818   51.6967   28.5958 C   0  0  0  0  0  0
   -1.9645   51.2967   27.6997 C   0  0  0  0  0  0
   -1.7767   51.4898   26.3372 C   0  0  0  0  0  0
   -0.6117   52.0875   25.8507 C   0  0  0  0  0  0
   -0.4953   52.2054   24.0801 S   0  0  0  0  0  0
    0.5414   50.7940   23.6054 C   0  0  0  0  0  0
   -0.1997   49.4849   23.7356 C   0  0  0  0  0  0
   -0.0967   48.5078   24.7246 C   0  0  0  0  0  0
   -0.9835   47.4400   24.5695 C   0  0  0  0  0  0
   -1.7721   47.5648   23.4409 C   0  0  0  0  0  0
   -1.4214   49.0227   22.5791 S   0  0  0  0  0  0
    7.0629   55.6089   17.2811 H   0  0  0  0  0  0
    9.1128   56.0996   18.5752 H   0  0  0  0  0  0
    9.0965   55.9069   21.0240 H   0  0  0  0  0  0
    4.9386   54.7451   20.8771 H   0  0  0  0  0  0
    4.9861   54.9348   18.4358 H   0  0  0  0  0  0
    7.9401   55.6219   22.9231 H   0  0  0  0  0  0
    7.4861   55.3582   24.7740 H   0  0  0  0  0  0
    7.7458   54.7318   27.0261 H   0  0  0  0  0  0
    6.7008   54.0966   29.1226 H   0  0  0  0  0  0
    4.3469   53.3961   29.1919 H   0  0  0  0  0  0
    4.0506   54.1019   24.9555 H   0  0  0  0  0  0
    2.4883   52.8092   28.0990 H   0  0  0  0  0  0
    0.9037   52.5845   28.8767 H   0  0  0  0  0  0
   -1.1247   51.5282   29.6543 H   0  0  0  0  0  0
   -2.8575   50.8047   28.0617 H   0  0  0  0  0  0
   -2.5375   51.1518   25.6473 H   0  0  0  0  0  0
    1.4543   50.8048   24.2008 H   0  0  0  0  0  0
    0.8474   50.9537   22.5703 H   0  0  0  0  0  0
    0.5872   48.5775   25.5581 H   0  0  0  0  0  0
   -1.0431   46.6184   25.2690 H   0  0  0  0  0  0
   -2.5373   46.8931   23.0816 H   0  0  0  0  0  0
  1  6  2  0  0  0
  1  2  1  0  0  0
  1 33  1  0  0  0
  2  3  2  0  0  0
  2 34  1  0  0  0
  3  4  1  0  0  0
  3 35  1  0  0  0
  4  5  2  0  0  0
  4  7  1  0  0  0
  5  6  1  0  0  0
  5 36  1  0  0  0
  6 37  1  0  0  0
  7  8  1  0  0  0
  7 38  1  0  0  0
  8  9  2  0  0  0
  8 10  1  0  0  0
 10 11  1  0  0  0
 10 39  1  0  0  0
 11 16  2  0  0  0
 11 12  1  0  0  0
 12 13  2  0  0  0
 12 40  1  0  0  0
 13 14  1  0  0  0
 13 41  1  0  0  0
 14 15  2  0  0  0
 14 42  1  0  0  0
 15 16  1  0  0  0
 15 17  1  0  0  0
 16 43  1  0  0  0
 17 18  1  0  0  0
 17 44  1  0  0  0
 18 19  2  0  0  0
 18 20  1  0  0  0
 20 25  2  0  0  0
 20 21  1  0  0  0
 21 22  2  0  0  0
 21 45  1  0  0  0
 22 23  1  0  0  0
 22 46  1  0  0  0
 23 24  2  0  0  0
 23 47  1  0  0  0
 24 25  1  0  0  0
 24 48  1  0  0  0
 25 26  1  0  0  0
 26 27  1  0  0  0
 27 28  1  0  0  0
 27 49  1  0  0  0
 27 50  1  0  0  0
 28 32  1  0  0  0
 28 29  2  0  0  0
 29 30  1  0  0  0
 29 51  1  0  0  0
 30 31  2  0  0  0
 30 52  1  0  0  0
 31 32  1  0  0  0
 31 53  1  0  0  0
M  END
> <i_i_glide_confnum>
51

> <i_i_glide_lignum>
3421

> <i_i_glide_posenum>
352

> <i_i_glide_rotatable_bonds>
10

> <i_m_Source_File_Index>
1887

> <b_m_subgroup_collapsed>
0

> <r_i_docking_score>
-5.82621

> <r_i_glide_ecoul>
-2.61804

> <r_i_glide_eff_state_penalty>
0

> <r_i_glide_einternal>
5.89355

> <r_i_glide_emodel>
-71.405

> <r_i_glide_energy>
-53.7447

> <r_i_glide_erotb>
0.857386

> <r_i_glide_esite>
0

> <r_i_glide_evdw>
-51.1267

> <r_i_glide_gscore>
-5.82621

> <r_i_glide_hbond>
-0.277706

> <r_i_glide_ligand_efficiency>
-0.182069

> <r_i_glide_ligand_efficiency_ln>
-1.30465

> <r_i_glide_ligand_efficiency_sa>
-0.578034

> <r_i_glide_lipo>
-2.54428

> <r_i_glide_metal>
0

> <r_i_glide_rewards>
-0.912575

> <s_i_glide_gridfile>
wee1_glide-grid

> <s_m_Source_File>
wee1_decoys_glide_SP.sdf

> <s_m_Source_Path>
/Users/zhangxujun/Desktop

> <s_m_entry_id>
2162

> <s_m_entry_name>
wee1_decoys_glide_SP.1887

> <s_m_subgroup_title>
wee1_decoys_glide_SP

> <s_m_subgroupid>
wee1_decoys_glide_SP


$$$$
