ZINC14980411_3462
                    3D
 Schrodinger Suite 2024-2.
 63 65  0  0  1  0            999 V2000
    1.5495   57.8609   16.0727 C   0  0  0  0  0  0
    0.2102   57.1672   16.2916 C   0  0  0  0  0  0
   -0.9690   57.8932   16.0955 C   0  0  0  0  0  0
   -2.2112   57.2955   16.3018 C   0  0  0  0  0  0
   -2.2870   55.9727   16.7335 C   0  0  0  0  0  0
   -1.1206   55.2412   16.9510 C   0  0  0  0  0  0
    0.1263   55.8247   16.7101 C   0  0  0  0  0  0
    1.2624   55.0264   16.8816 N   0  0  0  0  0  0
    1.9796   54.5238   15.8577 C   0  0  0  0  0  0
    1.7072   54.7191   14.6716 O   0  0  0  0  0  0
    3.2009   53.6695   16.2135 C   0  0  0  0  0  0
    2.8897   52.3455   16.9596 C   0  0  0  0  0  0
    2.6123   52.4324   18.4849 C   0  0  1  0  0  0
    1.7319   53.0478   18.6703 H   0  0  0  0  0  0
    2.2938   51.0330   19.0651 C   0  0  0  0  0  0
    2.1210   51.0456   20.5960 C   0  0  0  0  0  0
    3.3253   51.6858   21.3132 C   0  0  0  0  0  0
    3.7946   53.0802   19.2446 C   0  0  0  0  0  0
    4.6566   53.9119   21.4431 C   0  0  0  0  0  0
    4.5759   54.0172   22.9583 C   0  0  0  0  0  0
    5.6511   54.0968   23.8443 C   0  0  0  0  0  0
    5.2950   54.2411   25.1861 C   0  0  0  0  0  0
    3.9269   54.2820   25.3785 C   0  0  0  0  0  0
    3.0819   54.1405   23.8669 S   0  0  0  0  0  0
    3.2209   54.4276   26.6403 C   0  0  0  0  0  0
    2.7079   54.5585   27.7420 C   0  0  0  0  0  0
    2.1670   54.7325   29.1075 C   0  0  0  0  0  0
    1.8389   56.2125   29.3961 C   0  0  0  0  0  0
    0.9233   53.8496   29.3297 C   0  0  0  0  0  0
    3.1148   54.3329   30.0769 O   0  0  0  0  0  0
   -3.3442   57.9992   16.0815 F   0  0  0  0  0  0
    1.4524   58.9474   16.0802 H   0  0  0  0  0  0
    2.2466   57.6087   16.8720 H   0  0  0  0  0  0
    1.9930   57.5501   15.1266 H   0  0  0  0  0  0
   -0.9252   58.9235   15.7749 H   0  0  0  0  0  0
   -3.2516   55.5106   16.8803 H   0  0  0  0  0  0
   -1.1887   54.2103   17.2676 H   0  0  0  0  0  0
    1.4977   54.7541   17.8257 H   0  0  0  0  0  0
    3.9431   54.2787   16.7262 H   0  0  0  0  0  0
    3.6730   53.4032   15.2656 H   0  0  0  0  0  0
    3.7558   51.6967   16.8189 H   0  0  0  0  0  0
    2.0688   51.8270   16.4600 H   0  0  0  0  0  0
    3.1038   50.3465   18.8162 H   0  0  0  0  0  0
    1.4215   50.6041   18.5694 H   0  0  0  0  0  0
    1.9872   50.0249   20.9562 H   0  0  0  0  0  0
    1.2081   51.5812   20.8603 H   0  0  0  0  0  0
    4.2604   51.1466   21.1508 H   0  0  0  0  0  0
    3.1133   51.7542   22.3788 H   0  0  0  0  0  0
    3.9193   54.1180   18.9344 H   0  0  0  0  0  0
    4.7309   52.5375   19.0864 H   0  0  0  0  0  0
    4.6242   54.8992   20.9821 H   0  0  0  0  0  0
    5.5759   53.4231   21.1203 H   0  0  0  0  0  0
    6.6817   54.0566   23.5206 H   0  0  0  0  0  0
    6.0120   54.3095   25.9911 H   0  0  0  0  0  0
    1.0740   56.5889   28.7170 H   0  0  0  0  0  0
    2.7066   56.8658   29.2919 H   0  0  0  0  0  0
    1.4581   56.3485   30.4101 H   0  0  0  0  0  0
    0.1203   54.0993   28.6350 H   0  0  0  0  0  0
    1.1484   52.7892   29.1992 H   0  0  0  0  0  0
    0.5233   53.9690   30.3377 H   0  0  0  0  0  0
    3.9505   54.7509   29.8503 H   0  0  0  0  0  0
    3.5045   53.1229   20.7680 N   0  3  2  0  0  0
    2.6472   53.6435   20.9142 H   0  0  0  0  0  0
  1  2  1  0  0  0
  1 32  1  0  0  0
  1 33  1  0  0  0
  1 34  1  0  0  0
  2  7  2  0  0  0
  2  3  1  0  0  0
  3  4  2  0  0  0
  3 35  1  0  0  0
  4  5  1  0  0  0
  4 31  1  0  0  0
  5  6  2  0  0  0
  5 36  1  0  0  0
  6  7  1  0  0  0
  6 37  1  0  0  0
  7  8  1  0  0  0
  8  9  1  0  0  0
  8 38  1  0  0  0
  9 10  2  0  0  0
  9 11  1  0  0  0
 11 12  1  0  0  0
 11 39  1  0  0  0
 11 40  1  0  0  0
 12 13  1  0  0  0
 12 41  1  0  0  0
 12 42  1  0  0  0
 13 14  1  0  0  0
 13 18  1  0  0  0
 13 15  1  0  0  0
 15 16  1  0  0  0
 15 43  1  0  0  0
 15 44  1  0  0  0
 16 17  1  0  0  0
 16 45  1  0  0  0
 16 46  1  0  0  0
 17 47  1  0  0  0
 17 48  1  0  0  0
 17 62  1  0  0  0
 18 49  1  0  0  0
 18 50  1  0  0  0
 18 62  1  0  0  0
 19 20  1  0  0  0
 19 51  1  0  0  0
 19 52  1  0  0  0
 19 62  1  0  0  0
 20 24  1  0  0  0
 20 21  2  0  0  0
 21 22  1  0  0  0
 21 53  1  0  0  0
 22 23  2  0  0  0
 22 54  1  0  0  0
 23 24  1  0  0  0
 23 25  1  0  0  0
 25 26  3  0  0  0
 26 27  1  0  0  0
 27 28  1  0  0  0
 27 29  1  0  0  0
 27 30  1  0  0  0
 28 55  1  0  0  0
 28 56  1  0  0  0
 28 57  1  0  0  0
 29 58  1  0  0  0
 29 59  1  0  0  0
 29 60  1  0  0  0
 30 61  1  0  0  0
 62 63  1  0  0  0
M  CHG  1  62   1
M  END
> <i_i_glide_confnum>
286

> <i_i_glide_lignum>
3463

> <i_i_glide_posenum>
74

> <i_i_glide_rotatable_bonds>
10

> <i_m_Source_File_Index>
5987

> <b_m_subgroup_collapsed>
0

> <r_i_docking_score>
-5.39711

> <r_i_glide_ecoul>
-6.023

> <r_i_glide_eff_state_penalty>
0

> <r_i_glide_einternal>
10.6417

> <r_i_glide_emodel>
-54.9466

> <r_i_glide_energy>
-41.9772

> <r_i_glide_erotb>
0.91441

> <r_i_glide_esite>
-0.00506141

> <r_i_glide_evdw>
-35.9542

> <r_i_glide_gscore>
-5.39711

> <r_i_glide_hbond>
-0.438316

> <r_i_glide_ligand_efficiency>
-0.1741

> <r_i_glide_ligand_efficiency_ln>
-1.21721

> <r_i_glide_ligand_efficiency_sa>
-0.546915

> <r_i_glide_lipo>
-2.67757

> <r_i_glide_metal>
0

> <r_i_glide_rewards>
-0.489407

> <s_i_glide_gridfile>
wee1_glide-grid

> <s_m_Source_File>
wee1_decoys_glide_SP.sdf

> <s_m_Source_Path>
/Users/zhangxujun/Desktop

> <s_m_entry_id>
6262

> <s_m_entry_name>
wee1_decoys_glide_SP.5987

> <s_m_subgroup_title>
wee1_decoys_glide_SP

> <s_m_subgroupid>
wee1_decoys_glide_SP


$$$$
