ZINC51151381_1800
                    3D
 Schrodinger Suite 2024-2.
 36 39  0  0  1  0            999 V2000
    1.3144   54.4320   28.6629 C   0  0  0  0  0  0
    1.1045   54.8540   29.9758 C   0  0  0  0  0  0
    0.4559   54.0984   30.8940 N   0  0  0  0  0  0
    0.0129   52.8783   30.5065 C   0  0  0  0  0  0
    0.1803   52.3882   29.2106 C   0  0  0  0  0  0
    0.8417   53.1721   28.2454 C   0  0  0  0  0  0
    1.0284   52.6941   26.8315 C   0  0  0  0  0  0
    0.3638   51.5680   26.4573 N   0  0  0  0  0  0
    0.5146   51.1289   25.1773 C   0  0  0  0  0  0
    1.3277   51.8283   24.2512 C   0  0  0  0  0  0
    1.6988   51.5895   22.8838 C   0  0  0  0  0  0
    2.5912   52.5622   22.4220 C   0  0  0  0  0  0
    2.9171   53.8325   23.5772 S   0  0  0  0  0  0
    1.9457   53.0041   24.7690 C   0  0  0  0  0  0
    1.8289   53.4425   26.0228 N   0  0  0  0  0  0
    3.2151   52.5753   21.0342 C   0  0  0  0  0  0
    3.1098   51.1658   20.4196 C   0  0  0  0  0  0
    1.6913   50.5912   20.5568 C   0  0  0  0  0  0
    1.2699   50.3931   22.0311 C   0  0  0  0  0  0
   -0.1221   49.9334   24.8105 N   0  0  0  0  0  0
   -1.0048   49.1678   25.6732 N   0  0  0  0  0  0
    1.8287   55.0913   27.9799 H   0  0  0  0  0  0
    1.4471   55.8250   30.3038 H   0  0  0  0  0  0
   -0.4939   52.2902   31.2614 H   0  0  0  0  0  0
   -0.2050   51.4078   28.9686 H   0  0  0  0  0  0
    4.2579   52.8928   21.0707 H   0  0  0  0  0  0
    2.6975   53.2940   20.3997 H   0  0  0  0  0  0
    3.8224   50.4969   20.9042 H   0  0  0  0  0  0
    3.4008   51.2022   19.3684 H   0  0  0  0  0  0
    1.6236   49.6417   20.0268 H   0  0  0  0  0  0
    0.9872   51.2622   20.0624 H   0  0  0  0  0  0
    0.1901   50.2462   22.0706 H   0  0  0  0  0  0
    1.7252   49.4828   22.4262 H   0  0  0  0  0  0
   -0.0498   49.5410   23.8772 H   0  0  0  0  0  0
   -0.4961   48.7877   26.4672 H   0  0  0  0  0  0
   -1.7737   49.7478   25.9819 H   0  0  0  0  0  0
  1  6  2  0  0  0
  1  2  1  0  0  0
  1 22  1  0  0  0
  2  3  2  0  0  0
  2 23  1  0  0  0
  3  4  1  0  0  0
  4  5  2  0  0  0
  4 24  1  0  0  0
  5  6  1  0  0  0
  5 25  1  0  0  0
  6  7  1  0  0  0
  7 15  2  0  0  0
  7  8  1  0  0  0
  8  9  2  0  0  0
  9 10  1  0  0  0
  9 20  1  0  0  0
 10 14  2  0  0  0
 10 11  1  0  0  0
 11 19  1  0  0  0
 11 12  2  0  0  0
 12 13  1  0  0  0
 12 16  1  0  0  0
 13 14  1  0  0  0
 14 15  1  0  0  0
 16 17  1  0  0  0
 16 26  1  0  0  0
 16 27  1  0  0  0
 17 18  1  0  0  0
 17 28  1  0  0  0
 17 29  1  0  0  0
 18 19  1  0  0  0
 18 30  1  0  0  0
 18 31  1  0  0  0
 19 32  1  0  0  0
 19 33  1  0  0  0
 20 21  1  0  0  0
 20 34  1  0  0  0
 21 35  1  0  0  0
 21 36  1  0  0  0
M  END
> <i_i_glide_confnum>
2

> <i_i_glide_lignum>
1801

> <i_i_glide_posenum>
364

> <i_i_glide_rotatable_bonds>
2

> <i_m_Source_File_Index>
2203

> <b_m_subgroup_collapsed>
0

> <r_i_docking_score>
-5.17468

> <r_i_glide_ecoul>
-3.68814

> <r_i_glide_eff_state_penalty>
0

> <r_i_glide_einternal>
0.168901

> <r_i_glide_emodel>
-48.1516

> <r_i_glide_energy>
-35.6053

> <r_i_glide_erotb>
0.207324

> <r_i_glide_esite>
-0.0193615

> <r_i_glide_evdw>
-31.9172

> <r_i_glide_gscore>
-5.17468

> <r_i_glide_hbond>
-0.0474966

> <r_i_glide_ligand_efficiency>
-0.246413

> <r_i_glide_ligand_efficiency_ln>
-1.27943

> <r_i_glide_ligand_efficiency_sa>
-0.679835

> <r_i_glide_lipo>
-1.62927

> <r_i_glide_metal>
0

> <r_i_glide_rewards>
-1.53679

> <s_i_glide_gridfile>
wee1_glide-grid

> <s_m_Source_File>
wee1_decoys_glide_SP.sdf

> <s_m_Source_Path>
/Users/zhangxujun/Desktop

> <s_m_entry_id>
2478

> <s_m_entry_name>
wee1_decoys_glide_SP.2203

> <s_m_subgroup_title>
wee1_decoys_glide_SP

> <s_m_subgroupid>
wee1_decoys_glide_SP


$$$$
