ZINC09028321_2833
                    3D
 Schrodinger Suite 2024-2.
 35 36  0  0  1  0            999 V2000
    6.5280   54.0966   26.9857 C   0  0  0  0  0  0
    5.7020   53.8112   28.0673 C   0  0  0  0  0  0
    4.3186   54.0147   27.9811 C   0  0  0  0  0  0
    3.7802   54.4967   26.7817 C   0  0  0  0  0  0
    4.6072   54.7873   25.7003 C   0  0  0  0  0  0
    5.9874   54.5778   25.7918 C   0  0  0  0  0  0
    6.9210   54.9224   24.6268 C   0  0  0  0  0  0
    6.4577   54.3962   23.2561 C   0  0  0  0  0  0
    5.9061   53.2980   23.1916 O   0  0  0  0  0  0
    6.6949   55.2170   22.1970 N   0  0  0  0  0  0
    6.1108   55.2758   20.9410 N   0  0  0  0  0  0
    5.3995   54.3234   20.4504 C   0  0  0  0  0  0
    4.6508   54.4186   19.1811 C   0  0  0  0  0  0
    4.6120   55.6363   18.4797 C   0  0  0  0  0  0
    3.8809   55.7712   17.3032 C   0  0  0  0  0  0
    3.1878   54.6817   16.7882 C   0  0  0  0  0  0
    3.2149   53.4587   17.4536 C   0  0  0  0  0  0
    3.9347   53.3195   18.6487 C   0  0  0  0  0  0
    3.9046   52.0968   19.2820 O   0  0  0  0  0  0
    2.2419   51.9949   16.7098 Br  0  0  0  0  0  0
    3.8155   57.4524   16.4151 Br  0  0  0  0  0  0
    3.4386   53.7343   29.1410 N   0  3  0  0  0  0
    3.9042   53.1267   30.1008 O   0  0  0  0  0  0
    2.2781   54.1330   29.1066 O   0  5  0  0  0  0
    7.5892   53.9355   27.0875 H   0  0  0  0  0  0
    6.1521   53.4375   28.9733 H   0  0  0  0  0  0
    2.7152   54.6508   26.6835 H   0  0  0  0  0  0
    4.1686   55.1632   24.7879 H   0  0  0  0  0  0
    7.0576   56.0043   24.6001 H   0  0  0  0  0  0
    7.9037   54.4976   24.8209 H   0  0  0  0  0  0
    7.2479   56.0380   22.3935 H   0  0  0  0  0  0
    5.2905   53.3626   20.9408 H   0  0  0  0  0  0
    5.1353   56.5057   18.8525 H   0  0  0  0  0  0
    2.6228   54.7860   15.8736 H   0  0  0  0  0  0
    4.4158   51.4203   18.7909 H   0  0  0  0  0  0
  1  6  2  0  0  0
  1  2  1  0  0  0
  1 25  1  0  0  0
  2  3  2  0  0  0
  2 26  1  0  0  0
  3  4  1  0  0  0
  3 22  1  0  0  0
  4  5  2  0  0  0
  4 27  1  0  0  0
  5  6  1  0  0  0
  5 28  1  0  0  0
  6  7  1  0  0  0
  7  8  1  0  0  0
  7 29  1  0  0  0
  7 30  1  0  0  0
  8  9  2  0  0  0
  8 10  1  0  0  0
 10 11  1  0  0  0
 10 31  1  0  0  0
 11 12  2  0  0  0
 12 13  1  0  0  0
 12 32  1  0  0  0
 13 18  2  0  0  0
 13 14  1  0  0  0
 14 15  2  0  0  0
 14 33  1  0  0  0
 15 16  1  0  0  0
 15 21  1  0  0  0
 16 17  2  0  0  0
 16 34  1  0  0  0
 17 18  1  0  0  0
 17 20  1  0  0  0
 18 19  1  0  0  0
 19 35  1  0  0  0
 22 23  2  0  0  0
 22 24  1  0  0  0
M  CHG  2  22   1  24  -1
M  END
> <i_i_glide_confnum>
13

> <i_i_glide_lignum>
2834

> <i_i_glide_posenum>
219

> <i_i_glide_rotatable_bonds>
7

> <i_m_Source_File_Index>
1563

> <b_m_subgroup_collapsed>
0

> <r_i_docking_score>
-5.47887

> <r_i_glide_ecoul>
-6.08598

> <r_i_glide_eff_state_penalty>
0

> <r_i_glide_einternal>
9.33603

> <r_i_glide_emodel>
-51.4546

> <r_i_glide_energy>
-41.5278

> <r_i_glide_erotb>
0.481102

> <r_i_glide_esite>
0

> <r_i_glide_evdw>
-35.4419

> <r_i_glide_gscore>
-5.47887

> <r_i_glide_hbond>
-0.16

> <r_i_glide_ligand_efficiency>
-0.228286

> <r_i_glide_ligand_efficiency_ln>
-1.31135

> <r_i_glide_ligand_efficiency_sa>
-0.658492

> <r_i_glide_lipo>
-2.05444

> <r_i_glide_metal>
0

> <r_i_glide_rewards>
-1.06055

> <s_i_glide_gridfile>
wee1_glide-grid

> <s_m_Source_File>
wee1_decoys_glide_SP.sdf

> <s_m_Source_Path>
/Users/zhangxujun/Desktop

> <s_m_entry_id>
1838

> <s_m_entry_name>
wee1_decoys_glide_SP.1563

> <s_m_subgroup_title>
wee1_decoys_glide_SP

> <s_m_subgroupid>
wee1_decoys_glide_SP


$$$$
