ZINC08695948_3149
                    3D
 Schrodinger Suite 2024-2.
 78 82  0  0  1  0            999 V2000
    0.5166   43.3635   15.7698 C   0  0  0  0  0  0
   -0.0389   43.8978   17.0129 N   0  0  0  0  0  0
   -1.3814   43.4379   17.3762 C   0  0  0  0  0  0
    0.4161   45.1552   17.5050 C   0  0  0  0  0  0
    1.4536   45.8561   16.8696 C   0  0  0  0  0  0
    1.9070   47.0766   17.3621 C   0  0  0  0  0  0
    1.3555   47.6244   18.5169 C   0  0  0  0  0  0
    0.3023   46.9476   19.1512 C   0  0  0  0  0  0
   -0.1512   45.7303   18.6519 C   0  0  0  0  0  0
    1.8943   48.8578   18.9435 N   0  0  0  0  0  0
    1.6702   49.5246   20.1013 C   0  0  0  0  0  0
    1.0732   49.0086   21.0481 O   0  0  0  0  0  0
    2.2856   50.9590   20.2977 C   0  0  0  0  0  0
    2.7910   51.5303   18.9113 C   0  0  0  0  0  0
    3.3947   52.9523   19.0049 C   0  0  0  0  0  0
    4.9273   52.9958   19.9877 S   0  0  0  0  0  0
    4.3392   52.0783   21.4380 C   0  0  0  0  0  0
    3.6411   50.7553   21.0365 C   0  0  0  0  0  0
    1.2621   51.8159   21.0070 N   0  0  0  0  0  0
    0.3287   52.5192   20.1016 C   0  0  0  0  0  0
   -1.0624   51.9150   19.8554 C   0  0  0  0  0  0
   -1.7437   52.2995   18.6957 C   0  0  0  0  0  0
   -3.0085   51.7888   18.4180 C   0  0  0  0  0  0
   -3.5926   50.8827   19.2978 C   0  0  0  0  0  0
   -2.9221   50.4833   20.4509 C   0  0  0  0  0  0
   -1.6584   50.9970   20.7304 C   0  0  0  0  0  0
    1.0349   52.0081   22.3549 C   0  0  0  0  0  0
    0.2790   52.8964   22.7571 O   0  0  0  0  0  0
    1.6791   51.1150   23.4292 C   0  0  0  0  0  0
    1.0706   51.3048   24.7595 N   0  0  0  0  0  0
    1.4271   52.4808   25.5386 C   0  0  0  0  0  0
    0.6894   52.2986   26.8424 C   0  0  1  0  0  0
   -0.2161   52.9063   26.8692 H   0  0  0  0  0  0
    0.2830   50.9108   26.7163 N   0  0  0  0  0  0
    0.2444   50.4478   25.4370 C   0  0  0  0  0  0
   -0.5595   49.1004   24.8822 S   0  0  0  0  0  0
    1.5839   52.6666   28.0293 C   0  0  0  0  0  0
    2.3054   51.7021   28.7449 C   0  0  0  0  0  0
    3.2615   52.0978   29.6784 C   0  0  0  0  0  0
    3.4698   53.4523   29.9240 C   0  0  0  0  0  0
    2.7047   54.4161   29.2716 C   0  0  0  0  0  0
    1.7643   54.0223   28.3238 C   0  0  0  0  0  0
    0.2264   43.9900   14.9253 H   0  0  0  0  0  0
    1.6059   43.3306   15.7975 H   0  0  0  0  0  0
    0.1681   42.3498   15.5779 H   0  0  0  0  0  0
   -2.1271   44.1663   17.0549 H   0  0  0  0  0  0
   -1.6336   42.4850   16.9084 H   0  0  0  0  0  0
   -1.4864   43.3204   18.4552 H   0  0  0  0  0  0
    1.9341   45.4794   15.9793 H   0  0  0  0  0  0
    2.7035   47.5896   16.8417 H   0  0  0  0  0  0
   -0.1950   47.3406   20.0228 H   0  0  0  0  0  0
   -0.9560   45.2484   19.1826 H   0  0  0  0  0  0
    2.5373   49.2856   18.2893 H   0  0  0  0  0  0
    3.5039   50.8791   18.4209 H   0  0  0  0  0  0
    1.9806   51.5901   18.1863 H   0  0  0  0  0  0
    3.6429   53.3279   18.0123 H   0  0  0  0  0  0
    2.7054   53.6645   19.4521 H   0  0  0  0  0  0
    5.2039   51.8926   22.0799 H   0  0  0  0  0  0
    3.6791   52.7591   21.9732 H   0  0  0  0  0  0
    3.5043   50.1966   21.9567 H   0  0  0  0  0  0
    4.3052   50.1423   20.4330 H   0  0  0  0  0  0
    0.3044   53.5171   20.5140 H   0  0  0  0  0  0
    0.7319   52.7405   19.1246 H   0  0  0  0  0  0
   -1.2937   52.9967   18.0024 H   0  0  0  0  0  0
   -3.5288   52.0922   17.5202 H   0  0  0  0  0  0
   -4.5727   50.4829   19.0814 H   0  0  0  0  0  0
   -3.3790   49.7761   21.1278 H   0  0  0  0  0  0
   -1.1585   50.6667   21.6285 H   0  0  0  0  0  0
    2.7043   51.4338   23.5390 H   0  0  0  0  0  0
    1.6647   50.0645   23.1495 H   0  0  0  0  0  0
    1.1447   53.4116   25.0481 H   0  0  0  0  0  0
    2.5084   52.4971   25.6807 H   0  0  0  0  0  0
   -0.2259   50.4103   27.4344 H   0  0  0  0  0  0
    2.1838   50.6509   28.5267 H   0  0  0  0  0  0
    3.8708   51.3619   30.1826 H   0  0  0  0  0  0
    4.2449   53.7528   30.6158 H   0  0  0  0  0  0
    2.8714   55.4663   29.4637 H   0  0  0  0  0  0
    1.2155   54.7769   27.7773 H   0  0  0  0  0  0
  1  2  1  0  0  0
  1 43  1  0  0  0
  1 44  1  0  0  0
  1 45  1  0  0  0
  2  3  1  0  0  0
  2  4  1  0  0  0
  3 46  1  0  0  0
  3 47  1  0  0  0
  3 48  1  0  0  0
  4  9  2  0  0  0
  4  5  1  0  0  0
  5  6  2  0  0  0
  5 49  1  0  0  0
  6  7  1  0  0  0
  6 50  1  0  0  0
  7  8  2  0  0  0
  7 10  1  0  0  0
  8  9  1  0  0  0
  8 51  1  0  0  0
  9 52  1  0  0  0
 10 11  1  0  0  0
 10 53  1  0  0  0
 11 12  2  0  0  0
 11 13  1  0  0  0
 13 18  1  0  0  0
 13 14  1  0  0  0
 13 19  1  0  0  0
 14 15  1  0  0  0
 14 54  1  0  0  0
 14 55  1  0  0  0
 15 16  1  0  0  0
 15 56  1  0  0  0
 15 57  1  0  0  0
 16 17  1  0  0  0
 17 18  1  0  0  0
 17 58  1  0  0  0
 17 59  1  0  0  0
 18 60  1  0  0  0
 18 61  1  0  0  0
 19 20  1  0  0  0
 19 27  1  0  0  0
 20 21  1  0  0  0
 20 62  1  0  0  0
 20 63  1  0  0  0
 21 26  2  0  0  0
 21 22  1  0  0  0
 22 23  2  0  0  0
 22 64  1  0  0  0
 23 24  1  0  0  0
 23 65  1  0  0  0
 24 25  2  0  0  0
 24 66  1  0  0  0
 25 26  1  0  0  0
 25 67  1  0  0  0
 26 68  1  0  0  0
 27 28  2  0  0  0
 27 29  1  0  0  0
 29 30  1  0  0  0
 29 69  1  0  0  0
 29 70  1  0  0  0
 30 35  1  0  0  0
 30 31  1  0  0  0
 31 32  1  0  0  0
 31 71  1  0  0  0
 31 72  1  0  0  0
 32 33  1  0  0  0
 32 34  1  0  0  0
 32 37  1  0  0  0
 34 35  1  0  0  0
 34 73  1  0  0  0
 35 36  2  0  0  0
 37 42  2  0  0  0
 37 38  1  0  0  0
 38 39  2  0  0  0
 38 74  1  0  0  0
 39 40  1  0  0  0
 39 75  1  0  0  0
 40 41  2  0  0  0
 40 76  1  0  0  0
 41 42  1  0  0  0
 41 77  1  0  0  0
 42 78  1  0  0  0
M  END
> <i_i_glide_confnum>
428

> <i_i_glide_lignum>
3150

> <i_i_glide_posenum>
365

> <i_i_glide_rotatable_bonds>
11

> <i_m_Source_File_Index>
268

> <b_m_subgroup_collapsed>
0

> <r_i_docking_score>
-3.61675

> <r_i_glide_ecoul>
-3.53406

> <r_i_glide_eff_state_penalty>
0

> <r_i_glide_einternal>
10.7903

> <r_i_glide_emodel>
-43.9089

> <r_i_glide_energy>
-41.6487

> <r_i_glide_erotb>
0.499587

> <r_i_glide_esite>
-0.208439

> <r_i_glide_evdw>
-38.1147

> <r_i_glide_gscore>
-3.61675

> <r_i_glide_hbond>
-0.040163

> <r_i_glide_ligand_efficiency>
-0.0882134

> <r_i_glide_ligand_efficiency_ln>
-0.767306

> <r_i_glide_ligand_efficiency_sa>
-0.304179

> <r_i_glide_lipo>
-1.30061

> <r_i_glide_metal>
0

> <r_i_glide_rewards>
-0.131287

> <s_i_glide_gridfile>
wee1_glide-grid

> <s_m_Source_File>
wee1_decoys_glide_SP.sdf

> <s_m_Source_Path>
/Users/zhangxujun/Desktop

> <s_m_entry_id>
543

> <s_m_entry_name>
wee1_decoys_glide_SP.268

> <s_m_subgroup_title>
wee1_decoys_glide_SP

> <s_m_subgroupid>
wee1_decoys_glide_SP


$$$$
