ZINC27488966_3822
                    3D
 Schrodinger Suite 2024-2.
 39 41  0  0  1  0            999 V2000
    6.6501   54.4977   26.7493 C   0  0  0  0  0  0
    5.3947   54.4469   27.3507 C   0  0  0  0  0  0
    4.2262   54.4094   26.5741 C   0  0  0  0  0  0
    4.3542   54.4954   25.1751 C   0  0  0  0  0  0
    5.6090   54.5115   24.5721 C   0  0  0  0  0  0
    6.7538   54.5157   25.3593 C   0  0  0  0  0  0
    5.7624   54.4972   22.6756 Br  0  0  0  0  0  0
    2.8874   54.2633   27.2766 C   0  0  0  0  0  0
    2.7245   54.8498   28.3493 O   0  0  0  0  0  0
    1.9262   53.4335   26.7711 N   0  0  0  0  0  0
    0.8103   52.7873   27.5153 C   0  0  1  0  0  0
    0.0845   51.9765   26.3865 C   0  0  2  0  0  0
   -0.9717   52.2595   26.3946 H   0  0  0  0  0  0
    0.0894   50.4272   26.4811 C   0  0  0  0  0  0
   -0.3364   49.7165   25.1896 C   0  0  0  0  0  0
    0.5238   50.1747   24.0068 C   0  0  0  0  0  0
    0.4330   51.6955   23.8031 C   0  0  0  0  0  0
    0.6307   52.5550   25.0757 C   0  0  2  0  0  0
    0.0840   53.4807   24.8852 H   0  0  0  0  0  0
    1.9773   52.8727   25.4758 N   0  0  0  0  0  0
    1.2970   51.9846   28.7684 C   0  0  0  0  0  0
    1.7507   52.7514   29.7643 F   0  0  0  0  0  0
    0.2863   51.2967   29.2831 F   0  0  0  0  0  0
    2.2874   51.1428   28.4822 F   0  0  0  0  0  0
   -0.0953   53.7158   28.0827 O   0  0  0  0  0  0
    7.5354   54.4985   27.3679 H   0  0  0  0  0  0
    5.3404   54.4072   28.4306 H   0  0  0  0  0  0
    3.4934   54.5337   24.5256 H   0  0  0  0  0  0
    7.7213   54.5252   24.8809 H   0  0  0  0  0  0
    1.1039   50.0785   26.6672 H   0  0  0  0  0  0
   -0.4973   50.0969   27.3344 H   0  0  0  0  0  0
   -0.2489   48.6361   25.3216 H   0  0  0  0  0  0
   -1.3896   49.9159   24.9876 H   0  0  0  0  0  0
    1.5627   49.8861   24.1740 H   0  0  0  0  0  0
    0.2134   49.6614   23.0961 H   0  0  0  0  0  0
    1.1583   52.0065   23.0498 H   0  0  0  0  0  0
   -0.5229   51.9580   23.3463 H   0  0  0  0  0  0
    2.4902   52.0112   25.5950 H   0  0  0  0  0  0
    0.3949   54.2606   28.7108 H   0  0  0  0  0  0
  1  6  2  0  0  0
  1  2  1  0  0  0
  1 26  1  0  0  0
  2  3  2  0  0  0
  2 27  1  0  0  0
  3  4  1  0  0  0
  3  8  1  0  0  0
  4  5  2  0  0  0
  4 28  1  0  0  0
  5  6  1  0  0  0
  5  7  1  0  0  0
  6 29  1  0  0  0
  8  9  2  0  0  0
  8 10  1  0  0  0
 10 20  1  0  0  0
 10 11  1  0  0  0
 11 12  1  0  0  0
 11 21  1  0  0  0
 11 25  1  0  0  0
 12 13  1  0  0  0
 12 18  1  0  0  0
 12 14  1  0  0  0
 14 15  1  0  0  0
 14 30  1  0  0  0
 14 31  1  0  0  0
 15 16  1  0  0  0
 15 32  1  0  0  0
 15 33  1  0  0  0
 16 17  1  0  0  0
 16 34  1  0  0  0
 16 35  1  0  0  0
 17 18  1  0  0  0
 17 36  1  0  0  0
 17 37  1  0  0  0
 18 19  1  0  0  0
 18 20  1  0  0  0
 20 38  1  0  0  0
 21 22  1  0  0  0
 21 23  1  0  0  0
 21 24  1  0  0  0
 25 39  1  0  0  0
M  END
> <i_i_glide_confnum>
2

> <i_i_glide_lignum>
3823

> <i_i_glide_posenum>
157

> <i_i_glide_rotatable_bonds>
4

> <i_m_Source_File_Index>
4685

> <b_m_subgroup_collapsed>
0

> <r_i_docking_score>
-5.53063

> <r_i_glide_ecoul>
-1.37915

> <r_i_glide_eff_state_penalty>
0

> <r_i_glide_einternal>
0.970309

> <r_i_glide_emodel>
-46.8723

> <r_i_glide_energy>
-34.0668

> <r_i_glide_erotb>
0.252675

> <r_i_glide_esite>
-0.0140307

> <r_i_glide_evdw>
-32.6876

> <r_i_glide_gscore>
-5.53063

> <r_i_glide_hbond>
0

> <r_i_glide_ligand_efficiency>
-0.240462

> <r_i_glide_ligand_efficiency_ln>
-1.33736

> <r_i_glide_ligand_efficiency_sa>
-0.683843

> <r_i_glide_lipo>
-2.28912

> <r_i_glide_metal>
0

> <r_i_glide_rewards>
-1.63891

> <s_i_glide_gridfile>
wee1_glide-grid

> <s_m_Source_File>
wee1_decoys_glide_SP.sdf

> <s_m_Source_Path>
/Users/zhangxujun/Desktop

> <s_m_entry_id>
4960

> <s_m_entry_name>
wee1_decoys_glide_SP.4685

> <s_m_subgroup_title>
wee1_decoys_glide_SP

> <s_m_subgroupid>
wee1_decoys_glide_SP


$$$$
