ZINC13678423_4017
                    3D
 Schrodinger Suite 2024-2.
 59 62  0  0  1  0            999 V2000
    6.7976   53.7584   27.1817 C   0  0  0  0  0  0
    5.3948   53.8255   26.5473 C   0  0  0  0  0  0
    5.1794   54.3839   25.2597 C   0  0  0  0  0  0
    3.8664   54.4894   24.7686 C   0  0  0  0  0  0
    2.7953   53.9632   25.4669 C   0  0  0  0  0  0
    3.0071   53.3653   26.6976 C   0  0  0  0  0  0
    4.2930   53.3016   27.2602 C   0  0  0  0  0  0
    4.4904   52.7598   28.5424 N   0  0  0  0  0  0
    3.1943   52.2263   29.6132 S   0  0  0  0  0  0
    2.3246   51.2971   28.8817 O   0  0  0  0  0  0
    3.8341   51.8245   30.8701 O   0  0  0  0  0  0
    2.2464   53.6883   29.9634 C   0  0  0  0  0  0
    2.6664   54.9473   29.5160 C   0  0  0  0  0  0
    1.9113   56.0711   29.8049 C   0  0  0  0  0  0
    0.7822   55.9362   30.5916 C   0  0  0  0  0  0
    0.3542   54.6857   31.0398 C   0  0  0  0  0  0
    1.0765   53.5470   30.7076 C   0  0  0  0  0  0
    6.3032   54.9126   24.3959 C   0  0  0  0  0  0
    7.1044   55.6968   24.9029 O   0  0  0  0  0  0
    6.3562   54.5686   23.0762 N   0  0  0  0  0  0
    7.3275   55.2242   22.1804 C   0  0  0  0  0  0
    6.5613   55.7725   20.9536 C   0  0  0  0  0  0
    5.6746   54.8034   20.2892 N   0  0  0  0  0  0
    4.7968   54.1066   21.2428 C   0  0  0  0  0  0
    5.5510   53.5047   22.4499 C   0  0  0  0  0  0
    5.7941   54.4151   18.9580 C   0  0  0  0  0  0
    7.0333   54.4231   18.3025 C   0  0  0  0  0  0
    7.1405   54.0275   16.9697 C   0  0  0  0  0  0
    6.0070   53.6259   16.2669 C   0  0  0  0  0  0
    4.7552   53.6121   16.8938 C   0  0  0  0  0  0
    4.6635   54.0042   18.2361 C   0  0  0  0  0  0
    3.5031   53.1787   16.1358 C   0  0  0  0  0  0
    3.7954   52.4340   15.0684 F   0  0  0  0  0  0
    2.8599   54.2710   15.7204 F   0  0  0  0  0  0
    2.6823   52.4805   16.9231 F   0  0  0  0  0  0
    6.7760   53.6996   28.2713 H   0  0  0  0  0  0
    7.3540   52.9017   26.8019 H   0  0  0  0  0  0
    7.3841   54.6581   27.0070 H   0  0  0  0  0  0
    3.6670   54.9520   23.8149 H   0  0  0  0  0  0
    1.7975   54.0284   25.0564 H   0  0  0  0  0  0
    2.1396   52.9828   27.2056 H   0  0  0  0  0  0
    5.4133   52.8212   28.9405 H   0  0  0  0  0  0
    3.5758   55.0893   28.9561 H   0  0  0  0  0  0
    2.2321   57.0444   29.4691 H   0  0  0  0  0  0
    0.2591   56.8331   30.8786 H   0  0  0  0  0  0
   -0.4956   54.5954   31.6934 H   0  0  0  0  0  0
    0.7567   52.5776   31.0689 H   0  0  0  0  0  0
    8.0714   54.4974   21.8565 H   0  0  0  0  0  0
    7.8708   56.0411   22.6579 H   0  0  0  0  0  0
    7.2680   56.2095   20.2485 H   0  0  0  0  0  0
    5.9083   56.5874   21.2689 H   0  0  0  0  0  0
    4.0552   54.8364   21.5690 H   0  0  0  0  0  0
    4.2485   53.3022   20.7479 H   0  0  0  0  0  0
    4.8657   53.0012   23.1266 H   0  0  0  0  0  0
    6.2120   52.7138   22.0945 H   0  0  0  0  0  0
    7.9335   54.7115   18.8253 H   0  0  0  0  0  0
    8.1040   54.0283   16.4816 H   0  0  0  0  0  0
    6.1054   53.3217   15.2356 H   0  0  0  0  0  0
    3.6930   54.0050   18.7132 H   0  0  0  0  0  0
  1  2  1  0  0  0
  1 36  1  0  0  0
  1 37  1  0  0  0
  1 38  1  0  0  0
  2  7  2  0  0  0
  2  3  1  0  0  0
  3  4  2  0  0  0
  3 18  1  0  0  0
  4  5  1  0  0  0
  4 39  1  0  0  0
  5  6  2  0  0  0
  5 40  1  0  0  0
  6  7  1  0  0  0
  6 41  1  0  0  0
  7  8  1  0  0  0
  8  9  1  0  0  0
  8 42  1  0  0  0
  9 10  2  0  0  0
  9 11  2  0  0  0
  9 12  1  0  0  0
 12 17  2  0  0  0
 12 13  1  0  0  0
 13 14  2  0  0  0
 13 43  1  0  0  0
 14 15  1  0  0  0
 14 44  1  0  0  0
 15 16  2  0  0  0
 15 45  1  0  0  0
 16 17  1  0  0  0
 16 46  1  0  0  0
 17 47  1  0  0  0
 18 19  2  0  0  0
 18 20  1  0  0  0
 20 25  1  0  0  0
 20 21  1  0  0  0
 21 22  1  0  0  0
 21 48  1  0  0  0
 21 49  1  0  0  0
 22 23  1  0  0  0
 22 50  1  0  0  0
 22 51  1  0  0  0
 23 24  1  0  0  0
 23 26  1  0  0  0
 24 25  1  0  0  0
 24 52  1  0  0  0
 24 53  1  0  0  0
 25 54  1  0  0  0
 25 55  1  0  0  0
 26 31  2  0  0  0
 26 27  1  0  0  0
 27 28  2  0  0  0
 27 56  1  0  0  0
 28 29  1  0  0  0
 28 57  1  0  0  0
 29 30  2  0  0  0
 29 58  1  0  0  0
 30 31  1  0  0  0
 30 32  1  0  0  0
 31 59  1  0  0  0
 32 33  1  0  0  0
 32 34  1  0  0  0
 32 35  1  0  0  0
M  END
> <i_i_glide_confnum>
129

> <i_i_glide_lignum>
4018

> <i_i_glide_posenum>
277

> <i_i_glide_rotatable_bonds>
7

> <i_m_Source_File_Index>
3382

> <b_m_subgroup_collapsed>
0

> <r_i_docking_score>
-4.80596

> <r_i_glide_ecoul>
-5.10125

> <r_i_glide_eff_state_penalty>
0

> <r_i_glide_einternal>
6.39672

> <r_i_glide_emodel>
-56.1754

> <r_i_glide_energy>
-51.6792

> <r_i_glide_erotb>
0.483706

> <r_i_glide_esite>
-0.081604

> <r_i_glide_evdw>
-46.5779

> <r_i_glide_gscore>
-4.80596

> <r_i_glide_hbond>
-0.32

> <r_i_glide_ligand_efficiency>
-0.137313

> <r_i_glide_ligand_efficiency_ln>
-1.05501

> <r_i_glide_ligand_efficiency_sa>
-0.44916

> <r_i_glide_lipo>
-2.85615

> <r_i_glide_metal>
0

> <r_i_glide_rewards>
1.06217

> <s_i_glide_gridfile>
wee1_glide-grid

> <s_m_Source_File>
wee1_decoys_glide_SP.sdf

> <s_m_Source_Path>
/Users/zhangxujun/Desktop

> <s_m_entry_id>
3657

> <s_m_entry_name>
wee1_decoys_glide_SP.3382

> <s_m_subgroup_title>
wee1_decoys_glide_SP

> <s_m_subgroupid>
wee1_decoys_glide_SP


$$$$
