ZINC49544575_2679
                    3D
 Schrodinger Suite 2024-2.
 52 54  0  0  1  0            999 V2000
    3.5363   58.1785   16.6817 C   0  0  0  0  0  0
    2.5136   57.0765   16.4822 C   0  0  0  0  0  0
    1.2518   57.1964   15.8957 C   0  0  0  0  0  0
    0.4899   55.6311   15.9643 S   0  0  0  0  0  0
    1.9098   54.9925   16.7408 C   0  0  0  0  0  0
    2.8467   55.8816   16.9376 N   0  0  0  0  0  0
    2.0675   53.6796   17.1670 N   0  0  0  0  0  0
    1.2865   52.6103   16.8759 C   0  0  0  0  0  0
    0.3047   52.6339   16.1317 O   0  0  0  0  0  0
    1.7236   51.2616   17.5055 C   0  0  2  0  0  0
    2.5236   50.8978   16.8608 H   0  0  0  0  0  0
    0.6301   50.1683   17.4695 C   0  0  0  0  0  0
    2.3067   51.3624   18.8543 N   0  0  0  0  0  0
    1.6912   51.8135   19.9702 C   0  0  0  0  0  0
    0.4894   52.0970   19.9750 O   0  0  0  0  0  0
    2.4662   51.8950   21.0874 N   0  0  0  0  0  0
    1.8571   52.2641   22.3787 C   0  0  0  0  0  0
    2.3643   53.6648   22.7868 C   0  0  0  0  0  0
    3.8305   53.7942   22.8054 N   0  0  0  0  0  0
    4.4067   53.3368   21.5261 C   0  0  0  0  0  0
    3.9396   51.9365   21.0639 C   0  0  0  0  0  0
    4.5918   54.0969   23.9392 C   0  0  0  0  0  0
    5.9314   54.4977   23.8156 C   0  0  0  0  0  0
    6.7045   54.7736   24.9378 C   0  0  0  0  0  0
    6.1526   54.6564   26.2033 C   0  0  0  0  0  0
    4.8210   54.2963   26.3581 C   0  0  0  0  0  0
    4.0454   54.0293   25.2334 C   0  0  0  0  0  0
    6.9218   54.8966   27.2842 F   0  0  0  0  0  0
    0.5631   58.4042   15.3064 C   0  0  0  0  0  0
    3.1039   59.0293   17.2108 H   0  0  0  0  0  0
    3.8987   58.5639   15.7291 H   0  0  0  0  0  0
    4.4118   57.8685   17.2516 H   0  0  0  0  0  0
    0.3187   49.9624   16.4448 H   0  0  0  0  0  0
    0.9993   49.2346   17.8946 H   0  0  0  0  0  0
   -0.2576   50.4656   18.0280 H   0  0  0  0  0  0
    3.2544   51.0120   18.9188 H   0  0  0  0  0  0
    0.7653   52.2568   22.3468 H   0  0  0  0  0  0
    2.1534   51.5388   23.1381 H   0  0  0  0  0  0
    1.9046   53.9481   23.7303 H   0  0  0  0  0  0
    2.0044   54.4119   22.0821 H   0  0  0  0  0  0
    5.4947   53.3177   21.5495 H   0  0  0  0  0  0
    4.1305   54.0872   20.7829 H   0  0  0  0  0  0
    4.3245   51.1879   21.7573 H   0  0  0  0  0  0
    4.3735   51.7151   20.0882 H   0  0  0  0  0  0
    6.4005   54.6145   22.8515 H   0  0  0  0  0  0
    7.7348   55.0697   24.8340 H   0  0  0  0  0  0
    4.3985   54.2118   27.3471 H   0  0  0  0  0  0
    3.0295   53.7167   25.4029 H   0  0  0  0  0  0
    1.2078   58.9187   14.5886 H   0  0  0  0  0  0
   -0.3587   58.1418   14.7849 H   0  0  0  0  0  0
    0.3047   59.1317   16.0800 H   0  0  0  0  0  0
    2.8719   53.5030   17.7479 H   0  0  0  0  0  0
  1  2  1  0  0  0
  1 30  1  0  0  0
  1 31  1  0  0  0
  1 32  1  0  0  0
  2  6  1  0  0  0
  2  3  2  0  0  0
  3  4  1  0  0  0
  3 29  1  0  0  0
  4  5  1  0  0  0
  5  6  2  0  0  0
  5  7  1  0  0  0
  7  8  1  0  0  0
  7 52  1  0  0  0
  8  9  2  0  0  0
  8 10  1  0  0  0
 10 11  1  0  0  0
 10 12  1  0  0  0
 10 13  1  0  0  0
 12 33  1  0  0  0
 12 34  1  0  0  0
 12 35  1  0  0  0
 13 14  1  0  0  0
 13 36  1  0  0  0
 14 15  2  0  0  0
 14 16  1  0  0  0
 16 21  1  0  0  0
 16 17  1  0  0  0
 17 18  1  0  0  0
 17 37  1  0  0  0
 17 38  1  0  0  0
 18 19  1  0  0  0
 18 39  1  0  0  0
 18 40  1  0  0  0
 19 20  1  0  0  0
 19 22  1  0  0  0
 20 21  1  0  0  0
 20 41  1  0  0  0
 20 42  1  0  0  0
 21 43  1  0  0  0
 21 44  1  0  0  0
 22 27  2  0  0  0
 22 23  1  0  0  0
 23 24  2  0  0  0
 23 45  1  0  0  0
 24 25  1  0  0  0
 24 46  1  0  0  0
 25 26  2  0  0  0
 25 28  1  0  0  0
 26 27  1  0  0  0
 26 47  1  0  0  0
 27 48  1  0  0  0
 29 49  1  0  0  0
 29 50  1  0  0  0
 29 51  1  0  0  0
M  END
> <i_i_glide_confnum>
521

> <i_i_glide_lignum>
2680

> <i_i_glide_posenum>
250

> <i_i_glide_rotatable_bonds>
7

> <i_m_Source_File_Index>
1703

> <b_m_subgroup_collapsed>
0

> <r_i_docking_score>
-4.54542

> <r_i_glide_ecoul>
-2.98211

> <r_i_glide_eff_state_penalty>
0

> <r_i_glide_einternal>
3.35239

> <r_i_glide_emodel>
-47.9069

> <r_i_glide_energy>
-36.6656

> <r_i_glide_erotb>
0.836701

> <r_i_glide_esite>
-0.0919331

> <r_i_glide_evdw>
-33.6834

> <r_i_glide_gscore>
-4.54542

> <r_i_glide_hbond>
-0.0328164

> <r_i_glide_ligand_efficiency>
-0.162336

> <r_i_glide_ligand_efficiency_ln>
-1.04922

> <r_i_glide_ligand_efficiency_sa>
-0.492949

> <r_i_glide_lipo>
-1.98228

> <r_i_glide_metal>
0

> <r_i_glide_rewards>
-1.1436

> <s_i_glide_gridfile>
wee1_glide-grid

> <s_m_Source_File>
wee1_decoys_glide_SP.sdf

> <s_m_Source_Path>
/Users/zhangxujun/Desktop

> <s_m_entry_id>
1978

> <s_m_entry_name>
wee1_decoys_glide_SP.1703

> <s_m_subgroup_title>
wee1_decoys_glide_SP

> <s_m_subgroupid>
wee1_decoys_glide_SP


$$$$
