ZINC02226158_2900
                    3D
 Schrodinger Suite 2024-2.
 64 67  0  0  1  0            999 V2000
    8.6443   54.9864   19.0961 C   0  0  0  0  0  0
    7.8588   56.0678   19.8501 C   0  0  0  0  0  0
    7.3082   55.5840   21.0766 O   0  0  0  0  0  0
    6.1271   54.8972   21.0918 C   0  0  0  0  0  0
    5.4706   54.6287   20.0853 O   0  0  0  0  0  0
    5.6760   54.5599   22.4514 C   0  0  0  0  0  0
    4.4879   54.0042   22.9200 C   0  0  0  0  0  0
    4.5160   54.0871   24.3543 C   0  0  0  0  0  0
    3.6156   53.7277   25.3728 C   0  0  0  0  0  0
    3.9844   53.9268   26.7017 C   0  0  0  0  0  0
    5.2256   54.4648   27.0293 C   0  0  0  0  0  0
    6.1531   54.8316   26.0522 C   0  0  0  0  0  0
    5.7845   54.6367   24.7159 C   0  0  0  0  0  0
    6.4591   54.8965   23.5374 N   0  0  0  0  0  0
    7.3823   55.2975   23.4244 H   0  0  0  0  0  0
    2.7752   53.4344   28.0862 Br  0  0  0  0  0  0
    3.4327   53.4665   22.2069 N   0  0  0  0  0  0
    3.5416   52.3216   21.4990 C   0  0  0  0  0  0
    4.5966   51.6970   21.3660 O   0  0  0  0  0  0
    2.2751   51.7602   20.8348 C   0  0  0  0  0  0
    0.8989   52.1551   21.4319 C   0  0  0  0  0  0
    0.8943   50.4039   23.4280 C   0  0  0  0  0  0
   -0.1805   50.2526   24.5411 C   0  0  1  0  0  0
   -0.4428   51.7011   24.9589 C   0  0  0  0  0  0
   -0.5266   52.3820   23.5975 C   0  0  2  0  0  0
   -0.4161   53.4650   23.6827 H   0  0  0  0  0  0
   -1.8626   52.0162   22.8904 C   0  0  0  0  0  0
   -2.3065   50.5055   22.9235 C   0  0  0  0  0  0
   -1.5006   49.6504   23.9680 C   0  0  0  0  0  0
   -3.8183   50.4174   23.2543 C   0  0  0  0  0  0
   -2.0618   49.8854   21.5255 C   0  0  0  0  0  0
    0.3137   49.3982   25.7312 C   0  0  0  0  0  0
    9.0212   55.3699   18.1480 H   0  0  0  0  0  0
    9.5044   54.6614   19.6784 H   0  0  0  0  0  0
    8.0271   54.1141   18.8818 H   0  0  0  0  0  0
    7.0756   56.4836   19.2133 H   0  0  0  0  0  0
    8.5319   56.8948   20.0753 H   0  0  0  0  0  0
    2.6551   53.2983   25.1389 H   0  0  0  0  0  0
    5.4797   54.6008   28.0716 H   0  0  0  0  0  0
    7.1042   55.2446   26.3355 H   0  0  0  0  0  0
    2.5294   53.9046   22.2966 H   0  0  0  0  0  0
    2.3553   50.6718   20.8097 H   0  0  0  0  0  0
    2.3087   52.0682   19.7882 H   0  0  0  0  0  0
    0.0889   51.6177   20.9457 H   0  0  0  0  0  0
    0.7050   53.2222   21.3080 H   0  0  0  0  0  0
    1.9109   50.3019   23.8098 H   0  0  0  0  0  0
    0.7322   49.7285   22.5892 H   0  0  0  0  0  0
   -1.3513   51.8178   25.5534 H   0  0  0  0  0  0
    0.3775   52.1049   25.5555 H   0  0  0  0  0  0
   -2.5631   52.5511   23.5356 H   0  0  0  0  0  0
   -2.0157   52.4939   21.9220 H   0  0  0  0  0  0
   -1.4398   48.5929   23.7043 H   0  0  0  0  0  0
   -2.1218   49.6345   24.8670 H   0  0  0  0  0  0
   -4.1503   49.3805   23.3168 H   0  0  0  0  0  0
   -4.0550   50.8857   24.2110 H   0  0  0  0  0  0
   -4.4292   50.8984   22.4893 H   0  0  0  0  0  0
   -2.4962   48.8863   21.4595 H   0  0  0  0  0  0
   -2.5238   50.4798   20.7357 H   0  0  0  0  0  0
   -1.0104   49.7738   21.2770 H   0  0  0  0  0  0
    0.6917   48.4296   25.4039 H   0  0  0  0  0  0
   -0.4781   49.2079   26.4581 H   0  0  0  0  0  0
    1.1045   49.8934   26.2867 H   0  0  0  0  0  0
    0.7830   51.8775   22.9556 N   0  3  2  0  0  0
    1.5269   52.3697   23.4277 H   0  0  0  0  0  0
  1  2  1  0  0  0
  1 33  1  0  0  0
  1 34  1  0  0  0
  1 35  1  0  0  0
  2  3  1  0  0  0
  2 36  1  0  0  0
  2 37  1  0  0  0
  3  4  1  0  0  0
  4  5  2  0  0  0
  4  6  1  0  0  0
  6 14  1  0  0  0
  6  7  2  0  0  0
  7  8  1  0  0  0
  7 17  1  0  0  0
  8 13  2  0  0  0
  8  9  1  0  0  0
  9 10  2  0  0  0
  9 38  1  0  0  0
 10 11  1  0  0  0
 10 16  1  0  0  0
 11 12  2  0  0  0
 11 39  1  0  0  0
 12 13  1  0  0  0
 12 40  1  0  0  0
 13 14  1  0  0  0
 14 15  1  0  0  0
 17 18  1  0  0  0
 17 41  1  0  0  0
 18 19  2  0  0  0
 18 20  1  0  0  0
 20 21  1  0  0  0
 20 42  1  0  0  0
 20 43  1  0  0  0
 21 44  1  0  0  0
 21 45  1  0  0  0
 21 63  1  0  0  0
 22 23  1  0  0  0
 22 46  1  0  0  0
 22 47  1  0  0  0
 22 63  1  0  0  0
 23 29  1  0  0  0
 23 24  1  0  0  0
 23 32  1  0  0  0
 24 25  1  0  0  0
 24 48  1  0  0  0
 24 49  1  0  0  0
 25 26  1  0  0  0
 25 27  1  0  0  0
 25 63  1  0  0  0
 27 28  1  0  0  0
 27 50  1  0  0  0
 27 51  1  0  0  0
 28 29  1  0  0  0
 28 30  1  0  0  0
 28 31  1  0  0  0
 29 52  1  0  0  0
 29 53  1  0  0  0
 30 54  1  0  0  0
 30 55  1  0  0  0
 30 56  1  0  0  0
 31 57  1  0  0  0
 31 58  1  0  0  0
 31 59  1  0  0  0
 32 60  1  0  0  0
 32 61  1  0  0  0
 32 62  1  0  0  0
 63 64  1  0  0  0
M  CHG  1  63   1
M  END
> <i_i_glide_confnum>
93

> <i_i_glide_lignum>
2901

> <i_i_glide_posenum>
214

> <i_i_glide_rotatable_bonds>
8

> <i_m_Source_File_Index>
444

> <b_m_subgroup_collapsed>
0

> <r_i_docking_score>
-4.69579

> <r_i_glide_ecoul>
-1.82514

> <r_i_glide_eff_state_penalty>
0

> <r_i_glide_einternal>
5.63395

> <r_i_glide_emodel>
-49.8783

> <r_i_glide_energy>
-41.9364

> <r_i_glide_erotb>
0.59004

> <r_i_glide_esite>
0

> <r_i_glide_evdw>
-40.1113

> <r_i_glide_gscore>
-4.69579

> <r_i_glide_hbond>
-0.104778

> <r_i_glide_ligand_efficiency>
-0.151477

> <r_i_glide_ligand_efficiency_ln>
-1.05904

> <r_i_glide_ligand_efficiency_sa>
-0.475847

> <r_i_glide_lipo>
-2.56654

> <r_i_glide_metal>
0

> <r_i_glide_rewards>
-0.335176

> <s_i_glide_gridfile>
wee1_glide-grid

> <s_m_Source_File>
wee1_decoys_glide_SP.sdf

> <s_m_Source_Path>
/Users/zhangxujun/Desktop

> <s_m_entry_id>
719

> <s_m_entry_name>
wee1_decoys_glide_SP.444

> <s_m_subgroup_title>
wee1_decoys_glide_SP

> <s_m_subgroupid>
wee1_decoys_glide_SP


$$$$
