ZINC09784800_4474
                    3D
 Schrodinger Suite 2024-2.
 59 63  0  0  1  0            999 V2000
   -1.7637   58.4728   14.4431 C   0  0  0  0  0  0
   -0.3137   58.5589   14.8827 C   0  0  0  0  0  0
    0.3590   57.4015   15.2755 C   0  0  0  0  0  0
    1.6917   57.4690   15.6744 C   0  0  0  0  0  0
    2.3599   58.7037   15.6819 C   0  0  0  0  0  0
    1.6809   59.8561   15.2815 C   0  0  0  0  0  0
    0.3492   59.7868   14.8807 C   0  0  0  0  0  0
    3.6946   58.8967   16.0838 N   0  0  0  0  0  0
    4.6003   58.0084   16.5386 C   0  0  0  0  0  0
    4.3947   56.8072   16.7138 O   0  0  0  0  0  0
    5.7701   58.6262   16.7989 N   0  0  0  0  0  0
    6.8567   58.0818   17.4681 C   0  0  0  0  0  0
    6.8668   56.9986   18.2080 N   0  0  0  0  0  0
    8.0224   56.8091   18.8291 C   0  0  0  0  0  0
    9.0131   57.7264   18.4815 C   0  0  0  0  0  0
    8.3629   58.9290   17.4060 S   0  0  0  0  0  0
    8.1493   55.6431   19.8133 C   0  0  0  0  0  0
    6.9545   55.4275   20.7653 C   0  0  0  0  0  0
    5.8192   55.3902   20.2948 O   0  0  0  0  0  0
    7.2196   55.2625   22.0813 N   0  0  0  0  0  0
    6.3046   54.8933   23.0884 C   0  0  0  0  0  0
    6.6033   55.2551   24.4029 C   0  0  0  0  0  0
    5.7253   54.9357   25.4391 C   0  0  0  0  0  0
    4.5298   54.2543   25.1738 C   0  0  0  0  0  0
    4.2416   53.8899   23.8535 C   0  0  0  0  0  0
    5.1294   54.1739   22.8265 C   0  0  0  0  0  0
    3.5594   53.8741   26.2581 C   0  0  0  0  0  0
    2.4024   53.3160   26.0086 N   0  0  0  0  0  0
    1.7379   52.9865   27.1428 C   0  0  0  0  0  0
    0.4934   52.3441   27.1756 C   0  0  0  0  0  0
   -0.0749   52.0643   28.4173 C   0  0  0  0  0  0
    0.5678   52.4198   29.6053 C   0  0  0  0  0  0
    1.8170   53.0449   29.5930 C   0  0  0  0  0  0
    2.3975   53.3293   28.3501 C   0  0  0  0  0  0
    3.9351   54.0927   27.9619 S   0  0  0  0  0  0
   -0.0918   52.1108   30.9327 C   0  0  0  0  0  0
   -1.9022   57.6279   13.7661 H   0  0  0  0  0  0
   -2.4147   58.3195   15.3045 H   0  0  0  0  0  0
   -2.0814   59.3688   13.9083 H   0  0  0  0  0  0
   -0.1473   56.4476   15.2743 H   0  0  0  0  0  0
    2.1740   56.5535   15.9759 H   0  0  0  0  0  0
    2.1822   60.8148   15.2893 H   0  0  0  0  0  0
   -0.1619   60.6884   14.5753 H   0  0  0  0  0  0
    3.9774   59.8730   16.0860 H   0  0  0  0  0  0
    5.8473   59.6077   16.5640 H   0  0  0  0  0  0
   10.0358   57.7719   18.8274 H   0  0  0  0  0  0
    9.0697   55.7395   20.3914 H   0  0  0  0  0  0
    8.2642   54.7133   19.2559 H   0  0  0  0  0  0
    8.1634   55.4341   22.4030 H   0  0  0  0  0  0
    7.5043   55.8058   24.6204 H   0  0  0  0  0  0
    5.9780   55.2320   26.4461 H   0  0  0  0  0  0
    3.3358   53.3529   23.6126 H   0  0  0  0  0  0
    4.8742   53.8372   21.8336 H   0  0  0  0  0  0
   -0.0110   52.0638   26.2632 H   0  0  0  0  0  0
   -1.0309   51.5588   28.4552 H   0  0  0  0  0  0
    2.3179   53.2962   30.5142 H   0  0  0  0  0  0
    0.6290   51.7002   31.6400 H   0  0  0  0  0  0
   -0.4962   53.0213   31.3747 H   0  0  0  0  0  0
   -0.8932   51.3748   30.8409 H   0  0  0  0  0  0
  1  2  1  0  0  0
  1 37  1  0  0  0
  1 38  1  0  0  0
  1 39  1  0  0  0
  2  7  2  0  0  0
  2  3  1  0  0  0
  3  4  2  0  0  0
  3 40  1  0  0  0
  4  5  1  0  0  0
  4 41  1  0  0  0
  5  6  2  0  0  0
  5  8  1  0  0  0
  6  7  1  0  0  0
  6 42  1  0  0  0
  7 43  1  0  0  0
  8  9  1  0  0  0
  8 44  1  0  0  0
  9 10  2  0  0  0
  9 11  1  0  0  0
 11 12  1  0  0  0
 11 45  1  0  0  0
 12 16  1  0  0  0
 12 13  2  0  0  0
 13 14  1  0  0  0
 14 15  2  0  0  0
 14 17  1  0  0  0
 15 16  1  0  0  0
 15 46  1  0  0  0
 17 18  1  0  0  0
 17 47  1  0  0  0
 17 48  1  0  0  0
 18 19  2  0  0  0
 18 20  1  0  0  0
 20 21  1  0  0  0
 20 49  1  0  0  0
 21 26  2  0  0  0
 21 22  1  0  0  0
 22 23  2  0  0  0
 22 50  1  0  0  0
 23 24  1  0  0  0
 23 51  1  0  0  0
 24 25  2  0  0  0
 24 27  1  0  0  0
 25 26  1  0  0  0
 25 52  1  0  0  0
 26 53  1  0  0  0
 27 35  1  0  0  0
 27 28  2  0  0  0
 28 29  1  0  0  0
 29 34  2  0  0  0
 29 30  1  0  0  0
 30 31  2  0  0  0
 30 54  1  0  0  0
 31 32  1  0  0  0
 31 55  1  0  0  0
 32 33  2  0  0  0
 32 36  1  0  0  0
 33 34  1  0  0  0
 33 56  1  0  0  0
 34 35  1  0  0  0
 36 57  1  0  0  0
 36 58  1  0  0  0
 36 59  1  0  0  0
M  END
> <i_i_glide_confnum>
22

> <i_i_glide_lignum>
4475

> <i_i_glide_posenum>
61

> <i_i_glide_rotatable_bonds>
9

> <i_m_Source_File_Index>
4443

> <b_m_subgroup_collapsed>
0

> <r_i_docking_score>
-6.42224

> <r_i_glide_ecoul>
-5.54832

> <r_i_glide_eff_state_penalty>
0

> <r_i_glide_einternal>
8.85828

> <r_i_glide_emodel>
-73.607

> <r_i_glide_energy>
-53.8214

> <r_i_glide_erotb>
0.699588

> <r_i_glide_esite>
-0.223611

> <r_i_glide_evdw>
-48.2731

> <r_i_glide_gscore>
-6.42224

> <r_i_glide_hbond>
-0.496787

> <r_i_glide_ligand_efficiency>
-0.178395

> <r_i_glide_ligand_efficiency_ln>
-1.40116

> <r_i_glide_ligand_efficiency_sa>
-0.589049

> <r_i_glide_lipo>
-2.87682

> <r_i_glide_metal>
0

> <r_i_glide_rewards>
-0.278701

> <s_i_glide_gridfile>
wee1_glide-grid

> <s_m_Source_File>
wee1_decoys_glide_SP.sdf

> <s_m_Source_Path>
/Users/zhangxujun/Desktop

> <s_m_entry_id>
4718

> <s_m_entry_name>
wee1_decoys_glide_SP.4443

> <s_m_subgroup_title>
wee1_decoys_glide_SP

> <s_m_subgroupid>
wee1_decoys_glide_SP


$$$$
