ZINC37181655_1577
                    3D
 Schrodinger Suite 2024-2.
 36 37  0  0  1  0            999 V2000
    0.7114   54.3898   30.4678 C   0  0  0  0  0  0
    1.8311   54.6442   29.6724 C   0  0  0  0  0  0
    2.6050   53.4896   29.6696 C   0  0  0  0  0  0
    1.9899   52.5434   30.4311 O   0  0  0  0  0  0
    0.8365   53.0835   30.9072 C   0  0  0  0  0  0
    3.9048   53.0656   29.0027 C   0  0  0  0  0  0
    4.3902   53.9903   27.9726 N   0  0  0  0  0  0
    3.8635   54.0874   26.7330 C   0  0  0  0  0  0
    2.6815   53.8422   26.5098 O   0  0  0  0  0  0
    4.6717   54.3931   25.6918 N   0  0  0  0  0  0
    5.9971   54.6691   25.6455 C   0  0  0  0  0  0
    6.7052   54.8953   26.6293 O   0  0  0  0  0  0
    6.6597   54.7113   24.2583 C   0  0  0  0  0  0
    5.6495   54.0966   22.8621 S   0  0  0  0  0  0
    6.1728   54.8975   21.3680 C   0  0  0  0  0  0
    7.4383   55.4806   21.2607 C   0  0  0  0  0  0
    7.8337   56.0678   20.0620 C   0  0  0  0  0  0
    6.9578   56.0870   18.9785 C   0  0  0  0  0  0
    5.6972   55.5024   19.0782 C   0  0  0  0  0  0
    5.3094   54.8966   20.2722 C   0  0  0  0  0  0
    7.3455   56.6940   17.7870 N   0  0  0  0  0  0
   -0.0948   55.0725   30.6906 H   0  0  0  0  0  0
    2.0541   55.5621   29.1460 H   0  0  0  0  0  0
    0.2279   52.4464   31.5361 H   0  0  0  0  0  0
    3.7489   52.0921   28.5332 H   0  0  0  0  0  0
    4.7003   52.9239   29.7330 H   0  0  0  0  0  0
    5.3385   54.3272   28.0841 H   0  0  0  0  0  0
    4.2220   54.3196   24.7920 H   0  0  0  0  0  0
    7.5618   54.1031   24.2937 H   0  0  0  0  0  0
    6.9664   55.7386   24.0666 H   0  0  0  0  0  0
    8.1348   55.4622   22.0819 H   0  0  0  0  0  0
    8.8220   56.4971   19.9787 H   0  0  0  0  0  0
    5.0197   55.5093   18.2351 H   0  0  0  0  0  0
    4.3347   54.4357   20.3409 H   0  0  0  0  0  0
    6.6990   56.7259   17.0109 H   0  0  0  0  0  0
    8.2705   57.0879   17.6997 H   0  0  0  0  0  0
  1  5  2  0  0  0
  1  2  1  0  0  0
  1 22  1  0  0  0
  2  3  2  0  0  0
  2 23  1  0  0  0
  3  4  1  0  0  0
  3  6  1  0  0  0
  4  5  1  0  0  0
  5 24  1  0  0  0
  6  7  1  0  0  0
  6 25  1  0  0  0
  6 26  1  0  0  0
  7  8  1  0  0  0
  7 27  1  0  0  0
  8  9  2  0  0  0
  8 10  1  0  0  0
 10 11  1  0  0  0
 10 28  1  0  0  0
 11 12  2  0  0  0
 11 13  1  0  0  0
 13 14  1  0  0  0
 13 29  1  0  0  0
 13 30  1  0  0  0
 14 15  1  0  0  0
 15 20  2  0  0  0
 15 16  1  0  0  0
 16 17  2  0  0  0
 16 31  1  0  0  0
 17 18  1  0  0  0
 17 32  1  0  0  0
 18 19  2  0  0  0
 18 21  1  0  0  0
 19 20  1  0  0  0
 19 33  1  0  0  0
 20 34  1  0  0  0
 21 35  1  0  0  0
 21 36  1  0  0  0
M  END
> <i_i_glide_confnum>
163

> <i_i_glide_lignum>
1578

> <i_i_glide_posenum>
190

> <i_i_glide_rotatable_bonds>
8

> <i_m_Source_File_Index>
2467

> <b_m_subgroup_collapsed>
0

> <r_i_docking_score>
-4.78145

> <r_i_glide_ecoul>
-4.98947

> <r_i_glide_eff_state_penalty>
0

> <r_i_glide_einternal>
8.22146

> <r_i_glide_emodel>
-52.3778

> <r_i_glide_energy>
-45.1682

> <r_i_glide_erotb>
1.38557

> <r_i_glide_esite>
0

> <r_i_glide_evdw>
-40.1787

> <r_i_glide_gscore>
-4.78145

> <r_i_glide_hbond>
-0.217777

> <r_i_glide_ligand_efficiency>
-0.227688

> <r_i_glide_ligand_efficiency_ln>
-1.1822

> <r_i_glide_ligand_efficiency_sa>
-0.628175

> <r_i_glide_lipo>
-1.97942

> <r_i_glide_metal>
0

> <r_i_glide_rewards>
-1.21247

> <s_i_glide_gridfile>
wee1_glide-grid

> <s_m_Source_File>
wee1_decoys_glide_SP.sdf

> <s_m_Source_Path>
/Users/zhangxujun/Desktop

> <s_m_entry_id>
2742

> <s_m_entry_name>
wee1_decoys_glide_SP.2467

> <s_m_subgroup_title>
wee1_decoys_glide_SP

> <s_m_subgroupid>
wee1_decoys_glide_SP


$$$$
