ZINC39665566_5545
                    3D
 Schrodinger Suite 2024-2.
 70 73  0  0  1  0            999 V2000
    4.5828   53.9259   19.1756 C   0  0  0  0  0  0
    4.5010   53.4730   20.6403 C   0  0  1  0  0  0
    3.4755   53.6748   20.9504 H   0  0  0  0  0  0
    4.8487   51.9704   20.8132 C   0  0  0  0  0  0
    3.7327   51.0431   20.6289 N   0  0  0  0  0  0
    2.7032   50.9047   21.4811 C   0  0  0  0  0  0
    2.5909   51.6189   22.4800 O   0  0  0  0  0  0
    1.6488   49.8016   21.1882 C   0  0  1  0  0  0
    2.0005   48.9097   21.7121 H   0  0  0  0  0  0
    0.3530   50.2105   21.9200 C   0  0  0  0  0  0
   -0.6883   49.4637   21.2199 N   0  0  0  0  0  0
   -0.2022   48.9073   19.9539 C   0  0  0  0  0  0
    1.2120   49.5067   19.7218 C   0  0  0  0  0  0
    1.1367   50.7767   18.8115 C   0  0  0  0  0  0
    0.6185   50.4629   17.3888 C   0  0  0  0  0  0
    1.5044   49.3584   16.7630 N   0  3  0  0  0  0
    1.6326   48.0927   17.6346 C   0  0  0  0  0  0
    2.1817   48.5357   19.0013 C   0  0  0  0  0  0
   -1.8687   49.0908   21.7829 C   0  0  0  0  0  0
   -2.6528   48.3238   21.2219 O   0  0  0  0  0  0
   -2.2151   49.6414   23.1543 C   0  0  0  0  0  0
   -2.2937   51.0360   23.3157 C   0  0  0  0  0  0
   -2.5768   51.6015   24.5566 C   0  0  0  0  0  0
   -2.7894   50.7819   25.6592 C   0  0  0  0  0  0
   -2.7366   49.3972   25.5181 C   0  0  0  0  0  0
   -2.4684   48.8031   24.2739 C   0  0  0  0  0  0
   -2.3804   47.2671   24.2128 C   0  0  0  0  0  0
   -3.4485   46.7597   23.5961 F   0  0  0  0  0  0
   -1.2956   46.8973   23.5366 F   0  0  0  0  0  0
   -2.2587   46.6998   25.4165 F   0  0  0  0  0  0
    5.4255   54.2755   21.3806 O   0  0  0  0  0  0
    5.3750   54.2738   22.7617 C   0  0  0  0  0  0
    6.5723   54.4943   23.4382 C   0  0  0  0  0  0
    6.6061   54.5022   24.8304 C   0  0  0  0  0  0
    5.4307   54.3090   25.5700 C   0  0  0  0  0  0
    4.2297   54.1169   24.8924 C   0  0  0  0  0  0
    4.1963   54.0968   23.5009 C   0  0  0  0  0  0
    5.3703   54.2891   26.9497 O   0  0  0  0  0  0
    6.5790   54.3601   27.6961 C   0  0  0  0  0  0
    3.9129   53.3424   18.5438 H   0  0  0  0  0  0
    4.2972   54.9729   19.0751 H   0  0  0  0  0  0
    5.5934   53.8155   18.7798 H   0  0  0  0  0  0
    5.6306   51.6973   20.1043 H   0  0  0  0  0  0
    5.2896   51.7865   21.7948 H   0  0  0  0  0  0
    3.7550   50.4965   19.7794 H   0  0  0  0  0  0
    0.4393   49.9771   22.9840 H   0  0  0  0  0  0
    0.1598   51.2685   21.7280 H   0  0  0  0  0  0
   -0.8918   48.9582   19.1132 H   0  0  0  0  0  0
   -0.0696   47.8419   20.1473 H   0  0  0  0  0  0
    0.4722   51.5126   19.2657 H   0  0  0  0  0  0
    2.0960   51.2840   18.7217 H   0  0  0  0  0  0
   -0.4089   50.0969   17.3632 H   0  0  0  0  0  0
    0.6934   51.3246   16.7255 H   0  0  0  0  0  0
    1.1698   49.1135   15.8408 H   0  0  0  0  0  0
    0.6516   47.6159   17.6762 H   0  0  0  0  0  0
    2.3325   47.4406   17.1069 H   0  0  0  0  0  0
    3.1850   48.9525   18.8945 H   0  0  0  0  0  0
    2.3051   47.6408   19.6102 H   0  0  0  0  0  0
   -2.1249   51.6950   22.4752 H   0  0  0  0  0  0
   -2.6216   52.6755   24.6650 H   0  0  0  0  0  0
   -2.9907   51.2131   26.6294 H   0  0  0  0  0  0
   -2.8899   48.7894   26.4027 H   0  0  0  0  0  0
    7.4857   54.6453   22.8804 H   0  0  0  0  0  0
    7.5537   54.6561   25.3147 H   0  0  0  0  0  0
    3.3179   53.9760   25.4534 H   0  0  0  0  0  0
    3.2408   53.9645   23.0211 H   0  0  0  0  0  0
    6.3445   54.3180   28.7599 H   0  0  0  0  0  0
    7.1057   55.2973   27.5128 H   0  0  0  0  0  0
    7.2417   53.5216   27.4689 H   0  0  0  0  0  0
    2.4627   49.6953   16.6339 H   0  0  0  0  0  0
  1  2  1  0  0  0
  1 40  1  0  0  0
  1 41  1  0  0  0
  1 42  1  0  0  0
  2  3  1  0  0  0
  2  4  1  0  0  0
  2 31  1  0  0  0
  4  5  1  0  0  0
  4 43  1  0  0  0
  4 44  1  0  0  0
  5  6  1  0  0  0
  5 45  1  0  0  0
  6  7  2  0  0  0
  6  8  1  0  0  0
  8  9  1  0  0  0
  8 13  1  0  0  0
  8 10  1  0  0  0
 10 11  1  0  0  0
 10 46  1  0  0  0
 10 47  1  0  0  0
 11 12  1  0  0  0
 11 19  1  0  0  0
 12 13  1  0  0  0
 12 48  1  0  0  0
 12 49  1  0  0  0
 13 18  1  0  0  0
 13 14  1  0  0  0
 14 15  1  0  0  0
 14 50  1  0  0  0
 14 51  1  0  0  0
 15 16  1  0  0  0
 15 52  1  0  0  0
 15 53  1  0  0  0
 16 17  1  0  0  0
 16 54  1  0  0  0
 16 70  1  0  0  0
 17 18  1  0  0  0
 17 55  1  0  0  0
 17 56  1  0  0  0
 18 57  1  0  0  0
 18 58  1  0  0  0
 19 20  2  0  0  0
 19 21  1  0  0  0
 21 26  2  0  0  0
 21 22  1  0  0  0
 22 23  2  0  0  0
 22 59  1  0  0  0
 23 24  1  0  0  0
 23 60  1  0  0  0
 24 25  2  0  0  0
 24 61  1  0  0  0
 25 26  1  0  0  0
 25 62  1  0  0  0
 26 27  1  0  0  0
 27 28  1  0  0  0
 27 29  1  0  0  0
 27 30  1  0  0  0
 31 32  1  0  0  0
 32 37  2  0  0  0
 32 33  1  0  0  0
 33 34  2  0  0  0
 33 63  1  0  0  0
 34 35  1  0  0  0
 34 64  1  0  0  0
 35 36  2  0  0  0
 35 38  1  0  0  0
 36 37  1  0  0  0
 36 65  1  0  0  0
 37 66  1  0  0  0
 38 39  1  0  0  0
 39 67  1  0  0  0
 39 68  1  0  0  0
 39 69  1  0  0  0
M  CHG  1  16   1
M  END
> <i_i_glide_confnum>
117

> <i_i_glide_lignum>
5546

> <i_i_glide_posenum>
220

> <i_i_glide_rotatable_bonds>
10

> <i_m_Source_File_Index>
1376

> <b_m_subgroup_collapsed>
0

> <r_i_docking_score>
-4.52845

> <r_i_glide_ecoul>
-5.28623

> <r_i_glide_eff_state_penalty>
0

> <r_i_glide_einternal>
11.6309

> <r_i_glide_emodel>
-52.3869

> <r_i_glide_energy>
-43.2791

> <r_i_glide_erotb>
0.60673

> <r_i_glide_esite>
-0.286398

> <r_i_glide_evdw>
-37.9929

> <r_i_glide_gscore>
-4.52845

> <r_i_glide_hbond>
-0.210047

> <r_i_glide_ligand_efficiency>
-0.122391

> <r_i_glide_ligand_efficiency_ln>
-0.982116

> <r_i_glide_ligand_efficiency_sa>
-0.407833

> <r_i_glide_lipo>
-1.96257

> <r_i_glide_metal>
0

> <r_i_glide_rewards>
0.0164146

> <s_i_glide_gridfile>
wee1_glide-grid

> <s_m_Source_File>
wee1_decoys_glide_SP.sdf

> <s_m_Source_Path>
/Users/zhangxujun/Desktop

> <s_m_entry_id>
1651

> <s_m_entry_name>
wee1_decoys_glide_SP.1376

> <s_m_subgroup_title>
wee1_decoys_glide_SP

> <s_m_subgroupid>
wee1_decoys_glide_SP


$$$$
