ZINC20375527_265
                    3D
 Schrodinger Suite 2024-2.
 58 61  0  0  1  0            999 V2000
    4.9771   53.0019   22.0817 C   0  0  0  0  0  0
    5.6933   53.6968   23.0556 C   0  0  0  0  0  0
    5.0113   54.4305   24.0214 C   0  0  0  0  0  0
    3.6208   54.4964   24.0030 C   0  0  0  0  0  0
    2.9052   53.8347   23.0077 C   0  0  0  0  0  0
    3.5787   53.0722   22.0469 C   0  0  0  0  0  0
    2.7752   52.3081   20.9776 C   0  0  2  0  0  0
    1.8174   52.8164   20.8453 H   0  0  0  0  0  0
    2.5576   50.8048   21.3569 C   0  0  1  0  0  0
    3.5508   50.3706   21.4680 H   0  0  0  0  0  0
    1.8302   50.5876   22.7217 C   0  0  0  0  0  0
    0.3384   50.9752   22.6724 C   0  0  0  0  0  0
   -0.3959   50.2246   21.5465 C   0  0  0  0  0  0
    0.3322   50.3903   20.1962 C   0  0  0  0  0  0
    1.8379   49.9872   20.2336 C   0  0  1  0  0  0
    2.5210   50.2049   18.8748 C   0  0  0  0  0  0
    2.6641   51.6840   18.4772 C   0  0  0  0  0  0
    3.4618   52.4317   19.5753 N   0  3  1  0  0  0
    3.6561   53.9234   19.1377 C   0  0  0  0  0  0
    5.0592   54.2724   18.6073 C   0  0  0  0  0  0
    5.3689   55.4629   18.6257 O   0  0  0  0  0  0
    5.8667   53.2967   18.1328 N   0  0  0  0  0  0
    7.1993   53.4126   17.6825 C   0  0  0  0  0  0
    8.0738   54.4354   18.0782 C   0  0  0  0  0  0
    9.4079   54.4074   17.6815 C   0  0  0  0  0  0
    9.8951   53.3583   16.8882 C   0  0  0  0  0  0
    9.0116   52.3502   16.4828 C   0  0  0  0  0  0
    7.6779   52.3784   16.8786 C   0  0  0  0  0  0
   11.3285   53.3042   16.5111 N   0  3  0  0  0  0
   11.7170   52.3698   15.8168 O   0  0  0  0  0  0
   12.0750   54.1942   16.9093 O   0  5  0  0  0  0
    1.9043   48.5987   20.5158 O   0  0  0  0  0  0
    5.7052   55.0886   24.9781 F   0  0  0  0  0  0
    5.5058   52.4073   21.3545 H   0  0  0  0  0  0
    6.7719   53.6500   23.0800 H   0  0  0  0  0  0
    3.1023   55.0720   24.7549 H   0  0  0  0  0  0
    1.8279   53.9029   22.9966 H   0  0  0  0  0  0
    1.9132   49.5405   23.0222 H   0  0  0  0  0  0
    2.3052   51.1513   23.5221 H   0  0  0  0  0  0
   -0.1333   50.7548   23.6311 H   0  0  0  0  0  0
    0.2356   52.0507   22.5274 H   0  0  0  0  0  0
   -0.4640   49.1646   21.7965 H   0  0  0  0  0  0
   -1.4232   50.5837   21.4668 H   0  0  0  0  0  0
    0.2372   51.4329   19.8966 H   0  0  0  0  0  0
   -0.1831   49.8553   19.3968 H   0  0  0  0  0  0
    1.9444   49.7247   18.0826 H   0  0  0  0  0  0
    3.5044   49.7465   18.8817 H   0  0  0  0  0  0
    1.7085   52.1905   18.3339 H   0  0  0  0  0  0
    3.2564   51.7509   17.5619 H   0  0  0  0  0  0
    3.5074   54.5457   20.0195 H   0  0  0  0  0  0
    2.8750   54.2006   18.4286 H   0  0  0  0  0  0
    5.5015   52.3520   18.0528 H   0  0  0  0  0  0
    7.7551   55.2373   18.7250 H   0  0  0  0  0  0
   10.0678   55.1943   18.0225 H   0  0  0  0  0  0
    9.3592   51.5256   15.8766 H   0  0  0  0  0  0
    7.0264   51.5750   16.5723 H   0  0  0  0  0  0
    2.8298   48.3337   20.5240 H   0  0  0  0  0  0
    4.3503   51.9519   19.6335 H   0  0  0  0  0  0
  1  6  2  0  0  0
  1  2  1  0  0  0
  1 34  1  0  0  0
  2  3  2  0  0  0
  2 35  1  0  0  0
  3  4  1  0  0  0
  3 33  1  0  0  0
  4  5  2  0  0  0
  4 36  1  0  0  0
  5  6  1  0  0  0
  5 37  1  0  0  0
  6  7  1  0  0  0
  7  8  1  0  0  0
  7 18  1  0  0  0
  7  9  1  0  0  0
  9 10  1  0  0  0
  9 15  1  0  0  0
  9 11  1  0  0  0
 11 12  1  0  0  0
 11 38  1  0  0  0
 11 39  1  0  0  0
 12 13  1  0  0  0
 12 40  1  0  0  0
 12 41  1  0  0  0
 13 14  1  0  0  0
 13 42  1  0  0  0
 13 43  1  0  0  0
 14 15  1  0  0  0
 14 44  1  0  0  0
 14 45  1  0  0  0
 15 16  1  0  0  0
 15 32  1  0  0  0
 16 17  1  0  0  0
 16 46  1  0  0  0
 16 47  1  0  0  0
 17 18  1  0  0  0
 17 48  1  0  0  0
 17 49  1  0  0  0
 18 19  1  0  0  0
 18 58  1  0  0  0
 19 20  1  0  0  0
 19 50  1  0  0  0
 19 51  1  0  0  0
 20 21  2  0  0  0
 20 22  1  0  0  0
 22 23  1  0  0  0
 22 52  1  0  0  0
 23 28  2  0  0  0
 23 24  1  0  0  0
 24 25  2  0  0  0
 24 53  1  0  0  0
 25 26  1  0  0  0
 25 54  1  0  0  0
 26 27  2  0  0  0
 26 29  1  0  0  0
 27 28  1  0  0  0
 27 55  1  0  0  0
 28 56  1  0  0  0
 29 30  2  0  0  0
 29 31  1  0  0  0
 32 57  1  0  0  0
M  CHG  3  18   1  29   1  31  -1
M  END
> <i_i_glide_confnum>
21

> <i_i_glide_lignum>
266

> <i_i_glide_posenum>
321

> <i_i_glide_rotatable_bonds>
7

> <i_m_Source_File_Index>
157

> <b_m_subgroup_collapsed>
0

> <r_i_docking_score>
-5.09688

> <r_i_glide_ecoul>
-7.1673

> <r_i_glide_eff_state_penalty>
0

> <r_i_glide_einternal>
7.02781

> <r_i_glide_emodel>
-48.7629

> <r_i_glide_energy>
-37.5017

> <r_i_glide_erotb>
0.540983

> <r_i_glide_esite>
-0.135049

> <r_i_glide_evdw>
-30.3344

> <r_i_glide_gscore>
-5.09688

> <r_i_glide_hbond>
-0.315172

> <r_i_glide_ligand_efficiency>
-0.164416

> <r_i_glide_ligand_efficiency_ln>
-1.1495

> <r_i_glide_ligand_efficiency_sa>
-0.516492

> <r_i_glide_lipo>
-1.68844

> <r_i_glide_metal>
0

> <r_i_glide_rewards>
-0.907394

> <s_i_glide_gridfile>
wee1_glide-grid

> <s_m_Source_File>
wee1_decoys_glide_SP.sdf

> <s_m_Source_Path>
/Users/zhangxujun/Desktop

> <s_m_entry_id>
432

> <s_m_entry_name>
wee1_decoys_glide_SP.157

> <s_m_subgroup_title>
wee1_decoys_glide_SP

> <s_m_subgroupid>
wee1_decoys_glide_SP


$$$$
