ZINC22510964_6113
                    3D
 Schrodinger Suite 2024-2.
 63 67  0  0  1  0            999 V2000
    1.0397   55.3189   14.5798 C   0  0  0  0  0  0
    1.9906   56.4209   15.0345 C   0  0  0  0  0  0
    1.4739   57.7025   15.2580 C   0  0  0  0  0  0
    2.3056   58.7362   15.6816 C   0  0  0  0  0  0
    3.6600   58.4965   15.8876 C   0  0  0  0  0  0
    4.1842   57.2264   15.6648 C   0  0  0  0  0  0
    3.3628   56.1727   15.2368 C   0  0  0  0  0  0
    3.8573   54.8726   15.0222 N   0  0  0  0  0  0
    5.4947   54.3039   15.4008 S   0  0  0  0  0  0
    6.4575   55.2889   14.8959 O   0  0  0  0  0  0
    5.5453   52.9080   14.9529 O   0  0  0  0  0  0
    5.5569   54.2935   17.1876 C   0  0  0  0  0  0
    6.2449   55.2941   17.8751 C   0  0  0  0  0  0
    6.2478   55.3043   19.2661 C   0  0  0  0  0  0
    5.5653   54.3044   19.9759 C   0  0  0  0  0  0
    4.8812   53.3061   19.2787 C   0  0  0  0  0  0
    4.8789   53.2970   17.8880 C   0  0  0  0  0  0
    5.5043   54.2235   21.3783 N   0  0  0  0  0  0
    6.2047   54.8966   22.3183 C   0  0  0  0  0  0
    7.1051   55.6965   22.0683 O   0  0  0  0  0  0
    5.8008   54.6280   23.7564 C   0  0  0  0  0  0
    4.6102   53.9550   24.0663 C   0  0  0  0  0  0
    4.2578   53.7102   25.3878 C   0  0  0  0  0  0
    5.0472   54.1872   26.4357 C   0  0  0  0  0  0
    6.2223   54.8802   26.1386 C   0  0  0  0  0  0
    6.5957   55.0974   24.8122 C   0  0  0  0  0  0
    4.6916   53.9258   27.9059 C   0  0  0  0  0  0
    3.2794   53.6722   28.2320 N   0  0  0  0  0  0
    2.3824   54.6885   27.7010 C   0  0  0  0  0  0
    1.0685   54.5347   28.4339 C   0  0  0  0  0  0
    1.4748   53.6917   29.6035 C   0  0  0  0  0  0
    2.8094   53.2798   29.4884 C   0  0  0  0  0  0
    3.3752   52.4674   30.4710 C   0  0  0  0  0  0
    2.6113   52.0967   31.5785 C   0  0  0  0  0  0
    1.2773   52.4951   31.6818 C   0  0  0  0  0  0
    0.7036   53.2883   30.6931 C   0  0  0  0  0  0
    0.0160   55.6747   14.4587 H   0  0  0  0  0  0
    1.3684   54.9075   13.6242 H   0  0  0  0  0  0
    1.0331   54.5037   15.3048 H   0  0  0  0  0  0
    0.4236   57.9045   15.1077 H   0  0  0  0  0  0
    1.9041   59.7222   15.8675 H   0  0  0  0  0  0
    4.3047   59.2964   16.2217 H   0  0  0  0  0  0
    5.2377   57.0917   15.8375 H   0  0  0  0  0  0
    3.1868   54.1596   14.7840 H   0  0  0  0  0  0
    6.7714   56.0690   17.3377 H   0  0  0  0  0  0
    6.7777   56.1016   19.7608 H   0  0  0  0  0  0
    4.3538   52.5200   19.8001 H   0  0  0  0  0  0
    4.3573   52.5082   17.3620 H   0  0  0  0  0  0
    4.8498   53.5420   21.7250 H   0  0  0  0  0  0
    3.9468   53.5845   23.2998 H   0  0  0  0  0  0
    3.3725   53.1257   25.5863 H   0  0  0  0  0  0
    6.8462   55.2488   26.9403 H   0  0  0  0  0  0
    7.5045   55.6437   24.6039 H   0  0  0  0  0  0
    5.0520   54.7416   28.5355 H   0  0  0  0  0  0
    5.2643   53.0519   28.2178 H   0  0  0  0  0  0
    2.7811   55.6955   27.8339 H   0  0  0  0  0  0
    2.2033   54.4984   26.6446 H   0  0  0  0  0  0
    0.3273   54.0292   27.8135 H   0  0  0  0  0  0
    0.7044   55.5210   28.7174 H   0  0  0  0  0  0
    4.3903   52.1091   30.3764 H   0  0  0  0  0  0
    3.0452   51.4834   32.3549 H   0  0  0  0  0  0
    0.6891   52.1856   32.5360 H   0  0  0  0  0  0
   -0.3307   53.5857   30.7883 H   0  0  0  0  0  0
  1  2  1  0  0  0
  1 37  1  0  0  0
  1 38  1  0  0  0
  1 39  1  0  0  0
  2  7  2  0  0  0
  2  3  1  0  0  0
  3  4  2  0  0  0
  3 40  1  0  0  0
  4  5  1  0  0  0
  4 41  1  0  0  0
  5  6  2  0  0  0
  5 42  1  0  0  0
  6  7  1  0  0  0
  6 43  1  0  0  0
  7  8  1  0  0  0
  8  9  1  0  0  0
  8 44  1  0  0  0
  9 10  2  0  0  0
  9 11  2  0  0  0
  9 12  1  0  0  0
 12 17  2  0  0  0
 12 13  1  0  0  0
 13 14  2  0  0  0
 13 45  1  0  0  0
 14 15  1  0  0  0
 14 46  1  0  0  0
 15 16  2  0  0  0
 15 18  1  0  0  0
 16 17  1  0  0  0
 16 47  1  0  0  0
 17 48  1  0  0  0
 18 19  1  0  0  0
 18 49  1  0  0  0
 19 20  2  0  0  0
 19 21  1  0  0  0
 21 26  2  0  0  0
 21 22  1  0  0  0
 22 23  2  0  0  0
 22 50  1  0  0  0
 23 24  1  0  0  0
 23 51  1  0  0  0
 24 25  2  0  0  0
 24 27  1  0  0  0
 25 26  1  0  0  0
 25 52  1  0  0  0
 26 53  1  0  0  0
 27 28  1  0  0  0
 27 54  1  0  0  0
 27 55  1  0  0  0
 28 32  1  0  0  0
 28 29  1  0  0  0
 29 30  1  0  0  0
 29 56  1  0  0  0
 29 57  1  0  0  0
 30 31  1  0  0  0
 30 58  1  0  0  0
 30 59  1  0  0  0
 31 36  2  0  0  0
 31 32  1  0  0  0
 32 33  2  0  0  0
 33 34  1  0  0  0
 33 60  1  0  0  0
 34 35  2  0  0  0
 34 61  1  0  0  0
 35 36  1  0  0  0
 35 62  1  0  0  0
 36 63  1  0  0  0
M  END
> <i_i_glide_confnum>
4

> <i_i_glide_lignum>
6114

> <i_i_glide_posenum>
264

> <i_i_glide_rotatable_bonds>
8

> <i_m_Source_File_Index>
5234

> <b_m_subgroup_collapsed>
0

> <r_i_docking_score>
-5.00173

> <r_i_glide_ecoul>
-2.10922

> <r_i_glide_eff_state_penalty>
0

> <r_i_glide_einternal>
1.86358

> <r_i_glide_emodel>
-57.0987

> <r_i_glide_energy>
-43.52

> <r_i_glide_erotb>
0.659099

> <r_i_glide_esite>
-0.0118332

> <r_i_glide_evdw>
-41.4108

> <r_i_glide_gscore>
-5.00173

> <r_i_glide_hbond>
0

> <r_i_glide_ligand_efficiency>
-0.138937

> <r_i_glide_ligand_efficiency_ln>
-1.09124

> <r_i_glide_ligand_efficiency_sa>
-0.45876

> <r_i_glide_lipo>
-2.79984

> <r_i_glide_metal>
0

> <r_i_glide_rewards>
-0.462234

> <s_i_glide_gridfile>
wee1_glide-grid

> <s_m_Source_File>
wee1_decoys_glide_SP.sdf

> <s_m_Source_Path>
/Users/zhangxujun/Desktop

> <s_m_entry_id>
5509

> <s_m_entry_name>
wee1_decoys_glide_SP.5234

> <s_m_subgroup_title>
wee1_decoys_glide_SP

> <s_m_subgroupid>
wee1_decoys_glide_SP


$$$$
