ZINC38651047_4342
                    3D
 Schrodinger Suite 2024-2.
 51 54  0  0  1  0            999 V2000
    8.8146   56.2643   18.1382 C   0  0  0  0  0  0
    7.2846   56.0994   18.1643 C   0  0  1  0  0  0
    7.0460   55.1507   17.6819 H   0  0  0  0  0  0
    6.7512   56.1079   19.6092 C   0  0  0  0  0  0
    6.7043   57.1498   20.2730 O   0  0  0  0  0  0
    6.3509   54.8706   20.0117 O   0  0  0  0  0  0
    5.7999   54.7006   21.2614 C   0  0  0  0  0  0
    6.5170   54.9975   22.4218 C   0  0  0  0  0  0
    5.9041   54.8967   23.6646 C   0  0  0  0  0  0
    4.5819   54.4276   23.8163 C   0  0  0  0  0  0
    3.9014   54.0922   22.6264 C   0  0  0  0  0  0
    4.4978   54.2162   21.3718 C   0  0  0  0  0  0
    2.5969   53.6495   22.6221 O   0  0  0  0  0  0
    2.0539   53.2333   23.7862 C   0  0  0  0  0  0
    2.5715   53.4647   25.0099 C   0  0  0  0  0  0
    3.8200   54.3554   25.1791 C   0  0  1  0  0  0
    3.4780   55.3819   25.2827 H   0  0  0  0  0  0
    4.6666   54.1523   26.4616 C   0  0  0  0  0  0
    5.9879   53.6967   26.3550 C   0  0  0  0  0  0
    6.8559   53.6854   27.4281 C   0  0  0  0  0  0
    6.4005   54.0914   28.6629 C   0  0  0  0  0  0
    5.0761   54.4708   28.8405 C   0  0  0  0  0  0
    4.2032   54.4999   27.7536 C   0  0  0  0  0  0
    2.6114   55.0923   28.0827 Cl  0  0  0  0  0  0
    1.9034   52.8960   26.1364 C   0  0  0  0  0  0
    1.3145   52.3953   26.9981 N   0  0  0  0  0  0
    0.9410   52.4974   23.4834 N   0  0  0  0  0  0
    6.7293   57.1787   17.4024 O   0  0  0  0  0  0
    5.3814   57.1854   17.0830 C   0  0  0  0  0  0
    4.5403   56.0644   17.1871 C   0  0  0  0  0  0
    3.1926   56.1646   16.8525 C   0  0  0  0  0  0
    2.6797   57.3794   16.4076 C   0  0  0  0  0  0
    3.5044   58.4953   16.2991 C   0  0  0  0  0  0
    4.8530   58.3943   16.6304 C   0  0  0  0  0  0
    1.3706   57.4735   16.0818 F   0  0  0  0  0  0
    9.3176   55.4796   18.7065 H   0  0  0  0  0  0
    9.1897   56.2165   17.1153 H   0  0  0  0  0  0
    9.1231   57.2252   18.5538 H   0  0  0  0  0  0
    7.5281   55.3739   22.3579 H   0  0  0  0  0  0
    6.4702   55.2630   24.5057 H   0  0  0  0  0  0
    3.9325   53.9719   20.4835 H   0  0  0  0  0  0
    6.3754   53.2983   25.4329 H   0  0  0  0  0  0
    7.8748   53.3472   27.3023 H   0  0  0  0  0  0
    7.1042   54.0966   29.4814 H   0  0  0  0  0  0
    4.7378   54.7786   29.8184 H   0  0  0  0  0  0
    0.3722   52.1065   24.2208 H   0  0  0  0  0  0
    0.8375   52.1083   22.5581 H   0  0  0  0  0  0
    4.9105   55.1088   17.5230 H   0  0  0  0  0  0
    2.5453   55.3046   16.9379 H   0  0  0  0  0  0
    3.1019   59.4440   15.9713 H   0  0  0  0  0  0
    5.4848   59.2691   16.5558 H   0  0  0  0  0  0
  1  2  1  0  0  0
  1 36  1  0  0  0
  1 37  1  0  0  0
  1 38  1  0  0  0
  2  3  1  0  0  0
  2  4  1  0  0  0
  2 28  1  0  0  0
  4  5  2  0  0  0
  4  6  1  0  0  0
  6  7  1  0  0  0
  7 12  2  0  0  0
  7  8  1  0  0  0
  8  9  2  0  0  0
  8 39  1  0  0  0
  9 10  1  0  0  0
  9 40  1  0  0  0
 10 16  1  0  0  0
 10 11  2  0  0  0
 11 12  1  0  0  0
 11 13  1  0  0  0
 12 41  1  0  0  0
 13 14  1  0  0  0
 14 15  2  0  0  0
 14 27  1  0  0  0
 15 16  1  0  0  0
 15 25  1  0  0  0
 16 17  1  0  0  0
 16 18  1  0  0  0
 18 23  2  0  0  0
 18 19  1  0  0  0
 19 20  2  0  0  0
 19 42  1  0  0  0
 20 21  1  0  0  0
 20 43  1  0  0  0
 21 22  2  0  0  0
 21 44  1  0  0  0
 22 23  1  0  0  0
 22 45  1  0  0  0
 23 24  1  0  0  0
 25 26  3  0  0  0
 27 46  1  0  0  0
 27 47  1  0  0  0
 28 29  1  0  0  0
 29 34  2  0  0  0
 29 30  1  0  0  0
 30 31  2  0  0  0
 30 48  1  0  0  0
 31 32  1  0  0  0
 31 49  1  0  0  0
 32 33  2  0  0  0
 32 35  1  0  0  0
 33 34  1  0  0  0
 33 50  1  0  0  0
 34 51  1  0  0  0
M  END
> <i_i_glide_confnum>
5

> <i_i_glide_lignum>
4343

> <i_i_glide_posenum>
169

> <i_i_glide_rotatable_bonds>
7

> <i_m_Source_File_Index>
4048

> <b_m_subgroup_collapsed>
0

> <r_i_docking_score>
-5.42659

> <r_i_glide_ecoul>
-5.16161

> <r_i_glide_eff_state_penalty>
0

> <r_i_glide_einternal>
9.58825

> <r_i_glide_emodel>
-49.3308

> <r_i_glide_energy>
-43.0957

> <r_i_glide_erotb>
0.4665

> <r_i_glide_esite>
-0.0173472

> <r_i_glide_evdw>
-37.9341

> <r_i_glide_gscore>
-5.42659

> <r_i_glide_hbond>
-0.32

> <r_i_glide_ligand_efficiency>
-0.164442

> <r_i_glide_ligand_efficiency_ln>
-1.20685

> <r_i_glide_ligand_efficiency_sa>
-0.527454

> <r_i_glide_lipo>
-3.44944

> <r_i_glide_metal>
0

> <r_i_glide_rewards>
0.564643

> <s_i_glide_gridfile>
wee1_glide-grid

> <s_m_Source_File>
wee1_decoys_glide_SP.sdf

> <s_m_Source_Path>
/Users/zhangxujun/Desktop

> <s_m_entry_id>
4323

> <s_m_entry_name>
wee1_decoys_glide_SP.4048

> <s_m_subgroup_title>
wee1_decoys_glide_SP

> <s_m_subgroupid>
wee1_decoys_glide_SP


$$$$
