ZINC12533041_711
                    3D
 Schrodinger Suite 2024-2.
 62 65  0  0  1  0            999 V2000
    5.1611   54.2205   28.6893 C   0  0  0  0  0  0
    5.3733   54.3727   27.1947 C   0  0  0  0  0  0
    6.6621   54.3615   26.6645 C   0  0  0  0  0  0
    6.8483   54.4982   25.2893 C   0  0  0  0  0  0
    5.7580   54.6393   24.4252 C   0  0  0  0  0  0
    4.4749   54.7018   24.9845 C   0  0  0  0  0  0
    4.2790   54.5541   26.3530 C   0  0  0  0  0  0
    5.9734   54.7527   22.9337 C   0  0  0  0  0  0
    5.0740   54.3413   21.9221 C   0  0  0  0  0  0
    5.7553   54.8231   20.3855 S   0  0  0  0  0  0
    7.1603   55.4149   21.1885 C   0  0  0  0  0  0
    7.1008   55.2983   22.4883 N   0  0  0  0  0  0
    8.3546   55.9818   20.4566 C   0  0  0  0  0  0
    3.7090   53.6624   21.9941 C   0  0  0  0  0  0
    3.5662   52.3549   21.2104 C   0  0  0  0  0  0
    4.5122   51.5686   21.1681 O   0  0  0  0  0  0
    2.3330   52.1331   20.7058 N   0  0  0  0  0  0
    1.8019   50.9673   20.1255 C   0  0  0  0  0  0
    0.4100   50.9026   20.0249 C   0  0  0  0  0  0
   -0.2058   49.7580   19.5229 C   0  0  0  0  0  0
    0.5696   48.6729   19.1049 C   0  0  0  0  0  0
    1.9619   48.7416   19.1863 C   0  0  0  0  0  0
    2.5743   49.8892   19.6779 C   0  0  0  0  0  0
   -0.2260   47.1694   18.4969 S   0  0  0  0  0  0
   -0.0942   46.2795   19.6549 O   0  0  0  0  0  0
   -1.6055   47.5603   18.1824 O   0  0  0  0  0  0
    0.8158   46.7815   17.1209 N   0  0  0  0  0  0
    0.9669   47.5913   16.1521 C   0  0  0  0  0  0
    0.2534   48.9214   15.8542 C   0  0  0  0  0  0
    1.1585   50.1457   15.5977 C   0  0  0  0  0  0
    1.7125   50.2507   14.1673 C   0  0  0  0  0  0
    2.6617   49.1206   13.7327 C   0  0  0  0  0  0
    2.0944   47.6928   13.8281 C   0  0  0  0  0  0
    1.8897   47.2198   15.1932 N   0  0  0  0  0  0
    4.1845   54.5986   28.9984 H   0  0  0  0  0  0
    5.9047   54.7905   29.2441 H   0  0  0  0  0  0
    5.2437   53.1725   28.9772 H   0  0  0  0  0  0
    7.5134   54.2378   27.3176 H   0  0  0  0  0  0
    7.8495   54.4943   24.8848 H   0  0  0  0  0  0
    3.6107   54.9014   24.3724 H   0  0  0  0  0  0
    3.2775   54.5948   26.7560 H   0  0  0  0  0  0
    8.0674   56.7721   19.7641 H   0  0  0  0  0  0
    9.1034   56.3974   21.1301 H   0  0  0  0  0  0
    8.8606   55.2216   19.8625 H   0  0  0  0  0  0
    3.4545   53.3576   23.0033 H   0  0  0  0  0  0
    2.9392   54.3693   21.6854 H   0  0  0  0  0  0
    1.6723   52.8857   20.8267 H   0  0  0  0  0  0
   -0.2041   51.7260   20.3602 H   0  0  0  0  0  0
   -1.2842   49.7125   19.4707 H   0  0  0  0  0  0
    2.5793   47.9191   18.8526 H   0  0  0  0  0  0
    3.6501   49.9240   19.6844 H   0  0  0  0  0  0
   -0.4384   48.7792   15.0232 H   0  0  0  0  0  0
   -0.4052   49.1896   16.6745 H   0  0  0  0  0  0
    0.5871   51.0507   15.8108 H   0  0  0  0  0  0
    1.9820   50.1594   16.3152 H   0  0  0  0  0  0
    2.2418   51.1999   14.0694 H   0  0  0  0  0  0
    0.8796   50.3083   13.4645 H   0  0  0  0  0  0
    3.5814   49.1780   14.3175 H   0  0  0  0  0  0
    2.9665   49.3044   12.7018 H   0  0  0  0  0  0
    2.7196   46.9956   13.2703 H   0  0  0  0  0  0
    1.1170   47.6692   13.3424 H   0  0  0  0  0  0
    2.3936   46.3753   15.4165 H   0  0  0  0  0  0
  1  2  1  0  0  0
  1 35  1  0  0  0
  1 36  1  0  0  0
  1 37  1  0  0  0
  2  7  2  0  0  0
  2  3  1  0  0  0
  3  4  2  0  0  0
  3 38  1  0  0  0
  4  5  1  0  0  0
  4 39  1  0  0  0
  5  6  2  0  0  0
  5  8  1  0  0  0
  6  7  1  0  0  0
  6 40  1  0  0  0
  7 41  1  0  0  0
  8 12  1  0  0  0
  8  9  2  0  0  0
  9 10  1  0  0  0
  9 14  1  0  0  0
 10 11  1  0  0  0
 11 12  2  0  0  0
 11 13  1  0  0  0
 13 42  1  0  0  0
 13 43  1  0  0  0
 13 44  1  0  0  0
 14 15  1  0  0  0
 14 45  1  0  0  0
 14 46  1  0  0  0
 15 16  2  0  0  0
 15 17  1  0  0  0
 17 18  1  0  0  0
 17 47  1  0  0  0
 18 23  2  0  0  0
 18 19  1  0  0  0
 19 20  2  0  0  0
 19 48  1  0  0  0
 20 21  1  0  0  0
 20 49  1  0  0  0
 21 22  2  0  0  0
 21 24  1  0  0  0
 22 23  1  0  0  0
 22 50  1  0  0  0
 23 51  1  0  0  0
 24 25  2  0  0  0
 24 26  2  0  0  0
 24 27  1  0  0  0
 27 28  2  0  0  0
 28 34  1  0  0  0
 28 29  1  0  0  0
 29 30  1  0  0  0
 29 52  1  0  0  0
 29 53  1  0  0  0
 30 31  1  0  0  0
 30 54  1  0  0  0
 30 55  1  0  0  0
 31 32  1  0  0  0
 31 56  1  0  0  0
 31 57  1  0  0  0
 32 33  1  0  0  0
 32 58  1  0  0  0
 32 59  1  0  0  0
 33 34  1  0  0  0
 33 60  1  0  0  0
 33 61  1  0  0  0
 34 62  1  0  0  0
M  END
> <i_i_glide_confnum>
156

> <i_i_glide_lignum>
712

> <i_i_glide_posenum>
194

> <i_i_glide_rotatable_bonds>
7

> <i_m_Source_File_Index>
2628

> <b_m_subgroup_collapsed>
0

> <r_i_docking_score>
-4.55427

> <r_i_glide_ecoul>
-3.4549

> <r_i_glide_eff_state_penalty>
0

> <r_i_glide_einternal>
11.1635

> <r_i_glide_emodel>
-50.7544

> <r_i_glide_energy>
-44.6176

> <r_i_glide_erotb>
0.578761

> <r_i_glide_esite>
-0.109633

> <r_i_glide_evdw>
-41.1627

> <r_i_glide_gscore>
-4.55427

> <r_i_glide_hbond>
0

> <r_i_glide_ligand_efficiency>
-0.133949

> <r_i_glide_ligand_efficiency_ln>
-1.00617

> <r_i_glide_ligand_efficiency_sa>
-0.433943

> <r_i_glide_lipo>
-2.82856

> <r_i_glide_metal>
0

> <r_i_glide_rewards>
0.381529

> <s_i_glide_gridfile>
wee1_glide-grid

> <s_m_Source_File>
wee1_decoys_glide_SP.sdf

> <s_m_Source_Path>
/Users/zhangxujun/Desktop

> <s_m_entry_id>
2903

> <s_m_entry_name>
wee1_decoys_glide_SP.2628

> <s_m_subgroup_title>
wee1_decoys_glide_SP

> <s_m_subgroupid>
wee1_decoys_glide_SP


$$$$
