ZINC04606677_1366
                    3D
 Schrodinger Suite 2024-2.
 40 42  0  0  1  0            999 V2000
    6.1681   54.9751   19.6569 C   0  0  0  0  0  0
    7.1503   55.4971   20.4894 C   0  0  0  0  0  0
    7.0687   55.2969   21.8641 C   0  0  0  0  0  0
    6.0028   54.5799   22.4403 C   0  0  0  0  0  0
    4.9910   54.0609   21.5857 C   0  0  0  0  0  0
    5.1027   54.2638   20.2012 C   0  0  0  0  0  0
    3.8111   53.3289   22.0630 C   0  0  0  0  0  0
    3.4778   52.1720   21.6431 N   0  0  0  0  0  0
    2.3256   51.7581   22.2056 N   0  0  0  0  0  0
    1.8123   50.5177   22.0912 C   0  0  0  0  0  0
    2.3064   49.6222   21.4057 O   0  0  0  0  0  0
    0.5181   50.2326   22.8805 C   0  0  0  0  0  0
    0.5298   50.6938   24.3714 C   0  0  2  0  0  0
    1.4217   50.3088   24.8646 H   0  0  0  0  0  0
   -0.6591   50.1031   25.1859 C   0  0  0  0  0  0
   -1.5071   49.3337   24.7388 O   0  0  0  0  0  0
   -0.6475   50.4967   26.4812 N   0  0  0  0  0  0
    0.1430   51.4853   27.0947 C   0  0  0  0  0  0
    0.2405   51.5261   28.4873 C   0  0  0  0  0  0
    1.0535   52.4727   29.1121 C   0  0  0  0  0  0
    1.7707   53.3916   28.3456 C   0  0  0  0  0  0
    1.6507   53.3826   26.9559 C   0  0  0  0  0  0
    0.8219   52.4496   26.3322 C   0  0  0  0  0  0
    0.5390   52.5156   24.5887 S   0  0  0  0  0  0
    6.0031   54.4042   23.9202 N   0  3  0  0  0  0
    7.0882   54.3301   24.4923 O   0  0  0  0  0  0
    4.9383   54.3773   24.5294 O   0  5  0  0  0  0
    6.2309   55.1177   18.5878 H   0  0  0  0  0  0
    7.9845   56.0402   20.0683 H   0  0  0  0  0  0
    7.8573   55.7004   22.4836 H   0  0  0  0  0  0
    4.3509   53.8716   19.5284 H   0  0  0  0  0  0
    3.2317   53.8817   22.8024 H   0  0  0  0  0  0
    1.8752   52.4326   22.8068 H   0  0  0  0  0  0
    0.3742   49.1510   22.8393 H   0  0  0  0  0  0
   -0.3149   50.6847   22.3414 H   0  0  0  0  0  0
   -1.2956   49.9709   27.0599 H   0  0  0  0  0  0
   -0.3096   50.8224   29.0936 H   0  0  0  0  0  0
    1.1258   52.4899   30.1901 H   0  0  0  0  0  0
    2.4044   54.1218   28.8269 H   0  0  0  0  0  0
    2.1848   54.1106   26.3633 H   0  0  0  0  0  0
  1  6  2  0  0  0
  1  2  1  0  0  0
  1 28  1  0  0  0
  2  3  2  0  0  0
  2 29  1  0  0  0
  3  4  1  0  0  0
  3 30  1  0  0  0
  4  5  2  0  0  0
  4 25  1  0  0  0
  5  6  1  0  0  0
  5  7  1  0  0  0
  6 31  1  0  0  0
  7  8  2  0  0  0
  7 32  1  0  0  0
  8  9  1  0  0  0
  9 10  1  0  0  0
  9 33  1  0  0  0
 10 11  2  0  0  0
 10 12  1  0  0  0
 12 13  1  0  0  0
 12 34  1  0  0  0
 12 35  1  0  0  0
 13 14  1  0  0  0
 13 24  1  0  0  0
 13 15  1  0  0  0
 15 16  2  0  0  0
 15 17  1  0  0  0
 17 18  1  0  0  0
 17 36  1  0  0  0
 18 23  2  0  0  0
 18 19  1  0  0  0
 19 20  2  0  0  0
 19 37  1  0  0  0
 20 21  1  0  0  0
 20 38  1  0  0  0
 21 22  2  0  0  0
 21 39  1  0  0  0
 22 23  1  0  0  0
 22 40  1  0  0  0
 23 24  1  0  0  0
 25 26  2  0  0  0
 25 27  1  0  0  0
M  CHG  2  25   1  27  -1
M  END
> <i_i_glide_confnum>
8

> <i_i_glide_lignum>
1367

> <i_i_glide_posenum>
204

> <i_i_glide_rotatable_bonds>
6

> <i_m_Source_File_Index>
577

> <b_m_subgroup_collapsed>
0

> <r_i_docking_score>
-5.13692

> <r_i_glide_ecoul>
-2.82042

> <r_i_glide_eff_state_penalty>
0

> <r_i_glide_einternal>
2.42912

> <r_i_glide_emodel>
-52.4313

> <r_i_glide_energy>
-39.1302

> <r_i_glide_erotb>
0.5625

> <r_i_glide_esite>
-0.115187

> <r_i_glide_evdw>
-36.3098

> <r_i_glide_gscore>
-5.13692

> <r_i_glide_hbond>
-0.119509

> <r_i_glide_ligand_efficiency>
-0.197574

> <r_i_glide_ligand_efficiency_ln>
-1.20639

> <r_i_glide_ligand_efficiency_sa>
-0.585311

> <r_i_glide_lipo>
-1.51161

> <r_i_glide_metal>
0

> <r_i_glide_rewards>
-1.71456

> <s_i_glide_gridfile>
wee1_glide-grid

> <s_m_Source_File>
wee1_decoys_glide_SP.sdf

> <s_m_Source_Path>
/Users/zhangxujun/Desktop

> <s_m_entry_id>
852

> <s_m_entry_name>
wee1_decoys_glide_SP.577

> <s_m_subgroup_title>
wee1_decoys_glide_SP

> <s_m_subgroupid>
wee1_decoys_glide_SP


$$$$
