ZINC09265888_2083
                    3D
 Schrodinger Suite 2024-2.
 56 59  0  0  1  0            999 V2000
    3.3794   53.4455   22.3395 C   0  0  0  0  0  0
    4.7279   54.0712   21.9937 C   0  0  0  0  0  0
    5.0395   54.2681   20.6434 C   0  0  0  0  0  0
    6.2223   54.9040   20.2734 C   0  0  0  0  0  0
    7.1059   55.3480   21.2529 C   0  0  0  0  0  0
    6.8098   55.1482   22.5991 C   0  0  0  0  0  0
    5.6319   54.4965   22.9899 C   0  0  0  0  0  0
    5.2636   54.3136   24.3374 N   0  0  0  0  0  0
    5.8405   54.7297   25.4912 C   0  0  0  0  0  0
    6.9755   55.1975   25.5904 O   0  0  0  0  0  0
    4.9712   54.6045   26.7682 C   0  0  0  0  0  0
    3.5263   55.0734   26.4366 C   0  0  0  0  0  0
    2.6492   54.9632   27.6945 C   0  0  0  0  0  0
    2.6123   53.5571   28.1217 N   0  0  0  0  0  0
    3.9218   52.9301   28.4330 C   0  0  0  0  0  0
    4.9454   53.1412   27.2818 C   0  0  0  0  0  0
    1.0609   52.7181   28.3620 S   0  0  0  0  0  0
    1.2739   51.6955   29.3881 O   0  0  0  0  0  0
    0.0016   53.7235   28.4947 O   0  0  0  0  0  0
    0.6992   51.8598   26.8170 C   0  0  0  0  0  0
    0.9121   52.4946   25.5905 C   0  0  0  0  0  0
    0.6849   51.8169   24.3929 C   0  0  0  0  0  0
    0.1944   50.5121   24.4119 C   0  0  0  0  0  0
   -0.1030   49.8899   25.6329 C   0  0  0  0  0  0
    0.1547   50.5696   26.8271 C   0  0  0  0  0  0
   -0.6628   48.6016   25.6815 N   0  0  0  0  0  0
   -1.2571   47.8804   24.7030 C   0  0  0  0  0  0
   -1.6860   46.7403   24.8816 O   0  0  0  0  0  0
   -1.5023   48.6828   23.3963 C   0  0  2  0  0  0
   -1.6825   47.9608   22.5996 H   0  0  0  0  0  0
    0.0053   49.6007   22.9095 S   0  0  0  0  0  0
   -2.7244   49.6166   23.5606 C   0  0  0  0  0  0
    6.5910   55.1479   18.6064 Cl  0  0  0  0  0  0
    3.5084   52.4979   22.8591 H   0  0  0  0  0  0
    2.8164   54.1095   22.9962 H   0  0  0  0  0  0
    2.7664   53.2695   21.4540 H   0  0  0  0  0  0
    4.3543   53.9437   19.8729 H   0  0  0  0  0  0
    8.0249   55.8427   20.9740 H   0  0  0  0  0  0
    7.5044   55.5280   23.3253 H   0  0  0  0  0  0
    4.3738   53.8552   24.4469 H   0  0  0  0  0  0
    5.4041   55.2966   27.4935 H   0  0  0  0  0  0
    3.5065   56.0967   26.0817 H   0  0  0  0  0  0
    3.0682   54.4313   25.6905 H   0  0  0  0  0  0
    3.0369   55.5678   28.5157 H   0  0  0  0  0  0
    1.6271   55.2939   27.5247 H   0  0  0  0  0  0
    4.2951   53.3857   29.3510 H   0  0  0  0  0  0
    3.7699   51.8723   28.6493 H   0  0  0  0  0  0
    4.6002   52.4970   26.4825 H   0  0  0  0  0  0
    5.9235   52.8269   27.6504 H   0  0  0  0  0  0
    1.2456   53.5155   25.5576 H   0  0  0  0  0  0
    0.8870   52.3021   23.4495 H   0  0  0  0  0  0
   -0.0948   50.0981   27.7655 H   0  0  0  0  0  0
   -0.6786   48.1300   26.5840 H   0  0  0  0  0  0
   -3.6252   49.0518   23.8055 H   0  0  0  0  0  0
   -2.5872   50.3633   24.3437 H   0  0  0  0  0  0
   -2.9256   50.1535   22.6333 H   0  0  0  0  0  0
  1  2  1  0  0  0
  1 34  1  0  0  0
  1 35  1  0  0  0
  1 36  1  0  0  0
  2  7  2  0  0  0
  2  3  1  0  0  0
  3  4  2  0  0  0
  3 37  1  0  0  0
  4  5  1  0  0  0
  4 33  1  0  0  0
  5  6  2  0  0  0
  5 38  1  0  0  0
  6  7  1  0  0  0
  6 39  1  0  0  0
  7  8  1  0  0  0
  8  9  1  0  0  0
  8 40  1  0  0  0
  9 10  2  0  0  0
  9 11  1  0  0  0
 11 16  1  0  0  0
 11 12  1  0  0  0
 11 41  1  0  0  0
 12 13  1  0  0  0
 12 42  1  0  0  0
 12 43  1  0  0  0
 13 14  1  0  0  0
 13 44  1  0  0  0
 13 45  1  0  0  0
 14 15  1  0  0  0
 14 17  1  0  0  0
 15 16  1  0  0  0
 15 46  1  0  0  0
 15 47  1  0  0  0
 16 48  1  0  0  0
 16 49  1  0  0  0
 17 18  2  0  0  0
 17 19  2  0  0  0
 17 20  1  0  0  0
 20 25  2  0  0  0
 20 21  1  0  0  0
 21 22  2  0  0  0
 21 50  1  0  0  0
 22 23  1  0  0  0
 22 51  1  0  0  0
 23 31  1  0  0  0
 23 24  2  0  0  0
 24 25  1  0  0  0
 24 26  1  0  0  0
 25 52  1  0  0  0
 26 27  1  0  0  0
 26 53  1  0  0  0
 27 28  2  0  0  0
 27 29  1  0  0  0
 29 30  1  0  0  0
 29 31  1  0  0  0
 29 32  1  0  0  0
 32 54  1  0  0  0
 32 55  1  0  0  0
 32 56  1  0  0  0
M  END
> <i_i_glide_confnum>
6

> <i_i_glide_lignum>
2084

> <i_i_glide_posenum>
7

> <i_i_glide_rotatable_bonds>
5

> <i_m_Source_File_Index>
3269

> <b_m_subgroup_collapsed>
0

> <r_i_docking_score>
-6.33422

> <r_i_glide_ecoul>
-9.81894

> <r_i_glide_eff_state_penalty>
0

> <r_i_glide_einternal>
8.15035

> <r_i_glide_emodel>
-65.2593

> <r_i_glide_energy>
-50.8364

> <r_i_glide_erotb>
0.417424

> <r_i_glide_esite>
-0.162106

> <r_i_glide_evdw>
-41.0174

> <r_i_glide_gscore>
-6.33422

> <r_i_glide_hbond>
-0.456124

> <r_i_glide_ligand_efficiency>
-0.197944

> <r_i_glide_ligand_efficiency_ln>
-1.4184

> <r_i_glide_ligand_efficiency_sa>
-0.628434

> <r_i_glide_lipo>
-2.1584

> <r_i_glide_metal>
0

> <r_i_glide_rewards>
-0.451303

> <s_i_glide_gridfile>
wee1_glide-grid

> <s_m_Source_File>
wee1_decoys_glide_SP.sdf

> <s_m_Source_Path>
/Users/zhangxujun/Desktop

> <s_m_entry_id>
3544

> <s_m_entry_name>
wee1_decoys_glide_SP.3269

> <s_m_subgroup_title>
wee1_decoys_glide_SP

> <s_m_subgroupid>
wee1_decoys_glide_SP


$$$$
