ZINC39761515_2421
                    3D
 Schrodinger Suite 2024-2.
 45 48  0  0  1  0            999 V2000
   10.9489   55.4594   16.6943 C   0  0  0  0  0  0
   10.4462   54.3387   17.3519 C   0  0  0  0  0  0
    9.5044   54.5021   18.3645 C   0  0  0  0  0  0
    9.0680   55.7758   18.7205 C   0  0  0  0  0  0
    9.5662   56.8959   18.0468 C   0  0  0  0  0  0
   10.5117   56.7377   17.0361 C   0  0  0  0  0  0
    8.0286   55.9422   19.7697 C   0  0  0  0  0  0
    6.9790   56.7165   19.6797 N   0  0  0  0  0  0
    6.3044   56.5707   20.8762 N   0  0  0  0  0  0
    6.9693   55.7026   21.5864 C   0  0  0  0  0  0
    8.1155   55.2967   20.9748 O   0  0  0  0  0  0
    6.7045   55.4628   22.9171 N   0  0  0  0  0  0
    6.9033   54.3645   23.6649 C   0  0  0  0  0  0
    7.5044   53.3636   23.2835 O   0  0  0  0  0  0
    6.3101   54.4430   25.0639 C   0  0  0  0  0  0
    5.2550   55.2956   25.3464 C   0  0  0  0  0  0
    4.4483   55.0963   26.4646 C   0  0  0  0  0  0
    4.8407   54.1880   27.4473 C   0  0  0  0  0  0
    6.0243   53.4864   27.2884 C   0  0  0  0  0  0
    6.7110   53.5941   26.0865 C   0  0  0  0  0  0
    4.1593   54.0237   28.6519 N   0  0  0  0  0  0
    2.8470   53.8843   28.9341 C   0  0  0  0  0  0
    2.5074   54.1665   30.0817 O   0  0  0  0  0  0
    1.8183   53.2700   27.9856 C   0  0  0  0  0  0
    0.5292   53.0007   28.4830 C   0  0  0  0  0  0
   -0.4451   52.4051   27.6860 C   0  0  0  0  0  0
   -0.1588   52.0959   26.3625 C   0  0  0  0  0  0
    1.1045   52.3498   25.8442 C   0  0  0  0  0  0
    2.0904   52.9089   26.6541 C   0  0  0  0  0  0
   -1.4988   51.3207   25.2563 Br  0  0  0  0  0  0
   11.6815   55.3351   15.9103 H   0  0  0  0  0  0
   10.7846   53.3485   17.0829 H   0  0  0  0  0  0
    9.1050   53.6446   18.8763 H   0  0  0  0  0  0
    9.2233   57.8871   18.3068 H   0  0  0  0  0  0
   10.9018   57.6013   16.5180 H   0  0  0  0  0  0
    6.1536   56.1812   23.3509 H   0  0  0  0  0  0
    5.0999   56.0967   24.6650 H   0  0  0  0  0  0
    3.5550   55.6866   26.5871 H   0  0  0  0  0  0
    6.3632   52.7866   28.0389 H   0  0  0  0  0  0
    7.5044   52.8968   25.9166 H   0  0  0  0  0  0
    4.7489   54.1175   29.4643 H   0  0  0  0  0  0
    0.2700   53.2297   29.5077 H   0  0  0  0  0  0
   -1.4186   52.1761   28.0930 H   0  0  0  0  0  0
    1.3305   52.0870   24.8212 H   0  0  0  0  0  0
    3.0604   53.0129   26.2031 H   0  0  0  0  0  0
  1  6  2  0  0  0
  1  2  1  0  0  0
  1 31  1  0  0  0
  2  3  2  0  0  0
  2 32  1  0  0  0
  3  4  1  0  0  0
  3 33  1  0  0  0
  4  5  2  0  0  0
  4  7  1  0  0  0
  5  6  1  0  0  0
  5 34  1  0  0  0
  6 35  1  0  0  0
  7 11  1  0  0  0
  7  8  2  0  0  0
  8  9  1  0  0  0
  9 10  2  0  0  0
 10 11  1  0  0  0
 10 12  1  0  0  0
 12 13  1  0  0  0
 12 36  1  0  0  0
 13 14  2  0  0  0
 13 15  1  0  0  0
 15 20  2  0  0  0
 15 16  1  0  0  0
 16 17  2  0  0  0
 16 37  1  0  0  0
 17 18  1  0  0  0
 17 38  1  0  0  0
 18 19  2  0  0  0
 18 21  1  0  0  0
 19 20  1  0  0  0
 19 39  1  0  0  0
 20 40  1  0  0  0
 21 22  1  0  0  0
 21 41  1  0  0  0
 22 23  2  0  0  0
 22 24  1  0  0  0
 24 29  2  0  0  0
 24 25  1  0  0  0
 25 26  2  0  0  0
 25 42  1  0  0  0
 26 27  1  0  0  0
 26 43  1  0  0  0
 27 28  2  0  0  0
 27 30  1  0  0  0
 28 29  1  0  0  0
 28 44  1  0  0  0
 29 45  1  0  0  0
M  END
> <i_i_glide_confnum>
82

> <i_i_glide_lignum>
2422

> <i_i_glide_posenum>
301

> <i_i_glide_rotatable_bonds>
7

> <i_m_Source_File_Index>
2305

> <b_m_subgroup_collapsed>
0

> <r_i_docking_score>
-2.62266

> <r_i_glide_ecoul>
-2.60182

> <r_i_glide_eff_state_penalty>
0

> <r_i_glide_einternal>
10.4517

> <r_i_glide_emodel>
-24.6085

> <r_i_glide_energy>
-31.1057

> <r_i_glide_erotb>
0.657189

> <r_i_glide_esite>
-0.0448436

> <r_i_glide_evdw>
-28.5039

> <r_i_glide_gscore>
-2.62266

> <r_i_glide_hbond>
-0.32

> <r_i_glide_ligand_efficiency>
-0.0874219

> <r_i_glide_ligand_efficiency_ln>
-0.595896

> <r_i_glide_ligand_efficiency_sa>
-0.27164

> <r_i_glide_lipo>
-2.50771

> <r_i_glide_metal>
0

> <r_i_glide_rewards>
1.40818

> <s_i_glide_gridfile>
wee1_glide-grid

> <s_m_Source_File>
wee1_decoys_glide_SP.sdf

> <s_m_Source_Path>
/Users/zhangxujun/Desktop

> <s_m_entry_id>
2580

> <s_m_entry_name>
wee1_decoys_glide_SP.2305

> <s_m_subgroup_title>
wee1_decoys_glide_SP

> <s_m_subgroupid>
wee1_decoys_glide_SP


$$$$
