ZINC39666234_787
                    3D
 Schrodinger Suite 2024-2.
 72 75  0  0  1  0            999 V2000
    5.9566   54.8406   26.8845 C   0  0  0  0  0  0
    5.7612   54.7201   25.3826 C   0  0  0  0  0  0
    6.7645   55.1355   24.5110 C   0  0  0  0  0  0
    6.6086   55.0022   23.1362 C   0  0  0  0  0  0
    5.4276   54.4884   22.6089 C   0  0  0  0  0  0
    4.4048   54.0977   23.4875 C   0  0  0  0  0  0
    4.5724   54.2067   24.8666 C   0  0  0  0  0  0
    5.3442   54.4311   21.2292 O   0  0  0  0  0  0
    4.3727   53.5909   20.6005 C   0  0  1  0  0  0
    3.3780   53.7814   21.0042 H   0  0  0  0  0  0
    4.3074   54.0015   19.1221 C   0  0  0  0  0  0
    4.7853   52.1050   20.7795 C   0  0  0  0  0  0
    3.7201   51.1211   20.5900 N   0  0  0  0  0  0
    2.6795   50.9512   21.4234 C   0  0  0  0  0  0
    2.4796   51.7058   22.3748 O   0  0  0  0  0  0
    1.7394   49.7422   21.1903 C   0  0  1  0  0  0
    2.1834   48.9162   21.7507 H   0  0  0  0  0  0
    0.4053   50.0363   21.9000 C   0  0  0  0  0  0
   -0.4995   49.0594   21.2989 N   0  0  0  0  0  0
    0.0299   48.5328   20.0395 C   0  0  0  0  0  0
    1.3322   49.3319   19.7470 C   0  0  0  0  0  0
    2.4189   48.4952   19.0449 C   0  0  0  0  0  0
    1.8874   47.8700   17.7406 C   0  0  0  0  0  0
    1.5044   49.0332   16.7993 N   0  3  0  0  0  0
    0.5404   50.0829   17.4077 C   0  0  0  0  0  0
    1.0771   50.5358   18.7877 C   0  0  0  0  0  0
   -1.6037   48.5460   21.8980 C   0  0  0  0  0  0
   -2.2855   47.6526   21.3924 O   0  0  0  0  0  0
   -2.0139   49.1282   23.2318 C   0  0  0  0  0  0
   -1.2381   48.8455   24.3658 C   0  0  0  0  0  0
   -1.5441   49.4210   25.5960 C   0  0  0  0  0  0
   -2.6437   50.2686   25.7233 C   0  0  0  0  0  0
   -3.4380   50.5353   24.6066 C   0  0  0  0  0  0
   -3.1340   49.9782   23.3597 C   0  0  0  0  0  0
   -4.0375   50.3162   22.1792 C   0  0  0  0  0  0
   -2.9802   50.8694   27.0749 C   0  0  0  0  0  0
    6.3417   53.9067   27.2981 H   0  0  0  0  0  0
    5.0137   55.0712   27.3819 H   0  0  0  0  0  0
    6.6476   55.6469   27.1357 H   0  0  0  0  0  0
    7.6868   55.5506   24.8818 H   0  0  0  0  0  0
    7.4052   55.3129   22.4764 H   0  0  0  0  0  0
    3.4599   53.7391   23.1244 H   0  0  0  0  0  0
    3.7779   53.8951   25.5282 H   0  0  0  0  0  0
    3.5786   53.3987   18.5788 H   0  0  0  0  0  0
    4.0115   55.0468   19.0208 H   0  0  0  0  0  0
    5.2740   53.8798   18.6317 H   0  0  0  0  0  0
    5.5892   51.8700   20.0818 H   0  0  0  0  0  0
    5.2251   51.9445   21.7664 H   0  0  0  0  0  0
    3.8018   50.5435   19.7653 H   0  0  0  0  0  0
    0.5433   49.9551   22.9783 H   0  0  0  0  0  0
    0.0555   51.0303   21.6147 H   0  0  0  0  0  0
   -0.6800   48.4733   19.2158 H   0  0  0  0  0  0
    0.3268   47.5052   20.2579 H   0  0  0  0  0  0
    3.3401   49.0542   18.8815 H   0  0  0  0  0  0
    2.7032   47.6926   19.7158 H   0  0  0  0  0  0
    2.6612   47.3019   17.2177 H   0  0  0  0  0  0
    1.0027   47.2439   17.8665 H   0  0  0  0  0  0
    2.4072   49.4646   16.5733 H   0  0  0  0  0  0
    0.4993   50.9072   16.6936 H   0  0  0  0  0  0
   -0.4429   49.6153   17.4501 H   0  0  0  0  0  0
    0.3377   51.2049   19.2300 H   0  0  0  0  0  0
    1.9673   51.1508   18.6502 H   0  0  0  0  0  0
   -0.3789   48.1917   24.3001 H   0  0  0  0  0  0
   -0.9257   49.2052   26.4571 H   0  0  0  0  0  0
   -4.2944   51.1857   24.7112 H   0  0  0  0  0  0
   -4.9101   50.8955   22.4812 H   0  0  0  0  0  0
   -3.4849   50.8809   21.4284 H   0  0  0  0  0  0
   -4.4017   49.4036   21.7072 H   0  0  0  0  0  0
   -2.2620   51.6454   27.3375 H   0  0  0  0  0  0
   -3.9884   51.2840   27.1013 H   0  0  0  0  0  0
   -2.9274   50.0984   27.8456 H   0  0  0  0  0  0
    1.1452   48.6756   15.9255 H   0  0  0  0  0  0
  1  2  1  0  0  0
  1 37  1  0  0  0
  1 38  1  0  0  0
  1 39  1  0  0  0
  2  7  2  0  0  0
  2  3  1  0  0  0
  3  4  2  0  0  0
  3 40  1  0  0  0
  4  5  1  0  0  0
  4 41  1  0  0  0
  5  6  2  0  0  0
  5  8  1  0  0  0
  6  7  1  0  0  0
  6 42  1  0  0  0
  7 43  1  0  0  0
  8  9  1  0  0  0
  9 10  1  0  0  0
  9 11  1  0  0  0
  9 12  1  0  0  0
 11 44  1  0  0  0
 11 45  1  0  0  0
 11 46  1  0  0  0
 12 13  1  0  0  0
 12 47  1  0  0  0
 12 48  1  0  0  0
 13 14  1  0  0  0
 13 49  1  0  0  0
 14 15  2  0  0  0
 14 16  1  0  0  0
 16 17  1  0  0  0
 16 21  1  0  0  0
 16 18  1  0  0  0
 18 19  1  0  0  0
 18 50  1  0  0  0
 18 51  1  0  0  0
 19 20  1  0  0  0
 19 27  1  0  0  0
 20 21  1  0  0  0
 20 52  1  0  0  0
 20 53  1  0  0  0
 21 26  1  0  0  0
 21 22  1  0  0  0
 22 23  1  0  0  0
 22 54  1  0  0  0
 22 55  1  0  0  0
 23 24  1  0  0  0
 23 56  1  0  0  0
 23 57  1  0  0  0
 24 25  1  0  0  0
 24 58  1  0  0  0
 24 72  1  0  0  0
 25 26  1  0  0  0
 25 59  1  0  0  0
 25 60  1  0  0  0
 26 61  1  0  0  0
 26 62  1  0  0  0
 27 28  2  0  0  0
 27 29  1  0  0  0
 29 34  2  0  0  0
 29 30  1  0  0  0
 30 31  2  0  0  0
 30 63  1  0  0  0
 31 32  1  0  0  0
 31 64  1  0  0  0
 32 33  2  0  0  0
 32 36  1  0  0  0
 33 34  1  0  0  0
 33 65  1  0  0  0
 34 35  1  0  0  0
 35 66  1  0  0  0
 35 67  1  0  0  0
 35 68  1  0  0  0
 36 69  1  0  0  0
 36 70  1  0  0  0
 36 71  1  0  0  0
M  CHG  1  24   1
M  END
> <i_i_glide_confnum>
139

> <i_i_glide_lignum>
788

> <i_i_glide_posenum>
372

> <i_i_glide_rotatable_bonds>
8

> <i_m_Source_File_Index>
2156

> <b_m_subgroup_collapsed>
0

> <r_i_docking_score>
-4.37778

> <r_i_glide_ecoul>
-5.43371

> <r_i_glide_eff_state_penalty>
0

> <r_i_glide_einternal>
9.22364

> <r_i_glide_emodel>
-49.9276

> <r_i_glide_energy>
-40.3586

> <r_i_glide_erotb>
0.747141

> <r_i_glide_esite>
-0.140966

> <r_i_glide_evdw>
-34.9249

> <r_i_glide_gscore>
-4.37778

> <r_i_glide_hbond>
-0.220784

> <r_i_glide_ligand_efficiency>
-0.128758

> <r_i_glide_ligand_efficiency_ln>
-0.967175

> <r_i_glide_ligand_efficiency_sa>
-0.417127

> <r_i_glide_lipo>
-1.85327

> <r_i_glide_metal>
0

> <r_i_glide_rewards>
-0.3486

> <s_i_glide_gridfile>
wee1_glide-grid

> <s_m_Source_File>
wee1_decoys_glide_SP.sdf

> <s_m_Source_Path>
/Users/zhangxujun/Desktop

> <s_m_entry_id>
2431

> <s_m_entry_name>
wee1_decoys_glide_SP.2156

> <s_m_subgroup_title>
wee1_decoys_glide_SP

> <s_m_subgroupid>
wee1_decoys_glide_SP


$$$$
