ZINC16400311_1949
                    3D
 Schrodinger Suite 2024-2.
 51 54  0  0  1  0            999 V2000
    6.3742   54.7072   27.2452 C   0  0  0  0  0  0
    5.3637   54.8657   26.2986 C   0  0  0  0  0  0
    4.1448   54.2078   26.4688 C   0  0  0  0  0  0
    3.9256   53.4068   27.5948 C   0  0  0  0  0  0
    4.9426   53.2543   28.5265 C   0  0  0  0  0  0
    6.1731   53.8871   28.3529 C   0  0  0  0  0  0
    4.5164   52.2233   29.5218 C   0  0  0  0  0  0
    3.0258   52.0967   29.2818 C   0  0  0  0  0  0
    2.8076   52.6275   27.9474 N   0  0  0  0  0  0
    1.1502   53.0392   27.5316 S   0  0  0  0  0  0
    1.1045   54.4967   27.6817 O   0  0  0  0  0  0
    0.2742   52.1819   28.3388 O   0  0  0  0  0  0
    0.9202   52.5663   25.8058 C   0  0  0  0  0  0
    1.1494   53.4829   24.7808 C   0  0  0  0  0  0
    0.9922   53.1118   23.4521 C   0  0  0  0  0  0
    0.5846   51.8188   23.1287 C   0  0  0  0  0  0
    0.3410   50.8929   24.1569 C   0  0  0  0  0  0
    0.5070   51.2697   25.4897 C   0  0  0  0  0  0
    0.4374   51.5681   21.7531 N   0  0  0  0  0  0
    0.0560   50.4460   21.1092 C   0  0  0  0  0  0
   -0.2157   49.3778   21.6598 O   0  0  0  0  0  0
   -0.0285   50.5682   19.5625 C   0  0  1  0  0  0
    0.3180   51.5606   19.2661 H   0  0  0  0  0  0
    0.9548   49.5064   18.9666 C   0  0  0  0  0  0
    0.7042   49.2633   17.4846 C   0  0  0  0  0  0
   -0.3801   49.6983   16.8184 C   0  0  0  0  0  0
   -1.5318   50.4501   17.4685 C   0  0  0  0  0  0
   -1.4827   50.3136   19.0209 C   0  0  2  0  0  0
   -1.8105   49.3027   19.2754 H   0  0  0  0  0  0
   -2.5223   51.2946   19.6309 C   0  0  0  0  0  0
   -3.2953   50.8428   20.5017 O   0  0  0  0  0  0
    7.3195   55.2101   27.1236 H   0  0  0  0  0  0
    5.5246   55.4898   25.4321 H   0  0  0  0  0  0
    3.3961   54.3338   25.7121 H   0  0  0  0  0  0
    6.9815   53.7454   29.0549 H   0  0  0  0  0  0
    4.7044   52.4963   30.5574 H   0  0  0  0  0  0
    5.0307   51.2967   29.2923 H   0  0  0  0  0  0
    2.4862   52.7196   29.9980 H   0  0  0  0  0  0
    2.6250   51.0878   29.3678 H   0  0  0  0  0  0
    1.4303   54.4966   25.0050 H   0  0  0  0  0  0
    1.1771   53.8439   22.6782 H   0  0  0  0  0  0
    0.0200   49.8836   23.9547 H   0  0  0  0  0  0
    0.3157   50.5487   26.2732 H   0  0  0  0  0  0
    0.6397   52.3596   21.1623 H   0  0  0  0  0  0
    0.8130   48.5278   19.4301 H   0  0  0  0  0  0
    1.9940   49.7809   19.1583 H   0  0  0  0  0  0
    1.4589   48.7302   16.9224 H   0  0  0  0  0  0
   -0.4317   49.4923   15.7591 H   0  0  0  0  0  0
   -1.4674   51.4909   17.1452 H   0  0  0  0  0  0
   -2.4834   50.0732   17.0909 H   0  0  0  0  0  0
   -2.4886   52.4967   19.2817 O   0  5  0  0  0  0
  1  6  2  0  0  0
  1  2  1  0  0  0
  1 32  1  0  0  0
  2  3  2  0  0  0
  2 33  1  0  0  0
  3  4  1  0  0  0
  3 34  1  0  0  0
  4  9  1  0  0  0
  4  5  2  0  0  0
  5  6  1  0  0  0
  5  7  1  0  0  0
  6 35  1  0  0  0
  7  8  1  0  0  0
  7 36  1  0  0  0
  7 37  1  0  0  0
  8  9  1  0  0  0
  8 38  1  0  0  0
  8 39  1  0  0  0
  9 10  1  0  0  0
 10 11  2  0  0  0
 10 12  2  0  0  0
 10 13  1  0  0  0
 13 18  2  0  0  0
 13 14  1  0  0  0
 14 15  2  0  0  0
 14 40  1  0  0  0
 15 16  1  0  0  0
 15 41  1  0  0  0
 16 17  2  0  0  0
 16 19  1  0  0  0
 17 18  1  0  0  0
 17 42  1  0  0  0
 18 43  1  0  0  0
 19 20  1  0  0  0
 19 44  1  0  0  0
 20 21  2  0  0  0
 20 22  1  0  0  0
 22 23  1  0  0  0
 22 28  1  0  0  0
 22 24  1  0  0  0
 24 25  1  0  0  0
 24 45  1  0  0  0
 24 46  1  0  0  0
 25 26  2  0  0  0
 25 47  1  0  0  0
 26 27  1  0  0  0
 26 48  1  0  0  0
 27 28  1  0  0  0
 27 49  1  0  0  0
 27 50  1  0  0  0
 28 29  1  0  0  0
 28 30  1  0  0  0
 30 31  2  0  0  0
 30 51  1  0  0  0
M  CHG  1  51  -1
M  END
> <i_i_glide_confnum>
7

> <i_i_glide_lignum>
1950

> <i_i_glide_posenum>
332

> <i_i_glide_rotatable_bonds>
6

> <i_m_Source_File_Index>
3456

> <b_m_subgroup_collapsed>
0

> <r_i_docking_score>
-4.74534

> <r_i_glide_ecoul>
-4.20503

> <r_i_glide_eff_state_penalty>
0

> <r_i_glide_einternal>
2.42231

> <r_i_glide_emodel>
-47.6037

> <r_i_glide_energy>
-34.9461

> <r_i_glide_erotb>
0.547903

> <r_i_glide_esite>
-0.019654

> <r_i_glide_evdw>
-30.7411

> <r_i_glide_gscore>
-4.74534

> <r_i_glide_hbond>
-0.16

> <r_i_glide_ligand_efficiency>
-0.158178

> <r_i_glide_ligand_efficiency_ln>
-1.07819

> <r_i_glide_ligand_efficiency_sa>
-0.491496

> <r_i_glide_lipo>
-2.48839

> <r_i_glide_metal>
0

> <r_i_glide_rewards>
-0.457386

> <s_i_glide_gridfile>
wee1_glide-grid

> <s_m_Source_File>
wee1_decoys_glide_SP.sdf

> <s_m_Source_Path>
/Users/zhangxujun/Desktop

> <s_m_entry_id>
3731

> <s_m_entry_name>
wee1_decoys_glide_SP.3456

> <s_m_subgroup_title>
wee1_decoys_glide_SP

> <s_m_subgroupid>
wee1_decoys_glide_SP


$$$$
