ZINC38615218_1090
                    3D
 Schrodinger Suite 2024-2.
 68 71  0  0  1  0            999 V2000
    0.6073   52.4735   32.0797 C   0  0  0  0  0  0
    1.8719   52.4962   31.4275 O   0  0  0  0  0  0
    1.8531   52.7548   30.0776 C   0  0  0  0  0  0
    0.8836   52.2316   29.2125 C   0  0  0  0  0  0
    0.9210   52.5403   27.8597 C   0  0  0  0  0  0
    1.9161   53.3792   27.3551 C   0  0  0  0  0  0
    2.8783   53.9049   28.2261 C   0  0  0  0  0  0
    2.8619   53.5698   29.5715 C   0  0  0  0  0  0
    1.9193   53.6272   25.9039 C   0  0  0  0  0  0
    2.9686   53.9239   25.1049 C   0  0  0  0  0  0
    2.7759   54.0760   23.6847 C   0  0  0  0  0  0
    1.6834   54.0977   23.1106 O   0  0  0  0  0  0
    3.9771   54.1718   23.0584 N   0  0  0  0  0  0
    5.1106   54.2337   23.8226 C   0  0  0  0  0  0
    6.7044   54.4324   23.3989 S   0  0  0  0  0  0
    4.6793   54.0967   25.4974 S   0  0  0  0  0  0
    4.0352   54.2737   21.5814 C   0  0  0  0  0  0
    3.9188   52.8782   20.9505 C   0  0  0  0  0  0
    4.6966   51.9733   21.2570 O   0  0  0  0  0  0
    2.9136   52.7348   20.0766 N   0  0  0  0  0  0
    2.5900   51.5040   19.3542 C   0  0  0  0  0  0
    2.0256   50.3220   20.2116 C   0  0  1  0  0  0
    2.8747   49.7289   20.5642 H   0  0  0  0  0  0
    1.1896   50.7748   21.4164 C   0  0  0  0  0  0
    0.0302   51.5284   21.2176 C   0  0  0  0  0  0
   -0.7378   51.9255   22.3073 C   0  0  0  0  0  0
   -0.3460   51.5871   23.6109 C   0  0  0  0  0  0
    0.8062   50.8260   23.8003 C   0  0  0  0  0  0
    1.5750   50.4209   22.7129 C   0  0  0  0  0  0
   -1.0258   51.9713   24.7491 O   0  0  0  0  0  0
   -2.1976   52.7677   24.6225 C   0  0  0  0  0  0
    1.2291   49.3199   19.3161 N   0  3  0  0  0  0
    0.8003   48.0776   20.1404 C   0  0  0  0  0  0
   -0.0696   47.1596   19.2643 C   0  0  0  0  0  0
    0.6725   46.7263   17.9924 C   0  0  0  0  0  0
    1.1901   47.9380   17.2058 C   0  0  0  0  0  0
    2.0495   48.8641   18.0820 C   0  0  0  0  0  0
    0.7044   52.2742   33.1459 H   0  0  0  0  0  0
    0.0966   53.4312   31.9818 H   0  0  0  0  0  0
   -0.0472   51.6981   31.6812 H   0  0  0  0  0  0
    0.1072   51.5676   29.5622 H   0  0  0  0  0  0
    0.1748   52.1055   27.2079 H   0  0  0  0  0  0
    3.6466   54.5789   27.8822 H   0  0  0  0  0  0
    3.6274   53.9612   30.2234 H   0  0  0  0  0  0
    0.9405   53.5537   25.4468 H   0  0  0  0  0  0
    4.9454   54.7541   21.2236 H   0  0  0  0  0  0
    3.2098   54.8965   21.2420 H   0  0  0  0  0  0
    2.3036   53.5299   19.9270 H   0  0  0  0  0  0
    3.4792   51.1924   18.8069 H   0  0  0  0  0  0
    1.8535   51.7922   18.6023 H   0  0  0  0  0  0
   -0.2759   51.8063   20.2211 H   0  0  0  0  0  0
   -1.6280   52.5025   22.1218 H   0  0  0  0  0  0
    1.1053   50.5517   24.8007 H   0  0  0  0  0  0
    2.4667   49.8344   22.8847 H   0  0  0  0  0  0
   -2.5618   53.0334   25.6165 H   0  0  0  0  0  0
   -2.9935   52.2215   24.1132 H   0  0  0  0  0  0
   -1.9994   53.6950   24.0814 H   0  0  0  0  0  0
    1.7184   47.5958   20.4816 H   0  0  0  0  0  0
    0.2133   48.4224   20.9926 H   0  0  0  0  0  0
   -0.3658   46.2807   19.8381 H   0  0  0  0  0  0
   -0.9944   47.6737   18.9984 H   0  0  0  0  0  0
    0.0218   46.1183   17.3613 H   0  0  0  0  0  0
    1.5176   46.0932   18.2625 H   0  0  0  0  0  0
    0.3534   48.5002   16.7885 H   0  0  0  0  0  0
    1.7854   47.6057   16.3547 H   0  0  0  0  0  0
    2.3042   49.7467   17.4963 H   0  0  0  0  0  0
    2.9610   48.3901   18.4585 H   0  0  0  0  0  0
    0.3933   49.7921   18.9988 H   0  0  0  0  0  0
  1  2  1  0  0  0
  1 38  1  0  0  0
  1 39  1  0  0  0
  1 40  1  0  0  0
  2  3  1  0  0  0
  3  8  2  0  0  0
  3  4  1  0  0  0
  4  5  2  0  0  0
  4 41  1  0  0  0
  5  6  1  0  0  0
  5 42  1  0  0  0
  6  7  2  0  0  0
  6  9  1  0  0  0
  7  8  1  0  0  0
  7 43  1  0  0  0
  8 44  1  0  0  0
  9 10  2  0  0  0
  9 45  1  0  0  0
 10 16  1  0  0  0
 10 11  1  0  0  0
 11 12  2  0  0  0
 11 13  1  0  0  0
 13 14  1  0  0  0
 13 17  1  0  0  0
 14 15  2  0  0  0
 14 16  1  0  0  0
 17 18  1  0  0  0
 17 46  1  0  0  0
 17 47  1  0  0  0
 18 19  2  0  0  0
 18 20  1  0  0  0
 20 21  1  0  0  0
 20 48  1  0  0  0
 21 22  1  0  0  0
 21 49  1  0  0  0
 21 50  1  0  0  0
 22 23  1  0  0  0
 22 24  1  0  0  0
 22 32  1  0  0  0
 24 29  2  0  0  0
 24 25  1  0  0  0
 25 26  2  0  0  0
 25 51  1  0  0  0
 26 27  1  0  0  0
 26 52  1  0  0  0
 27 28  2  0  0  0
 27 30  1  0  0  0
 28 29  1  0  0  0
 28 53  1  0  0  0
 29 54  1  0  0  0
 30 31  1  0  0  0
 31 55  1  0  0  0
 31 56  1  0  0  0
 31 57  1  0  0  0
 32 37  1  0  0  0
 32 33  1  0  0  0
 32 68  1  0  0  0
 33 34  1  0  0  0
 33 58  1  0  0  0
 33 59  1  0  0  0
 34 35  1  0  0  0
 34 60  1  0  0  0
 34 61  1  0  0  0
 35 36  1  0  0  0
 35 62  1  0  0  0
 35 63  1  0  0  0
 36 37  1  0  0  0
 36 64  1  0  0  0
 36 65  1  0  0  0
 37 66  1  0  0  0
 37 67  1  0  0  0
M  CHG  1  32   1
M  END
> <i_i_glide_confnum>
213

> <i_i_glide_lignum>
1091

> <i_i_glide_posenum>
99

> <i_i_glide_rotatable_bonds>
10

> <i_m_Source_File_Index>
5015

> <b_m_subgroup_collapsed>
0

> <r_i_docking_score>
-5.97264

> <r_i_glide_ecoul>
-6.44406

> <r_i_glide_eff_state_penalty>
0

> <r_i_glide_einternal>
9.67574

> <r_i_glide_emodel>
-71.4505

> <r_i_glide_energy>
-54.3115

> <r_i_glide_erotb>
0.593805

> <r_i_glide_esite>
-0.0447212

> <r_i_glide_evdw>
-47.8674

> <r_i_glide_gscore>
-5.97264

> <r_i_glide_hbond>
-0.350639

> <r_i_glide_ligand_efficiency>
-0.165907

> <r_i_glide_ligand_efficiency_ln>
-1.30307

> <r_i_glide_ligand_efficiency_sa>
-0.547811

> <r_i_glide_lipo>
-1.76716

> <r_i_glide_metal>
0

> <r_i_glide_rewards>
-1.04394

> <s_i_glide_gridfile>
wee1_glide-grid

> <s_m_Source_File>
wee1_decoys_glide_SP.sdf

> <s_m_Source_Path>
/Users/zhangxujun/Desktop

> <s_m_entry_id>
5290

> <s_m_entry_name>
wee1_decoys_glide_SP.5015

> <s_m_subgroup_title>
wee1_decoys_glide_SP

> <s_m_subgroupid>
wee1_decoys_glide_SP


$$$$
