ZINC35424579_4056
                    3D
 Schrodinger Suite 2024-2.
 67 70  0  0  1  0            999 V2000
   -0.5668   59.4872   15.4166 C   0  0  0  0  0  0
   -0.5302   58.0460   15.9088 C   0  0  0  0  0  0
   -1.7307   57.3951   16.2007 C   0  0  0  0  0  0
   -1.7327   56.0779   16.6562 C   0  0  0  0  0  0
   -0.5215   55.3931   16.8364 C   0  0  0  0  0  0
    0.6779   56.0426   16.5381 C   0  0  0  0  0  0
    0.6871   57.3642   16.0796 C   0  0  0  0  0  0
    2.0233   58.0281   15.7705 C   0  0  0  0  0  0
   -0.4045   54.0706   17.2990 N   0  0  0  0  0  0
   -1.3224   53.2777   17.8894 C   0  0  0  0  0  0
   -2.4945   53.6101   18.0788 O   0  0  0  0  0  0
   -0.8514   51.8787   18.3717 C   0  0  0  0  0  0
    0.6911   51.7917   18.5883 C   0  0  0  0  0  0
    1.0850   50.3715   19.0501 C   0  0  0  0  0  0
    0.2847   49.9308   20.2212 N   0  0  0  0  0  0
   -1.1890   50.0910   20.1364 C   0  0  0  0  0  0
   -1.5871   51.5106   19.6914 C   0  0  0  0  0  0
    1.0722   49.6992   21.7934 S   0  0  0  0  0  0
    2.3042   48.9318   21.5901 O   0  0  0  0  0  0
    0.0668   49.2902   22.7802 O   0  0  0  0  0  0
    1.5760   51.3818   22.2177 C   0  0  0  0  0  0
    2.8600   51.8962   22.0817 C   0  0  0  0  0  0
    3.0475   53.1225   22.7513 C   0  0  0  0  0  0
    1.8165   53.6352   23.1731 C   0  0  0  0  0  0
    0.5165   52.4962   23.0033 S   0  0  0  0  0  0
    4.3492   53.7738   22.8470 C   0  0  0  0  0  0
    5.1150   53.6569   21.8892 O   0  0  0  0  0  0
    4.7043   54.4375   23.9926 N   0  0  0  0  0  0
    6.0440   55.0847   24.0526 C   0  0  0  0  0  0
    6.8432   54.4350   25.1936 C   0  0  0  0  0  0
    6.1249   54.6188   26.5386 C   0  0  0  0  0  0
    4.7402   53.9692   26.4161 C   0  0  0  0  0  0
    3.8997   54.5170   25.2410 C   0  0  0  0  0  0
    6.9309   54.0246   27.7051 C   0  0  0  0  0  0
   -0.1303   59.5609   14.4206 H   0  0  0  0  0  0
   -1.5787   59.8867   15.3759 H   0  0  0  0  0  0
    0.0197   60.1253   16.0802 H   0  0  0  0  0  0
   -2.6740   57.9057   16.0660 H   0  0  0  0  0  0
   -2.6859   55.6119   16.8458 H   0  0  0  0  0  0
    1.6177   55.5256   16.6728 H   0  0  0  0  0  0
    2.1968   58.8730   16.4394 H   0  0  0  0  0  0
    2.8621   57.3377   15.8678 H   0  0  0  0  0  0
    2.0311   58.4122   14.7502 H   0  0  0  0  0  0
    0.5279   53.6927   17.2487 H   0  0  0  0  0  0
   -1.1996   51.2062   17.5861 H   0  0  0  0  0  0
    1.0256   52.4774   19.3701 H   0  0  0  0  0  0
    1.2451   51.9572   17.6631 H   0  0  0  0  0  0
    2.1414   50.3506   19.3233 H   0  0  0  0  0  0
    0.9666   49.6327   18.2578 H   0  0  0  0  0  0
   -1.5755   49.3264   19.4633 H   0  0  0  0  0  0
   -1.6280   49.8792   21.1120 H   0  0  0  0  0  0
   -2.6711   51.4905   19.5672 H   0  0  0  0  0  0
   -1.2990   52.1743   20.5084 H   0  0  0  0  0  0
    3.6657   51.3368   21.6261 H   0  0  0  0  0  0
    1.6279   54.5899   23.6430 H   0  0  0  0  0  0
    5.9046   56.1371   24.2906 H   0  0  0  0  0  0
    6.5954   55.0615   23.1149 H   0  0  0  0  0  0
    7.8298   54.8937   25.2424 H   0  0  0  0  0  0
    7.0402   53.3832   24.9780 H   0  0  0  0  0  0
    5.9908   55.6900   26.7068 H   0  0  0  0  0  0
    4.8587   52.8966   26.3016 H   0  0  0  0  0  0
    4.1953   54.0765   27.3526 H   0  0  0  0  0  0
    3.6452   55.5609   25.4304 H   0  0  0  0  0  0
    2.9884   53.9239   25.2212 H   0  0  0  0  0  0
    7.0973   52.9542   27.5766 H   0  0  0  0  0  0
    6.4151   54.1710   28.6532 H   0  0  0  0  0  0
    7.9050   54.5007   27.7933 H   0  0  0  0  0  0
  1  2  1  0  0  0
  1 35  1  0  0  0
  1 36  1  0  0  0
  1 37  1  0  0  0
  2  7  2  0  0  0
  2  3  1  0  0  0
  3  4  2  0  0  0
  3 38  1  0  0  0
  4  5  1  0  0  0
  4 39  1  0  0  0
  5  6  2  0  0  0
  5  9  1  0  0  0
  6  7  1  0  0  0
  6 40  1  0  0  0
  7  8  1  0  0  0
  8 41  1  0  0  0
  8 42  1  0  0  0
  8 43  1  0  0  0
  9 10  1  0  0  0
  9 44  1  0  0  0
 10 11  2  0  0  0
 10 12  1  0  0  0
 12 17  1  0  0  0
 12 13  1  0  0  0
 12 45  1  0  0  0
 13 14  1  0  0  0
 13 46  1  0  0  0
 13 47  1  0  0  0
 14 15  1  0  0  0
 14 48  1  0  0  0
 14 49  1  0  0  0
 15 16  1  0  0  0
 15 18  1  0  0  0
 16 17  1  0  0  0
 16 50  1  0  0  0
 16 51  1  0  0  0
 17 52  1  0  0  0
 17 53  1  0  0  0
 18 19  2  0  0  0
 18 20  2  0  0  0
 18 21  1  0  0  0
 21 25  1  0  0  0
 21 22  2  0  0  0
 22 23  1  0  0  0
 22 54  1  0  0  0
 23 24  2  0  0  0
 23 26  1  0  0  0
 24 25  1  0  0  0
 24 55  1  0  0  0
 26 27  2  0  0  0
 26 28  1  0  0  0
 28 33  1  0  0  0
 28 29  1  0  0  0
 29 30  1  0  0  0
 29 56  1  0  0  0
 29 57  1  0  0  0
 30 31  1  0  0  0
 30 58  1  0  0  0
 30 59  1  0  0  0
 31 32  1  0  0  0
 31 34  1  0  0  0
 31 60  1  0  0  0
 32 33  1  0  0  0
 32 61  1  0  0  0
 32 62  1  0  0  0
 33 63  1  0  0  0
 33 64  1  0  0  0
 34 65  1  0  0  0
 34 66  1  0  0  0
 34 67  1  0  0  0
M  END
> <i_i_glide_confnum>
282

> <i_i_glide_lignum>
4057

> <i_i_glide_posenum>
214

> <i_i_glide_rotatable_bonds>
7

> <i_m_Source_File_Index>
1802

> <b_m_subgroup_collapsed>
0

> <r_i_docking_score>
-4.75896

> <r_i_glide_ecoul>
-2.11238

> <r_i_glide_eff_state_penalty>
0

> <r_i_glide_einternal>
3.07321

> <r_i_glide_emodel>
-57.1007

> <r_i_glide_energy>
-42.6909

> <r_i_glide_erotb>
0.564032

> <r_i_glide_esite>
-0.0375491

> <r_i_glide_evdw>
-40.5785

> <r_i_glide_gscore>
-4.75896

> <r_i_glide_hbond>
-0.113039

> <r_i_glide_ligand_efficiency>
-0.139969

> <r_i_glide_ligand_efficiency_ln>
-1.05139

> <r_i_glide_ligand_efficiency_sa>
-0.453447

> <r_i_glide_lipo>
-2.2181

> <r_i_glide_metal>
0

> <r_i_glide_rewards>
-0.608519

> <s_i_glide_gridfile>
wee1_glide-grid

> <s_m_Source_File>
wee1_decoys_glide_SP.sdf

> <s_m_Source_Path>
/Users/zhangxujun/Desktop

> <s_m_entry_id>
2077

> <s_m_entry_name>
wee1_decoys_glide_SP.1802

> <s_m_subgroup_title>
wee1_decoys_glide_SP

> <s_m_subgroupid>
wee1_decoys_glide_SP


$$$$
