ZINC39669128_386
                    3D
 Schrodinger Suite 2024-2.
 74 79  0  0  1  0            999 V2000
    6.2176   54.2916   26.5431 C   0  0  0  0  0  0
    6.7044   54.4952   25.2525 C   0  0  0  0  0  0
    5.8298   54.4994   24.1729 C   0  0  0  0  0  0
    4.4663   54.3016   24.3871 C   0  0  0  0  0  0
    3.9767   54.1067   25.6803 C   0  0  0  0  0  0
    4.8551   54.0960   26.7617 C   0  0  0  0  0  0
    3.5840   54.3852   23.3404 O   0  0  0  0  0  0
    3.4172   53.2991   22.5108 C   0  0  0  0  0  0
    2.2136   52.5676   22.4958 C   0  0  0  0  0  0
    2.0817   51.5694   21.5152 C   0  0  0  0  0  0
    3.1360   51.2994   20.6424 C   0  0  0  0  0  0
    4.3034   52.0489   20.7546 C   0  0  0  0  0  0
    4.4548   53.0397   21.6677 N   0  0  0  0  0  0
    1.0940   52.9093   23.4587 C   0  0  0  0  0  0
    0.8526   54.0961   23.6792 O   0  0  0  0  0  0
    0.3971   51.9282   24.0909 N   0  0  0  0  0  0
    0.5887   50.4806   23.9673 C   0  0  0  0  0  0
   -0.3015   49.8982   25.0915 C   0  0  1  0  0  0
    0.3078   49.7870   25.9904 H   0  0  0  0  0  0
   -1.4324   50.9504   25.2858 C   0  0  0  0  0  0
   -0.6356   52.2552   25.0776 C   0  0  0  0  0  0
   -2.1201   50.8332   26.6692 C   0  0  0  0  0  0
   -3.0917   52.0012   26.9194 C   0  0  0  0  0  0
   -4.1788   51.9762   25.8210 N   0  3  0  0  0  0
   -3.6279   51.9811   24.3767 C   0  0  0  0  0  0
   -2.5971   50.8385   24.2447 C   0  0  0  0  0  0
   -0.8081   48.4947   24.6822 C   0  0  0  0  0  0
   -0.7924   48.1069   23.5121 O   0  0  0  0  0  0
   -1.2978   47.7464   25.6806 N   0  0  0  0  0  0
   -1.9355   46.4399   25.5167 C   0  0  0  0  0  0
   -3.4407   46.5175   25.1311 C   0  0  2  0  0  0
   -3.6533   47.5352   24.7971 H   0  0  0  0  0  0
   -4.4183   46.2579   26.2906 C   0  0  0  0  0  0
   -4.2012   46.7869   27.5702 C   0  0  0  0  0  0
   -5.1424   46.6423   28.5860 C   0  0  0  0  0  0
   -6.3254   45.9548   28.3369 C   0  0  0  0  0  0
   -6.5444   45.3926   27.0821 C   0  0  0  0  0  0
   -5.6018   45.5269   26.0556 C   0  0  0  0  0  0
   -5.8352   44.8777   24.6986 C   0  0  0  0  0  0
   -5.0583   45.6068   23.5945 C   0  0  0  0  0  0
   -3.6918   45.6970   23.9852 O   0  0  0  0  0  0
    6.8979   54.2866   27.3831 H   0  0  0  0  0  0
    7.7563   54.6487   25.0742 H   0  0  0  0  0  0
    6.2022   54.6699   23.1732 H   0  0  0  0  0  0
    2.9174   53.9720   25.8393 H   0  0  0  0  0  0
    4.4816   53.9431   27.7630 H   0  0  0  0  0  0
    1.1661   51.0153   21.3881 H   0  0  0  0  0  0
    3.0484   50.5407   19.8774 H   0  0  0  0  0  0
    5.1303   51.8736   20.0789 H   0  0  0  0  0  0
    1.6282   50.1651   24.0789 H   0  0  0  0  0  0
    0.1747   50.2118   22.9950 H   0  0  0  0  0  0
   -1.2462   53.1280   24.8518 H   0  0  0  0  0  0
   -0.1119   52.4875   26.0067 H   0  0  0  0  0  0
   -2.6122   49.8682   26.8031 H   0  0  0  0  0  0
   -1.3601   50.8676   27.4515 H   0  0  0  0  0  0
   -3.6147   51.8956   27.8712 H   0  0  0  0  0  0
   -2.6121   52.9801   26.8782 H   0  0  0  0  0  0
   -4.7278   51.1363   25.9473 H   0  0  0  0  0  0
   -4.4880   51.8301   23.7230 H   0  0  0  0  0  0
   -3.2233   52.9744   24.1861 H   0  0  0  0  0  0
   -2.1876   50.8752   23.2343 H   0  0  0  0  0  0
   -3.1043   49.8749   24.3079 H   0  0  0  0  0  0
   -1.2513   48.0936   26.6404 H   0  0  0  0  0  0
   -1.7960   45.8664   26.4339 H   0  0  0  0  0  0
   -1.3874   45.8788   24.7572 H   0  0  0  0  0  0
   -3.2973   47.3357   27.7783 H   0  0  0  0  0  0
   -4.9555   47.0768   29.5579 H   0  0  0  0  0  0
   -7.0700   45.8512   29.1125 H   0  0  0  0  0  0
   -7.4576   44.8427   26.9045 H   0  0  0  0  0  0
   -5.4956   43.8446   24.7490 H   0  0  0  0  0  0
   -6.8986   44.8434   24.4569 H   0  0  0  0  0  0
   -5.1374   45.0780   22.6426 H   0  0  0  0  0  0
   -5.4744   46.6037   23.4339 H   0  0  0  0  0  0
   -4.8154   52.7514   25.9480 H   0  0  0  0  0  0
  1  6  2  0  0  0
  1  2  1  0  0  0
  1 42  1  0  0  0
  2  3  2  0  0  0
  2 43  1  0  0  0
  3  4  1  0  0  0
  3 44  1  0  0  0
  4  5  2  0  0  0
  4  7  1  0  0  0
  5  6  1  0  0  0
  5 45  1  0  0  0
  6 46  1  0  0  0
  7  8  1  0  0  0
  8 13  2  0  0  0
  8  9  1  0  0  0
  9 10  2  0  0  0
  9 14  1  0  0  0
 10 11  1  0  0  0
 10 47  1  0  0  0
 11 12  2  0  0  0
 11 48  1  0  0  0
 12 13  1  0  0  0
 12 49  1  0  0  0
 14 15  2  0  0  0
 14 16  1  0  0  0
 16 21  1  0  0  0
 16 17  1  0  0  0
 17 18  1  0  0  0
 17 50  1  0  0  0
 17 51  1  0  0  0
 18 19  1  0  0  0
 18 20  1  0  0  0
 18 27  1  0  0  0
 20 26  1  0  0  0
 20 21  1  0  0  0
 20 22  1  0  0  0
 21 52  1  0  0  0
 21 53  1  0  0  0
 22 23  1  0  0  0
 22 54  1  0  0  0
 22 55  1  0  0  0
 23 24  1  0  0  0
 23 56  1  0  0  0
 23 57  1  0  0  0
 24 25  1  0  0  0
 24 58  1  0  0  0
 24 74  1  0  0  0
 25 26  1  0  0  0
 25 59  1  0  0  0
 25 60  1  0  0  0
 26 61  1  0  0  0
 26 62  1  0  0  0
 27 28  2  0  0  0
 27 29  1  0  0  0
 29 30  1  0  0  0
 29 63  1  0  0  0
 30 31  1  0  0  0
 30 64  1  0  0  0
 30 65  1  0  0  0
 31 32  1  0  0  0
 31 41  1  0  0  0
 31 33  1  0  0  0
 33 38  2  0  0  0
 33 34  1  0  0  0
 34 35  2  0  0  0
 34 66  1  0  0  0
 35 36  1  0  0  0
 35 67  1  0  0  0
 36 37  2  0  0  0
 36 68  1  0  0  0
 37 38  1  0  0  0
 37 69  1  0  0  0
 38 39  1  0  0  0
 39 40  1  0  0  0
 39 70  1  0  0  0
 39 71  1  0  0  0
 40 41  1  0  0  0
 40 72  1  0  0  0
 40 73  1  0  0  0
M  CHG  1  24   1
M  END
> <i_i_glide_confnum>
88

> <i_i_glide_lignum>
387

> <i_i_glide_posenum>
355

> <i_i_glide_rotatable_bonds>
8

> <i_m_Source_File_Index>
5197

> <b_m_subgroup_collapsed>
0

> <r_i_docking_score>
-5.35883

> <r_i_glide_ecoul>
-6.73464

> <r_i_glide_eff_state_penalty>
0

> <r_i_glide_einternal>
12.7824

> <r_i_glide_emodel>
-63.3492

> <r_i_glide_energy>
-49.729

> <r_i_glide_erotb>
0.517875

> <r_i_glide_esite>
-0.151364

> <r_i_glide_evdw>
-42.9944

> <r_i_glide_gscore>
-5.35883

> <r_i_glide_hbond>
-0.227779

> <r_i_glide_ligand_efficiency>
-0.137406

> <r_i_glide_ligand_efficiency_ln>
-1.14909

> <r_i_glide_ligand_efficiency_sa>
-0.465973

> <r_i_glide_lipo>
-1.93427

> <r_i_glide_metal>
0

> <r_i_glide_rewards>
-0.403378

> <s_i_glide_gridfile>
wee1_glide-grid

> <s_m_Source_File>
wee1_decoys_glide_SP.sdf

> <s_m_Source_Path>
/Users/zhangxujun/Desktop

> <s_m_entry_id>
5472

> <s_m_entry_name>
wee1_decoys_glide_SP.5197

> <s_m_subgroup_title>
wee1_decoys_glide_SP

> <s_m_subgroupid>
wee1_decoys_glide_SP


$$$$
