ZINC40220895_4728
                    3D
 Schrodinger Suite 2024-2.
 32 32  0  0  1  0            999 V2000
    3.7533   53.3767   18.2417 C   0  0  0  0  0  0
    4.6829   53.4661   19.4613 C   0  0  0  0  0  0
    5.8045   54.5004   19.2430 C   0  0  0  0  0  0
    3.9064   53.7412   20.6715 N   0  0  0  0  0  0
    4.3251   53.5296   21.9293 C   0  0  0  0  0  0
    5.3504   52.9086   22.2135 O   0  0  0  0  0  0
    3.4975   54.0972   22.8246 N   0  0  0  0  0  0
    3.6076   54.0265   24.2238 C   0  0  0  0  0  0
    4.8349   54.2125   24.8788 C   0  0  0  0  0  0
    4.9150   54.1210   26.2685 C   0  0  0  0  0  0
    3.7644   53.8746   27.0230 C   0  0  0  0  0  0
    2.5394   53.6946   26.3744 C   0  0  0  0  0  0
    2.4572   53.7598   24.9806 C   0  0  0  0  0  0
    0.7571   53.5159   24.1446 Br  0  0  0  0  0  0
    3.8466   53.7854   28.8118 S   0  0  0  0  0  0
    2.5864   54.3203   29.3369 O   0  0  0  0  0  0
    4.3047   52.4409   29.1691 O   0  0  0  0  0  0
    5.1005   54.8960   29.2822 N   0  0  0  0  0  0
    4.3265   53.1921   17.3321 H   0  0  0  0  0  0
    3.2011   54.3040   18.0831 H   0  0  0  0  0  0
    3.0460   52.5519   18.3378 H   0  0  0  0  0  0
    5.1474   52.4813   19.5670 H   0  0  0  0  0  0
    6.3593   54.2803   18.3302 H   0  0  0  0  0  0
    5.4016   55.5077   19.1289 H   0  0  0  0  0  0
    6.5245   54.5014   20.0620 H   0  0  0  0  0  0
    2.9735   54.1024   20.5183 H   0  0  0  0  0  0
    2.6498   54.5135   22.4707 H   0  0  0  0  0  0
    5.7325   54.4119   24.3114 H   0  0  0  0  0  0
    5.8741   54.2449   26.7496 H   0  0  0  0  0  0
    1.6463   53.4980   26.9511 H   0  0  0  0  0  0
    4.9013   55.8724   29.0624 H   0  0  0  0  0  0
    6.0564   54.6185   29.0480 H   0  0  0  0  0  0
  1  2  1  0  0  0
  1 19  1  0  0  0
  1 20  1  0  0  0
  1 21  1  0  0  0
  2  3  1  0  0  0
  2  4  1  0  0  0
  2 22  1  0  0  0
  3 23  1  0  0  0
  3 24  1  0  0  0
  3 25  1  0  0  0
  4  5  1  0  0  0
  4 26  1  0  0  0
  5  6  2  0  0  0
  5  7  1  0  0  0
  7  8  1  0  0  0
  7 27  1  0  0  0
  8 13  2  0  0  0
  8  9  1  0  0  0
  9 10  2  0  0  0
  9 28  1  0  0  0
 10 11  1  0  0  0
 10 29  1  0  0  0
 11 12  2  0  0  0
 11 15  1  0  0  0
 12 13  1  0  0  0
 12 30  1  0  0  0
 13 14  1  0  0  0
 15 16  2  0  0  0
 15 17  2  0  0  0
 15 18  1  0  0  0
 18 31  1  0  0  0
 18 32  1  0  0  0
M  END
> <i_i_glide_confnum>
1

> <i_i_glide_lignum>
4729

> <i_i_glide_posenum>
397

> <i_i_glide_rotatable_bonds>
5

> <i_m_Source_File_Index>
2212

> <b_m_subgroup_collapsed>
0

> <r_i_docking_score>
-5.04908

> <r_i_glide_ecoul>
-5.77244

> <r_i_glide_eff_state_penalty>
0

> <r_i_glide_einternal>
1.62392

> <r_i_glide_emodel>
-47.0877

> <r_i_glide_energy>
-36.6651

> <r_i_glide_erotb>
0.501175

> <r_i_glide_esite>
-0.0091827

> <r_i_glide_evdw>
-30.8927

> <r_i_glide_gscore>
-5.04908

> <r_i_glide_hbond>
-0.323581

> <r_i_glide_ligand_efficiency>
-0.280504

> <r_i_glide_ligand_efficiency_ln>
-1.29784

> <r_i_glide_ligand_efficiency_sa>
-0.735129

> <r_i_glide_lipo>
-1.61829

> <r_i_glide_metal>
0

> <r_i_glide_rewards>
-1.1887

> <s_i_glide_gridfile>
wee1_glide-grid

> <s_m_Source_File>
wee1_decoys_glide_SP.sdf

> <s_m_Source_Path>
/Users/zhangxujun/Desktop

> <s_m_entry_id>
2487

> <s_m_entry_name>
wee1_decoys_glide_SP.2212

> <s_m_subgroup_title>
wee1_decoys_glide_SP

> <s_m_subgroupid>
wee1_decoys_glide_SP


$$$$
