ZINC35863275_5693
                    3D
 Schrodinger Suite 2024-2.
 76 80  0  0  1  0            999 V2000
    0.4756   54.6672   31.6052 C   0  0  0  0  0  0
    1.2137   53.6397   30.7360 C   0  0  0  0  0  0
    1.5680   54.1648   29.3272 C   0  0  0  0  0  0
    1.1044   55.2428   28.9532 O   0  0  0  0  0  0
    2.2387   53.3406   28.4878 N   0  0  0  0  0  0
    3.1602   52.2998   28.9592 C   0  0  0  0  0  0
    4.5721   52.9025   28.8537 C   0  0  0  0  0  0
    4.8471   53.4972   27.4726 C   0  0  0  0  0  0
    6.1684   53.6970   27.0530 C   0  0  0  0  0  0
    6.4614   54.1709   25.7767 C   0  0  0  0  0  0
    5.4182   54.4970   24.9069 C   0  0  0  0  0  0
    4.1045   54.3934   25.3633 C   0  0  0  0  0  0
    3.7742   53.8471   26.6134 C   0  0  0  0  0  0
    2.2949   53.5782   27.0258 C   0  0  1  0  0  0
    1.7423   54.4967   26.8332 H   0  0  0  0  0  0
    1.5039   52.5192   26.1993 C   0  0  0  0  0  0
    1.5332   52.4971   24.7967 C   0  0  0  0  0  0
    0.8508   51.5188   24.0784 C   0  0  0  0  0  0
    0.1113   50.5482   24.7508 C   0  0  0  0  0  0
    0.0223   50.5810   26.1388 C   0  0  0  0  0  0
    0.7021   51.5624   26.8514 C   0  0  0  0  0  0
   -0.6120   49.4643   23.9729 C   0  0  0  0  0  0
    5.5812   54.8966   23.5957 O   0  0  0  0  0  0
    6.8748   54.8985   22.9996 C   0  0  0  0  0  0
    6.7476   55.3056   21.5411 C   0  0  0  0  0  0
    7.5853   56.0416   20.8483 N   0  0  0  0  0  0
    7.0400   56.1843   19.6470 C   0  0  0  0  0  0
    5.8895   55.3964   19.5960 C   0  0  0  0  0  0
    5.6918   54.8524   20.8213 O   0  0  0  0  0  0
    7.6542   56.9299   18.5590 C   0  0  0  0  0  0
    8.8816   56.8876   18.4416 O   0  0  0  0  0  0
    6.8626   57.6738   17.7248 N   0  0  0  0  0  0
    5.5050   58.1274   18.0816 C   0  0  0  0  0  0
    4.5842   57.9966   16.8579 C   0  0  0  0  0  0
    5.1453   58.8967   15.7370 N   0  3  0  0  0  0
    6.5674   58.4089   15.3745 C   0  0  0  0  0  0
    7.4885   58.4411   16.6198 C   0  0  0  0  0  0
    4.2257   58.8887   14.4971 C   0  0  0  0  0  0
    2.9065   59.5930   14.7487 C   0  0  0  0  0  0
    1.7072   58.9916   14.8091 C   0  0  0  0  0  0
    0.3035   54.2732   32.6085 H   0  0  0  0  0  0
    1.0371   55.5987   31.6965 H   0  0  0  0  0  0
   -0.4957   54.8966   31.1822 H   0  0  0  0  0  0
    0.5715   52.7667   30.6141 H   0  0  0  0  0  0
    2.0990   53.2957   31.2671 H   0  0  0  0  0  0
    3.0725   51.4143   28.3320 H   0  0  0  0  0  0
    2.9092   51.8904   29.9351 H   0  0  0  0  0  0
    5.3003   52.1230   29.0647 H   0  0  0  0  0  0
    4.7044   53.6641   29.6232 H   0  0  0  0  0  0
    6.9838   53.4341   27.7121 H   0  0  0  0  0  0
    7.4973   54.2598   25.4751 H   0  0  0  0  0  0
    3.3278   54.7283   24.6965 H   0  0  0  0  0  0
    2.0861   53.2159   24.2232 H   0  0  0  0  0  0
    0.9084   51.5103   23.0000 H   0  0  0  0  0  0
   -0.5581   49.8412   26.6731 H   0  0  0  0  0  0
    0.6063   51.5432   27.9258 H   0  0  0  0  0  0
   -0.9711   49.8418   23.0146 H   0  0  0  0  0  0
    0.0551   48.6217   23.7911 H   0  0  0  0  0  0
   -1.4845   49.1036   24.5179 H   0  0  0  0  0  0
    7.3366   53.9120   23.0715 H   0  0  0  0  0  0
    7.5035   55.6236   23.5184 H   0  0  0  0  0  0
    5.1667   55.1494   18.8318 H   0  0  0  0  0  0
    5.5723   59.1861   18.3433 H   0  0  0  0  0  0
    5.1043   57.6298   18.9563 H   0  0  0  0  0  0
    3.5962   58.3905   17.1022 H   0  0  0  0  0  0
    4.4900   56.9740   16.4852 H   0  0  0  0  0  0
    6.5022   57.4175   14.9200 H   0  0  0  0  0  0
    6.9417   59.1166   14.6326 H   0  0  0  0  0  0
    8.4675   58.0406   16.3460 H   0  0  0  0  0  0
    7.6177   59.4816   16.9250 H   0  0  0  0  0  0
    4.0971   57.8431   14.2080 H   0  0  0  0  0  0
    4.7690   59.4077   13.7062 H   0  0  0  0  0  0
    2.9678   60.6661   14.8821 H   0  0  0  0  0  0
    1.6006   57.9234   14.6786 H   0  0  0  0  0  0
    0.8119   59.5647   14.9940 H   0  0  0  0  0  0
    5.1858   59.8567   16.0823 H   0  0  0  0  0  0
  1  2  1  0  0  0
  1 41  1  0  0  0
  1 42  1  0  0  0
  1 43  1  0  0  0
  2  3  1  0  0  0
  2 44  1  0  0  0
  2 45  1  0  0  0
  3  4  2  0  0  0
  3  5  1  0  0  0
  5 14  1  0  0  0
  5  6  1  0  0  0
  6  7  1  0  0  0
  6 46  1  0  0  0
  6 47  1  0  0  0
  7  8  1  0  0  0
  7 48  1  0  0  0
  7 49  1  0  0  0
  8 13  2  0  0  0
  8  9  1  0  0  0
  9 10  2  0  0  0
  9 50  1  0  0  0
 10 11  1  0  0  0
 10 51  1  0  0  0
 11 12  2  0  0  0
 11 23  1  0  0  0
 12 13  1  0  0  0
 12 52  1  0  0  0
 13 14  1  0  0  0
 14 15  1  0  0  0
 14 16  1  0  0  0
 16 21  2  0  0  0
 16 17  1  0  0  0
 17 18  2  0  0  0
 17 53  1  0  0  0
 18 19  1  0  0  0
 18 54  1  0  0  0
 19 20  2  0  0  0
 19 22  1  0  0  0
 20 21  1  0  0  0
 20 55  1  0  0  0
 21 56  1  0  0  0
 22 57  1  0  0  0
 22 58  1  0  0  0
 22 59  1  0  0  0
 23 24  1  0  0  0
 24 25  1  0  0  0
 24 60  1  0  0  0
 24 61  1  0  0  0
 25 29  1  0  0  0
 25 26  2  0  0  0
 26 27  1  0  0  0
 27 28  2  0  0  0
 27 30  1  0  0  0
 28 29  1  0  0  0
 28 62  1  0  0  0
 30 31  2  0  0  0
 30 32  1  0  0  0
 32 37  1  0  0  0
 32 33  1  0  0  0
 33 34  1  0  0  0
 33 63  1  0  0  0
 33 64  1  0  0  0
 34 35  1  0  0  0
 34 65  1  0  0  0
 34 66  1  0  0  0
 35 36  1  0  0  0
 35 38  1  0  0  0
 35 76  1  0  0  0
 36 37  1  0  0  0
 36 67  1  0  0  0
 36 68  1  0  0  0
 37 69  1  0  0  0
 37 70  1  0  0  0
 38 39  1  0  0  0
 38 71  1  0  0  0
 38 72  1  0  0  0
 39 40  2  0  0  0
 39 73  1  0  0  0
 40 74  1  0  0  0
 40 75  1  0  0  0
M  CHG  1  35   1
M  END
> <i_i_glide_confnum>
261

> <i_i_glide_lignum>
5694

> <i_i_glide_posenum>
37

> <i_i_glide_rotatable_bonds>
10

> <i_m_Source_File_Index>
3469

> <b_m_subgroup_collapsed>
0

> <r_i_docking_score>
-5.93855

> <r_i_glide_ecoul>
-1.66903

> <r_i_glide_eff_state_penalty>
0

> <r_i_glide_einternal>
9.49052

> <r_i_glide_emodel>
-65.7706

> <r_i_glide_energy>
-48.601

> <r_i_glide_erotb>
0.661181

> <r_i_glide_esite>
-0.110789

> <r_i_glide_evdw>
-46.932

> <r_i_glide_gscore>
-5.93855

> <r_i_glide_hbond>
-0.275336

> <r_i_glide_ligand_efficiency>
-0.152271

> <r_i_glide_ligand_efficiency_ln>
-1.27339

> <r_i_glide_ligand_efficiency_sa>
-0.516382

> <r_i_glide_lipo>
-3.16808

> <r_i_glide_metal>
0

> <r_i_glide_rewards>
-0.448572

> <s_i_glide_gridfile>
wee1_glide-grid

> <s_m_Source_File>
wee1_decoys_glide_SP.sdf

> <s_m_Source_Path>
/Users/zhangxujun/Desktop

> <s_m_entry_id>
3744

> <s_m_entry_name>
wee1_decoys_glide_SP.3469

> <s_m_subgroup_title>
wee1_decoys_glide_SP

> <s_m_subgroupid>
wee1_decoys_glide_SP


$$$$
