ZINC13397748_1942
                    3D
 Schrodinger Suite 2024-2.
 56 59  0  0  1  0            999 V2000
   -0.7802   50.8731   20.5423 C   0  0  0  0  0  0
   -1.6290   49.7883   20.3259 C   0  0  0  0  0  0
   -1.6653   48.7397   21.2455 C   0  0  0  0  0  0
   -0.8440   48.7715   22.3738 C   0  0  0  0  0  0
    0.0052   49.8522   22.5899 C   0  0  0  0  0  0
    0.0350   50.9223   21.6772 C   0  0  0  0  0  0
    0.8587   52.0604   21.8143 N   0  0  0  0  0  0
    1.5373   52.4918   22.9018 C   0  0  0  0  0  0
    1.4899   51.9507   24.0065 O   0  0  0  0  0  0
    2.3505   53.7885   22.7051 C   0  0  0  0  0  0
    3.5055   53.9918   23.6949 C   0  0  0  0  0  0
    4.8230   54.0968   23.2311 C   0  0  0  0  0  0
    5.8753   54.3155   24.1226 C   0  0  0  0  0  0
    5.6215   54.3874   25.4942 C   0  0  0  0  0  0
    4.3142   54.2620   25.9670 C   0  0  0  0  0  0
    3.2594   54.0968   25.0704 C   0  0  0  0  0  0
    4.2635   54.3864   27.4704 C   0  0  0  0  0  0
    5.7334   54.4472   27.8935 C   0  0  0  0  0  0
    6.5754   54.6633   26.6326 C   0  0  0  0  0  0
   -2.7468   47.3319   20.9699 S   0  0  0  0  0  0
   -2.7687   46.5613   22.2189 O   0  0  0  0  0  0
   -3.9912   47.8510   20.3909 O   0  0  0  0  0  0
   -1.9295   46.3416   19.7462 N   0  0  0  0  0  0
   -2.1421   46.7194   18.3262 C   0  0  0  0  0  0
   -1.7254   45.5521   17.4040 C   0  0  0  0  0  0
   -0.2704   45.1090   17.6773 C   0  0  0  0  0  0
    0.0096   44.8220   19.1812 C   0  0  1  0  0  0
    1.0931   44.7340   19.2961 H   0  0  0  0  0  0
   -0.5300   45.9755   20.0815 C   0  0  0  0  0  0
   -0.5311   43.4404   19.6443 C   0  0  0  0  0  0
   -0.8957   43.2964   20.8365 O   0  0  0  0  0  0
   -0.7589   51.6738   19.8197 H   0  0  0  0  0  0
   -2.2591   49.7640   19.4487 H   0  0  0  0  0  0
   -0.8554   47.9588   23.0875 H   0  0  0  0  0  0
    0.6347   49.8226   23.4663 H   0  0  0  0  0  0
    0.9113   52.6498   20.9972 H   0  0  0  0  0  0
    1.6652   54.6304   22.8116 H   0  0  0  0  0  0
    2.7250   53.8300   21.6816 H   0  0  0  0  0  0
    5.0301   54.0290   22.1728 H   0  0  0  0  0  0
    6.8806   54.4195   23.7421 H   0  0  0  0  0  0
    2.2459   54.0210   25.4400 H   0  0  0  0  0  0
    3.7645   53.5406   27.9446 H   0  0  0  0  0  0
    3.7482   55.2958   27.7771 H   0  0  0  0  0  0
    5.9033   55.2224   28.6418 H   0  0  0  0  0  0
    6.0147   53.5013   28.3617 H   0  0  0  0  0  0
    6.9282   55.6934   26.6002 H   0  0  0  0  0  0
    7.4432   54.0027   26.6344 H   0  0  0  0  0  0
   -3.1879   46.9708   18.1561 H   0  0  0  0  0  0
   -1.4780   47.5500   18.0816 H   0  0  0  0  0  0
   -2.4021   44.7096   17.5527 H   0  0  0  0  0  0
   -1.8335   45.8462   16.3574 H   0  0  0  0  0  0
    0.0285   44.2814   17.0326 H   0  0  0  0  0  0
    0.3528   45.9539   17.3841 H   0  0  0  0  0  0
    0.1014   46.8345   19.8517 H   0  0  0  0  0  0
   -0.4976   45.7167   21.1395 H   0  0  0  0  0  0
   -0.4958   42.4958   18.8272 O   0  5  0  0  0  0
  1  6  2  0  0  0
  1  2  1  0  0  0
  1 32  1  0  0  0
  2  3  2  0  0  0
  2 33  1  0  0  0
  3  4  1  0  0  0
  3 20  1  0  0  0
  4  5  2  0  0  0
  4 34  1  0  0  0
  5  6  1  0  0  0
  5 35  1  0  0  0
  6  7  1  0  0  0
  7  8  1  0  0  0
  7 36  1  0  0  0
  8  9  2  0  0  0
  8 10  1  0  0  0
 10 11  1  0  0  0
 10 37  1  0  0  0
 10 38  1  0  0  0
 11 16  2  0  0  0
 11 12  1  0  0  0
 12 13  2  0  0  0
 12 39  1  0  0  0
 13 14  1  0  0  0
 13 40  1  0  0  0
 14 19  1  0  0  0
 14 15  2  0  0  0
 15 16  1  0  0  0
 15 17  1  0  0  0
 16 41  1  0  0  0
 17 18  1  0  0  0
 17 42  1  0  0  0
 17 43  1  0  0  0
 18 19  1  0  0  0
 18 44  1  0  0  0
 18 45  1  0  0  0
 19 46  1  0  0  0
 19 47  1  0  0  0
 20 21  2  0  0  0
 20 22  2  0  0  0
 20 23  1  0  0  0
 23 29  1  0  0  0
 23 24  1  0  0  0
 24 25  1  0  0  0
 24 48  1  0  0  0
 24 49  1  0  0  0
 25 26  1  0  0  0
 25 50  1  0  0  0
 25 51  1  0  0  0
 26 27  1  0  0  0
 26 52  1  0  0  0
 26 53  1  0  0  0
 27 28  1  0  0  0
 27 29  1  0  0  0
 27 30  1  0  0  0
 29 54  1  0  0  0
 29 55  1  0  0  0
 30 31  2  0  0  0
 30 56  1  0  0  0
M  CHG  1  56  -1
M  END
> <i_i_glide_confnum>
78

> <i_i_glide_lignum>
1943

> <i_i_glide_posenum>
289

> <i_i_glide_rotatable_bonds>
7

> <i_m_Source_File_Index>
4852

> <b_m_subgroup_collapsed>
0

> <r_i_docking_score>
-5.13896

> <r_i_glide_ecoul>
-4.4543

> <r_i_glide_eff_state_penalty>
0

> <r_i_glide_einternal>
2.0122

> <r_i_glide_emodel>
-53.3049

> <r_i_glide_energy>
-35.7718

> <r_i_glide_erotb>
0.512353

> <r_i_glide_esite>
-0.0736449

> <r_i_glide_evdw>
-31.3175

> <r_i_glide_gscore>
-5.13896

> <r_i_glide_hbond>
-0.352427

> <r_i_glide_ligand_efficiency>
-0.165773

> <r_i_glide_ligand_efficiency_ln>
-1.15899

> <r_i_glide_ligand_efficiency_sa>
-0.520756

> <r_i_glide_lipo>
-2.56169

> <r_i_glide_metal>
0

> <r_i_glide_rewards>
-0.42954

> <s_i_glide_gridfile>
wee1_glide-grid

> <s_m_Source_File>
wee1_decoys_glide_SP.sdf

> <s_m_Source_Path>
/Users/zhangxujun/Desktop

> <s_m_entry_id>
5127

> <s_m_entry_name>
wee1_decoys_glide_SP.4852

> <s_m_subgroup_title>
wee1_decoys_glide_SP

> <s_m_subgroupid>
wee1_decoys_glide_SP


$$$$
