ZINC49541798_4743
                    3D
 Schrodinger Suite 2024-2.
 29 31  0  0  1  0            999 V2000
    0.3708   53.5946   30.3173 C   0  0  0  0  0  0
    1.7101   53.6714   29.9619 C   0  0  0  0  0  0
    2.3365   52.6582   30.6994 C   0  0  0  0  0  0
    1.5039   52.0967   31.5394 N   0  0  0  0  0  0
    0.3054   52.6277   31.2817 N   0  0  0  0  0  0
    3.6451   52.2891   30.7021 N   0  0  0  0  0  0
    2.4843   54.8966   28.8821 S   0  0  0  0  0  0
    3.8898   54.8965   29.3092 O   0  0  0  0  0  0
    1.7194   56.1079   29.1936 O   0  0  0  0  0  0
    2.0936   54.0969   27.3631 N   0  0  0  0  0  0
    3.0029   54.0966   26.4746 C   0  0  0  0  0  0
    4.3295   54.4962   26.5473 N   0  0  0  0  0  0
    5.0247   54.5044   25.3711 C   0  0  0  0  0  0
    4.3372   54.0969   24.3096 C   0  0  0  0  0  0
    2.7035   53.6222   24.7607 S   0  0  0  0  0  0
    5.1784   54.0481   23.0567 C   0  0  0  0  0  0
    6.5878   54.3120   23.6120 C   0  0  0  0  0  0
    6.4596   54.8357   25.0513 C   0  0  0  0  0  0
   -0.4956   54.1624   30.0241 H   0  0  0  0  0  0
    4.3107   52.7862   30.1252 H   0  0  0  0  0  0
    4.0173   51.6975   31.4293 H   0  0  0  0  0  0
    4.8624   54.8294   22.3644 H   0  0  0  0  0  0
    5.1182   53.0912   22.5368 H   0  0  0  0  0  0
    7.1432   55.0069   22.9809 H   0  0  0  0  0  0
    7.1606   53.3828   23.6130 H   0  0  0  0  0  0
    7.1643   54.3479   25.7244 H   0  0  0  0  0  0
    6.6153   55.9137   25.1062 H   0  0  0  0  0  0
    4.7283   54.7666   27.4378 H   0  0  0  0  0  0
   -0.5254   52.3551   31.8126 H   0  0  0  0  0  0
  1 19  1  0  0  0
  1  2  2  0  0  0
  1  5  1  0  0  0
  2  7  1  0  0  0
  2  3  1  0  0  0
  3  6  1  0  0  0
  3  4  2  0  0  0
  4  5  1  0  0  0
  5 29  1  0  0  0
  6 20  1  0  0  0
  6 21  1  0  0  0
  7  8  2  0  0  0
  7  9  2  0  0  0
  7 10  1  0  0  0
 10 11  2  0  0  0
 11 15  1  0  0  0
 11 12  1  0  0  0
 12 13  1  0  0  0
 12 28  1  0  0  0
 13 18  1  0  0  0
 13 14  2  0  0  0
 14 15  1  0  0  0
 14 16  1  0  0  0
 16 17  1  0  0  0
 16 22  1  0  0  0
 16 23  1  0  0  0
 17 18  1  0  0  0
 17 24  1  0  0  0
 17 25  1  0  0  0
 18 26  1  0  0  0
 18 27  1  0  0  0
M  END
> <i_i_glide_confnum>
7

> <i_i_glide_lignum>
4744

> <i_i_glide_posenum>
122

> <i_i_glide_rotatable_bonds>
2

> <i_m_Source_File_Index>
707

> <b_m_subgroup_collapsed>
0

> <r_i_docking_score>
-6.28669

> <r_i_glide_ecoul>
-4.00354

> <r_i_glide_eff_state_penalty>
0

> <r_i_glide_einternal>
4.03122

> <r_i_glide_emodel>
-58.2746

> <r_i_glide_energy>
-42.7663

> <r_i_glide_erotb>
0.445624

> <r_i_glide_esite>
-0.0978732

> <r_i_glide_evdw>
-38.7627

> <r_i_glide_gscore>
-6.28669

> <r_i_glide_hbond>
-0.164425

> <r_i_glide_ligand_efficiency>
-0.349261

> <r_i_glide_ligand_efficiency_ln>
-1.61596

> <r_i_glide_ligand_efficiency_sa>
-0.915322

> <r_i_glide_lipo>
-2.07351

> <r_i_glide_metal>
0

> <r_i_glide_rewards>
-1.85784

> <s_i_glide_gridfile>
wee1_glide-grid

> <s_m_Source_File>
wee1_decoys_glide_SP.sdf

> <s_m_Source_Path>
/Users/zhangxujun/Desktop

> <s_m_entry_id>
982

> <s_m_entry_name>
wee1_decoys_glide_SP.707

> <s_m_subgroup_title>
wee1_decoys_glide_SP

> <s_m_subgroupid>
wee1_decoys_glide_SP


$$$$
