ZINC39636817_3063
                    3D
 Schrodinger Suite 2024-2.
 63 66  0  0  1  0            999 V2000
    1.4417   55.0251   29.7238 C   0  0  0  0  0  0
    0.5756   53.9581   29.4849 C   0  0  0  0  0  0
    1.0022   52.8470   28.7518 C   0  0  0  0  0  0
    2.3149   52.8224   28.2618 C   0  0  0  0  0  0
    3.1949   53.8864   28.4993 C   0  0  0  0  0  0
    2.7449   54.9904   29.2325 C   0  0  0  0  0  0
    4.6220   53.8182   27.9580 C   0  0  0  0  0  0
    5.2385   52.7618   28.4821 F   0  0  0  0  0  0
    4.5982   53.6976   26.6299 F   0  0  0  0  0  0
    5.3382   54.8965   28.2670 F   0  0  0  0  0  0
    0.0143   51.7092   28.4707 C   0  0  0  0  0  0
    0.2638   50.8971   27.2758 N   0  0  0  0  0  0
    0.1978   51.3370   26.0066 C   0  0  0  0  0  0
   -0.0612   52.4971   25.7139 O   0  0  0  0  0  0
    0.5057   50.3220   24.8903 C   0  0  2  0  0  0
    0.8329   49.4145   25.3907 H   0  0  0  0  0  0
    1.6512   50.7799   23.9720 C   0  0  0  0  0  0
    0.9883   51.3225   22.7912 N   0  0  0  0  0  0
   -0.4473   51.0278   22.7682 C   0  0  0  0  0  0
   -0.7083   50.0513   23.9418 C   0  0  0  0  0  0
   -0.6504   48.6099   23.3792 C   0  0  0  0  0  0
   -0.8513   47.5424   24.4870 C   0  0  0  0  0  0
   -2.1958   47.7937   25.2109 N   0  3  0  0  0  0
   -2.4397   49.2539   25.6453 C   0  0  0  0  0  0
   -2.1676   50.1942   24.4563 C   0  0  0  0  0  0
    1.6035   52.0919   21.8600 C   0  0  0  0  0  0
    0.9987   52.4954   20.8657 O   0  0  0  0  0  0
    3.0928   52.4585   22.0829 C   0  0  0  0  0  0
    3.5838   53.3373   21.0665 O   0  0  0  0  0  0
    4.7293   54.0838   21.2933 C   0  0  0  0  0  0
    5.4717   54.0844   22.4889 C   0  0  0  0  0  0
    6.6097   54.8874   22.6226 C   0  0  0  0  0  0
    7.0275   55.6887   21.5652 C   0  0  0  0  0  0
    6.3014   55.6990   20.3758 C   0  0  0  0  0  0
    5.1656   54.8962   20.2431 C   0  0  0  0  0  0
    6.7999   56.7144   19.0746 Cl  0  0  0  0  0  0
    1.0993   55.8844   30.2828 H   0  0  0  0  0  0
   -0.4335   53.9987   29.8686 H   0  0  0  0  0  0
    2.6581   51.9761   27.6848 H   0  0  0  0  0  0
    3.4005   55.8282   29.4162 H   0  0  0  0  0  0
   -1.0004   52.1086   28.4024 H   0  0  0  0  0  0
    0.0111   51.0465   29.3368 H   0  0  0  0  0  0
    0.3876   49.9069   27.4362 H   0  0  0  0  0  0
    2.2402   49.9032   23.6913 H   0  0  0  0  0  0
    2.3046   51.4872   24.4817 H   0  0  0  0  0  0
   -0.9523   51.9670   23.0015 H   0  0  0  0  0  0
   -0.8580   50.6846   21.8173 H   0  0  0  0  0  0
   -1.3744   48.4665   22.5743 H   0  0  0  0  0  0
    0.3234   48.4778   22.9061 H   0  0  0  0  0  0
   -0.9084   46.5315   24.0854 H   0  0  0  0  0  0
   -0.1002   47.5575   25.2779 H   0  0  0  0  0  0
   -2.9574   47.5118   24.6116 H   0  0  0  0  0  0
   -3.4670   49.3082   26.0078 H   0  0  0  0  0  0
   -1.7690   49.4186   26.4821 H   0  0  0  0  0  0
   -2.3445   51.2175   24.7903 H   0  0  0  0  0  0
   -2.8905   50.0363   23.6551 H   0  0  0  0  0  0
    3.6873   51.5449   22.0818 H   0  0  0  0  0  0
    3.1522   52.9282   23.0640 H   0  0  0  0  0  0
    5.1943   53.4632   23.3269 H   0  0  0  0  0  0
    7.1729   54.8726   23.5435 H   0  0  0  0  0  0
    7.9179   56.2925   21.6726 H   0  0  0  0  0  0
    4.6051   54.9065   19.3200 H   0  0  0  0  0  0
   -2.2388   47.2180   26.0425 H   0  0  0  0  0  0
  1  6  2  0  0  0
  1  2  1  0  0  0
  1 37  1  0  0  0
  2  3  2  0  0  0
  2 38  1  0  0  0
  3  4  1  0  0  0
  3 11  1  0  0  0
  4  5  2  0  0  0
  4 39  1  0  0  0
  5  6  1  0  0  0
  5  7  1  0  0  0
  6 40  1  0  0  0
  7  8  1  0  0  0
  7  9  1  0  0  0
  7 10  1  0  0  0
 11 12  1  0  0  0
 11 41  1  0  0  0
 11 42  1  0  0  0
 12 13  1  0  0  0
 12 43  1  0  0  0
 13 14  2  0  0  0
 13 15  1  0  0  0
 15 16  1  0  0  0
 15 20  1  0  0  0
 15 17  1  0  0  0
 17 18  1  0  0  0
 17 44  1  0  0  0
 17 45  1  0  0  0
 18 19  1  0  0  0
 18 26  1  0  0  0
 19 20  1  0  0  0
 19 46  1  0  0  0
 19 47  1  0  0  0
 20 25  1  0  0  0
 20 21  1  0  0  0
 21 22  1  0  0  0
 21 48  1  0  0  0
 21 49  1  0  0  0
 22 23  1  0  0  0
 22 50  1  0  0  0
 22 51  1  0  0  0
 23 24  1  0  0  0
 23 52  1  0  0  0
 23 63  1  0  0  0
 24 25  1  0  0  0
 24 53  1  0  0  0
 24 54  1  0  0  0
 25 55  1  0  0  0
 25 56  1  0  0  0
 26 27  2  0  0  0
 26 28  1  0  0  0
 28 29  1  0  0  0
 28 57  1  0  0  0
 28 58  1  0  0  0
 29 30  1  0  0  0
 30 35  2  0  0  0
 30 31  1  0  0  0
 31 32  2  0  0  0
 31 59  1  0  0  0
 32 33  1  0  0  0
 32 60  1  0  0  0
 33 34  2  0  0  0
 33 61  1  0  0  0
 34 35  1  0  0  0
 34 36  1  0  0  0
 35 62  1  0  0  0
M  CHG  1  23   1
M  END
> <i_i_glide_confnum>
357

> <i_i_glide_lignum>
3064

> <i_i_glide_posenum>
17

> <i_i_glide_rotatable_bonds>
9

> <i_m_Source_File_Index>
2779

> <b_m_subgroup_collapsed>
0

> <r_i_docking_score>
-5.65733

> <r_i_glide_ecoul>
-1.56335

> <r_i_glide_eff_state_penalty>
0

> <r_i_glide_einternal>
4.94206

> <r_i_glide_emodel>
-60.2739

> <r_i_glide_energy>
-44.2677

> <r_i_glide_erotb>
0.549377

> <r_i_glide_esite>
-0.147398

> <r_i_glide_evdw>
-42.7043

> <r_i_glide_gscore>
-5.65733

> <r_i_glide_hbond>
0

> <r_i_glide_ligand_efficiency>
-0.161638

> <r_i_glide_ligand_efficiency_ln>
-1.24191

> <r_i_glide_ligand_efficiency_sa>
-0.528728

> <r_i_glide_lipo>
-2.75249

> <r_i_glide_metal>
0

> <r_i_glide_rewards>
-0.937104

> <s_i_glide_gridfile>
wee1_glide-grid

> <s_m_Source_File>
wee1_decoys_glide_SP.sdf

> <s_m_Source_Path>
/Users/zhangxujun/Desktop

> <s_m_entry_id>
3054

> <s_m_entry_name>
wee1_decoys_glide_SP.2779

> <s_m_subgroup_title>
wee1_decoys_glide_SP

> <s_m_subgroupid>
wee1_decoys_glide_SP


$$$$
