ZINC09135454_2134
                    3D
 Schrodinger Suite 2024-2.
 63 65  0  0  1  0            999 V2000
    2.6048   51.1906   19.6368 C   0  0  0  0  0  0
    3.5993   52.2953   19.9410 C   0  0  0  0  0  0
    4.3044   52.8975   18.8993 C   0  0  0  0  0  0
    5.2359   53.8992   19.1633 C   0  0  0  0  0  0
    5.4770   54.3199   20.4743 C   0  0  0  0  0  0
    4.7680   53.7047   21.5277 C   0  0  0  0  0  0
    3.8283   52.7071   21.2535 C   0  0  0  0  0  0
    4.8793   54.0973   22.8620 N   0  0  0  0  0  0
    5.9996   54.1121   23.6242 C   0  0  0  0  0  0
    7.1041   53.6968   23.2814 O   0  0  0  0  0  0
    5.8096   54.7333   24.9486 C   0  0  0  0  0  0
    6.6794   55.4479   25.4564 O   0  0  0  0  0  0
    4.6342   54.4334   25.5470 N   0  0  0  0  0  0
    4.1462   55.0430   26.7798 C   0  0  0  0  0  0
    3.6827   54.0889   27.9074 C   0  0  1  0  0  0
    3.6885   54.6623   28.8381 H   0  0  0  0  0  0
    2.2796   53.5017   27.6994 C   0  0  0  0  0  0
    1.3518   53.5320   28.7420 C   0  0  0  0  0  0
    0.1024   52.9368   28.5929 C   0  0  0  0  0  0
   -0.2587   52.2956   27.3990 C   0  0  0  0  0  0
    0.6686   52.2790   26.3280 C   0  0  0  0  0  0
    1.9119   52.8965   26.4957 C   0  0  0  0  0  0
    0.3377   51.5742   25.0154 C   0  0  0  0  0  0
   -1.1688   51.6575   24.7558 C   0  0  0  0  0  0
   -1.9410   51.1180   25.9698 C   0  0  0  0  0  0
   -1.5469   51.7645   27.2306 N   0  0  0  0  0  0
   -2.4397   51.2967   28.2933 C   0  0  0  0  0  0
    6.1922   53.5631   28.4010 C   0  0  0  0  0  0
    4.3572   52.0964   29.3752 C   0  0  0  0  0  0
    6.4582   55.4658   20.6948 C   0  0  0  0  0  0
    3.1040   50.3740   19.1124 H   0  0  0  0  0  0
    2.1424   50.7872   20.5386 H   0  0  0  0  0  0
    1.8194   51.5638   18.9788 H   0  0  0  0  0  0
    4.1474   52.5688   17.8815 H   0  0  0  0  0  0
    5.7679   54.3491   18.3375 H   0  0  0  0  0  0
    3.2743   52.2449   22.0580 H   0  0  0  0  0  0
    4.0264   54.4474   23.2686 H   0  0  0  0  0  0
    3.9978   53.8098   25.0747 H   0  0  0  0  0  0
    4.9089   55.6966   27.1971 H   0  0  0  0  0  0
    3.3267   55.6965   26.4941 H   0  0  0  0  0  0
    1.5949   54.0033   29.6830 H   0  0  0  0  0  0
   -0.5847   52.9957   29.4221 H   0  0  0  0  0  0
    2.6152   52.8435   25.6808 H   0  0  0  0  0  0
    0.8931   52.0050   24.1807 H   0  0  0  0  0  0
    0.6408   50.5280   25.0885 H   0  0  0  0  0  0
   -1.4415   51.0981   23.8599 H   0  0  0  0  0  0
   -1.4653   52.6899   24.5618 H   0  0  0  0  0  0
   -1.6068   50.0843   26.0890 H   0  0  0  0  0  0
   -3.0198   51.0141   25.8404 H   0  0  0  0  0  0
   -2.5466   50.2107   28.2743 H   0  0  0  0  0  0
   -2.0944   51.5549   29.2912 H   0  0  0  0  0  0
   -3.4364   51.7184   28.1654 H   0  0  0  0  0  0
    6.2009   54.2022   29.2817 H   0  0  0  0  0  0
    6.8739   52.7226   28.4817 H   0  0  0  0  0  0
    6.5003   54.1323   27.5342 H   0  0  0  0  0  0
    4.3045   52.7048   30.2793 H   0  0  0  0  0  0
    3.3926   51.6435   29.1451 H   0  0  0  0  0  0
    5.1041   51.3114   29.4541 H   0  0  0  0  0  0
    7.4394   55.0854   20.9806 H   0  0  0  0  0  0
    6.5670   56.0763   19.7972 H   0  0  0  0  0  0
    6.1069   56.1357   21.4788 H   0  0  0  0  0  0
    4.7598   53.0072   28.1934 N   0  3  0  0  0  0
    4.7899   52.4194   27.3676 H   0  0  0  0  0  0
  1  2  1  0  0  0
  1 31  1  0  0  0
  1 32  1  0  0  0
  1 33  1  0  0  0
  2  7  2  0  0  0
  2  3  1  0  0  0
  3  4  2  0  0  0
  3 34  1  0  0  0
  4  5  1  0  0  0
  4 35  1  0  0  0
  5  6  2  0  0  0
  5 30  1  0  0  0
  6  7  1  0  0  0
  6  8  1  0  0  0
  7 36  1  0  0  0
  8  9  1  0  0  0
  8 37  1  0  0  0
  9 10  2  0  0  0
  9 11  1  0  0  0
 11 12  2  0  0  0
 11 13  1  0  0  0
 13 14  1  0  0  0
 13 38  1  0  0  0
 14 15  1  0  0  0
 14 39  1  0  0  0
 14 40  1  0  0  0
 15 16  1  0  0  0
 15 17  1  0  0  0
 15 62  1  0  0  0
 17 22  2  0  0  0
 17 18  1  0  0  0
 18 19  2  0  0  0
 18 41  1  0  0  0
 19 20  1  0  0  0
 19 42  1  0  0  0
 20 26  1  0  0  0
 20 21  2  0  0  0
 21 22  1  0  0  0
 21 23  1  0  0  0
 22 43  1  0  0  0
 23 24  1  0  0  0
 23 44  1  0  0  0
 23 45  1  0  0  0
 24 25  1  0  0  0
 24 46  1  0  0  0
 24 47  1  0  0  0
 25 26  1  0  0  0
 25 48  1  0  0  0
 25 49  1  0  0  0
 26 27  1  0  0  0
 27 50  1  0  0  0
 27 51  1  0  0  0
 27 52  1  0  0  0
 28 53  1  0  0  0
 28 54  1  0  0  0
 28 55  1  0  0  0
 28 62  1  0  0  0
 29 56  1  0  0  0
 29 57  1  0  0  0
 29 58  1  0  0  0
 29 62  1  0  0  0
 30 59  1  0  0  0
 30 60  1  0  0  0
 30 61  1  0  0  0
 62 63  1  0  0  0
M  CHG  1  62   1
M  END
> <i_i_glide_confnum>
4

> <i_i_glide_lignum>
2135

> <i_i_glide_posenum>
182

> <i_i_glide_rotatable_bonds>
8

> <i_m_Source_File_Index>
6082

> <b_m_subgroup_collapsed>
0

> <r_i_docking_score>
-5.22352

> <r_i_glide_ecoul>
-1.14203

> <r_i_glide_eff_state_penalty>
0

> <r_i_glide_einternal>
7.98558

> <r_i_glide_emodel>
-52.3684

> <r_i_glide_energy>
-41.2133

> <r_i_glide_erotb>
0.821828

> <r_i_glide_esite>
-0.0517718

> <r_i_glide_evdw>
-40.0712

> <r_i_glide_gscore>
-5.22352

> <r_i_glide_hbond>
-0.268132

> <r_i_glide_ligand_efficiency>
-0.174117

> <r_i_glide_ligand_efficiency_ln>
-1.18684

> <r_i_glide_ligand_efficiency_sa>
-0.541023

> <r_i_glide_lipo>
-2.03878

> <r_i_glide_metal>
0

> <r_i_glide_rewards>
-1.5118

> <s_i_glide_gridfile>
wee1_glide-grid

> <s_m_Source_File>
wee1_decoys_glide_SP.sdf

> <s_m_Source_Path>
/Users/zhangxujun/Desktop

> <s_m_entry_id>
6357

> <s_m_entry_name>
wee1_decoys_glide_SP.6082

> <s_m_subgroup_title>
wee1_decoys_glide_SP

> <s_m_subgroupid>
wee1_decoys_glide_SP


$$$$
