ZINC64930587_49
                    3D
 Schrodinger Suite 2024-2.
 53 56  0  0  1  0            999 V2000
    1.2462   52.0966   31.9214 C   0  0  0  0  0  0
    1.9716   52.4986   30.6510 C   0  0  0  0  0  0
    1.2283   52.8746   29.5334 C   0  0  0  0  0  0
    1.8765   53.2763   28.3719 C   0  0  0  0  0  0
    3.2714   53.3052   28.3251 C   0  0  0  0  0  0
    4.0206   52.8998   29.4362 C   0  0  0  0  0  0
    3.3682   52.4966   30.5987 C   0  0  0  0  0  0
    3.8291   53.6957   27.1016 N   0  0  0  0  0  0
    5.0918   54.0600   26.7796 C   0  0  0  0  0  0
    6.0077   54.2366   27.5829 O   0  0  0  0  0  0
    5.3199   54.2021   25.3543 C   0  0  0  0  0  0
    6.4505   54.4021   24.7150 N   0  0  0  0  0  0
    6.3155   54.4224   23.3295 N   0  0  0  0  0  0
    5.0808   54.2569   22.9083 C   0  0  0  0  0  0
    3.9757   54.0988   24.2350 S   0  0  0  0  0  0
    4.6307   54.2493   21.4426 C   0  0  1  0  0  0
    3.7505   54.8906   21.3670 H   0  0  0  0  0  0
    5.6728   54.8202   20.4651 C   0  0  0  0  0  0
    5.2997   54.1863   19.1429 C   0  0  0  0  0  0
    4.9639   52.7526   19.5324 C   0  0  0  0  0  0
    4.3474   52.9109   20.8589 N   0  0  0  0  0  0
    3.4104   52.0097   21.2593 C   0  0  0  0  0  0
    3.4486   50.8364   20.8883 O   0  0  0  0  0  0
    2.4234   52.5105   22.0367 N   0  0  0  0  0  0
    1.5668   51.8416   22.9369 C   0  0  0  0  0  0
    1.5233   50.4465   23.1131 C   0  0  0  0  0  0
    0.7294   49.8946   24.1149 C   0  0  0  0  0  0
   -0.0199   50.7215   24.9519 C   0  0  0  0  0  0
   -0.0146   52.1029   24.7544 C   0  0  0  0  0  0
    0.7722   52.6590   23.7472 C   0  0  0  0  0  0
   -0.8254   50.1068   26.0814 C   0  0  0  0  0  0
    1.7875   51.3219   32.4669 H   0  0  0  0  0  0
    0.2603   51.6974   31.6827 H   0  0  0  0  0  0
    1.1054   52.9529   32.5799 H   0  0  0  0  0  0
    0.1486   52.8615   29.5658 H   0  0  0  0  0  0
    1.2854   53.5651   27.5138 H   0  0  0  0  0  0
    5.0991   52.8785   29.4038 H   0  0  0  0  0  0
    3.9492   52.1958   31.4599 H   0  0  0  0  0  0
    3.1839   53.6525   26.3284 H   0  0  0  0  0  0
    5.6467   55.9091   20.4167 H   0  0  0  0  0  0
    6.6887   54.5078   20.7201 H   0  0  0  0  0  0
    4.4237   54.6782   18.7160 H   0  0  0  0  0  0
    6.0921   54.2390   18.3949 H   0  0  0  0  0  0
    4.2951   52.3221   18.7832 H   0  0  0  0  0  0
    5.9021   52.2013   19.6240 H   0  0  0  0  0  0
    2.4059   53.5138   22.1174 H   0  0  0  0  0  0
    2.1188   49.7698   22.5193 H   0  0  0  0  0  0
    0.7286   48.8232   24.2641 H   0  0  0  0  0  0
   -0.6030   52.7465   25.3929 H   0  0  0  0  0  0
    0.7858   53.7337   23.6260 H   0  0  0  0  0  0
   -1.4230   49.2729   25.7121 H   0  0  0  0  0  0
   -0.1598   49.7090   26.8495 H   0  0  0  0  0  0
   -1.5089   50.8214   26.5415 H   0  0  0  0  0  0
  1  2  1  0  0  0
  1 32  1  0  0  0
  1 33  1  0  0  0
  1 34  1  0  0  0
  2  7  2  0  0  0
  2  3  1  0  0  0
  3  4  2  0  0  0
  3 35  1  0  0  0
  4  5  1  0  0  0
  4 36  1  0  0  0
  5  6  2  0  0  0
  5  8  1  0  0  0
  6  7  1  0  0  0
  6 37  1  0  0  0
  7 38  1  0  0  0
  8  9  1  0  0  0
  8 39  1  0  0  0
  9 10  2  0  0  0
  9 11  1  0  0  0
 11 15  1  0  0  0
 11 12  2  0  0  0
 12 13  1  0  0  0
 13 14  2  0  0  0
 14 15  1  0  0  0
 14 16  1  0  0  0
 16 17  1  0  0  0
 16 21  1  0  0  0
 16 18  1  0  0  0
 18 19  1  0  0  0
 18 40  1  0  0  0
 18 41  1  0  0  0
 19 20  1  0  0  0
 19 42  1  0  0  0
 19 43  1  0  0  0
 20 21  1  0  0  0
 20 44  1  0  0  0
 20 45  1  0  0  0
 21 22  1  0  0  0
 22 23  2  0  0  0
 22 24  1  0  0  0
 24 25  1  0  0  0
 24 46  1  0  0  0
 25 30  2  0  0  0
 25 26  1  0  0  0
 26 27  2  0  0  0
 26 47  1  0  0  0
 27 28  1  0  0  0
 27 48  1  0  0  0
 28 29  2  0  0  0
 28 31  1  0  0  0
 29 30  1  0  0  0
 29 49  1  0  0  0
 30 50  1  0  0  0
 31 51  1  0  0  0
 31 52  1  0  0  0
 31 53  1  0  0  0
M  END
> <i_i_glide_confnum>
103

> <i_i_glide_lignum>
50

> <i_i_glide_posenum>
16

> <i_i_glide_rotatable_bonds>
7

> <i_m_Source_File_Index>
4517

> <b_m_subgroup_collapsed>
0

> <r_i_docking_score>
-5.26096

> <r_i_glide_ecoul>
-2.55505

> <r_i_glide_eff_state_penalty>
0

> <r_i_glide_einternal>
5.37632

> <r_i_glide_emodel>
-67.4568

> <r_i_glide_energy>
-53.7443

> <r_i_glide_erotb>
0.780157

> <r_i_glide_esite>
-0.0105099

> <r_i_glide_evdw>
-51.1892

> <r_i_glide_gscore>
-5.26096

> <r_i_glide_hbond>
0

> <r_i_glide_ligand_efficiency>
-0.175365

> <r_i_glide_ligand_efficiency_ln>
-1.19535

> <r_i_glide_ligand_efficiency_sa>
-0.544901

> <r_i_glide_lipo>
-2.15161

> <r_i_glide_metal>
0

> <r_i_glide_rewards>
-0.936279

> <s_i_glide_gridfile>
wee1_glide-grid

> <s_m_Source_File>
wee1_decoys_glide_SP.sdf

> <s_m_Source_Path>
/Users/zhangxujun/Desktop

> <s_m_entry_id>
4792

> <s_m_entry_name>
wee1_decoys_glide_SP.4517

> <s_m_subgroup_title>
wee1_decoys_glide_SP

> <s_m_subgroupid>
wee1_decoys_glide_SP


$$$$
