ZINC05274740_5846
                    3D
 Schrodinger Suite 2024-2.
 51 55  0  0  1  0            999 V2000
    1.0022   54.6544   30.3968 C   0  0  0  0  0  0
    1.4238   53.2157   29.9816 C   0  0  0  0  0  0
    2.0518   52.4964   31.2017 C   0  0  0  0  0  0
    0.1336   52.4288   29.6273 C   0  0  0  0  0  0
    2.4509   53.2235   28.7799 C   0  0  2  0  0  0
    2.8996   52.2270   28.7549 H   0  0  0  0  0  0
    3.6155   54.2381   28.9747 C   0  0  0  0  0  0
    4.7625   54.0313   27.9625 C   0  0  0  0  0  0
    4.1897   53.9683   26.5417 C   0  0  0  0  0  0
    2.8221   53.6960   26.3248 C   0  0  0  0  0  0
    2.3961   53.6966   24.6471 S   0  0  0  0  0  0
    4.0196   54.0979   24.2330 C   0  0  0  0  0  0
    4.8805   54.2239   25.3271 C   0  0  0  0  0  0
    6.2674   54.6339   25.2038 C   0  0  0  0  0  0
    7.0827   54.8964   26.0812 O   0  0  0  0  0  0
    6.6374   54.7656   23.9078 N   0  0  0  0  0  0
    5.8725   54.3025   22.7201 C   0  0  1  0  0  0
    6.1180   53.2410   22.6174 H   0  0  0  0  0  0
    4.4174   54.3422   22.9452 N   0  0  0  0  0  0
    6.3108   54.9101   21.3759 C   0  0  0  0  0  0
    7.5724   55.5366   21.2472 C   0  0  0  0  0  0
    8.0013   56.0855   20.0329 C   0  0  0  0  0  0
    7.1179   56.0504   18.9647 C   0  0  0  0  0  0
    5.8894   55.4682   19.0711 C   0  0  0  0  0  0
    5.4581   54.8736   20.2515 C   0  0  0  0  0  0
    5.2420   55.5629   17.8780 O   0  0  0  0  0  0
    6.0285   56.4159   17.0902 C   0  0  0  0  0  0
    7.2866   56.5194   17.7016 O   0  0  0  0  0  0
    1.7712   53.4974   27.4070 C   0  0  0  0  0  0
    0.1649   54.6448   31.0997 H   0  0  0  0  0  0
    0.6937   55.2475   29.5358 H   0  0  0  0  0  0
    1.8069   55.2073   30.8806 H   0  0  0  0  0  0
    2.2061   51.4430   30.9914 H   0  0  0  0  0  0
    3.0244   52.8967   31.4785 H   0  0  0  0  0  0
    1.4035   52.5508   32.0806 H   0  0  0  0  0  0
    0.3647   51.4427   29.2234 H   0  0  0  0  0  0
   -0.4963   52.2736   30.5063 H   0  0  0  0  0  0
   -0.4818   52.9516   28.8928 H   0  0  0  0  0  0
    3.2513   55.2660   28.9533 H   0  0  0  0  0  0
    4.0467   54.1278   29.9680 H   0  0  0  0  0  0
    5.4874   54.8383   28.0829 H   0  0  0  0  0  0
    5.2969   53.1064   28.1818 H   0  0  0  0  0  0
    7.6180   54.9673   23.7707 H   0  0  0  0  0  0
    3.8989   53.9418   22.1786 H   0  0  0  0  0  0
    8.2551   55.5861   22.0817 H   0  0  0  0  0  0
    8.9846   56.5256   19.9423 H   0  0  0  0  0  0
    4.4828   54.4132   20.2910 H   0  0  0  0  0  0
    5.5627   57.4027   17.0535 H   0  0  0  0  0  0
    6.1285   56.0197   16.0776 H   0  0  0  0  0  0
    1.1225   52.6666   27.1303 H   0  0  0  0  0  0
    1.1550   54.3924   27.4680 H   0  0  0  0  0  0
  1  2  1  0  0  0
  1 30  1  0  0  0
  1 31  1  0  0  0
  1 32  1  0  0  0
  2  3  1  0  0  0
  2  4  1  0  0  0
  2  5  1  0  0  0
  3 33  1  0  0  0
  3 34  1  0  0  0
  3 35  1  0  0  0
  4 36  1  0  0  0
  4 37  1  0  0  0
  4 38  1  0  0  0
  5  6  1  0  0  0
  5 29  1  0  0  0
  5  7  1  0  0  0
  7  8  1  0  0  0
  7 39  1  0  0  0
  7 40  1  0  0  0
  8  9  1  0  0  0
  8 41  1  0  0  0
  8 42  1  0  0  0
  9 13  1  0  0  0
  9 10  2  0  0  0
 10 11  1  0  0  0
 10 29  1  0  0  0
 11 12  1  0  0  0
 12 19  1  0  0  0
 12 13  2  0  0  0
 13 14  1  0  0  0
 14 15  2  0  0  0
 14 16  1  0  0  0
 16 17  1  0  0  0
 16 43  1  0  0  0
 17 18  1  0  0  0
 17 19  1  0  0  0
 17 20  1  0  0  0
 19 44  1  0  0  0
 20 25  2  0  0  0
 20 21  1  0  0  0
 21 22  2  0  0  0
 21 45  1  0  0  0
 22 23  1  0  0  0
 22 46  1  0  0  0
 23 28  1  0  0  0
 23 24  2  0  0  0
 24 25  1  0  0  0
 24 26  1  0  0  0
 25 47  1  0  0  0
 26 27  1  0  0  0
 27 28  1  0  0  0
 27 48  1  0  0  0
 27 49  1  0  0  0
 29 50  1  0  0  0
 29 51  1  0  0  0
M  END
> <i_i_glide_confnum>
1

> <i_i_glide_lignum>
5847

> <i_i_glide_posenum>
307

> <i_i_glide_rotatable_bonds>
2

> <i_m_Source_File_Index>
2982

> <b_m_subgroup_collapsed>
0

> <r_i_docking_score>
-9.03382

> <r_i_glide_ecoul>
-6.45827

> <r_i_glide_eff_state_penalty>
0

> <r_i_glide_einternal>
3.3575

> <r_i_glide_emodel>
-69.9478

> <r_i_glide_energy>
-46.3144

> <r_i_glide_erotb>
0.0920637

> <r_i_glide_esite>
0

> <r_i_glide_evdw>
-39.8562

> <r_i_glide_gscore>
-9.03382

> <r_i_glide_hbond>
-0.59535

> <r_i_glide_ligand_efficiency>
-0.334586

> <r_i_glide_ligand_efficiency_ln>
-2.10292

> <r_i_glide_ligand_efficiency_sa>
-1.00376

> <r_i_glide_lipo>
-3.15973

> <r_i_glide_metal>
0

> <r_i_glide_rewards>
-2.40925

> <s_i_glide_gridfile>
wee1_glide-grid

> <s_m_Source_File>
wee1_decoys_glide_SP.sdf

> <s_m_Source_Path>
/Users/zhangxujun/Desktop

> <s_m_entry_id>
3257

> <s_m_entry_name>
wee1_decoys_glide_SP.2982

> <s_m_subgroup_title>
wee1_decoys_glide_SP

> <s_m_subgroupid>
wee1_decoys_glide_SP


$$$$
