ZINC43218948_2827
                    3D
 Schrodinger Suite 2024-2.
 65 69  0  0  1  0            999 V2000
    6.0839   57.3570   18.3562 C   0  0  0  0  0  0
    4.9113   56.7640   17.7120 N   0  0  0  0  0  0
    4.1031   57.6381   16.8521 C   0  0  0  0  0  0
    4.4548   55.4676   18.0751 C   0  0  0  0  0  0
    5.1262   54.7053   19.0434 C   0  0  0  0  0  0
    4.6591   53.4496   19.4219 C   0  0  0  0  0  0
    3.5070   52.9217   18.8414 C   0  0  0  0  0  0
    2.8410   53.6572   17.8570 C   0  0  0  0  0  0
    3.3139   54.9123   17.4781 C   0  0  0  0  0  0
    2.9905   51.5669   19.3363 C   0  0  1  0  0  0
    3.8227   50.9435   19.6808 H   0  0  0  0  0  0
    1.8650   51.6043   20.3573 C   0  0  1  0  0  0
    1.1576   52.3790   20.0406 H   0  0  0  0  0  0
    1.3619   50.2212   20.2798 C   0  0  1  0  0  0
    2.1153   49.4563   20.5119 H   0  0  0  0  0  0
    0.4263   50.1879   21.4769 C   0  0  0  0  0  0
   -0.5735   49.4857   21.6204 O   0  0  0  0  0  0
    1.0467   51.0020   22.3872 N   0  0  0  0  0  0
    2.0468   51.7676   21.8499 C   0  0  0  0  0  0
    2.8387   52.5221   22.4093 O   0  0  0  0  0  0
    0.6622   51.0759   23.8124 C   0  0  0  0  0  0
   -0.6479   51.8614   24.0808 C   0  0  0  0  0  0
   -1.0181   51.9396   25.5752 C   0  0  0  0  0  0
   -1.0379   50.5548   26.2432 C   0  0  0  0  0  0
    0.3033   49.8293   26.0579 C   0  0  0  0  0  0
    0.7080   49.7240   24.5751 C   0  0  0  0  0  0
    1.0279   50.0147   18.7787 C   0  0  1  0  0  0
    2.3044   50.7380   18.2066 N   0  3  0  0  0  0
    1.0306   48.5432   18.2806 C   0  0  0  0  0  0
    0.5319   47.5170   19.0953 C   0  0  0  0  0  0
    0.5074   46.1992   18.6484 C   0  0  0  0  0  0
    0.9834   45.8915   17.3790 C   0  0  0  0  0  0
    1.4816   46.8923   16.5522 C   0  0  0  0  0  0
    1.4966   48.2108   16.9977 C   0  0  0  0  0  0
   -0.2307   50.7502   18.1865 C   0  0  0  0  0  0
   -0.0854   51.5859   17.2588 O   0  0  0  0  0  0
   -1.3412   50.4793   18.6941 O   0  5  0  0  0  0
    5.9017   57.5016   19.4232 H   0  0  0  0  0  0
    6.9491   56.6986   18.2536 H   0  0  0  0  0  0
    6.3497   58.3256   17.9293 H   0  0  0  0  0  0
    3.9725   57.1884   15.8670 H   0  0  0  0  0  0
    3.1108   57.7856   17.2813 H   0  0  0  0  0  0
    4.5481   58.6255   16.7167 H   0  0  0  0  0  0
    6.0125   55.0788   19.5320 H   0  0  0  0  0  0
    5.1868   52.8952   20.1840 H   0  0  0  0  0  0
    1.9386   53.2858   17.3969 H   0  0  0  0  0  0
    2.7601   55.4500   16.7242 H   0  0  0  0  0  0
    1.4334   51.6738   24.3051 H   0  0  0  0  0  0
   -0.5665   52.8725   23.6780 H   0  0  0  0  0  0
   -1.4713   51.3772   23.5518 H   0  0  0  0  0  0
   -0.2995   52.5765   26.0927 H   0  0  0  0  0  0
   -1.9897   52.4230   25.6937 H   0  0  0  0  0  0
   -1.2599   50.6527   27.3064 H   0  0  0  0  0  0
   -1.8431   49.9504   25.8229 H   0  0  0  0  0  0
    1.0786   50.3533   26.6192 H   0  0  0  0  0  0
    0.2440   48.8291   26.4900 H   0  0  0  0  0  0
    0.0312   49.0085   24.1073 H   0  0  0  0  0  0
    1.7072   49.2991   24.4985 H   0  0  0  0  0  0
    1.9955   51.3435   17.4557 H   0  0  0  0  0  0
    0.1451   47.7289   20.0773 H   0  0  0  0  0  0
    0.1186   45.4184   19.2844 H   0  0  0  0  0  0
    0.9682   44.8714   17.0299 H   0  0  0  0  0  0
    1.8551   46.6529   15.5672 H   0  0  0  0  0  0
    1.8806   48.9704   16.3320 H   0  0  0  0  0  0
    2.9696   50.0864   17.7914 H   0  0  0  0  0  0
  1  2  1  0  0  0
  1 38  1  0  0  0
  1 39  1  0  0  0
  1 40  1  0  0  0
  2  3  1  0  0  0
  2  4  1  0  0  0
  3 41  1  0  0  0
  3 42  1  0  0  0
  3 43  1  0  0  0
  4  9  2  0  0  0
  4  5  1  0  0  0
  5  6  2  0  0  0
  5 44  1  0  0  0
  6  7  1  0  0  0
  6 45  1  0  0  0
  7  8  2  0  0  0
  7 10  1  0  0  0
  8  9  1  0  0  0
  8 46  1  0  0  0
  9 47  1  0  0  0
 10 11  1  0  0  0
 10 28  1  0  0  0
 10 12  1  0  0  0
 12 13  1  0  0  0
 12 19  1  0  0  0
 12 14  1  0  0  0
 14 15  1  0  0  0
 14 16  1  0  0  0
 14 27  1  0  0  0
 16 17  2  0  0  0
 16 18  1  0  0  0
 18 19  1  0  0  0
 18 21  1  0  0  0
 19 20  2  0  0  0
 21 26  1  0  0  0
 21 22  1  0  0  0
 21 48  1  0  0  0
 22 23  1  0  0  0
 22 49  1  0  0  0
 22 50  1  0  0  0
 23 24  1  0  0  0
 23 51  1  0  0  0
 23 52  1  0  0  0
 24 25  1  0  0  0
 24 53  1  0  0  0
 24 54  1  0  0  0
 25 26  1  0  0  0
 25 55  1  0  0  0
 25 56  1  0  0  0
 26 57  1  0  0  0
 26 58  1  0  0  0
 27 28  1  0  0  0
 27 29  1  0  0  0
 27 35  1  0  0  0
 28 59  1  0  0  0
 28 65  1  0  0  0
 29 34  2  0  0  0
 29 30  1  0  0  0
 30 31  2  0  0  0
 30 60  1  0  0  0
 31 32  1  0  0  0
 31 61  1  0  0  0
 32 33  2  0  0  0
 32 62  1  0  0  0
 33 34  1  0  0  0
 33 63  1  0  0  0
 34 64  1  0  0  0
 35 36  2  0  0  0
 35 37  1  0  0  0
M  CHG  2  28   1  37  -1
M  END
> <i_i_glide_confnum>
43

> <i_i_glide_lignum>
2828

> <i_i_glide_posenum>
11

> <i_i_glide_rotatable_bonds>
5

> <i_m_Source_File_Index>
5121

> <b_m_subgroup_collapsed>
0

> <r_i_docking_score>
-2.70759

> <r_i_glide_ecoul>
-3.4059

> <r_i_glide_eff_state_penalty>
0

> <r_i_glide_einternal>
1.0152

> <r_i_glide_emodel>
-37.8401

> <r_i_glide_energy>
-31.2333

> <r_i_glide_erotb>
0.28358

> <r_i_glide_esite>
-0.106867

> <r_i_glide_evdw>
-27.8274

> <r_i_glide_gscore>
-2.70759

> <r_i_glide_hbond>
-0.202288

> <r_i_glide_ligand_efficiency>
-0.0796349

> <r_i_glide_ligand_efficiency_ln>
-0.598182

> <r_i_glide_ligand_efficiency_sa>
-0.257986

> <r_i_glide_lipo>
-0.197396

> <r_i_glide_metal>
0

> <r_i_glide_rewards>
-0.582362

> <s_i_glide_gridfile>
wee1_glide-grid

> <s_m_Source_File>
wee1_decoys_glide_SP.sdf

> <s_m_Source_Path>
/Users/zhangxujun/Desktop

> <s_m_entry_id>
5396

> <s_m_entry_name>
wee1_decoys_glide_SP.5121

> <s_m_subgroup_title>
wee1_decoys_glide_SP

> <s_m_subgroupid>
wee1_decoys_glide_SP


$$$$
