ZINC09459701_4419
                    3D
 Schrodinger Suite 2024-2.
 41 43  0  0  1  0            999 V2000
    2.9977   53.5817   23.5168 C   0  0  0  0  0  0
    4.3353   54.0969   22.9904 C   0  0  0  0  0  0
    4.4381   54.3753   21.6234 C   0  0  0  0  0  0
    5.6142   54.8967   21.0892 C   0  0  0  0  0  0
    6.7046   55.1486   21.9167 C   0  0  0  0  0  0
    6.6276   54.8517   23.2736 C   0  0  0  0  0  0
    5.4478   54.3251   23.8272 C   0  0  0  0  0  0
    5.3852   53.9412   25.1793 N   0  0  0  0  0  0
    6.0524   54.4647   26.2268 C   0  0  0  0  0  0
    6.7046   55.5067   26.1795 O   0  0  0  0  0  0
    5.9948   53.6617   27.5299 C   0  0  0  0  0  0
    5.1047   54.4961   28.8816 S   0  0  0  0  0  0
    3.7057   53.4343   28.9924 C   0  0  0  0  0  0
    3.4142   52.7289   30.0553 N   0  0  0  0  0  0
    2.2008   52.0967   29.8103 N   0  0  0  0  0  0
    1.7746   52.4820   28.6289 C   0  0  0  0  0  0
    2.6773   53.3722   28.0804 N   0  0  0  0  0  0
    2.5663   54.0964   26.9109 N   0  0  0  0  0  0
    0.4699   52.0470   28.0241 C   0  0  0  0  0  0
    0.3047   51.9651   26.6348 C   0  0  0  0  0  0
   -0.9162   51.5799   26.0893 C   0  0  0  0  0  0
   -1.9748   51.2528   26.9303 C   0  0  0  0  0  0
   -1.8170   51.2968   28.3119 C   0  0  0  0  0  0
   -0.5988   51.6969   28.8588 C   0  0  0  0  0  0
   -3.1631   50.8881   26.3992 F   0  0  0  0  0  0
    5.7261   55.2859   19.2313 Br  0  0  0  0  0  0
    3.1125   52.8304   24.2950 H   0  0  0  0  0  0
    2.4137   54.4057   23.9285 H   0  0  0  0  0  0
    2.4152   53.1092   22.7235 H   0  0  0  0  0  0
    3.5965   54.2070   20.9653 H   0  0  0  0  0  0
    7.6193   55.5475   21.5043 H   0  0  0  0  0  0
    7.5044   55.0198   23.8797 H   0  0  0  0  0  0
    4.8566   53.0986   25.3465 H   0  0  0  0  0  0
    5.5981   52.6584   27.3682 H   0  0  0  0  0  0
    7.0228   53.5216   27.8632 H   0  0  0  0  0  0
    2.4916   55.0876   27.0944 H   0  0  0  0  0  0
    3.2864   53.8722   26.2432 H   0  0  0  0  0  0
    1.1187   52.1924   25.9655 H   0  0  0  0  0  0
   -1.0414   51.5207   25.0193 H   0  0  0  0  0  0
   -2.6315   51.0063   28.9585 H   0  0  0  0  0  0
   -0.4898   51.7262   29.9341 H   0  0  0  0  0  0
  1  2  1  0  0  0
  1 27  1  0  0  0
  1 28  1  0  0  0
  1 29  1  0  0  0
  2  7  2  0  0  0
  2  3  1  0  0  0
  3  4  2  0  0  0
  3 30  1  0  0  0
  4  5  1  0  0  0
  4 26  1  0  0  0
  5  6  2  0  0  0
  5 31  1  0  0  0
  6  7  1  0  0  0
  6 32  1  0  0  0
  7  8  1  0  0  0
  8  9  1  0  0  0
  8 33  1  0  0  0
  9 10  2  0  0  0
  9 11  1  0  0  0
 11 12  1  0  0  0
 11 34  1  0  0  0
 11 35  1  0  0  0
 12 13  1  0  0  0
 13 17  1  0  0  0
 13 14  2  0  0  0
 14 15  1  0  0  0
 15 16  2  0  0  0
 16 17  1  0  0  0
 16 19  1  0  0  0
 17 18  1  0  0  0
 18 36  1  0  0  0
 18 37  1  0  0  0
 19 24  2  0  0  0
 19 20  1  0  0  0
 20 21  2  0  0  0
 20 38  1  0  0  0
 21 22  1  0  0  0
 21 39  1  0  0  0
 22 23  2  0  0  0
 22 25  1  0  0  0
 23 24  1  0  0  0
 23 40  1  0  0  0
 24 41  1  0  0  0
M  END
> <i_i_glide_confnum>
46

> <i_i_glide_lignum>
4420

> <i_i_glide_posenum>
369

> <i_i_glide_rotatable_bonds>
6

> <i_m_Source_File_Index>
5950

> <b_m_subgroup_collapsed>
0

> <r_i_docking_score>
-6.68284

> <r_i_glide_ecoul>
-6.4871

> <r_i_glide_eff_state_penalty>
0

> <r_i_glide_einternal>
3.52308

> <r_i_glide_emodel>
-70.1873

> <r_i_glide_energy>
-51.2103

> <r_i_glide_erotb>
0.628232

> <r_i_glide_esite>
-0.041485

> <r_i_glide_evdw>
-44.7232

> <r_i_glide_gscore>
-6.68284

> <r_i_glide_hbond>
-0.32

> <r_i_glide_ligand_efficiency>
-0.257032

> <r_i_glide_ligand_efficiency_ln>
-1.56944

> <r_i_glide_ligand_efficiency_sa>
-0.761457

> <r_i_glide_lipo>
-2.04656

> <r_i_glide_metal>
0

> <r_i_glide_rewards>
-1.6938

> <s_i_glide_gridfile>
wee1_glide-grid

> <s_m_Source_File>
wee1_decoys_glide_SP.sdf

> <s_m_Source_Path>
/Users/zhangxujun/Desktop

> <s_m_entry_id>
6225

> <s_m_entry_name>
wee1_decoys_glide_SP.5950

> <s_m_subgroup_title>
wee1_decoys_glide_SP

> <s_m_subgroupid>
wee1_decoys_glide_SP


$$$$
