ZINC13548530_6136
                    3D
 Schrodinger Suite 2024-2.
 44 45  0  0  1  0            999 V2000
    6.7043   55.1008   21.9781 C   0  0  0  0  0  0
    5.9235   54.4142   23.1120 C   0  0  1  0  0  0
    6.2346   53.3675   23.1316 H   0  0  0  0  0  0
    6.2389   55.0839   24.4789 C   0  0  0  0  0  0
    6.2570   54.0932   25.6495 C   0  0  0  0  0  0
    6.3010   54.7385   27.0386 C   0  0  0  0  0  0
    6.1167   53.7107   28.1395 C   0  0  0  0  0  0
    4.9562   53.3512   28.7227 C   0  0  0  0  0  0
    3.5610   53.8870   28.4085 C   0  0  2  0  0  0
    3.6405   54.7637   27.7676 H   0  0  0  0  0  0
    2.7861   54.2628   29.6815 C   0  0  0  0  0  0
    1.8188   53.1065   30.0076 C   0  0  1  0  0  0
    0.8066   53.5068   29.9172 H   0  0  0  0  0  0
    1.9954   52.0806   28.8943 C   0  0  0  0  0  0
    2.6821   52.8205   27.7251 C   0  0  1  0  0  0
    3.3414   52.0968   27.2623 H   0  0  0  0  0  0
    1.7680   53.4188   26.6129 C   0  0  1  0  0  0
    1.6295   54.4904   26.7781 H   0  0  0  0  0  0
    2.3041   53.1950   25.2070 C   0  0  0  0  0  0
    3.0701   54.0480   24.4954 C   0  0  0  0  0  0
    3.5752   53.6973   23.1675 C   0  0  0  0  0  0
    3.1046   52.7904   22.4816 O   0  0  0  0  0  0
    4.5514   54.4967   22.7044 O   0  0  0  0  0  0
    0.4717   52.8644   26.6384 O   0  0  0  0  0  0
    1.9292   52.5041   31.2813 O   0  0  0  0  0  0
    7.7811   55.0265   22.1325 H   0  0  0  0  0  0
    6.4842   54.6403   21.0144 H   0  0  0  0  0  0
    6.4522   56.1575   21.8979 H   0  0  0  0  0  0
    5.5281   55.8873   24.6708 H   0  0  0  0  0  0
    7.2156   55.5696   24.4444 H   0  0  0  0  0  0
    5.3810   53.4484   25.5987 H   0  0  0  0  0  0
    7.1048   53.4167   25.5375 H   0  0  0  0  0  0
    7.2515   55.2420   27.2119 H   0  0  0  0  0  0
    5.5328   55.5034   27.1179 H   0  0  0  0  0  0
    7.0257   53.2276   28.4688 H   0  0  0  0  0  0
    4.9906   52.5842   29.4841 H   0  0  0  0  0  0
    3.4858   54.4888   30.4816 H   0  0  0  0  0  0
    2.2269   55.1836   29.5048 H   0  0  0  0  0  0
    1.0755   51.5489   28.6507 H   0  0  0  0  0  0
    2.6805   51.3004   29.2327 H   0  0  0  0  0  0
    2.0718   52.2245   24.7866 H   0  0  0  0  0  0
    3.3549   55.0094   24.8938 H   0  0  0  0  0  0
    0.5434   51.9077   26.6873 H   0  0  0  0  0  0
    1.1156   52.0246   31.4669 H   0  0  0  0  0  0
  1  2  1  0  0  0
  1 26  1  0  0  0
  1 27  1  0  0  0
  1 28  1  0  0  0
  2  3  1  0  0  0
  2 23  1  0  0  0
  2  4  1  0  0  0
  4  5  1  0  0  0
  4 29  1  0  0  0
  4 30  1  0  0  0
  5  6  1  0  0  0
  5 31  1  0  0  0
  5 32  1  0  0  0
  6  7  1  0  0  0
  6 33  1  0  0  0
  6 34  1  0  0  0
  7  8  2  0  0  0
  7 35  1  0  0  0
  8  9  1  0  0  0
  8 36  1  0  0  0
  9 10  1  0  0  0
  9 15  1  0  0  0
  9 11  1  0  0  0
 11 12  1  0  0  0
 11 37  1  0  0  0
 11 38  1  0  0  0
 12 13  1  0  0  0
 12 14  1  0  0  0
 12 25  1  0  0  0
 14 15  1  0  0  0
 14 39  1  0  0  0
 14 40  1  0  0  0
 15 16  1  0  0  0
 15 17  1  0  0  0
 17 18  1  0  0  0
 17 19  1  0  0  0
 17 24  1  0  0  0
 19 20  2  0  0  0
 19 41  1  0  0  0
 20 21  1  0  0  0
 20 42  1  0  0  0
 21 22  2  0  0  0
 21 23  1  0  0  0
 24 43  1  0  0  0
 25 44  1  0  0  0
M  END
> <i_i_glide_confnum>
1

> <i_i_glide_lignum>
6137

> <i_i_glide_posenum>
328

> <i_i_glide_rotatable_bonds>
2

> <i_m_Source_File_Index>
5809

> <b_m_subgroup_collapsed>
0

> <r_i_docking_score>
-6.98107

> <r_i_glide_ecoul>
-0.345128

> <r_i_glide_eff_state_penalty>
0

> <r_i_glide_einternal>
1.22747

> <r_i_glide_emodel>
-46.2903

> <r_i_glide_energy>
-34.2724

> <r_i_glide_erotb>
0

> <r_i_glide_esite>
0

> <r_i_glide_evdw>
-33.9273

> <r_i_glide_gscore>
-6.98107

> <r_i_glide_hbond>
-0.0401711

> <r_i_glide_ligand_efficiency>
-0.349054

> <r_i_glide_ligand_efficiency_ln>
-1.74713

> <r_i_glide_ligand_efficiency_sa>
-0.947478

> <r_i_glide_lipo>
-3.31911

> <r_i_glide_metal>
0

> <r_i_glide_rewards>
-1.87366

> <s_i_glide_gridfile>
wee1_glide-grid

> <s_m_Source_File>
wee1_decoys_glide_SP.sdf

> <s_m_Source_Path>
/Users/zhangxujun/Desktop

> <s_m_entry_id>
6084

> <s_m_entry_name>
wee1_decoys_glide_SP.5809

> <s_m_subgroup_title>
wee1_decoys_glide_SP

> <s_m_subgroupid>
wee1_decoys_glide_SP


$$$$
