ZINC04453458_4706
                    3D
 Schrodinger Suite 2024-2.
 37 39  0  0  1  0            999 V2000
    0.9222   56.4240   30.7963 C   0  0  0  0  0  0
    1.5131   56.3866   29.3913 C   0  0  0  0  0  0
    2.4357   55.1861   29.1688 C   0  0  0  0  0  0
    1.6711   53.8956   28.9761 C   0  0  0  0  0  0
    1.3691   53.1585   27.8401 C   0  0  0  0  0  0
    0.6358   52.0722   28.3372 C   0  0  0  0  0  0
    0.4462   52.0966   29.6322 N   0  0  0  0  0  0
    1.0857   53.2048   30.0098 N   0  0  0  0  0  0
    1.1026   53.4942   30.9758 H   0  0  0  0  0  0
    0.1246   51.0496   27.5854 O   0  0  0  0  0  0
    0.3878   51.1224   26.2543 C   0  0  0  0  0  0
    1.1002   52.0878   25.6131 C   0  0  0  0  0  0
    1.7167   53.2974   26.3508 C   0  0  2  0  0  0
    1.1803   54.1639   25.9865 H   0  0  0  0  0  0
    3.1874   53.6403   26.0282 C   0  0  0  0  0  0
    4.2118   53.4540   26.9757 C   0  0  0  0  0  0
    5.5333   53.7987   26.6903 C   0  0  0  0  0  0
    5.8623   54.3139   25.4378 C   0  0  0  0  0  0
    4.8636   54.4968   24.4833 C   0  0  0  0  0  0
    3.5353   54.1831   24.7804 C   0  0  0  0  0  0
    2.5824   54.4558   23.8585 F   0  0  0  0  0  0
    1.2663   51.9782   24.1974 C   0  0  0  0  0  0
    1.3690   51.8400   23.0526 N   0  0  0  0  0  0
   -0.1697   50.0054   25.6940 N   0  0  0  0  0  0
    0.2914   57.2964   30.8817 H   0  0  0  0  0  0
    0.3055   55.5518   31.0044 H   0  0  0  0  0  0
    1.6902   56.5001   31.5659 H   0  0  0  0  0  0
    2.0864   57.2967   29.2354 H   0  0  0  0  0  0
    0.7073   56.4019   28.6507 H   0  0  0  0  0  0
    3.1495   55.0992   29.9877 H   0  0  0  0  0  0
    3.0428   55.4011   28.2913 H   0  0  0  0  0  0
    4.0003   53.0228   27.9431 H   0  0  0  0  0  0
    6.3042   53.6414   27.4304 H   0  0  0  0  0  0
    6.8872   54.5623   25.2023 H   0  0  0  0  0  0
    5.1117   54.8944   23.5117 H   0  0  0  0  0  0
   -0.0506   49.8022   24.7122 H   0  0  0  0  0  0
   -0.4928   49.2565   26.2976 H   0  0  0  0  0  0
  1  2  1  0  0  0
  1 25  1  0  0  0
  1 26  1  0  0  0
  1 27  1  0  0  0
  2  3  1  0  0  0
  2 28  1  0  0  0
  2 29  1  0  0  0
  3  4  1  0  0  0
  3 30  1  0  0  0
  3 31  1  0  0  0
  4  8  1  0  0  0
  4  5  2  0  0  0
  5 13  1  0  0  0
  5  6  1  0  0  0
  6  7  2  0  0  0
  6 10  1  0  0  0
  7  8  1  0  0  0
  8  9  1  0  0  0
 10 11  1  0  0  0
 11 12  2  0  0  0
 11 24  1  0  0  0
 12 13  1  0  0  0
 12 22  1  0  0  0
 13 14  1  0  0  0
 13 15  1  0  0  0
 15 20  2  0  0  0
 15 16  1  0  0  0
 16 17  2  0  0  0
 16 32  1  0  0  0
 17 18  1  0  0  0
 17 33  1  0  0  0
 18 19  2  0  0  0
 18 34  1  0  0  0
 19 20  1  0  0  0
 19 35  1  0  0  0
 20 21  1  0  0  0
 22 23  3  0  0  0
 24 36  1  0  0  0
 24 37  1  0  0  0
M  END
> <i_i_glide_confnum>
2

> <i_i_glide_lignum>
4707

> <i_i_glide_posenum>
27

> <i_i_glide_rotatable_bonds>
4

> <i_m_Source_File_Index>
2692

> <b_m_subgroup_collapsed>
0

> <r_i_docking_score>
-5.82166

> <r_i_glide_ecoul>
0.510641

> <r_i_glide_eff_state_penalty>
0

> <r_i_glide_einternal>
1.5889

> <r_i_glide_emodel>
-41.9785

> <r_i_glide_energy>
-31.1667

> <r_i_glide_erotb>
0.412377

> <r_i_glide_esite>
-0.054201

> <r_i_glide_evdw>
-31.6774

> <r_i_glide_gscore>
-5.82166

> <r_i_glide_hbond>
0

> <r_i_glide_ligand_efficiency>
-0.264621

> <r_i_glide_ligand_efficiency_ln>
-1.42303

> <r_i_glide_ligand_efficiency_sa>
-0.741478

> <r_i_glide_lipo>
-2.75205

> <r_i_glide_metal>
0

> <r_i_glide_rewards>
-1.92051

> <s_i_glide_gridfile>
wee1_glide-grid

> <s_m_Source_File>
wee1_decoys_glide_SP.sdf

> <s_m_Source_Path>
/Users/zhangxujun/Desktop

> <s_m_entry_id>
2967

> <s_m_entry_name>
wee1_decoys_glide_SP.2692

> <s_m_subgroup_title>
wee1_decoys_glide_SP

> <s_m_subgroupid>
wee1_decoys_glide_SP


$$$$
