ZINC63058670_4763
                    3D
 Schrodinger Suite 2024-2.
 36 38  0  0  1  0            999 V2000
    3.8583   53.0730   19.5355 C   0  0  0  0  0  0
    4.9164   53.8200   20.3417 C   0  0  0  0  0  0
    4.8072   53.7876   21.7342 C   0  0  0  0  0  0
    5.6940   54.4980   22.5597 C   0  0  0  0  0  0
    6.7044   55.2549   21.9527 C   0  0  0  0  0  0
    6.8201   55.2967   20.5632 C   0  0  0  0  0  0
    5.9545   54.5646   19.7418 C   0  0  0  0  0  0
    6.1977   54.6181   18.3591 N   0  0  0  0  0  0
    6.0532   53.4376   17.5256 N   0  0  0  0  0  0
    5.5554   54.4853   24.0670 C   0  0  0  0  0  0
    6.5206   54.7437   24.7896 O   0  0  0  0  0  0
    4.3091   54.2055   24.5093 N   0  0  0  0  0  0
    3.8510   53.9047   25.8012 C   0  0  0  0  0  0
    2.4622   53.6968   25.9317 C   0  0  0  0  0  0
    1.8987   53.2973   27.1519 C   0  0  0  0  0  0
    2.7634   53.0918   28.2185 C   0  0  0  0  0  0
    4.1076   53.2992   28.0997 C   0  0  0  0  0  0
    4.6947   53.7188   26.9147 C   0  0  0  0  0  0
    4.7049   53.0230   29.2818 O   0  0  0  0  0  0
    3.7308   52.3712   30.0449 C   0  0  0  0  0  0
    2.4836   52.6797   29.4842 O   0  0  0  0  0  0
    2.9418   52.9255   20.1090 H   0  0  0  0  0  0
    3.5670   53.6469   18.6549 H   0  0  0  0  0  0
    4.2294   52.0991   19.2140 H   0  0  0  0  0  0
    4.0133   53.1933   22.1642 H   0  0  0  0  0  0
    7.4111   55.8115   22.5534 H   0  0  0  0  0  0
    7.6209   55.8752   20.1263 H   0  0  0  0  0  0
    7.0188   55.1266   18.0573 H   0  0  0  0  0  0
    6.2134   52.6038   18.0820 H   0  0  0  0  0  0
    5.1188   53.4248   17.1381 H   0  0  0  0  0  0
    3.6051   54.1422   23.7917 H   0  0  0  0  0  0
    1.8083   53.8301   25.0819 H   0  0  0  0  0  0
    0.8358   53.1310   27.2452 H   0  0  0  0  0  0
    5.7643   53.8419   26.8644 H   0  0  0  0  0  0
    3.7885   52.6595   31.0948 H   0  0  0  0  0  0
    3.9044   51.2972   29.9755 H   0  0  0  0  0  0
  1  2  1  0  0  0
  1 22  1  0  0  0
  1 23  1  0  0  0
  1 24  1  0  0  0
  2  7  2  0  0  0
  2  3  1  0  0  0
  3  4  2  0  0  0
  3 25  1  0  0  0
  4  5  1  0  0  0
  4 10  1  0  0  0
  5  6  2  0  0  0
  5 26  1  0  0  0
  6  7  1  0  0  0
  6 27  1  0  0  0
  7  8  1  0  0  0
  8  9  1  0  0  0
  8 28  1  0  0  0
  9 29  1  0  0  0
  9 30  1  0  0  0
 10 11  2  0  0  0
 10 12  1  0  0  0
 12 13  1  0  0  0
 12 31  1  0  0  0
 13 18  2  0  0  0
 13 14  1  0  0  0
 14 15  2  0  0  0
 14 32  1  0  0  0
 15 16  1  0  0  0
 15 33  1  0  0  0
 16 21  1  0  0  0
 16 17  2  0  0  0
 17 18  1  0  0  0
 17 19  1  0  0  0
 18 34  1  0  0  0
 19 20  1  0  0  0
 20 21  1  0  0  0
 20 35  1  0  0  0
 20 36  1  0  0  0
M  END
> <i_i_glide_confnum>
1

> <i_i_glide_lignum>
4764

> <i_i_glide_posenum>
399

> <i_i_glide_rotatable_bonds>
4

> <i_m_Source_File_Index>
3972

> <b_m_subgroup_collapsed>
0

> <r_i_docking_score>
-5.27427

> <r_i_glide_ecoul>
-0.937457

> <r_i_glide_eff_state_penalty>
0

> <r_i_glide_einternal>
4.46125

> <r_i_glide_emodel>
-45.4204

> <r_i_glide_energy>
-33.6366

> <r_i_glide_erotb>
0.66864

> <r_i_glide_esite>
-0.00271996

> <r_i_glide_evdw>
-32.6992

> <r_i_glide_gscore>
-5.27427

> <r_i_glide_hbond>
-0.0223119

> <r_i_glide_ligand_efficiency>
-0.251156

> <r_i_glide_ligand_efficiency_ln>
-1.30405

> <r_i_glide_ligand_efficiency_sa>
-0.692919

> <r_i_glide_lipo>
-1.99651

> <r_i_glide_metal>
0

> <r_i_glide_rewards>
-2.14578

> <s_i_glide_gridfile>
wee1_glide-grid

> <s_m_Source_File>
wee1_decoys_glide_SP.sdf

> <s_m_Source_Path>
/Users/zhangxujun/Desktop

> <s_m_entry_id>
4247

> <s_m_entry_name>
wee1_decoys_glide_SP.3972

> <s_m_subgroup_title>
wee1_decoys_glide_SP

> <s_m_subgroupid>
wee1_decoys_glide_SP


$$$$
