ZINC50695224_4802
                    3D
 Schrodinger Suite 2024-2.
 30 31  0  0  1  0            999 V2000
   -1.0640   51.6224   26.2595 C   0  0  0  0  0  0
    0.0448   52.0967   25.5700 C   0  0  0  0  0  0
    1.1039   52.7762   26.2153 C   0  0  0  0  0  0
    1.0306   52.8780   27.6321 C   0  0  0  0  0  0
   -0.0953   52.3900   28.3158 C   0  0  0  0  0  0
   -1.1459   51.7913   27.6320 C   0  0  0  0  0  0
   -2.5643   51.2945   28.4774 Cl  0  0  0  0  0  0
    2.1480   53.5458   28.4605 C   0  0  0  0  0  0
    3.3036   52.9044   28.2803 F   0  0  0  0  0  0
    2.3055   54.8152   28.0818 F   0  0  0  0  0  0
    1.8959   53.5493   29.7732 F   0  0  0  0  0  0
    2.2177   53.2966   25.5652 N   0  5  0  0  0  0
    2.1825   53.6612   24.2935 C   0  0  0  0  0  0
    1.1928   53.8027   23.5660 O   0  0  0  0  0  0
    3.5429   53.9674   23.6943 C   0  0  0  0  0  0
    4.7324   54.0987   24.4394 C   0  0  0  0  0  0
    5.9384   54.3688   23.7923 C   0  0  0  0  0  0
    5.9580   54.4967   22.4021 C   0  0  0  0  0  0
    4.7686   54.3502   21.6819 C   0  0  0  0  0  0
    3.6228   54.0972   22.3486 N   0  3  0  0  0  0
    7.1043   54.4994   24.5404 N   0  0  0  0  0  0
   -1.8623   51.1306   25.7264 H   0  0  0  0  0  0
    0.0603   51.9248   24.5053 H   0  0  0  0  0  0
   -0.1810   52.4894   29.3873 H   0  0  0  0  0  0
    4.7195   53.9904   25.5145 H   0  0  0  0  0  0
    6.8843   54.7061   21.8858 H   0  0  0  0  0  0
    4.6834   54.4303   20.6061 H   0  0  0  0  0  0
    7.0727   54.2193   25.5102 H   0  0  0  0  0  0
    7.9959   54.6800   24.0809 H   0  0  0  0  0  0
    2.7593   54.0188   21.8240 H   0  0  0  0  0  0
  1  6  2  0  0  0
  1  2  1  0  0  0
  1 22  1  0  0  0
  2  3  2  0  0  0
  2 23  1  0  0  0
  3  4  1  0  0  0
  3 12  1  0  0  0
  4  5  2  0  0  0
  4  8  1  0  0  0
  5  6  1  0  0  0
  5 24  1  0  0  0
  6  7  1  0  0  0
  8  9  1  0  0  0
  8 10  1  0  0  0
  8 11  1  0  0  0
 12 13  1  0  0  0
 13 14  2  0  0  0
 13 15  1  0  0  0
 15 20  2  0  0  0
 15 16  1  0  0  0
 16 17  2  0  0  0
 16 25  1  0  0  0
 17 18  1  0  0  0
 17 21  1  0  0  0
 18 19  2  0  0  0
 18 26  1  0  0  0
 19 20  1  0  0  0
 19 27  1  0  0  0
 20 30  1  0  0  0
 21 28  1  0  0  0
 21 29  1  0  0  0
M  CHG  2  12  -1  20   1
M  END
> <i_i_glide_confnum>
1

> <i_i_glide_lignum>
4803

> <i_i_glide_posenum>
191

> <i_i_glide_rotatable_bonds>
4

> <i_m_Source_File_Index>
3652

> <b_m_subgroup_collapsed>
0

> <r_i_docking_score>
-5.69777

> <r_i_glide_ecoul>
-3.93866

> <r_i_glide_eff_state_penalty>
0

> <r_i_glide_einternal>
0.695288

> <r_i_glide_emodel>
-44.4722

> <r_i_glide_energy>
-30.4467

> <r_i_glide_erotb>
0.560126

> <r_i_glide_esite>
0

> <r_i_glide_evdw>
-26.508

> <r_i_glide_gscore>
-5.69777

> <r_i_glide_hbond>
-0.32

> <r_i_glide_ligand_efficiency>
-0.271322

> <r_i_glide_ligand_efficiency_ln>
-1.40876

> <r_i_glide_ligand_efficiency_sa>
-0.748558

> <r_i_glide_lipo>
-1.60746

> <r_i_glide_metal>
0

> <r_i_glide_rewards>
-2.41424

> <s_i_glide_gridfile>
wee1_glide-grid

> <s_m_Source_File>
wee1_decoys_glide_SP.sdf

> <s_m_Source_Path>
/Users/zhangxujun/Desktop

> <s_m_entry_id>
3927

> <s_m_entry_name>
wee1_decoys_glide_SP.3652

> <s_m_subgroup_title>
wee1_decoys_glide_SP

> <s_m_subgroupid>
wee1_decoys_glide_SP


$$$$
