ZINC38884774_5450
                    3D
 Schrodinger Suite 2024-2.
 67 71  0  0  1  0            999 V2000
    8.7293   50.0593   13.2385 C   0  0  0  0  0  0
    8.1040   51.1532   14.1309 C   0  0  1  0  0  0
    7.0508   50.8963   14.2441 H   0  0  0  0  0  0
    8.7382   51.2720   15.5402 C   0  0  0  0  0  0
   10.1715   51.8391   15.4802 C   0  0  0  0  0  0
   10.1996   53.1794   14.7105 C   0  0  0  0  0  0
    9.5294   53.0654   13.3240 C   0  0  0  0  0  0
    8.1722   52.4482   13.3925 N   0  0  0  0  0  0
    6.7561   53.5266   13.4624 S   0  0  0  0  0  0
    5.5690   52.7197   13.1527 O   0  0  0  0  0  0
    7.0586   54.7310   12.6792 O   0  0  0  0  0  0
    6.5954   54.0375   15.1749 C   0  0  0  0  0  0
    7.1889   55.2247   15.6077 C   0  0  0  0  0  0
    7.1009   55.5937   16.9445 C   0  0  0  0  0  0
    6.4269   54.7832   17.8728 C   0  0  0  0  0  0
    5.8235   53.5958   17.4140 C   0  0  0  0  0  0
    5.8933   53.2359   16.0742 C   0  0  0  0  0  0
    6.3996   55.1798   19.3350 C   0  0  0  0  0  0
    7.1269   56.0863   19.7544 O   0  0  0  0  0  0
    5.5365   54.4927   20.1184 N   0  0  0  0  0  0
    5.4144   54.5155   21.5180 C   0  0  0  0  0  0
    6.4597   54.8962   22.3783 C   0  0  0  0  0  0
    6.3049   54.8802   23.7638 C   0  0  0  0  0  0
    5.0693   54.4867   24.2936 C   0  0  0  0  0  0
    4.0182   54.0969   23.4243 C   0  0  0  0  0  0
    4.1829   54.0975   22.0342 C   0  0  0  0  0  0
    2.6042   53.6960   24.3815 S   0  0  0  0  0  0
    3.5551   54.0091   25.8254 C   0  0  0  0  0  0
    4.7773   54.4246   25.6170 N   0  0  0  0  0  0
    3.0149   53.8074   27.0732 N   0  0  0  0  0  0
    3.7515   54.0934   28.3105 C   0  0  0  0  0  0
    3.0317   55.1451   29.1652 C   0  0  0  0  0  0
    1.6371   54.6125   29.5435 N   0  3  0  0  0  0
    0.8513   54.3331   28.2470 C   0  0  0  0  0  0
    1.6444   53.3459   27.3644 C   0  0  0  0  0  0
    0.8855   55.6452   30.4184 C   0  0  0  0  0  0
    8.6297   49.0780   13.7028 H   0  0  0  0  0  0
    8.2317   50.0111   12.2702 H   0  0  0  0  0  0
    9.7920   50.2169   13.0525 H   0  0  0  0  0  0
    8.7055   50.3140   16.0590 H   0  0  0  0  0  0
    8.1644   51.9628   16.1517 H   0  0  0  0  0  0
   10.8384   51.1220   14.9997 H   0  0  0  0  0  0
   10.5595   51.9799   16.4901 H   0  0  0  0  0  0
   11.2281   53.5200   14.5909 H   0  0  0  0  0  0
    9.6995   53.9505   15.2978 H   0  0  0  0  0  0
   10.1442   52.4454   12.6703 H   0  0  0  0  0  0
    9.4596   54.0374   12.8374 H   0  0  0  0  0  0
    7.7270   55.8538   14.9118 H   0  0  0  0  0  0
    7.5799   56.5121   17.2590 H   0  0  0  0  0  0
    5.3129   52.9131   18.0807 H   0  0  0  0  0  0
    5.4380   52.3096   15.7485 H   0  0  0  0  0  0
    4.8932   53.8862   19.6348 H   0  0  0  0  0  0
    7.4218   55.1923   21.9841 H   0  0  0  0  0  0
    7.1225   55.1698   24.4054 H   0  0  0  0  0  0
    3.3677   53.8085   21.3841 H   0  0  0  0  0  0
    4.7610   54.4501   28.1028 H   0  0  0  0  0  0
    3.8894   53.1456   28.8358 H   0  0  0  0  0  0
    3.5862   55.2962   30.0816 H   0  0  0  0  0  0
    2.8963   56.0968   28.6508 H   0  0  0  0  0  0
   -0.1065   53.9055   28.5500 H   0  0  0  0  0  0
    0.7042   55.2944   27.7472 H   0  0  0  0  0  0
    1.7473   52.3732   27.8479 H   0  0  0  0  0  0
    1.0781   53.1533   26.4543 H   0  0  0  0  0  0
    0.7091   56.5444   29.8252 H   0  0  0  0  0  0
   -0.0509   55.1846   30.7356 H   0  0  0  0  0  0
    1.5047   55.8820   31.2819 H   0  0  0  0  0  0
    1.7374   53.7439   30.0547 H   0  0  0  0  0  0
  1  2  1  0  0  0
  1 37  1  0  0  0
  1 38  1  0  0  0
  1 39  1  0  0  0
  2  3  1  0  0  0
  2  8  1  0  0  0
  2  4  1  0  0  0
  4  5  1  0  0  0
  4 40  1  0  0  0
  4 41  1  0  0  0
  5  6  1  0  0  0
  5 42  1  0  0  0
  5 43  1  0  0  0
  6  7  1  0  0  0
  6 44  1  0  0  0
  6 45  1  0  0  0
  7  8  1  0  0  0
  7 46  1  0  0  0
  7 47  1  0  0  0
  8  9  1  0  0  0
  9 10  2  0  0  0
  9 11  2  0  0  0
  9 12  1  0  0  0
 12 17  2  0  0  0
 12 13  1  0  0  0
 13 14  2  0  0  0
 13 48  1  0  0  0
 14 15  1  0  0  0
 14 49  1  0  0  0
 15 16  2  0  0  0
 15 18  1  0  0  0
 16 17  1  0  0  0
 16 50  1  0  0  0
 17 51  1  0  0  0
 18 19  2  0  0  0
 18 20  1  0  0  0
 20 21  1  0  0  0
 20 52  1  0  0  0
 21 26  2  0  0  0
 21 22  1  0  0  0
 22 23  2  0  0  0
 22 53  1  0  0  0
 23 24  1  0  0  0
 23 54  1  0  0  0
 24 29  1  0  0  0
 24 25  2  0  0  0
 25 26  1  0  0  0
 25 27  1  0  0  0
 26 55  1  0  0  0
 27 28  1  0  0  0
 28 29  2  0  0  0
 28 30  1  0  0  0
 30 35  1  0  0  0
 30 31  1  0  0  0
 31 32  1  0  0  0
 31 56  1  0  0  0
 31 57  1  0  0  0
 32 33  1  0  0  0
 32 58  1  0  0  0
 32 59  1  0  0  0
 33 34  1  0  0  0
 33 36  1  0  0  0
 33 67  1  0  0  0
 34 35  1  0  0  0
 34 60  1  0  0  0
 34 61  1  0  0  0
 35 62  1  0  0  0
 35 63  1  0  0  0
 36 64  1  0  0  0
 36 65  1  0  0  0
 36 66  1  0  0  0
M  CHG  1  33   1
M  END
> <i_i_glide_confnum>
193

> <i_i_glide_lignum>
5451

> <i_i_glide_posenum>
394

> <i_i_glide_rotatable_bonds>
6

> <i_m_Source_File_Index>
2588

> <b_m_subgroup_collapsed>
0

> <r_i_docking_score>
-5.13898

> <r_i_glide_ecoul>
-1.44433

> <r_i_glide_eff_state_penalty>
0

> <r_i_glide_einternal>
2.55717

> <r_i_glide_emodel>
-57.6944

> <r_i_glide_energy>
-41.4934

> <r_i_glide_erotb>
0.464647

> <r_i_glide_esite>
-0.00014012

> <r_i_glide_evdw>
-40.0491

> <r_i_glide_gscore>
-5.13898

> <r_i_glide_hbond>
0

> <r_i_glide_ligand_efficiency>
-0.146828

> <r_i_glide_ligand_efficiency_ln>
-1.12812

> <r_i_glide_ligand_efficiency_sa>
-0.480284

> <r_i_glide_lipo>
-3.01846

> <r_i_glide_metal>
0

> <r_i_glide_rewards>
-0.36592

> <s_i_glide_gridfile>
wee1_glide-grid

> <s_m_Source_File>
wee1_decoys_glide_SP.sdf

> <s_m_Source_Path>
/Users/zhangxujun/Desktop

> <s_m_entry_id>
2863

> <s_m_entry_name>
wee1_decoys_glide_SP.2588

> <s_m_subgroup_title>
wee1_decoys_glide_SP

> <s_m_subgroupid>
wee1_decoys_glide_SP


$$$$
