ZINC36970242_3880
                    3D
 Schrodinger Suite 2024-2.
 33 35  0  0  1  0            999 V2000
    1.6584   54.5296   29.0948 C   0  0  0  0  0  0
    3.0160   54.4953   28.4199 C   0  0  0  0  0  0
    4.1967   54.4885   29.1601 C   0  0  0  0  0  0
    5.4120   54.4843   28.4818 C   0  0  0  0  0  0
    5.4224   54.4841   27.0661 C   0  0  0  0  0  0
    6.6242   54.4917   26.3250 C   0  0  0  0  0  0
    6.5864   54.4980   24.9346 C   0  0  0  0  0  0
    5.3705   54.4965   24.2615 C   0  0  0  0  0  0
    4.1541   54.4766   24.9517 C   0  0  0  0  0  0
    4.1691   54.4807   26.3778 C   0  0  0  0  0  0
    2.9901   54.4872   27.0650 N   0  0  0  0  0  0
    2.9604   54.4970   24.2571 O   0  0  0  0  0  0
    2.6171   53.3811   23.5249 C   0  0  0  0  0  0
    3.0970   53.2350   22.2175 C   0  0  0  0  0  0
    2.8136   52.0830   21.4835 C   0  0  0  0  0  0
    2.0307   51.0751   22.0449 C   0  0  0  0  0  0
    1.5041   51.2337   23.3266 C   0  0  0  0  0  0
    1.7872   52.3841   24.0665 C   0  0  0  0  0  0
    1.2466   52.5118   25.3464 N   0  0  0  0  0  0
    1.6908   49.4767   21.0694 Br  0  0  0  0  0  0
    1.7378   54.3804   30.1718 H   0  0  0  0  0  0
    1.1759   55.4924   28.9214 H   0  0  0  0  0  0
    1.0103   53.7472   28.6965 H   0  0  0  0  0  0
    4.1843   54.4938   30.2378 H   0  0  0  0  0  0
    6.3442   54.4948   29.0267 H   0  0  0  0  0  0
    7.5653   54.4884   26.8527 H   0  0  0  0  0  0
    7.5043   54.5069   24.3671 H   0  0  0  0  0  0
    5.3781   54.5134   23.1832 H   0  0  0  0  0  0
    3.7011   54.0119   21.7740 H   0  0  0  0  0  0
    3.2067   51.9687   20.4830 H   0  0  0  0  0  0
    0.8911   50.4506   23.7477 H   0  0  0  0  0  0
    0.7204   51.7480   25.7464 H   0  0  0  0  0  0
    1.5783   53.2752   25.9225 H   0  0  0  0  0  0
  1  2  1  0  0  0
  1 21  1  0  0  0
  1 22  1  0  0  0
  1 23  1  0  0  0
  2 11  2  0  0  0
  2  3  1  0  0  0
  3  4  2  0  0  0
  3 24  1  0  0  0
  4  5  1  0  0  0
  4 25  1  0  0  0
  5 10  2  0  0  0
  5  6  1  0  0  0
  6  7  2  0  0  0
  6 26  1  0  0  0
  7  8  1  0  0  0
  7 27  1  0  0  0
  8  9  2  0  0  0
  8 28  1  0  0  0
  9 10  1  0  0  0
  9 12  1  0  0  0
 10 11  1  0  0  0
 12 13  1  0  0  0
 13 18  2  0  0  0
 13 14  1  0  0  0
 14 15  2  0  0  0
 14 29  1  0  0  0
 15 16  1  0  0  0
 15 30  1  0  0  0
 16 17  2  0  0  0
 16 20  1  0  0  0
 17 18  1  0  0  0
 17 31  1  0  0  0
 18 19  1  0  0  0
 19 32  1  0  0  0
 19 33  1  0  0  0
M  END
> <i_i_glide_confnum>
4

> <i_i_glide_lignum>
3881

> <i_i_glide_posenum>
383

> <i_i_glide_rotatable_bonds>
2

> <i_m_Source_File_Index>
3833

> <b_m_subgroup_collapsed>
0

> <r_i_docking_score>
-6.10186

> <r_i_glide_ecoul>
-0.0635123

> <r_i_glide_eff_state_penalty>
0

> <r_i_glide_einternal>
2.73087

> <r_i_glide_emodel>
-46.9423

> <r_i_glide_energy>
-35.0536

> <r_i_glide_erotb>
0.346814

> <r_i_glide_esite>
0

> <r_i_glide_evdw>
-34.99

> <r_i_glide_gscore>
-6.10186

> <r_i_glide_hbond>
0

> <r_i_glide_ligand_efficiency>
-0.305093

> <r_i_glide_ligand_efficiency_ln>
-1.52709

> <r_i_glide_ligand_efficiency_sa>
-0.82815

> <r_i_glide_lipo>
-3.41671

> <r_i_glide_metal>
0

> <r_i_glide_rewards>
-1.27294

> <s_i_glide_gridfile>
wee1_glide-grid

> <s_m_Source_File>
wee1_decoys_glide_SP.sdf

> <s_m_Source_Path>
/Users/zhangxujun/Desktop

> <s_m_entry_id>
4108

> <s_m_entry_name>
wee1_decoys_glide_SP.3833

> <s_m_subgroup_title>
wee1_decoys_glide_SP

> <s_m_subgroupid>
wee1_decoys_glide_SP


$$$$
