ZINC09464342_4120
                    3D
 Schrodinger Suite 2024-2.
 44 47  0  0  1  0            999 V2000
   -4.9874   50.2541   25.9091 C   0  0  0  0  0  0
   -3.7151   50.4765   26.4386 C   0  0  0  0  0  0
   -3.1908   51.7772   26.4953 C   0  0  0  0  0  0
   -3.9528   52.8383   26.0052 C   0  0  0  0  0  0
   -5.2288   52.6202   25.4905 C   0  0  0  0  0  0
   -5.7459   51.3261   25.4374 C   0  0  0  0  0  0
   -6.2638   54.0953   24.8816 Br  0  0  0  0  0  0
   -1.9546   52.0969   27.0097 O   0  0  0  0  0  0
   -1.3008   51.1799   27.8817 C   0  0  0  0  0  0
   -0.3395   51.9613   28.7504 C   0  0  0  0  0  0
   -0.4954   52.1667   30.0340 N   0  0  0  0  0  0
    0.5450   52.9934   30.4446 N   0  0  0  0  0  0
    1.3202   53.1984   29.4081 C   0  0  0  0  0  0
    0.7881   52.5962   28.2879 N   0  0  0  0  0  0
    1.2561   52.6443   26.9860 N   0  0  0  0  0  0
    2.6975   54.2941   29.4319 S   0  0  0  0  0  0
    3.9972   53.1311   28.9131 C   0  0  0  0  0  0
    4.8743   53.7158   27.8327 C   0  0  0  0  0  0
    6.1274   54.2924   27.9850 C   0  0  0  0  0  0
    6.7043   54.8345   26.4481 S   0  0  0  0  0  0
    5.2496   54.2213   25.7303 C   0  0  0  0  0  0
    4.4098   53.6997   26.5949 N   0  0  0  0  0  0
    5.0231   54.2747   24.2495 C   0  0  0  0  0  0
    6.0933   54.4856   23.3682 C   0  0  0  0  0  0
    5.8796   54.4996   21.9939 C   0  0  0  0  0  0
    4.5994   54.2959   21.4905 C   0  0  0  0  0  0
    3.5256   54.0926   22.3519 C   0  0  0  0  0  0
    3.7357   54.0856   23.7282 C   0  0  0  0  0  0
    4.3977   54.3060   20.1547 F   0  0  0  0  0  0
   -5.3854   49.2505   25.8707 H   0  0  0  0  0  0
   -3.1435   49.6329   26.8000 H   0  0  0  0  0  0
   -3.5566   53.8404   26.0504 H   0  0  0  0  0  0
   -6.7341   51.1552   25.0360 H   0  0  0  0  0  0
   -2.0170   50.6390   28.5042 H   0  0  0  0  0  0
   -0.7613   50.4450   27.2835 H   0  0  0  0  0  0
    1.2285   53.5803   26.6106 H   0  0  0  0  0  0
    2.1513   52.1919   26.8754 H   0  0  0  0  0  0
    4.5882   52.8520   29.7846 H   0  0  0  0  0  0
    3.5424   52.2018   28.5691 H   0  0  0  0  0  0
    6.7044   54.4487   28.8848 H   0  0  0  0  0  0
    7.1005   54.6295   23.7311 H   0  0  0  0  0  0
    6.7033   54.6669   21.3165 H   0  0  0  0  0  0
    2.5352   53.9439   21.9472 H   0  0  0  0  0  0
    2.8935   53.9232   24.3844 H   0  0  0  0  0  0
  1  6  2  0  0  0
  1  2  1  0  0  0
  1 30  1  0  0  0
  2  3  2  0  0  0
  2 31  1  0  0  0
  3  4  1  0  0  0
  3  8  1  0  0  0
  4  5  2  0  0  0
  4 32  1  0  0  0
  5  6  1  0  0  0
  5  7  1  0  0  0
  6 33  1  0  0  0
  8  9  1  0  0  0
  9 10  1  0  0  0
  9 34  1  0  0  0
  9 35  1  0  0  0
 10 14  1  0  0  0
 10 11  2  0  0  0
 11 12  1  0  0  0
 12 13  2  0  0  0
 13 14  1  0  0  0
 13 16  1  0  0  0
 14 15  1  0  0  0
 15 36  1  0  0  0
 15 37  1  0  0  0
 16 17  1  0  0  0
 17 18  1  0  0  0
 17 38  1  0  0  0
 17 39  1  0  0  0
 18 22  1  0  0  0
 18 19  2  0  0  0
 19 20  1  0  0  0
 19 40  1  0  0  0
 20 21  1  0  0  0
 21 22  2  0  0  0
 21 23  1  0  0  0
 23 28  2  0  0  0
 23 24  1  0  0  0
 24 25  2  0  0  0
 24 41  1  0  0  0
 25 26  1  0  0  0
 25 42  1  0  0  0
 26 27  2  0  0  0
 26 29  1  0  0  0
 27 28  1  0  0  0
 27 43  1  0  0  0
 28 44  1  0  0  0
M  END
> <i_i_glide_confnum>
33

> <i_i_glide_lignum>
4121

> <i_i_glide_posenum>
228

> <i_i_glide_rotatable_bonds>
7

> <i_m_Source_File_Index>
2945

> <b_m_subgroup_collapsed>
0

> <r_i_docking_score>
-5.52148

> <r_i_glide_ecoul>
-2.87843

> <r_i_glide_eff_state_penalty>
0

> <r_i_glide_einternal>
1.276

> <r_i_glide_emodel>
-66.3245

> <r_i_glide_energy>
-50.1138

> <r_i_glide_erotb>
0.58796

> <r_i_glide_esite>
-0.0894945

> <r_i_glide_evdw>
-47.2354

> <r_i_glide_gscore>
-5.52148

> <r_i_glide_hbond>
0

> <r_i_glide_ligand_efficiency>
-0.190396

> <r_i_glide_ligand_efficiency_ln>
-1.26428

> <r_i_glide_ligand_efficiency_sa>
-0.584957

> <r_i_glide_lipo>
-2.70328

> <r_i_glide_metal>
0

> <r_i_glide_rewards>
-0.523132

> <s_i_glide_gridfile>
wee1_glide-grid

> <s_m_Source_File>
wee1_decoys_glide_SP.sdf

> <s_m_Source_Path>
/Users/zhangxujun/Desktop

> <s_m_entry_id>
3220

> <s_m_entry_name>
wee1_decoys_glide_SP.2945

> <s_m_subgroup_title>
wee1_decoys_glide_SP

> <s_m_subgroupid>
wee1_decoys_glide_SP


$$$$
