ZINC50360496_4451
                    3D
 Schrodinger Suite 2024-2.
 28 30  0  0  1  0            999 V2000
    1.3275   53.1412   29.0312 C   0  0  0  0  0  0
    1.8999   53.9259   28.0430 C   0  0  0  0  0  0
    1.9818   55.2084   28.4820 O   0  0  0  0  0  0
    1.4939   55.2332   29.7446 C   0  0  0  0  0  0
    1.0699   53.9708   30.1241 C   0  0  0  0  0  0
    0.3047   53.4780   31.7933 Br  0  0  0  0  0  0
    1.5041   56.8966   30.6600 Br  0  0  0  0  0  0
    2.3913   53.6605   26.6403 C   0  0  0  0  0  0
    3.7190   54.2245   26.4282 N   0  0  0  0  0  0
    4.3258   54.2852   25.1636 C   0  0  0  0  0  0
    3.6183   53.9911   23.9811 C   0  0  0  0  0  0
    4.2797   54.0972   22.7597 C   0  0  0  0  0  0
    5.5817   54.4958   22.6924 C   0  0  0  0  0  0
    6.3081   54.7918   23.8397 C   0  0  0  0  0  0
    5.6788   54.6800   25.0826 C   0  0  0  0  0  0
    6.7032   55.0887   26.6429 Br  0  0  0  0  0  0
    5.9038   54.5362   21.3586 N   0  0  0  0  0  0
    6.7955   54.8211   20.9810 H   0  0  0  0  0  0
    4.8614   54.1699   20.5864 C   0  0  0  0  0  0
    4.8222   54.1135   19.3633 O   0  0  0  0  0  0
    3.8716   53.9029   21.4617 N   0  0  0  0  0  0
    2.9380   53.6499   21.1687 H   0  0  0  0  0  0
    1.1198   52.0827   28.9705 H   0  0  0  0  0  0
    2.4224   52.5892   26.4359 H   0  0  0  0  0  0
    1.6797   54.0968   25.9394 H   0  0  0  0  0  0
    4.3374   54.2406   27.2288 H   0  0  0  0  0  0
    2.5822   53.6911   24.0039 H   0  0  0  0  0  0
    7.3326   55.1161   23.7829 H   0  0  0  0  0  0
  1  5  1  0  0  0
  1  2  2  0  0  0
  1 23  1  0  0  0
  2  3  1  0  0  0
  2  8  1  0  0  0
  3  4  1  0  0  0
  4  5  2  0  0  0
  4  7  1  0  0  0
  5  6  1  0  0  0
  8  9  1  0  0  0
  8 24  1  0  0  0
  8 25  1  0  0  0
  9 10  1  0  0  0
  9 26  1  0  0  0
 10 15  2  0  0  0
 10 11  1  0  0  0
 11 12  2  0  0  0
 11 27  1  0  0  0
 12 21  1  0  0  0
 12 13  1  0  0  0
 13 14  2  0  0  0
 13 17  1  0  0  0
 14 15  1  0  0  0
 14 28  1  0  0  0
 15 16  1  0  0  0
 17 18  1  0  0  0
 17 19  1  0  0  0
 19 20  2  0  0  0
 19 21  1  0  0  0
 21 22  1  0  0  0
M  END
> <i_i_glide_confnum>
11

> <i_i_glide_lignum>
4452

> <i_i_glide_posenum>
131

> <i_i_glide_rotatable_bonds>
3

> <i_m_Source_File_Index>
173

> <b_m_subgroup_collapsed>
0

> <r_i_docking_score>
-5.35162

> <r_i_glide_ecoul>
-1.10334

> <r_i_glide_eff_state_penalty>
0

> <r_i_glide_einternal>
1.24476

> <r_i_glide_emodel>
-54.8141

> <r_i_glide_energy>
-41.3836

> <r_i_glide_erotb>
0.278751

> <r_i_glide_esite>
0

> <r_i_glide_evdw>
-40.2803

> <r_i_glide_gscore>
-5.35162

> <r_i_glide_hbond>
0

> <r_i_glide_ligand_efficiency>
-0.267581

> <r_i_glide_ligand_efficiency_ln>
-1.33933

> <r_i_glide_ligand_efficiency_sa>
-0.726327

> <r_i_glide_lipo>
-3.087

> <r_i_glide_metal>
0

> <r_i_glide_rewards>
-0.363857

> <s_i_glide_gridfile>
wee1_glide-grid

> <s_m_Source_File>
wee1_decoys_glide_SP.sdf

> <s_m_Source_Path>
/Users/zhangxujun/Desktop

> <s_m_entry_id>
448

> <s_m_entry_name>
wee1_decoys_glide_SP.173

> <s_m_subgroup_title>
wee1_decoys_glide_SP

> <s_m_subgroupid>
wee1_decoys_glide_SP


$$$$
