ZINC20213470_5634
                    3D
 Schrodinger Suite 2024-2.
 57 61  0  0  1  0            999 V2000
    5.1494   46.9432   10.3261 C   0  0  0  0  0  0
    5.1342   48.1180   11.2878 C   0  0  0  0  0  0
    6.2254   48.3746   12.1243 C   0  0  0  0  0  0
    6.1789   49.4382   13.0264 C   0  0  0  0  0  0
    5.0422   50.2499   13.1030 C   0  0  0  0  0  0
    3.9471   49.9976   12.2629 C   0  0  0  0  0  0
    4.0024   48.9358   11.3578 C   0  0  0  0  0  0
    2.5050   50.9522   12.3336 Cl  0  0  0  0  0  0
    4.9747   51.2544   14.0823 N   0  0  0  0  0  0
    5.2872   52.5936   14.0184 C   0  0  0  0  0  0
    6.0660   53.2327   12.6654 S   0  0  0  0  0  0
    4.8884   53.3509   15.1148 N   0  0  0  0  0  0
    5.1827   54.8096   15.2790 C   0  0  0  0  0  0
    5.8444   55.0352   16.6679 C   0  0  0  0  0  0
    4.9548   54.4836   17.8061 C   0  0  0  0  0  0
    4.7504   52.9863   17.5184 C   0  0  0  0  0  0
    4.0147   52.7850   16.1817 C   0  0  0  0  0  0
    5.4878   54.6842   19.2339 C   0  0  0  0  0  0
    6.7215   55.1575   19.5583 C   0  0  0  0  0  0
    7.1981   55.2981   20.9191 C   0  0  0  0  0  0
    6.2051   54.8887   21.8679 N   0  0  0  0  0  0
    4.9479   54.4043   21.5543 C   0  0  0  0  0  0
    4.5736   54.3183   20.2224 N   0  0  0  0  0  0
    4.3460   54.0969   22.7498 C   0  0  0  0  0  0
    5.2744   54.4464   23.7468 C   0  0  0  0  0  0
    6.3950   54.8969   23.2034 N   0  0  0  0  0  0
    5.0668   54.3679   25.2312 C   0  0  0  0  0  0
    3.7707   54.1760   25.7286 C   0  0  0  0  0  0
    3.5417   54.1067   27.0983 C   0  0  0  0  0  0
    4.6078   54.2311   27.9844 C   0  0  0  0  0  0
    5.9056   54.4143   27.5070 C   0  0  0  0  0  0
    6.1333   54.4845   26.1326 C   0  0  0  0  0  0
    4.3044   54.1727   29.6838 Cl  0  0  0  0  0  0
    8.3035   55.6971   21.2815 O   0  0  0  0  0  0
    5.1055   47.2966    9.2953 H   0  0  0  0  0  0
    4.2651   46.3244   10.4813 H   0  0  0  0  0  0
    6.0224   46.3058   10.4796 H   0  0  0  0  0  0
    7.1027   47.7416   12.0995 H   0  0  0  0  0  0
    7.0189   49.6185   13.6803 H   0  0  0  0  0  0
    3.1515   48.7395   10.7200 H   0  0  0  0  0  0
    4.6278   50.9234   14.9759 H   0  0  0  0  0  0
    5.8226   55.2371   14.5094 H   0  0  0  0  0  0
    4.2333   55.3400   15.2245 H   0  0  0  0  0  0
    6.8220   54.5471   16.6584 H   0  0  0  0  0  0
    6.0148   56.1059   16.8041 H   0  0  0  0  0  0
    3.9870   54.9870   17.7492 H   0  0  0  0  0  0
    4.1747   52.4976   18.3043 H   0  0  0  0  0  0
    5.7210   52.4965   17.4754 H   0  0  0  0  0  0
    3.0745   53.3369   16.1756 H   0  0  0  0  0  0
    3.7474   51.7336   16.0742 H   0  0  0  0  0  0
    7.4205   55.4272   18.7825 H   0  0  0  0  0  0
    3.3532   53.6915   22.8798 H   0  0  0  0  0  0
    2.9267   54.0897   25.0617 H   0  0  0  0  0  0
    2.5375   53.9678   27.4719 H   0  0  0  0  0  0
    6.7285   54.5009   28.2019 H   0  0  0  0  0  0
    7.1407   54.6219   25.7696 H   0  0  0  0  0  0
    3.6479   54.0049   19.9635 H   0  0  0  0  0  0
  1  2  1  0  0  0
  1 35  1  0  0  0
  1 36  1  0  0  0
  1 37  1  0  0  0
  2  7  2  0  0  0
  2  3  1  0  0  0
  3  4  2  0  0  0
  3 38  1  0  0  0
  4  5  1  0  0  0
  4 39  1  0  0  0
  5  6  2  0  0  0
  5  9  1  0  0  0
  6  7  1  0  0  0
  6  8  1  0  0  0
  7 40  1  0  0  0
  9 10  1  0  0  0
  9 41  1  0  0  0
 10 11  2  0  0  0
 10 12  1  0  0  0
 12 17  1  0  0  0
 12 13  1  0  0  0
 13 14  1  0  0  0
 13 42  1  0  0  0
 13 43  1  0  0  0
 14 15  1  0  0  0
 14 44  1  0  0  0
 14 45  1  0  0  0
 15 16  1  0  0  0
 15 18  1  0  0  0
 15 46  1  0  0  0
 16 17  1  0  0  0
 16 47  1  0  0  0
 16 48  1  0  0  0
 17 49  1  0  0  0
 17 50  1  0  0  0
 18 23  1  0  0  0
 18 19  2  0  0  0
 19 20  1  0  0  0
 19 51  1  0  0  0
 20 21  1  0  0  0
 20 34  2  0  0  0
 21 26  1  0  0  0
 21 22  1  0  0  0
 22 23  1  0  0  0
 22 24  2  0  0  0
 23 57  1  0  0  0
 24 25  1  0  0  0
 24 52  1  0  0  0
 25 26  2  0  0  0
 25 27  1  0  0  0
 27 32  2  0  0  0
 27 28  1  0  0  0
 28 29  2  0  0  0
 28 53  1  0  0  0
 29 30  1  0  0  0
 29 54  1  0  0  0
 30 31  2  0  0  0
 30 33  1  0  0  0
 31 32  1  0  0  0
 31 55  1  0  0  0
 32 56  1  0  0  0
M  END
> <i_i_glide_confnum>
9

> <i_i_glide_lignum>
5635

> <i_i_glide_posenum>
62

> <i_i_glide_rotatable_bonds>
5

> <i_m_Source_File_Index>
3044

> <b_m_subgroup_collapsed>
0

> <r_i_docking_score>
-5.34301

> <r_i_glide_ecoul>
-2.82211

> <r_i_glide_eff_state_penalty>
0

> <r_i_glide_einternal>
2.15249

> <r_i_glide_emodel>
-59.1874

> <r_i_glide_energy>
-44.7255

> <r_i_glide_erotb>
0.390308

> <r_i_glide_esite>
-0.0505891

> <r_i_glide_evdw>
-41.9034

> <r_i_glide_gscore>
-5.34301

> <r_i_glide_hbond>
-0.031355

> <r_i_glide_ligand_efficiency>
-0.157147

> <r_i_glide_ligand_efficiency_ln>
-1.18042

> <r_i_glide_ligand_efficiency_sa>
-0.509096

> <r_i_glide_lipo>
-2.48998

> <r_i_glide_metal>
0

> <r_i_glide_rewards>
-0.642902

> <s_i_glide_gridfile>
wee1_glide-grid

> <s_m_Source_File>
wee1_decoys_glide_SP.sdf

> <s_m_Source_Path>
/Users/zhangxujun/Desktop

> <s_m_entry_id>
3319

> <s_m_entry_name>
wee1_decoys_glide_SP.3044

> <s_m_subgroup_title>
wee1_decoys_glide_SP

> <s_m_subgroupid>
wee1_decoys_glide_SP


$$$$
