ZINC18093885_4548
                    3D
 Schrodinger Suite 2024-2.
 53 55  0  0  1  0            999 V2000
   -2.8405   53.0390   23.9408 C   0  0  0  0  0  0
   -3.5709   52.7762   25.2675 C   0  0  0  0  0  0
   -3.6441   51.2804   25.6459 C   0  0  0  0  0  0
   -2.3636   50.6519   25.6805 O   0  0  0  0  0  0
   -1.4276   50.9713   26.6476 C   0  0  0  0  0  0
   -1.7420   51.6967   27.8060 C   0  0  0  0  0  0
   -0.7546   52.0591   28.7214 C   0  0  0  0  0  0
    0.5634   51.6886   28.4981 C   0  0  0  0  0  0
    0.8750   50.9016   27.3956 C   0  0  0  0  0  0
   -0.1034   50.5297   26.4666 C   0  0  0  0  0  0
    0.2978   49.6396   25.2806 C   0  0  2  0  0  0
    1.3236   49.3130   25.4605 H   0  0  0  0  0  0
    0.2444   50.3413   23.8887 C   0  0  0  0  0  0
   -0.7111   49.9762   22.9855 C   0  0  0  0  0  0
   -1.5301   48.9175   23.2246 N   0  0  0  0  0  0
   -1.4518   48.0801   24.2935 C   0  0  0  0  0  0
   -2.4952   46.8150   24.4803 S   0  0  0  0  0  0
   -0.4943   48.3851   25.2177 N   0  0  0  0  0  0
   -1.0278   50.6512   21.6525 C   0  0  0  0  0  0
    1.1735   51.4365   23.6710 C   0  0  0  0  0  0
    1.2978   52.3553   24.4803 O   0  0  0  0  0  0
    1.8846   51.3107   22.5287 N   0  0  0  0  0  0
    2.8243   52.1819   21.9468 C   0  0  0  0  0  0
    3.1040   53.4776   22.4086 C   0  0  0  0  0  0
    4.0416   54.2629   21.7438 C   0  0  0  0  0  0
    4.7035   53.7719   20.6210 C   0  0  0  0  0  0
    4.4229   52.4892   20.1571 C   0  0  0  0  0  0
    3.4882   51.6966   20.8176 C   0  0  0  0  0  0
    5.7162   54.6439   19.9016 C   0  0  0  0  0  0
    1.9332   52.2286   29.7049 Br  0  0  0  0  0  0
   -2.8684   54.0971   23.6814 H   0  0  0  0  0  0
   -3.2950   52.4831   23.1207 H   0  0  0  0  0  0
   -1.7922   52.7435   24.0032 H   0  0  0  0  0  0
   -3.0863   53.3433   26.0617 H   0  0  0  0  0  0
   -4.5851   53.1708   25.1995 H   0  0  0  0  0  0
   -4.1801   51.1306   26.5840 H   0  0  0  0  0  0
   -4.2325   50.7534   24.8942 H   0  0  0  0  0  0
   -2.7556   52.0000   28.0078 H   0  0  0  0  0  0
   -1.0058   52.6294   29.6027 H   0  0  0  0  0  0
    1.8951   50.5844   27.2821 H   0  0  0  0  0  0
   -2.2732   48.6693   22.5893 H   0  0  0  0  0  0
   -0.4772   47.7690   26.0222 H   0  0  0  0  0  0
   -0.7023   50.0225   20.8232 H   0  0  0  0  0  0
   -2.1003   50.8209   21.5503 H   0  0  0  0  0  0
   -0.5521   51.6257   21.5441 H   0  0  0  0  0  0
    1.7216   50.4609   22.0118 H   0  0  0  0  0  0
    2.6012   53.9069   23.2599 H   0  0  0  0  0  0
    4.2361   55.2670   22.0830 H   0  0  0  0  0  0
    4.9210   52.0971   19.2818 H   0  0  0  0  0  0
    3.2846   50.7067   20.4328 H   0  0  0  0  0  0
    5.2485   55.5775   19.5852 H   0  0  0  0  0  0
    6.5377   54.8987   20.5716 H   0  0  0  0  0  0
    6.1288   54.1540   19.0184 H   0  0  0  0  0  0
  1  2  1  0  0  0
  1 31  1  0  0  0
  1 32  1  0  0  0
  1 33  1  0  0  0
  2  3  1  0  0  0
  2 34  1  0  0  0
  2 35  1  0  0  0
  3  4  1  0  0  0
  3 36  1  0  0  0
  3 37  1  0  0  0
  4  5  1  0  0  0
  5 10  2  0  0  0
  5  6  1  0  0  0
  6  7  2  0  0  0
  6 38  1  0  0  0
  7  8  1  0  0  0
  7 39  1  0  0  0
  8  9  2  0  0  0
  8 30  1  0  0  0
  9 10  1  0  0  0
  9 40  1  0  0  0
 10 11  1  0  0  0
 11 12  1  0  0  0
 11 18  1  0  0  0
 11 13  1  0  0  0
 13 14  2  0  0  0
 13 20  1  0  0  0
 14 15  1  0  0  0
 14 19  1  0  0  0
 15 16  1  0  0  0
 15 41  1  0  0  0
 16 17  2  0  0  0
 16 18  1  0  0  0
 18 42  1  0  0  0
 19 43  1  0  0  0
 19 44  1  0  0  0
 19 45  1  0  0  0
 20 21  2  0  0  0
 20 22  1  0  0  0
 22 23  1  0  0  0
 22 46  1  0  0  0
 23 28  2  0  0  0
 23 24  1  0  0  0
 24 25  2  0  0  0
 24 47  1  0  0  0
 25 26  1  0  0  0
 25 48  1  0  0  0
 26 27  2  0  0  0
 26 29  1  0  0  0
 27 28  1  0  0  0
 27 49  1  0  0  0
 28 50  1  0  0  0
 29 51  1  0  0  0
 29 52  1  0  0  0
 29 53  1  0  0  0
M  END
> <i_i_glide_confnum>
125

> <i_i_glide_lignum>
4549

> <i_i_glide_posenum>
48

> <i_i_glide_rotatable_bonds>
7

> <i_m_Source_File_Index>
4906

> <b_m_subgroup_collapsed>
0

> <r_i_docking_score>
-3.10276

> <r_i_glide_ecoul>
-3.42288

> <r_i_glide_eff_state_penalty>
0

> <r_i_glide_einternal>
0.431895

> <r_i_glide_emodel>
-45.4583

> <r_i_glide_energy>
-37.7147

> <r_i_glide_erotb>
0.539428

> <r_i_glide_esite>
-0.173262

> <r_i_glide_evdw>
-34.2918

> <r_i_glide_gscore>
-3.10276

> <r_i_glide_hbond>
-0.211795

> <r_i_glide_ligand_efficiency>
-0.106992

> <r_i_glide_ligand_efficiency_ln>
-0.710454

> <r_i_glide_ligand_efficiency_sa>
-0.328713

> <r_i_glide_lipo>
-0.718177

> <r_i_glide_metal>
0

> <r_i_glide_rewards>
-0.310934

> <s_i_glide_gridfile>
wee1_glide-grid

> <s_m_Source_File>
wee1_decoys_glide_SP.sdf

> <s_m_Source_Path>
/Users/zhangxujun/Desktop

> <s_m_entry_id>
5181

> <s_m_entry_name>
wee1_decoys_glide_SP.4906

> <s_m_subgroup_title>
wee1_decoys_glide_SP

> <s_m_subgroupid>
wee1_decoys_glide_SP


$$$$
