ZINC25582124_5153
                    3D
 Schrodinger Suite 2024-2.
 61 64  0  0  1  0            999 V2000
    5.7015   54.0350   23.6008 C   0  0  0  0  0  0
    5.0328   54.1125   24.9628 C   0  0  0  0  0  0
    5.8010   54.3642   26.1024 C   0  0  0  0  0  0
    5.1817   54.4967   27.3445 C   0  0  0  0  0  0
    3.7919   54.3857   27.4453 C   0  0  0  0  0  0
    3.0307   54.0997   26.3105 C   0  0  0  0  0  0
    3.6469   53.9780   25.0685 C   0  0  0  0  0  0
    2.9862   54.6996   29.0178 S   0  0  0  0  0  0
    2.2962   55.9882   28.8816 O   0  0  0  0  0  0
    4.0082   54.4964   30.0518 O   0  0  0  0  0  0
    1.7783   53.4306   29.2405 N   0  0  0  0  0  0
    2.2248   52.0536   29.4675 C   0  0  0  0  0  0
    1.8628   51.2055   28.2453 C   0  0  0  0  0  0
    0.3412   51.2337   27.9497 C   0  0  0  0  0  0
   -0.2043   52.6865   27.8737 C   0  0  0  0  0  0
    0.3357   53.6345   28.9736 C   0  0  0  0  0  0
   -0.0967   50.3328   26.8818 N   0  0  0  0  0  0
    0.1421   50.4802   25.5692 C   0  0  0  0  0  0
    0.7258   51.4666   25.1159 O   0  0  0  0  0  0
   -0.3193   49.3629   24.5920 C   0  0  2  0  0  0
    0.5698   48.7418   24.4692 H   0  0  0  0  0  0
   -0.6880   49.9398   23.2298 C   0  0  0  0  0  0
    0.2937   50.0315   22.2364 C   0  0  0  0  0  0
   -0.0124   50.5760   20.9918 C   0  0  0  0  0  0
   -1.3031   51.0294   20.7360 C   0  0  0  0  0  0
   -2.2876   50.9492   21.7184 C   0  0  0  0  0  0
   -1.9800   50.4143   22.9649 C   0  0  0  0  0  0
   -1.3421   48.4309   25.1382 N   0  0  0  0  0  0
   -1.9098   47.4016   24.4726 C   0  0  0  0  0  0
   -1.6555   47.0985   23.3048 O   0  0  0  0  0  0
   -2.9175   46.6963   25.2076 C   0  0  0  0  0  0
   -2.8959   46.2737   26.5360 C   0  0  0  0  0  0
   -4.0142   45.5133   26.8819 C   0  0  0  0  0  0
   -4.8924   45.3312   25.8236 C   0  0  0  0  0  0
   -4.3274   46.0968   24.3750 S   0  0  0  0  0  0
    6.2894   53.1252   23.5085 H   0  0  0  0  0  0
    4.9765   54.0718   22.7877 H   0  0  0  0  0  0
    6.3797   54.8791   23.4682 H   0  0  0  0  0  0
    6.8739   54.4700   26.0219 H   0  0  0  0  0  0
    5.7839   54.7233   28.2161 H   0  0  0  0  0  0
    1.9560   54.0282   26.3739 H   0  0  0  0  0  0
    3.0412   53.7898   24.1933 H   0  0  0  0  0  0
    1.7732   51.6938   30.3918 H   0  0  0  0  0  0
    3.3062   52.0539   29.6093 H   0  0  0  0  0  0
    2.2473   50.1955   28.3809 H   0  0  0  0  0  0
    2.3833   51.6167   27.3801 H   0  0  0  0  0  0
   -0.1265   50.8067   28.8373 H   0  0  0  0  0  0
    0.0899   53.1174   26.9215 H   0  0  0  0  0  0
   -1.2940   52.6762   27.8734 H   0  0  0  0  0  0
   -0.1986   53.5030   29.9158 H   0  0  0  0  0  0
    0.1826   54.6704   28.6778 H   0  0  0  0  0  0
   -0.5232   49.4706   27.2132 H   0  0  0  0  0  0
    1.2991   49.6845   22.4297 H   0  0  0  0  0  0
    0.7515   50.6437   20.2305 H   0  0  0  0  0  0
   -1.5386   51.4430   19.7660 H   0  0  0  0  0  0
   -3.2895   51.2975   21.5155 H   0  0  0  0  0  0
   -2.7442   50.3605   23.7258 H   0  0  0  0  0  0
   -1.5389   48.5003   26.1305 H   0  0  0  0  0  0
   -2.0940   46.4958   27.2284 H   0  0  0  0  0  0
   -4.1567   45.0955   27.8684 H   0  0  0  0  0  0
   -5.8246   44.7856   25.8268 H   0  0  0  0  0  0
  1  2  1  0  0  0
  1 36  1  0  0  0
  1 37  1  0  0  0
  1 38  1  0  0  0
  2  7  2  0  0  0
  2  3  1  0  0  0
  3  4  2  0  0  0
  3 39  1  0  0  0
  4  5  1  0  0  0
  4 40  1  0  0  0
  5  6  2  0  0  0
  5  8  1  0  0  0
  6  7  1  0  0  0
  6 41  1  0  0  0
  7 42  1  0  0  0
  8  9  2  0  0  0
  8 10  2  0  0  0
  8 11  1  0  0  0
 11 16  1  0  0  0
 11 12  1  0  0  0
 12 13  1  0  0  0
 12 43  1  0  0  0
 12 44  1  0  0  0
 13 14  1  0  0  0
 13 45  1  0  0  0
 13 46  1  0  0  0
 14 15  1  0  0  0
 14 17  1  0  0  0
 14 47  1  0  0  0
 15 16  1  0  0  0
 15 48  1  0  0  0
 15 49  1  0  0  0
 16 50  1  0  0  0
 16 51  1  0  0  0
 17 18  1  0  0  0
 17 52  1  0  0  0
 18 19  2  0  0  0
 18 20  1  0  0  0
 20 21  1  0  0  0
 20 22  1  0  0  0
 20 28  1  0  0  0
 22 27  2  0  0  0
 22 23  1  0  0  0
 23 24  2  0  0  0
 23 53  1  0  0  0
 24 25  1  0  0  0
 24 54  1  0  0  0
 25 26  2  0  0  0
 25 55  1  0  0  0
 26 27  1  0  0  0
 26 56  1  0  0  0
 27 57  1  0  0  0
 28 29  1  0  0  0
 28 58  1  0  0  0
 29 30  2  0  0  0
 29 31  1  0  0  0
 31 35  1  0  0  0
 31 32  2  0  0  0
 32 33  1  0  0  0
 32 59  1  0  0  0
 33 34  2  0  0  0
 33 60  1  0  0  0
 34 35  1  0  0  0
 34 61  1  0  0  0
M  END
> <i_i_glide_confnum>
242

> <i_i_glide_lignum>
5154

> <i_i_glide_posenum>
23

> <i_i_glide_rotatable_bonds>
9

> <i_m_Source_File_Index>
4357

> <b_m_subgroup_collapsed>
0

> <r_i_docking_score>
-5.58213

> <r_i_glide_ecoul>
-7.97768

> <r_i_glide_eff_state_penalty>
0

> <r_i_glide_einternal>
9.40314

> <r_i_glide_emodel>
-62.6534

> <r_i_glide_energy>
-50.4733

> <r_i_glide_erotb>
0.576664

> <r_i_glide_esite>
-0.284311

> <r_i_glide_evdw>
-42.4956

> <r_i_glide_gscore>
-5.58213

> <r_i_glide_hbond>
-0.233142

> <r_i_glide_ligand_efficiency>
-0.16418

> <r_i_glide_ligand_efficiency_ln>
-1.23325

> <r_i_glide_ligand_efficiency_sa>
-0.53188

> <r_i_glide_lipo>
-2.28116

> <r_i_glide_metal>
0

> <r_i_glide_rewards>
-0.0387479

> <s_i_glide_gridfile>
wee1_glide-grid

> <s_m_Source_File>
wee1_decoys_glide_SP.sdf

> <s_m_Source_Path>
/Users/zhangxujun/Desktop

> <s_m_entry_id>
4632

> <s_m_entry_name>
wee1_decoys_glide_SP.4357

> <s_m_subgroup_title>
wee1_decoys_glide_SP

> <s_m_subgroupid>
wee1_decoys_glide_SP


$$$$
