ZINC20097727_3166
                    3D
 Schrodinger Suite 2024-2.
 68 71  0  0  1  0            999 V2000
   -3.2989   53.3211   24.1714 C   0  0  0  0  0  0
   -4.4532   53.0825   24.9041 C   0  0  0  0  0  0
   -4.4600   52.1890   25.9795 C   0  0  0  0  0  0
   -3.2615   51.5181   26.3321 C   0  0  0  0  0  0
   -2.0941   51.7732   25.5790 C   0  0  0  0  0  0
   -2.1186   52.6833   24.5177 C   0  0  0  0  0  0
   -0.8812   51.0994   25.8469 N   0  0  0  0  0  0
   -0.6229   49.8386   25.1000 C   0  0  0  0  0  0
    0.0269   50.0516   23.7144 C   0  0  0  0  0  0
   -0.5073   50.7869   22.8857 O   0  0  0  0  0  0
    1.1034   49.3007   23.4101 N   0  0  0  0  0  0
    1.8352   49.2871   22.1290 C   0  0  0  0  0  0
    0.9719   48.8634   20.9136 C   0  0  0  0  0  0
    1.0456   50.0215   19.9096 C   0  0  0  0  0  0
    2.3769   50.7046   20.2109 C   0  0  0  0  0  0
    2.4788   50.6375   21.7343 C   0  0  0  0  0  0
    0.0357   51.5668   26.7476 C   0  0  0  0  0  0
    1.1034   50.9952   26.9352 O   0  0  0  0  0  0
   -0.1877   52.8480   27.5738 C   0  0  0  0  0  0
   -0.0956   52.6755   29.4277 S   0  0  2  0  0  0
   -0.1469   54.0916   30.0057 O   0  0  0  0  0  0
    1.6407   52.0868   29.7429 C   0  0  0  0  0  0
    2.7637   53.0097   29.2747 C   0  0  0  0  0  0
    3.2921   53.7738   30.0820 O   0  0  0  0  0  0
    3.1120   52.9159   27.9776 N   0  0  0  0  0  0
    4.1347   53.6174   27.3199 C   0  0  0  0  0  0
    3.9314   53.9317   25.9742 C   0  0  0  0  0  0
    4.9338   54.5748   25.2514 C   0  0  0  0  0  0
    6.1354   54.8988   25.8754 C   0  0  0  0  0  0
    6.3467   54.5847   27.2140 C   0  0  0  0  0  0
    5.3497   53.9423   27.9404 C   0  0  0  0  0  0
    7.1038   55.5340   25.1795 F   0  0  0  0  0  0
   -3.2289   50.5770   27.5421 C   0  0  0  0  0  0
   -4.6147   50.1327   28.0402 C   0  0  0  0  0  0
   -5.5784   51.3217   28.1091 C   0  0  0  0  0  0
   -5.7789   51.9118   26.7059 C   0  0  0  0  0  0
   -3.3138   54.0168   23.3464 H   0  0  0  0  0  0
   -5.3669   53.5840   24.6186 H   0  0  0  0  0  0
   -1.2231   52.8958   23.9535 H   0  0  0  0  0  0
   -0.0089   49.1588   25.6952 H   0  0  0  0  0  0
   -1.5465   49.2783   24.9511 H   0  0  0  0  0  0
    1.4811   48.6897   24.1242 H   0  0  0  0  0  0
    2.6570   48.5677   22.1705 H   0  0  0  0  0  0
    1.4045   47.9764   20.4430 H   0  0  0  0  0  0
   -0.0638   48.6286   21.1677 H   0  0  0  0  0  0
    0.9790   49.6823   18.8753 H   0  0  0  0  0  0
    0.2212   50.7176   20.0829 H   0  0  0  0  0  0
    3.1979   50.1545   19.7441 H   0  0  0  0  0  0
    2.4123   51.7280   19.8334 H   0  0  0  0  0  0
    1.9307   51.4799   22.1588 H   0  0  0  0  0  0
    3.5067   50.7324   22.0832 H   0  0  0  0  0  0
    0.5624   53.5809   27.2819 H   0  0  0  0  0  0
   -1.1502   53.2968   27.3458 H   0  0  0  0  0  0
    1.7391   51.9356   30.8181 H   0  0  0  0  0  0
    1.7617   51.1026   29.2928 H   0  0  0  0  0  0
    2.5376   52.3136   27.4001 H   0  0  0  0  0  0
    3.0052   53.6706   25.4809 H   0  0  0  0  0  0
    4.7812   54.8215   24.2115 H   0  0  0  0  0  0
    7.2812   54.8413   27.6912 H   0  0  0  0  0  0
    5.5381   53.6871   28.9710 H   0  0  0  0  0  0
   -2.6966   51.0669   28.3587 H   0  0  0  0  0  0
   -2.6508   49.6968   27.2816 H   0  0  0  0  0  0
   -5.0178   49.3685   27.3752 H   0  0  0  0  0  0
   -4.5186   49.6618   29.0198 H   0  0  0  0  0  0
   -6.5378   51.0058   28.5216 H   0  0  0  0  0  0
   -5.1902   52.0842   28.7861 H   0  0  0  0  0  0
   -6.3506   51.2053   26.1043 H   0  0  0  0  0  0
   -6.3824   52.8193   26.7666 H   0  0  0  0  0  0
  1  6  2  0  0  0
  1  2  1  0  0  0
  1 37  1  0  0  0
  2  3  2  0  0  0
  2 38  1  0  0  0
  3 36  1  0  0  0
  3  4  1  0  0  0
  4  5  2  0  0  0
  4 33  1  0  0  0
  5  6  1  0  0  0
  5  7  1  0  0  0
  6 39  1  0  0  0
  7  8  1  0  0  0
  7 17  1  0  0  0
  8  9  1  0  0  0
  8 40  1  0  0  0
  8 41  1  0  0  0
  9 10  2  0  0  0
  9 11  1  0  0  0
 11 12  1  0  0  0
 11 42  1  0  0  0
 12 16  1  0  0  0
 12 13  1  0  0  0
 12 43  1  0  0  0
 13 14  1  0  0  0
 13 44  1  0  0  0
 13 45  1  0  0  0
 14 15  1  0  0  0
 14 46  1  0  0  0
 14 47  1  0  0  0
 15 16  1  0  0  0
 15 48  1  0  0  0
 15 49  1  0  0  0
 16 50  1  0  0  0
 16 51  1  0  0  0
 17 18  2  0  0  0
 17 19  1  0  0  0
 19 20  1  0  0  0
 19 52  1  0  0  0
 19 53  1  0  0  0
 20 21  2  0  0  0
 20 22  1  0  0  0
 22 23  1  0  0  0
 22 54  1  0  0  0
 22 55  1  0  0  0
 23 24  2  0  0  0
 23 25  1  0  0  0
 25 26  1  0  0  0
 25 56  1  0  0  0
 26 31  2  0  0  0
 26 27  1  0  0  0
 27 28  2  0  0  0
 27 57  1  0  0  0
 28 29  1  0  0  0
 28 58  1  0  0  0
 29 30  2  0  0  0
 29 32  1  0  0  0
 30 31  1  0  0  0
 30 59  1  0  0  0
 31 60  1  0  0  0
 33 34  1  0  0  0
 33 61  1  0  0  0
 33 62  1  0  0  0
 34 35  1  0  0  0
 34 63  1  0  0  0
 34 64  1  0  0  0
 35 36  1  0  0  0
 35 65  1  0  0  0
 35 66  1  0  0  0
 36 67  1  0  0  0
 36 68  1  0  0  0
M  END
> <i_i_glide_confnum>
69

> <i_i_glide_lignum>
3167

> <i_i_glide_posenum>
240

> <i_i_glide_rotatable_bonds>
12

> <i_m_Source_File_Index>
3955

> <b_m_subgroup_collapsed>
0

> <r_i_docking_score>
-6.0731

> <r_i_glide_ecoul>
-7.63624

> <r_i_glide_eff_state_penalty>
0

> <r_i_glide_einternal>
4.45115

> <r_i_glide_emodel>
-73.0506

> <r_i_glide_energy>
-54.2372

> <r_i_glide_erotb>
0.699615

> <r_i_glide_esite>
-0.0589618

> <r_i_glide_evdw>
-46.601

> <r_i_glide_gscore>
-6.0731

> <r_i_glide_hbond>
-0.55432

> <r_i_glide_ligand_efficiency>
-0.168697

> <r_i_glide_ligand_efficiency_ln>
-1.32499

> <r_i_glide_ligand_efficiency_sa>
-0.557026

> <r_i_glide_lipo>
-2.44836

> <r_i_glide_metal>
0

> <r_i_glide_rewards>
-0.235583

> <s_i_glide_gridfile>
wee1_glide-grid

> <s_m_Source_File>
wee1_decoys_glide_SP.sdf

> <s_m_Source_Path>
/Users/zhangxujun/Desktop

> <s_m_entry_id>
4230

> <s_m_entry_name>
wee1_decoys_glide_SP.3955

> <s_m_subgroup_title>
wee1_decoys_glide_SP

> <s_m_subgroupid>
wee1_decoys_glide_SP


$$$$
