ZINC58948814_750
                    3D
 Schrodinger Suite 2024-2.
 72 75  0  0  1  0            999 V2000
    6.4902   54.5332   24.8224 C   0  0  0  0  0  0
    5.4519   54.3575   25.9133 C   0  0  0  0  0  0
    4.1045   54.2639   25.5635 C   0  0  0  0  0  0
    3.1405   54.1069   26.5526 C   0  0  0  0  0  0
    3.5270   54.0432   27.8920 C   0  0  0  0  0  0
    4.8754   54.1222   28.2466 C   0  0  0  0  0  0
    5.8398   54.2777   27.2542 C   0  0  0  0  0  0
    2.2709   53.9096   29.1579 S   0  0  0  0  0  0
    2.8999   53.2890   30.3306 O   0  0  0  0  0  0
    1.6608   55.2407   29.2614 O   0  0  0  0  0  0
    1.0779   52.7823   28.4929 N   0  0  0  0  0  0
    1.3549   51.3398   28.4550 C   0  0  0  0  0  0
    0.8923   50.7733   27.0931 C   0  0  0  0  0  0
   -0.6082   51.0923   26.8162 C   0  0  0  0  0  0
   -0.8752   52.6120   26.9969 C   0  0  0  0  0  0
   -0.3426   53.1511   28.3441 C   0  0  0  0  0  0
   -0.9996   50.6549   25.3773 C   0  0  0  0  0  0
   -1.7812   51.3340   24.7034 O   0  0  0  0  0  0
   -0.5071   49.4886   24.9180 N   0  0  0  0  0  0
   -0.7050   48.9768   23.5619 C   0  0  0  0  0  0
    0.1013   49.7183   22.4959 C   0  0  0  0  0  0
    1.4327   49.3684   22.2717 C   0  0  0  0  0  0
    2.1541   49.9793   21.2516 C   0  0  0  0  0  0
    1.5515   50.9478   20.4479 C   0  0  0  0  0  0
    0.2198   51.3072   20.6732 C   0  0  0  0  0  0
   -0.5052   50.6909   21.6932 C   0  0  0  0  0  0
    2.3315   51.5486   19.2821 C   0  0  0  0  0  0
    3.0352   52.8967   19.5831 N   0  3  1  0  0  0
    4.0474   52.7571   20.7484 C   0  0  0  0  0  0
    4.6989   54.1285   21.0138 C   0  0  0  0  0  0
    5.3688   54.6887   19.7489 C   0  0  0  0  0  0
    4.3678   54.7876   18.5773 C   0  0  2  0  0  0
    3.5657   55.4603   18.8834 H   0  0  0  0  0  0
    3.7371   53.4026   18.2967 C   0  0  0  0  0  0
    5.0251   55.3696   17.3160 C   0  0  0  0  0  0
    6.3713   55.5015   24.3319 H   0  0  0  0  0  0
    6.3693   53.7570   24.0655 H   0  0  0  0  0  0
    7.5045   54.4596   25.2115 H   0  0  0  0  0  0
    3.8024   54.3201   24.5277 H   0  0  0  0  0  0
    2.0964   54.0622   26.2777 H   0  0  0  0  0  0
    5.1770   54.0785   29.2830 H   0  0  0  0  0  0
    6.8817   54.3416   27.5356 H   0  0  0  0  0  0
    2.4165   51.1713   28.6343 H   0  0  0  0  0  0
    0.7968   50.8962   29.2773 H   0  0  0  0  0  0
    1.5039   51.2978   26.3621 H   0  0  0  0  0  0
    1.0943   49.7027   27.0778 H   0  0  0  0  0  0
   -1.2391   50.4969   27.4780 H   0  0  0  0  0  0
   -1.9394   52.8468   26.9314 H   0  0  0  0  0  0
   -0.2999   53.1342   26.2346 H   0  0  0  0  0  0
   -0.8943   52.6969   29.1670 H   0  0  0  0  0  0
   -0.4513   54.2308   28.4209 H   0  0  0  0  0  0
    0.0642   48.9344   25.5410 H   0  0  0  0  0  0
   -0.4133   47.9257   23.5571 H   0  0  0  0  0  0
   -1.7677   48.9825   23.3030 H   0  0  0  0  0  0
    1.9056   48.6133   22.8803 H   0  0  0  0  0  0
    3.1801   49.6944   21.0804 H   0  0  0  0  0  0
   -0.2586   52.0504   20.0519 H   0  0  0  0  0  0
   -1.5364   50.9648   21.8587 H   0  0  0  0  0  0
    3.1145   50.8691   18.9330 H   0  0  0  0  0  0
    1.6695   51.7501   18.4380 H   0  0  0  0  0  0
    3.4858   52.4383   21.6271 H   0  0  0  0  0  0
    4.7684   51.9885   20.4620 H   0  0  0  0  0  0
    3.9480   54.8289   21.3829 H   0  0  0  0  0  0
    5.4384   54.0326   21.8083 H   0  0  0  0  0  0
    5.8059   55.6684   19.9473 H   0  0  0  0  0  0
    6.2129   54.0590   19.4613 H   0  0  0  0  0  0
    4.4680   52.6493   17.9895 H   0  0  0  0  0  0
    2.9674   53.4879   17.5272 H   0  0  0  0  0  0
    5.8375   54.7356   16.9585 H   0  0  0  0  0  0
    4.3049   55.4709   16.5032 H   0  0  0  0  0  0
    5.4387   56.3606   17.5064 H   0  0  0  0  0  0
    2.3290   53.5777   19.8446 H   0  0  0  0  0  0
  1  2  1  0  0  0
  1 36  1  0  0  0
  1 37  1  0  0  0
  1 38  1  0  0  0
  2  7  2  0  0  0
  2  3  1  0  0  0
  3  4  2  0  0  0
  3 39  1  0  0  0
  4  5  1  0  0  0
  4 40  1  0  0  0
  5  6  2  0  0  0
  5  8  1  0  0  0
  6  7  1  0  0  0
  6 41  1  0  0  0
  7 42  1  0  0  0
  8  9  2  0  0  0
  8 10  2  0  0  0
  8 11  1  0  0  0
 11 16  1  0  0  0
 11 12  1  0  0  0
 12 13  1  0  0  0
 12 43  1  0  0  0
 12 44  1  0  0  0
 13 14  1  0  0  0
 13 45  1  0  0  0
 13 46  1  0  0  0
 14 15  1  0  0  0
 14 17  1  0  0  0
 14 47  1  0  0  0
 15 16  1  0  0  0
 15 48  1  0  0  0
 15 49  1  0  0  0
 16 50  1  0  0  0
 16 51  1  0  0  0
 17 18  2  0  0  0
 17 19  1  0  0  0
 19 20  1  0  0  0
 19 52  1  0  0  0
 20 21  1  0  0  0
 20 53  1  0  0  0
 20 54  1  0  0  0
 21 26  2  0  0  0
 21 22  1  0  0  0
 22 23  2  0  0  0
 22 55  1  0  0  0
 23 24  1  0  0  0
 23 56  1  0  0  0
 24 25  2  0  0  0
 24 27  1  0  0  0
 25 26  1  0  0  0
 25 57  1  0  0  0
 26 58  1  0  0  0
 27 28  1  0  0  0
 27 59  1  0  0  0
 27 60  1  0  0  0
 28 34  1  0  0  0
 28 29  1  0  0  0
 28 72  1  0  0  0
 29 30  1  0  0  0
 29 61  1  0  0  0
 29 62  1  0  0  0
 30 31  1  0  0  0
 30 63  1  0  0  0
 30 64  1  0  0  0
 31 32  1  0  0  0
 31 65  1  0  0  0
 31 66  1  0  0  0
 32 33  1  0  0  0
 32 34  1  0  0  0
 32 35  1  0  0  0
 34 67  1  0  0  0
 34 68  1  0  0  0
 35 69  1  0  0  0
 35 70  1  0  0  0
 35 71  1  0  0  0
M  CHG  1  28   1
M  END
> <i_i_glide_confnum>
125

> <i_i_glide_lignum>
751

> <i_i_glide_posenum>
201

> <i_i_glide_rotatable_bonds>
8

> <i_m_Source_File_Index>
5650

> <b_m_subgroup_collapsed>
0

> <r_i_docking_score>
-4.80146

> <r_i_glide_ecoul>
-6.07561

> <r_i_glide_eff_state_penalty>
0

> <r_i_glide_einternal>
5.82764

> <r_i_glide_emodel>
-57.6266

> <r_i_glide_energy>
-47.2325

> <r_i_glide_erotb>
0.691657

> <r_i_glide_esite>
-0.082548

> <r_i_glide_evdw>
-41.1569

> <r_i_glide_gscore>
-4.80146

> <r_i_glide_hbond>
0

> <r_i_glide_ligand_efficiency>
-0.141219

> <r_i_glide_ligand_efficiency_ln>
-1.06078

> <r_i_glide_ligand_efficiency_sa>
-0.457496

> <r_i_glide_lipo>
-2.4715

> <r_i_glide_metal>
0

> <r_i_glide_rewards>
0.0301234

> <s_i_glide_gridfile>
wee1_glide-grid

> <s_m_Source_File>
wee1_decoys_glide_SP.sdf

> <s_m_Source_Path>
/Users/zhangxujun/Desktop

> <s_m_entry_id>
5925

> <s_m_entry_name>
wee1_decoys_glide_SP.5650

> <s_m_subgroup_title>
wee1_decoys_glide_SP

> <s_m_subgroupid>
wee1_decoys_glide_SP


$$$$
