ZINC37342581_4723
                    3D
 Schrodinger Suite 2024-2.
 32 33  0  0  1  0            999 V2000
   -0.0594   51.6120   26.3918 C   0  0  0  0  0  0
   -0.3694   51.6967   27.7436 C   0  0  0  0  0  0
    0.3875   52.4911   28.6301 C   0  0  0  0  0  0
    1.4810   53.1882   28.0787 C   0  0  0  0  0  0
    1.8259   53.1045   26.7203 C   0  0  0  0  0  0
    1.0257   52.3115   25.8810 C   0  0  0  0  0  0
    3.0512   53.8352   26.2073 C   0  0  0  0  0  0
    3.7484   54.4967   26.9775 O   0  0  0  0  0  0
    3.2975   53.6967   24.8874 N   0  0  0  0  0  0
    4.3924   54.1129   24.1131 C   0  0  0  0  0  0
    5.5806   54.6286   24.6555 C   0  0  0  0  0  0
    6.6163   55.0278   23.8161 C   0  0  0  0  0  0
    6.4963   54.8967   22.4355 C   0  0  0  0  0  0
    5.3304   54.3672   21.8881 C   0  0  0  0  0  0
    4.2788   53.9783   22.7191 C   0  0  0  0  0  0
    2.7044   53.2568   21.9149 Br  0  0  0  0  0  0
    7.5025   55.2989   21.6275 F   0  0  0  0  0  0
    0.0678   52.6020   30.0881 C   0  0  0  0  0  0
    0.6666   53.4774   30.8014 N   0  0  0  0  0  0
    0.3044   53.4935   32.1720 O   0  0  0  0  0  0
   -0.8956   51.6967   30.4817 N   0  0  0  0  0  0
   -0.6591   50.9909   25.7421 H   0  0  0  0  0  0
   -1.2222   51.1225   28.0779 H   0  0  0  0  0  0
    2.0941   53.8000   28.7274 H   0  0  0  0  0  0
    1.2326   52.1994   24.8270 H   0  0  0  0  0  0
    2.6099   53.1794   24.3643 H   0  0  0  0  0  0
    5.7269   54.7362   25.7182 H   0  0  0  0  0  0
    7.5044   55.4582   24.2409 H   0  0  0  0  0  0
    5.2392   54.2664   20.8165 H   0  0  0  0  0  0
   -0.3252   52.7643   32.2696 H   0  0  0  0  0  0
   -1.2601   51.6717   31.4393 H   0  0  0  0  0  0
   -1.1707   50.9348   29.8780 H   0  0  0  0  0  0
  1  6  2  0  0  0
  1  2  1  0  0  0
  1 22  1  0  0  0
  2  3  2  0  0  0
  2 23  1  0  0  0
  3  4  1  0  0  0
  3 18  1  0  0  0
  4  5  2  0  0  0
  4 24  1  0  0  0
  5  6  1  0  0  0
  5  7  1  0  0  0
  6 25  1  0  0  0
  7  8  2  0  0  0
  7  9  1  0  0  0
  9 10  1  0  0  0
  9 26  1  0  0  0
 10 15  2  0  0  0
 10 11  1  0  0  0
 11 12  2  0  0  0
 11 27  1  0  0  0
 12 13  1  0  0  0
 12 28  1  0  0  0
 13 14  2  0  0  0
 13 17  1  0  0  0
 14 15  1  0  0  0
 14 29  1  0  0  0
 15 16  1  0  0  0
 18 19  2  0  0  0
 18 21  1  0  0  0
 19 20  1  0  0  0
 20 30  1  0  0  0
 21 31  1  0  0  0
 21 32  1  0  0  0
M  END
> <i_i_glide_confnum>
4

> <i_i_glide_lignum>
4724

> <i_i_glide_posenum>
55

> <i_i_glide_rotatable_bonds>
5

> <i_m_Source_File_Index>
1414

> <b_m_subgroup_collapsed>
0

> <r_i_docking_score>
-6.27459

> <r_i_glide_ecoul>
-9.7741

> <r_i_glide_eff_state_penalty>
0

> <r_i_glide_einternal>
1.12675

> <r_i_glide_emodel>
-59.7561

> <r_i_glide_energy>
-41.9202

> <r_i_glide_erotb>
0.769321

> <r_i_glide_esite>
-0.206982

> <r_i_glide_evdw>
-32.1461

> <r_i_glide_gscore>
-6.27459

> <r_i_glide_hbond>
-0.304

> <r_i_glide_ligand_efficiency>
-0.29879

> <r_i_glide_ligand_efficiency_ln>
-1.55138

> <r_i_glide_ligand_efficiency_sa>
-0.82434

> <r_i_glide_lipo>
-2.03977

> <r_i_glide_metal>
0

> <r_i_glide_rewards>
-1.41974

> <s_i_glide_gridfile>
wee1_glide-grid

> <s_m_Source_File>
wee1_decoys_glide_SP.sdf

> <s_m_Source_Path>
/Users/zhangxujun/Desktop

> <s_m_entry_id>
1689

> <s_m_entry_name>
wee1_decoys_glide_SP.1414

> <s_m_subgroup_title>
wee1_decoys_glide_SP

> <s_m_subgroupid>
wee1_decoys_glide_SP


$$$$
