ZINC22879829_5198
                    3D
 Schrodinger Suite 2024-2.
 45 47  0  0  1  0            999 V2000
    5.9382   58.8882   15.6050 C   0  0  0  0  0  0
    6.3557   58.1358   16.7080 C   0  0  0  0  0  0
    6.1565   56.7642   16.5445 C   0  0  0  0  0  0
    5.5107   56.4133   14.9564 S   0  0  0  0  0  0
    5.4540   58.1016   14.5708 C   0  0  0  0  0  0
    6.5190   55.7247   17.4736 C   0  0  0  0  0  0
    7.3787   55.9136   18.3359 O   0  0  0  0  0  0
    5.8226   54.5804   17.3418 N   0  0  0  0  0  0
    5.9370   53.4024   18.2080 C   0  0  0  0  0  0
    5.0976   53.5880   19.4874 C   0  0  0  0  0  0
    5.1278   54.6652   20.0864 O   0  0  0  0  0  0
    4.4198   52.4962   19.9102 N   0  0  0  0  0  0
    3.5897   52.3975   21.0288 C   0  0  0  0  0  0
    3.0195   51.2747   21.3766 N   0  0  0  0  0  0
    2.3040   51.4112   22.4818 C   0  0  0  0  0  0
    2.2753   52.6662   23.1063 C   0  0  0  0  0  0
    3.1979   53.7249   22.0816 S   0  0  0  0  0  0
    1.6141   53.1527   24.3909 C   0  0  0  0  0  0
    2.5735   53.4491   25.5523 C   0  0  0  0  0  0
    3.7972   54.0965   25.3467 C   0  0  0  0  0  0
    4.7006   54.3020   26.3877 C   0  0  0  0  0  0
    4.3495   53.9014   27.6803 C   0  0  0  0  0  0
    3.1130   53.2918   27.9249 C   0  0  0  0  0  0
    2.2318   53.0710   26.8559 C   0  0  0  0  0  0
    2.7598   52.8581   29.3452 C   0  0  0  0  0  0
    2.5511   53.9477   30.0815 F   0  0  0  0  0  0
    1.6624   52.1025   29.3908 F   0  0  0  0  0  0
    3.7619   52.1617   29.8843 F   0  0  0  0  0  0
    6.0572   54.9259   26.0732 C   0  0  0  0  0  0
    5.9211   55.9908   25.2816 F   0  0  0  0  0  0
    6.7042   55.2964   27.1750 F   0  0  0  0  0  0
    6.8064   54.0315   25.4342 F   0  0  0  0  0  0
    5.9916   59.9675   15.5653 H   0  0  0  0  0  0
    6.7699   58.5829   17.6018 H   0  0  0  0  0  0
    5.0760   58.4321   13.6143 H   0  0  0  0  0  0
    5.1291   54.5321   16.6119 H   0  0  0  0  0  0
    5.6054   52.5293   17.6437 H   0  0  0  0  0  0
    6.9777   53.2269   18.4806 H   0  0  0  0  0  0
    4.5268   51.6563   19.3464 H   0  0  0  0  0  0
    1.8046   50.5345   22.8682 H   0  0  0  0  0  0
    1.0706   54.0761   24.1865 H   0  0  0  0  0  0
    0.8601   52.4345   24.7156 H   0  0  0  0  0  0
    4.0915   54.4334   24.3700 H   0  0  0  0  0  0
    5.0402   54.0531   28.4984 H   0  0  0  0  0  0
    1.2834   52.5822   27.0311 H   0  0  0  0  0  0
  1  5  2  0  0  0
  1  2  1  0  0  0
  1 33  1  0  0  0
  2  3  2  0  0  0
  2 34  1  0  0  0
  3  4  1  0  0  0
  3  6  1  0  0  0
  4  5  1  0  0  0
  5 35  1  0  0  0
  6  7  2  0  0  0
  6  8  1  0  0  0
  8  9  1  0  0  0
  8 36  1  0  0  0
  9 10  1  0  0  0
  9 37  1  0  0  0
  9 38  1  0  0  0
 10 11  2  0  0  0
 10 12  1  0  0  0
 12 13  1  0  0  0
 12 39  1  0  0  0
 13 17  1  0  0  0
 13 14  2  0  0  0
 14 15  1  0  0  0
 15 16  2  0  0  0
 15 40  1  0  0  0
 16 17  1  0  0  0
 16 18  1  0  0  0
 18 19  1  0  0  0
 18 41  1  0  0  0
 18 42  1  0  0  0
 19 24  2  0  0  0
 19 20  1  0  0  0
 20 21  2  0  0  0
 20 43  1  0  0  0
 21 22  1  0  0  0
 21 29  1  0  0  0
 22 23  2  0  0  0
 22 44  1  0  0  0
 23 24  1  0  0  0
 23 25  1  0  0  0
 24 45  1  0  0  0
 25 26  1  0  0  0
 25 27  1  0  0  0
 25 28  1  0  0  0
 29 30  1  0  0  0
 29 31  1  0  0  0
 29 32  1  0  0  0
M  END
> <i_i_glide_confnum>
114

> <i_i_glide_lignum>
5199

> <i_i_glide_posenum>
330

> <i_i_glide_rotatable_bonds>
10

> <i_m_Source_File_Index>
2653

> <b_m_subgroup_collapsed>
0

> <r_i_docking_score>
-6.17545

> <r_i_glide_ecoul>
-5.96691

> <r_i_glide_eff_state_penalty>
0

> <r_i_glide_einternal>
6.57845

> <r_i_glide_emodel>
-62.7236

> <r_i_glide_energy>
-43.3937

> <r_i_glide_erotb>
0.585653

> <r_i_glide_esite>
-0.165278

> <r_i_glide_evdw>
-37.4268

> <r_i_glide_gscore>
-6.17545

> <r_i_glide_hbond>
-0.16

> <r_i_glide_ligand_efficiency>
-0.192983

> <r_i_glide_ligand_efficiency_ln>
-1.38285

> <r_i_glide_ligand_efficiency_sa>
-0.612682

> <r_i_glide_lipo>
-2.29764

> <r_i_glide_metal>
0

> <r_i_glide_rewards>
-1.37181

> <s_i_glide_gridfile>
wee1_glide-grid

> <s_m_Source_File>
wee1_decoys_glide_SP.sdf

> <s_m_Source_Path>
/Users/zhangxujun/Desktop

> <s_m_entry_id>
2928

> <s_m_entry_name>
wee1_decoys_glide_SP.2653

> <s_m_subgroup_title>
wee1_decoys_glide_SP

> <s_m_subgroupid>
wee1_decoys_glide_SP


$$$$
