ZINC13511775_5137
                    3D
 Schrodinger Suite 2024-2.
 63 65  0  0  1  0            999 V2000
    6.5332   54.3019   24.3322 C   0  0  0  0  0  0
    5.5408   54.2385   25.4797 C   0  0  0  0  0  0
    5.9930   54.2196   26.8024 C   0  0  0  0  0  0
    5.0756   54.1443   27.8485 C   0  0  0  0  0  0
    3.7097   54.0858   27.5650 C   0  0  0  0  0  0
    3.2576   54.0961   26.2457 C   0  0  0  0  0  0
    4.1753   54.1676   25.2023 C   0  0  0  0  0  0
    2.5178   54.0246   28.8969 S   0  0  0  0  0  0
    1.8839   55.3481   28.9440 O   0  0  0  0  0  0
    3.2081   53.5009   30.0826 O   0  0  0  0  0  0
    1.3052   52.8361   28.3882 N   0  0  0  0  0  0
    1.6486   51.4006   28.3112 C   0  0  0  0  0  0
    1.0164   50.7938   27.0378 C   0  0  0  0  0  0
   -0.5071   51.0734   27.0092 C   0  0  0  0  0  0
   -0.8388   52.5700   27.1872 C   0  0  0  0  0  0
   -0.1388   53.1541   28.4335 C   0  0  0  0  0  0
   -1.1218   50.5103   25.7076 C   0  0  0  0  0  0
   -1.4036   51.2575   24.7675 O   0  0  0  0  0  0
   -1.3630   49.1905   25.6819 N   0  0  0  0  0  0
   -2.0571   48.4703   24.6049 C   0  0  1  0  0  0
   -2.6505   49.2018   24.0527 H   0  0  0  0  0  0
   -1.0414   47.8247   23.5900 C   0  0  0  0  0  0
   -0.1301   48.8964   22.9443 C   0  0  0  0  0  0
   -1.6439   46.9500   22.4675 C   0  0  0  0  0  0
   -3.1364   47.4776   25.1446 C   0  0  0  0  0  0
   -3.8762   46.9149   24.3344 O   0  0  0  0  0  0
   -3.2956   47.3714   26.4844 N   0  0  0  0  0  0
   -4.3952   46.7900   27.1293 C   0  0  0  0  0  0
   -5.0721   47.5758   28.0670 C   0  0  0  0  0  0
   -6.1880   47.0670   28.7311 C   0  0  0  0  0  0
   -6.6192   45.7651   28.4757 C   0  0  0  0  0  0
   -5.9169   44.9612   27.5784 C   0  0  0  0  0  0
   -4.7974   45.4628   26.9127 C   0  0  0  0  0  0
   -4.1036   44.6545   26.0816 F   0  0  0  0  0  0
   -7.6960   45.2743   29.1267 F   0  0  0  0  0  0
    7.5055   53.9080   24.6274 H   0  0  0  0  0  0
    6.1907   53.6829   23.4987 H   0  0  0  0  0  0
    6.6497   55.3272   23.9722 H   0  0  0  0  0  0
    7.0498   54.2565   27.0242 H   0  0  0  0  0  0
    5.4294   54.1426   28.8708 H   0  0  0  0  0  0
    2.2003   54.0575   26.0249 H   0  0  0  0  0  0
    3.8230   54.1767   24.1815 H   0  0  0  0  0  0
    1.2518   50.9012   29.1964 H   0  0  0  0  0  0
    2.7325   51.2972   28.3279 H   0  0  0  0  0  0
    1.2403   49.7257   27.0142 H   0  0  0  0  0  0
    1.4988   51.3195   26.2124 H   0  0  0  0  0  0
   -0.9657   50.4967   27.8119 H   0  0  0  0  0  0
   -0.4247   53.1014   26.3334 H   0  0  0  0  0  0
   -1.9116   52.7288   27.2811 H   0  0  0  0  0  0
   -0.5573   52.7016   29.3329 H   0  0  0  0  0  0
   -0.2783   54.2310   28.5045 H   0  0  0  0  0  0
   -1.1536   48.6616   26.5280 H   0  0  0  0  0  0
   -0.3774   47.1757   24.1638 H   0  0  0  0  0  0
   -0.7208   49.6993   22.5015 H   0  0  0  0  0  0
    0.5405   49.3435   23.6782 H   0  0  0  0  0  0
    0.5004   48.4968   22.1534 H   0  0  0  0  0  0
   -2.4470   47.4695   21.9453 H   0  0  0  0  0  0
   -0.8960   46.6764   21.7227 H   0  0  0  0  0  0
   -2.0400   46.0125   22.8543 H   0  0  0  0  0  0
   -2.6557   47.8702   27.1010 H   0  0  0  0  0  0
   -4.7468   48.5871   28.2749 H   0  0  0  0  0  0
   -6.7207   47.6791   29.4426 H   0  0  0  0  0  0
   -6.2361   43.9443   27.4039 H   0  0  0  0  0  0
  1  2  1  0  0  0
  1 36  1  0  0  0
  1 37  1  0  0  0
  1 38  1  0  0  0
  2  7  2  0  0  0
  2  3  1  0  0  0
  3  4  2  0  0  0
  3 39  1  0  0  0
  4  5  1  0  0  0
  4 40  1  0  0  0
  5  6  2  0  0  0
  5  8  1  0  0  0
  6  7  1  0  0  0
  6 41  1  0  0  0
  7 42  1  0  0  0
  8  9  2  0  0  0
  8 10  2  0  0  0
  8 11  1  0  0  0
 11 16  1  0  0  0
 11 12  1  0  0  0
 12 13  1  0  0  0
 12 43  1  0  0  0
 12 44  1  0  0  0
 13 14  1  0  0  0
 13 45  1  0  0  0
 13 46  1  0  0  0
 14 15  1  0  0  0
 14 17  1  0  0  0
 14 47  1  0  0  0
 15 16  1  0  0  0
 15 48  1  0  0  0
 15 49  1  0  0  0
 16 50  1  0  0  0
 16 51  1  0  0  0
 17 18  2  0  0  0
 17 19  1  0  0  0
 19 20  1  0  0  0
 19 52  1  0  0  0
 20 21  1  0  0  0
 20 22  1  0  0  0
 20 25  1  0  0  0
 22 23  1  0  0  0
 22 24  1  0  0  0
 22 53  1  0  0  0
 23 54  1  0  0  0
 23 55  1  0  0  0
 23 56  1  0  0  0
 24 57  1  0  0  0
 24 58  1  0  0  0
 24 59  1  0  0  0
 25 26  2  0  0  0
 25 27  1  0  0  0
 27 28  1  0  0  0
 27 60  1  0  0  0
 28 33  2  0  0  0
 28 29  1  0  0  0
 29 30  2  0  0  0
 29 61  1  0  0  0
 30 31  1  0  0  0
 30 62  1  0  0  0
 31 32  2  0  0  0
 31 35  1  0  0  0
 32 33  1  0  0  0
 32 63  1  0  0  0
 33 34  1  0  0  0
M  END
> <i_i_glide_confnum>
2

> <i_i_glide_lignum>
5138

> <i_i_glide_posenum>
236

> <i_i_glide_rotatable_bonds>
9

> <i_m_Source_File_Index>
132

> <b_m_subgroup_collapsed>
0

> <r_i_docking_score>
-5.75687

> <r_i_glide_ecoul>
-12.0678

> <r_i_glide_eff_state_penalty>
0

> <r_i_glide_einternal>
7.96873

> <r_i_glide_emodel>
-61.7414

> <r_i_glide_energy>
-49.0979

> <r_i_glide_erotb>
0.585393

> <r_i_glide_esite>
-0.437949

> <r_i_glide_evdw>
-37.0301

> <r_i_glide_gscore>
-5.75687

> <r_i_glide_hbond>
-0.303883

> <r_i_glide_ligand_efficiency>
-0.16932

> <r_i_glide_ligand_efficiency_ln>
-1.27185

> <r_i_glide_ligand_efficiency_sa>
-0.54853

> <r_i_glide_lipo>
-2.16559

> <r_i_glide_metal>
0

> <r_i_glide_rewards>
0.226834

> <s_i_glide_gridfile>
wee1_glide-grid

> <s_m_Source_File>
wee1_decoys_glide_SP.sdf

> <s_m_Source_Path>
/Users/zhangxujun/Desktop

> <s_m_entry_id>
407

> <s_m_entry_name>
wee1_decoys_glide_SP.132

> <s_m_subgroup_title>
wee1_decoys_glide_SP

> <s_m_subgroupid>
wee1_decoys_glide_SP


$$$$
