ZINC36024453_4862
                    3D
 Schrodinger Suite 2024-2.
 66 69  0  0  1  0            999 V2000
    1.2550   52.2761   30.1977 C   0  0  0  0  0  0
   -0.1227   52.4475   29.5354 C   0  0  0  0  0  0
   -0.4007   51.4687   28.3673 C   0  0  1  0  0  0
   -0.4359   50.4986   28.8410 H   0  0  0  0  0  0
   -1.8216   51.6957   27.8138 C   0  0  0  0  0  0
    0.7272   51.3974   27.2828 C   0  0  2  0  0  0
    1.6182   50.9117   27.6779 H   0  0  0  0  0  0
    1.1091   52.7202   26.6127 C   0  0  0  0  0  0
    1.5095   53.6982   27.2417 O   0  0  0  0  0  0
    0.9710   52.5988   25.2739 N   0  0  0  0  0  0
    0.3718   51.3210   24.8511 C   0  0  0  0  0  0
    0.2994   50.5152   26.1556 N   0  3  0  0  0  0
   -1.1039   51.4650   24.3553 C   0  0  0  0  0  0
   -1.2668   51.7481   22.8488 C   0  0  0  0  0  0
   -0.4512   50.8027   22.0517 N   0  0  0  0  0  0
    0.9953   50.8592   22.3680 C   0  0  0  0  0  0
    1.2436   50.5089   23.8482 C   0  0  0  0  0  0
   -0.8065   50.8487   20.3185 S   0  0  0  0  0  0
   -2.2629   50.7319   20.1622 O   0  0  0  0  0  0
   -0.0834   51.9907   19.7483 O   0  0  0  0  0  0
   -0.0828   49.3464   19.6687 C   0  0  0  0  0  0
    1.1725   49.3746   19.0524 C   0  0  0  0  0  0
    1.7385   48.1946   18.5754 C   0  0  0  0  0  0
    1.0584   46.9848   18.7108 C   0  0  0  0  0  0
   -0.1950   46.9412   19.3369 C   0  0  0  0  0  0
   -0.7597   48.1306   19.8141 C   0  0  0  0  0  0
   -0.9464   45.6245   19.5134 C   0  0  0  0  0  0
   -0.1700   44.5662   19.2765 F   0  0  0  0  0  0
   -1.4088   45.5249   20.7590 F   0  0  0  0  0  0
   -1.9768   45.5842   18.6703 F   0  0  0  0  0  0
    1.3485   53.7129   24.3748 C   0  0  0  0  0  0
    2.8236   53.8331   23.9845 C   0  0  0  0  0  0
    3.8030   54.0945   24.9509 C   0  0  0  0  0  0
    5.1420   54.1954   24.5832 C   0  0  0  0  0  0
    5.5015   54.0648   23.2454 C   0  0  0  0  0  0
    4.5307   53.8661   22.2682 C   0  0  0  0  0  0
    3.1916   53.7640   22.6366 C   0  0  0  0  0  0
    6.8038   54.1297   22.8942 F   0  0  0  0  0  0
    1.1565   52.1538   31.2754 H   0  0  0  0  0  0
    1.7839   51.4056   29.8181 H   0  0  0  0  0  0
    1.8836   53.1464   30.0198 H   0  0  0  0  0  0
   -0.2423   53.4784   29.2017 H   0  0  0  0  0  0
   -0.8830   52.3014   30.3046 H   0  0  0  0  0  0
   -1.8971   52.6410   27.2780 H   0  0  0  0  0  0
   -2.1257   50.9003   27.1360 H   0  0  0  0  0  0
   -2.5557   51.6878   28.6203 H   0  0  0  0  0  0
    0.8766   49.6877   26.0893 H   0  0  0  0  0  0
   -1.6491   50.5371   24.5465 H   0  0  0  0  0  0
   -1.6403   52.2158   24.9363 H   0  0  0  0  0  0
   -2.3209   51.6463   22.5842 H   0  0  0  0  0  0
   -0.9023   52.7621   22.6833 H   0  0  0  0  0  0
    1.5487   50.1602   21.7391 H   0  0  0  0  0  0
    1.3335   51.8834   22.2380 H   0  0  0  0  0  0
    2.3041   50.6154   24.0775 H   0  0  0  0  0  0
    1.0494   49.4393   23.9580 H   0  0  0  0  0  0
    1.7149   50.3039   18.9353 H   0  0  0  0  0  0
    2.7068   48.2194   18.0957 H   0  0  0  0  0  0
    1.5132   46.0840   18.3231 H   0  0  0  0  0  0
   -1.7265   48.1109   20.2991 H   0  0  0  0  0  0
    1.0855   54.6560   24.8472 H   0  0  0  0  0  0
    0.7396   53.6804   23.4752 H   0  0  0  0  0  0
    3.5477   54.2028   25.9914 H   0  0  0  0  0  0
    5.9014   54.3640   25.3325 H   0  0  0  0  0  0
    4.8163   53.7926   21.2290 H   0  0  0  0  0  0
    2.4481   53.6404   21.8635 H   0  0  0  0  0  0
   -0.6405   50.1735   26.3101 H   0  0  0  0  0  0
  1  2  1  0  0  0
  1 39  1  0  0  0
  1 40  1  0  0  0
  1 41  1  0  0  0
  2  3  1  0  0  0
  2 42  1  0  0  0
  2 43  1  0  0  0
  3  4  1  0  0  0
  3  5  1  0  0  0
  3  6  1  0  0  0
  5 44  1  0  0  0
  5 45  1  0  0  0
  5 46  1  0  0  0
  6  7  1  0  0  0
  6 12  1  0  0  0
  6  8  1  0  0  0
  8  9  2  0  0  0
  8 10  1  0  0  0
 10 11  1  0  0  0
 10 31  1  0  0  0
 11 17  1  0  0  0
 11 12  1  0  0  0
 11 13  1  0  0  0
 12 47  1  0  0  0
 12 66  1  0  0  0
 13 14  1  0  0  0
 13 48  1  0  0  0
 13 49  1  0  0  0
 14 15  1  0  0  0
 14 50  1  0  0  0
 14 51  1  0  0  0
 15 16  1  0  0  0
 15 18  1  0  0  0
 16 17  1  0  0  0
 16 52  1  0  0  0
 16 53  1  0  0  0
 17 54  1  0  0  0
 17 55  1  0  0  0
 18 19  2  0  0  0
 18 20  2  0  0  0
 18 21  1  0  0  0
 21 26  2  0  0  0
 21 22  1  0  0  0
 22 23  2  0  0  0
 22 56  1  0  0  0
 23 24  1  0  0  0
 23 57  1  0  0  0
 24 25  2  0  0  0
 24 58  1  0  0  0
 25 26  1  0  0  0
 25 27  1  0  0  0
 26 59  1  0  0  0
 27 28  1  0  0  0
 27 29  1  0  0  0
 27 30  1  0  0  0
 31 32  1  0  0  0
 31 60  1  0  0  0
 31 61  1  0  0  0
 32 37  2  0  0  0
 32 33  1  0  0  0
 33 34  2  0  0  0
 33 62  1  0  0  0
 34 35  1  0  0  0
 34 63  1  0  0  0
 35 36  2  0  0  0
 35 38  1  0  0  0
 36 37  1  0  0  0
 36 64  1  0  0  0
 37 65  1  0  0  0
M  CHG  1  12   1
M  END
> <i_i_glide_confnum>
45

> <i_i_glide_lignum>
4863

> <i_i_glide_posenum>
176

> <i_i_glide_rotatable_bonds>
7

> <i_m_Source_File_Index>
888

> <b_m_subgroup_collapsed>
0

> <r_i_docking_score>
-3.12722

> <r_i_glide_ecoul>
-3.08203

> <r_i_glide_eff_state_penalty>
0

> <r_i_glide_einternal>
5.01964

> <r_i_glide_emodel>
-42.364

> <r_i_glide_energy>
-39.1214

> <r_i_glide_erotb>
0.368688

> <r_i_glide_esite>
-0.0769578

> <r_i_glide_evdw>
-36.0394

> <r_i_glide_gscore>
-3.12722

> <r_i_glide_hbond>
0

> <r_i_glide_ligand_efficiency>
-0.0868673

> <r_i_glide_ligand_efficiency_ln>
-0.682275

> <r_i_glide_ligand_efficiency_sa>
-0.286829

> <r_i_glide_lipo>
-1.7224

> <r_i_glide_metal>
0

> <r_i_glide_rewards>
0.567726

> <s_i_glide_gridfile>
wee1_glide-grid

> <s_m_Source_File>
wee1_decoys_glide_SP.sdf

> <s_m_Source_Path>
/Users/zhangxujun/Desktop

> <s_m_entry_id>
1163

> <s_m_entry_name>
wee1_decoys_glide_SP.888

> <s_m_subgroup_title>
wee1_decoys_glide_SP

> <s_m_subgroupid>
wee1_decoys_glide_SP


$$$$
