ZINC00041317_1825
                    3D
 Schrodinger Suite 2024-2.
 35 37  0  0  1  0            999 V2000
    6.6811   55.3958   25.8277 C   0  0  0  0  0  0
    5.7990   54.1652   25.5723 C   0  0  2  0  0  0
    6.3997   53.2770   25.7502 H   0  0  0  0  0  0
    5.2422   54.1543   24.1664 C   0  0  0  0  0  0
    3.8592   54.0966   24.1878 C   0  0  0  0  0  0
    3.2057   54.0967   22.9589 C   0  0  0  0  0  0
    3.8794   54.1900   21.7867 N   0  0  0  0  0  0
    5.2279   54.2923   21.8723 C   0  0  0  0  0  0
    5.9591   54.2614   23.0155 N   0  0  0  0  0  0
    5.9037   54.4970   20.6808 N   0  0  0  0  0  0
    1.8232   54.0357   22.8816 N   0  0  0  0  0  0
    3.3502   54.0509   25.5985 C   0  0  0  0  0  0
    4.5758   54.0975   26.4025 N   0  0  0  0  0  0
    4.5752   54.0208   27.7604 C   0  0  0  0  0  0
    5.6048   54.0137   28.4354 O   0  0  0  0  0  0
    3.2428   53.9909   28.4704 C   0  0  0  0  0  0
    2.8223   55.1011   29.2096 C   0  0  0  0  0  0
    1.5867   55.1062   29.8534 C   0  0  0  0  0  0
    0.7607   53.9854   29.7787 C   0  0  0  0  0  0
    1.1692   52.8695   29.0493 C   0  0  0  0  0  0
    2.4061   52.8690   28.4021 C   0  0  0  0  0  0
    0.1413   51.4901   28.9402 Cl  0  0  0  0  0  0
    1.1047   56.4965   30.7546 Cl  0  0  0  0  0  0
    7.5047   55.4180   25.1162 H   0  0  0  0  0  0
    6.1181   56.3154   25.6811 H   0  0  0  0  0  0
    7.1015   55.4010   26.8335 H   0  0  0  0  0  0
    5.3742   54.4795   19.8216 H   0  0  0  0  0  0
    6.9062   54.5919   20.6914 H   0  0  0  0  0  0
    1.2662   53.9669   23.7174 H   0  0  0  0  0  0
    1.4175   54.1188   21.9577 H   0  0  0  0  0  0
    2.7800   53.1416   25.7902 H   0  0  0  0  0  0
    2.7055   54.8961   25.8366 H   0  0  0  0  0  0
    3.4462   55.9736   29.2816 H   0  0  0  0  0  0
   -0.1918   53.9785   30.2869 H   0  0  0  0  0  0
    2.7036   51.9944   27.8451 H   0  0  0  0  0  0
  1  2  1  0  0  0
  1 24  1  0  0  0
  1 25  1  0  0  0
  1 26  1  0  0  0
  2  3  1  0  0  0
  2 13  1  0  0  0
  2  4  1  0  0  0
  4  9  2  0  0  0
  4  5  1  0  0  0
  5  6  2  0  0  0
  5 12  1  0  0  0
  6  7  1  0  0  0
  6 11  1  0  0  0
  7  8  2  0  0  0
  8  9  1  0  0  0
  8 10  1  0  0  0
 10 27  1  0  0  0
 10 28  1  0  0  0
 11 29  1  0  0  0
 11 30  1  0  0  0
 12 13  1  0  0  0
 12 31  1  0  0  0
 12 32  1  0  0  0
 13 14  1  0  0  0
 14 15  2  0  0  0
 14 16  1  0  0  0
 16 21  2  0  0  0
 16 17  1  0  0  0
 17 18  2  0  0  0
 17 33  1  0  0  0
 18 19  1  0  0  0
 18 23  1  0  0  0
 19 20  2  0  0  0
 19 34  1  0  0  0
 20 21  1  0  0  0
 20 22  1  0  0  0
 21 35  1  0  0  0
M  END
> <i_i_glide_confnum>
3

> <i_i_glide_lignum>
1826

> <i_i_glide_posenum>
100

> <i_i_glide_rotatable_bonds>
2

> <i_m_Source_File_Index>
5783

> <b_m_subgroup_collapsed>
0

> <r_i_docking_score>
-6.87529

> <r_i_glide_ecoul>
0.334356

> <r_i_glide_eff_state_penalty>
0

> <r_i_glide_einternal>
2.76133

> <r_i_glide_emodel>
-57.7578

> <r_i_glide_energy>
-41.1191

> <r_i_glide_erotb>
0.330651

> <r_i_glide_esite>
0

> <r_i_glide_evdw>
-41.4535

> <r_i_glide_gscore>
-6.87529

> <r_i_glide_hbond>
-0.218863

> <r_i_glide_ligand_efficiency>
-0.312513

> <r_i_glide_ligand_efficiency_ln>
-1.68057

> <r_i_glide_ligand_efficiency_sa>
-0.875674

> <r_i_glide_lipo>
-2.94318

> <r_i_glide_metal>
0

> <r_i_glide_rewards>
-2.02138

> <s_i_glide_gridfile>
wee1_glide-grid

> <s_m_Source_File>
wee1_decoys_glide_SP.sdf

> <s_m_Source_Path>
/Users/zhangxujun/Desktop

> <s_m_entry_id>
6058

> <s_m_entry_name>
wee1_decoys_glide_SP.5783

> <s_m_subgroup_title>
wee1_decoys_glide_SP

> <s_m_subgroupid>
wee1_decoys_glide_SP


$$$$
