ZINC40315085_4853
                    3D
 Schrodinger Suite 2024-2.
 65 68  0  0  1  0            999 V2000
    6.2080   51.0018   11.0735 C   0  0  0  0  0  0
    5.7843   51.6601   12.3793 C   0  0  0  0  0  0
    4.7369   51.1006   13.1163 C   0  0  0  0  0  0
    4.3306   51.6748   14.3194 C   0  0  0  0  0  0
    4.9749   52.8173   14.8160 C   0  0  0  0  0  0
    6.0084   53.3818   14.0678 C   0  0  0  0  0  0
    6.4243   52.8158   12.8581 C   0  0  0  0  0  0
    7.5702   53.4623   12.0924 C   0  0  0  0  0  0
    4.6648   53.4395   16.0089 O   0  0  0  0  0  0
    3.8039   52.7914   16.9460 C   0  0  0  0  0  0
    4.1243   53.3073   18.3660 C   0  0  1  0  0  0
    4.0848   54.3971   18.3368 H   0  0  0  0  0  0
    3.1243   52.7638   19.4209 C   0  0  0  0  0  0
    3.6312   52.8731   20.8940 N   0  3  1  0  0  0
    4.0230   54.3239   21.2999 C   0  0  0  0  0  0
    4.9354   54.3412   22.5081 C   0  0  0  0  0  0
    6.3016   54.4964   22.6743 C   0  0  0  0  0  0
    6.5421   54.4969   24.0463 C   0  0  0  0  0  0
    5.3155   54.3636   24.6804 C   0  0  0  0  0  0
    4.3446   54.2762   23.7305 O   0  0  0  0  0  0
    4.8949   54.3009   26.1106 C   0  0  0  0  0  0
    5.8505   54.4404   27.1235 C   0  0  0  0  0  0
    5.4668   54.3770   28.4601 C   0  0  0  0  0  0
    4.1295   54.1664   28.7854 C   0  0  0  0  0  0
    3.1707   54.0278   27.7861 C   0  0  0  0  0  0
    3.5521   54.0966   26.4491 C   0  0  0  0  0  0
    3.7561   54.0966   30.0817 F   0  0  0  0  0  0
    2.6671   52.2020   21.9156 C   0  0  2  0  0  0
    3.1691   52.3816   22.8648 H   0  0  0  0  0  0
    2.5519   50.6685   21.8028 C   0  0  0  0  0  0
    1.4936   50.2304   22.8291 C   0  0  0  0  0  0
    0.1517   51.5324   22.6814 S   0  0  0  0  0  0
   -0.7741   51.1545   21.6099 O   0  0  0  0  0  0
   -0.3509   51.9021   24.0070 O   0  0  0  0  0  0
    1.2862   52.8744   22.0321 C   0  0  0  0  0  0
    5.4378   52.8967   18.7001 O   0  0  0  0  0  0
    5.5963   50.1321   10.8306 H   0  0  0  0  0  0
    6.1281   51.7105   10.2490 H   0  0  0  0  0  0
    7.2485   50.6813   11.1328 H   0  0  0  0  0  0
    4.2329   50.2124   12.7638 H   0  0  0  0  0  0
    3.5194   51.2068   14.8561 H   0  0  0  0  0  0
    6.5000   54.2649   14.4490 H   0  0  0  0  0  0
    7.9701   54.3378   12.6057 H   0  0  0  0  0  0
    7.2373   53.7716   11.1014 H   0  0  0  0  0  0
    8.3848   52.7499   11.9587 H   0  0  0  0  0  0
    2.7690   53.0138   16.6823 H   0  0  0  0  0  0
    3.9045   51.7046   16.9322 H   0  0  0  0  0  0
    2.1774   53.2967   19.3665 H   0  0  0  0  0  0
    2.9358   51.7050   19.2442 H   0  0  0  0  0  0
    4.5438   54.7648   20.4531 H   0  0  0  0  0  0
    3.1044   54.8843   21.4522 H   0  0  0  0  0  0
    7.0389   54.6074   21.8927 H   0  0  0  0  0  0
    7.5044   54.5941   24.5209 H   0  0  0  0  0  0
    6.8918   54.5978   26.8868 H   0  0  0  0  0  0
    6.2037   54.4967   29.2417 H   0  0  0  0  0  0
    2.1361   53.8648   28.0493 H   0  0  0  0  0  0
    2.7996   53.9836   25.6822 H   0  0  0  0  0  0
    2.2026   50.3736   20.8129 H   0  0  0  0  0  0
    3.5044   50.1706   21.9715 H   0  0  0  0  0  0
    1.0745   49.2283   22.7478 H   0  0  0  0  0  0
    1.9207   50.3249   23.8274 H   0  0  0  0  0  0
    1.2979   53.6403   22.8069 H   0  0  0  0  0  0
    0.8643   53.2967   21.1260 H   0  0  0  0  0  0
    5.5044   51.9410   18.4817 H   0  0  0  0  0  0
    4.4925   52.3427   20.8960 H   0  0  0  0  0  0
  1  2  1  0  0  0
  1 37  1  0  0  0
  1 38  1  0  0  0
  1 39  1  0  0  0
  2  7  2  0  0  0
  2  3  1  0  0  0
  3  4  2  0  0  0
  3 40  1  0  0  0
  4  5  1  0  0  0
  4 41  1  0  0  0
  5  6  2  0  0  0
  5  9  1  0  0  0
  6  7  1  0  0  0
  6 42  1  0  0  0
  7  8  1  0  0  0
  8 43  1  0  0  0
  8 44  1  0  0  0
  8 45  1  0  0  0
  9 10  1  0  0  0
 10 11  1  0  0  0
 10 46  1  0  0  0
 10 47  1  0  0  0
 11 12  1  0  0  0
 11 13  1  0  0  0
 11 36  1  0  0  0
 13 14  1  0  0  0
 13 48  1  0  0  0
 13 49  1  0  0  0
 14 15  1  0  0  0
 14 28  1  0  0  0
 14 65  1  0  0  0
 15 16  1  0  0  0
 15 50  1  0  0  0
 15 51  1  0  0  0
 16 20  1  0  0  0
 16 17  2  0  0  0
 17 18  1  0  0  0
 17 52  1  0  0  0
 18 19  2  0  0  0
 18 53  1  0  0  0
 19 20  1  0  0  0
 19 21  1  0  0  0
 21 26  2  0  0  0
 21 22  1  0  0  0
 22 23  2  0  0  0
 22 54  1  0  0  0
 23 24  1  0  0  0
 23 55  1  0  0  0
 24 25  2  0  0  0
 24 27  1  0  0  0
 25 26  1  0  0  0
 25 56  1  0  0  0
 26 57  1  0  0  0
 28 29  1  0  0  0
 28 35  1  0  0  0
 28 30  1  0  0  0
 30 31  1  0  0  0
 30 58  1  0  0  0
 30 59  1  0  0  0
 31 32  1  0  0  0
 31 60  1  0  0  0
 31 61  1  0  0  0
 32 33  2  0  0  0
 32 34  2  0  0  0
 32 35  1  0  0  0
 35 62  1  0  0  0
 35 63  1  0  0  0
 36 64  1  0  0  0
M  CHG  1  14   1
M  END
> <i_i_glide_confnum>
188

> <i_i_glide_lignum>
4854

> <i_i_glide_posenum>
388

> <i_i_glide_rotatable_bonds>
10

> <i_m_Source_File_Index>
204

> <b_m_subgroup_collapsed>
0

> <r_i_docking_score>
-5.6219

> <r_i_glide_ecoul>
-9.90014

> <r_i_glide_eff_state_penalty>
0

> <r_i_glide_einternal>
2.80282

> <r_i_glide_emodel>
-63.6089

> <r_i_glide_energy>
-44.3608

> <r_i_glide_erotb>
0.766738

> <r_i_glide_esite>
-0.0559615

> <r_i_glide_evdw>
-34.4606

> <r_i_glide_gscore>
-5.6219

> <r_i_glide_hbond>
0

> <r_i_glide_ligand_efficiency>
-0.16535

> <r_i_glide_ligand_efficiency_ln>
-1.24204

> <r_i_glide_ligand_efficiency_sa>
-0.53567

> <r_i_glide_lipo>
-2.88783

> <r_i_glide_metal>
0

> <r_i_glide_rewards>
-0.236796

> <s_i_glide_gridfile>
wee1_glide-grid

> <s_m_Source_File>
wee1_decoys_glide_SP.sdf

> <s_m_Source_Path>
/Users/zhangxujun/Desktop

> <s_m_entry_id>
479

> <s_m_entry_name>
wee1_decoys_glide_SP.204

> <s_m_subgroup_title>
wee1_decoys_glide_SP

> <s_m_subgroupid>
wee1_decoys_glide_SP


$$$$
