ZINC10325912_4202
                    3D
 Schrodinger Suite 2024-2.
 61 66  0  0  1  0            999 V2000
    6.7570   54.5848   23.5604 C   0  0  0  0  0  0
    5.2958   54.2198   23.7533 C   0  0  0  0  0  0
    4.5643   53.6999   22.6856 C   0  0  0  0  0  0
    3.2226   53.3696   22.8528 C   0  0  0  0  0  0
    2.5930   53.5532   24.0947 C   0  0  0  0  0  0
    3.3330   54.0972   25.1522 C   0  0  0  0  0  0
    4.6757   54.4281   24.9855 C   0  0  0  0  0  0
    1.1095   53.1923   24.3074 C   0  0  2  0  0  0
    0.6835   54.1529   24.5927 H   0  0  0  0  0  0
    0.8709   52.2473   25.5161 C   0  0  0  0  0  0
   -0.6193   51.9338   25.6869 C   0  0  0  0  0  0
   -1.5349   52.0443   24.6750 C   0  0  0  0  0  0
   -3.0504   51.6984   24.8880 C   0  0  2  0  0  0
   -3.6405   52.5166   24.4695 H   0  0  0  0  0  0
   -3.3400   51.5023   26.3833 C   0  0  0  0  0  0
   -2.3562   51.4343   27.2718 C   0  0  0  0  0  0
   -2.8313   51.0273   28.4852 N   0  0  0  0  0  0
   -2.6758   51.4881   29.3653 H   0  0  0  0  0  0
   -4.2113   50.8886   28.3413 N   0  0  0  0  0  0
   -4.5819   51.2233   27.0703 C   0  0  0  0  0  0
   -5.7137   51.3125   26.5913 O   0  0  0  0  0  0
   -5.0356   50.5041   29.4446 C   0  0  0  0  0  0
   -4.4958   50.4272   30.7432 C   0  0  0  0  0  0
   -5.2969   50.0992   31.8324 C   0  0  0  0  0  0
   -6.6408   49.8043   31.6419 C   0  0  0  0  0  0
   -7.1918   49.8368   30.3666 C   0  0  0  0  0  0
   -6.3970   50.1838   29.2773 C   0  0  0  0  0  0
   -1.0332   51.6270   26.9740 N   0  0  0  0  0  0
   -3.4700   50.4426   24.1131 C   0  0  0  0  0  0
   -4.5938   50.4430   23.2817 C   0  0  0  0  0  0
   -4.9439   49.2923   22.5766 C   0  0  0  0  0  0
   -4.1787   48.1316   22.7008 C   0  0  0  0  0  0
   -3.0548   48.1035   23.5421 C   0  0  0  0  0  0
   -2.7204   49.2682   24.2469 C   0  0  0  0  0  0
   -2.2308   46.8803   23.6880 N   0  3  0  0  0  0
   -1.2958   46.8922   24.4824 O   0  0  0  0  0  0
   -2.5182   45.8905   23.0170 O   0  5  0  0  0  0
   -1.1186   52.4156   23.3072 C   0  0  0  0  0  0
   -1.9234   52.4925   22.3785 O   0  0  0  0  0  0
    0.3788   52.6520   23.0578 C   0  0  0  0  0  0
    7.0582   55.3923   24.2298 H   0  0  0  0  0  0
    6.9365   54.9427   22.5454 H   0  0  0  0  0  0
    7.3943   53.7194   23.7408 H   0  0  0  0  0  0
    5.0317   53.5470   21.7233 H   0  0  0  0  0  0
    2.6935   52.9686   22.0019 H   0  0  0  0  0  0
    2.8743   54.2747   26.1130 H   0  0  0  0  0  0
    5.2303   54.8408   25.8149 H   0  0  0  0  0  0
    1.3771   51.2943   25.3903 H   0  0  0  0  0  0
    1.2574   52.7435   26.4060 H   0  0  0  0  0  0
   -3.4495   50.6160   30.9417 H   0  0  0  0  0  0
   -4.8694   50.0910   32.8275 H   0  0  0  0  0  0
   -7.2574   49.5462   32.4899 H   0  0  0  0  0  0
   -8.2346   49.5925   30.2231 H   0  0  0  0  0  0
   -6.8700   50.1823   28.3081 H   0  0  0  0  0  0
   -0.3419   51.3844   27.6675 H   0  0  0  0  0  0
   -5.2011   51.3317   23.1841 H   0  0  0  0  0  0
   -5.8125   49.2998   21.9350 H   0  0  0  0  0  0
   -4.4706   47.2502   22.1455 H   0  0  0  0  0  0
   -1.8653   49.2694   24.9112 H   0  0  0  0  0  0
    0.4850   53.2964   22.1879 H   0  0  0  0  0  0
    0.8050   51.6850   22.7895 H   0  0  0  0  0  0
  1  2  1  0  0  0
  1 41  1  0  0  0
  1 42  1  0  0  0
  1 43  1  0  0  0
  2  7  2  0  0  0
  2  3  1  0  0  0
  3  4  2  0  0  0
  3 44  1  0  0  0
  4  5  1  0  0  0
  4 45  1  0  0  0
  5  6  2  0  0  0
  5  8  1  0  0  0
  6  7  1  0  0  0
  6 46  1  0  0  0
  7 47  1  0  0  0
  8  9  1  0  0  0
  8 40  1  0  0  0
  8 10  1  0  0  0
 10 11  1  0  0  0
 10 48  1  0  0  0
 10 49  1  0  0  0
 11 28  1  0  0  0
 11 12  2  0  0  0
 12 13  1  0  0  0
 12 38  1  0  0  0
 13 14  1  0  0  0
 13 15  1  0  0  0
 13 29  1  0  0  0
 15 20  1  0  0  0
 15 16  2  0  0  0
 16 17  1  0  0  0
 16 28  1  0  0  0
 17 18  1  0  0  0
 17 19  1  0  0  0
 19 20  1  0  0  0
 19 22  1  0  0  0
 20 21  2  0  0  0
 22 27  2  0  0  0
 22 23  1  0  0  0
 23 24  2  0  0  0
 23 50  1  0  0  0
 24 25  1  0  0  0
 24 51  1  0  0  0
 25 26  2  0  0  0
 25 52  1  0  0  0
 26 27  1  0  0  0
 26 53  1  0  0  0
 27 54  1  0  0  0
 28 55  1  0  0  0
 29 34  2  0  0  0
 29 30  1  0  0  0
 30 31  2  0  0  0
 30 56  1  0  0  0
 31 32  1  0  0  0
 31 57  1  0  0  0
 32 33  2  0  0  0
 32 58  1  0  0  0
 33 34  1  0  0  0
 33 35  1  0  0  0
 34 59  1  0  0  0
 35 36  2  0  0  0
 35 37  1  0  0  0
 38 39  2  0  0  0
 38 40  1  0  0  0
 40 60  1  0  0  0
 40 61  1  0  0  0
M  CHG  2  35   1  37  -1
M  END
> <i_i_glide_confnum>
29

> <i_i_glide_lignum>
4203

> <i_i_glide_posenum>
350

> <i_i_glide_rotatable_bonds>
4

> <i_m_Source_File_Index>
4027

> <b_m_subgroup_collapsed>
0

> <r_i_docking_score>
-4.29918

> <r_i_glide_ecoul>
-2.14301

> <r_i_glide_eff_state_penalty>
0

> <r_i_glide_einternal>
2.20744

> <r_i_glide_emodel>
-49.0316

> <r_i_glide_energy>
-39.5358

> <r_i_glide_erotb>
0.251856

> <r_i_glide_esite>
-0.36237

> <r_i_glide_evdw>
-37.3927

> <r_i_glide_gscore>
-4.29918

> <r_i_glide_hbond>
0

> <r_i_glide_ligand_efficiency>
-0.116194

> <r_i_glide_ligand_efficiency_ln>
-0.932392

> <r_i_glide_ligand_efficiency_sa>
-0.387185

> <r_i_glide_lipo>
-1.92744

> <r_i_glide_metal>
0

> <r_i_glide_rewards>
-0.0701342

> <s_i_glide_gridfile>
wee1_glide-grid

> <s_m_Source_File>
wee1_decoys_glide_SP.sdf

> <s_m_Source_Path>
/Users/zhangxujun/Desktop

> <s_m_entry_id>
4302

> <s_m_entry_name>
wee1_decoys_glide_SP.4027

> <s_m_subgroup_title>
wee1_decoys_glide_SP

> <s_m_subgroupid>
wee1_decoys_glide_SP


$$$$
