ZINC15768464_4620
                    3D
 Schrodinger Suite 2024-2.
 48 50  0  0  1  0            999 V2000
    0.6206   49.4659   22.2240 C   0  0  0  0  0  0
   -0.5479   49.9304   21.6207 C   0  0  0  0  0  0
   -0.5479   51.1047   20.8505 C   0  0  0  0  0  0
    0.6658   51.7958   20.6930 C   0  0  0  0  0  0
    1.8430   51.3363   21.3095 C   0  0  0  0  0  0
    1.8125   50.1700   22.0753 C   0  0  0  0  0  0
    3.0338   52.0774   21.3205 N   0  0  0  0  0  0
    3.5215   52.9011   20.3586 C   0  0  0  0  0  0
    3.0486   52.9054   19.2222 O   0  0  0  0  0  0
    4.5772   53.8433   20.7919 C   0  0  0  0  0  0
    5.3039   54.5802   19.8971 C   0  0  0  0  0  0
    5.3092   54.5534   18.4233 C   0  0  0  0  0  0
    5.0042   55.7060   17.7008 C   0  0  0  0  0  0
    4.9994   55.6755   16.3084 C   0  0  0  0  0  0
    5.3045   54.4913   15.6204 C   0  0  0  0  0  0
    5.6273   53.3424   16.3582 C   0  0  0  0  0  0
    5.6394   53.3824   17.7483 C   0  0  0  0  0  0
    5.2882   54.4550   14.1372 N   0  3  0  0  0  0
    5.5521   53.3964   13.5712 O   0  0  0  0  0  0
    5.0143   55.4851   13.5270 O   0  5  0  0  0  0
    4.7373   53.9580   22.1610 N   0  0  0  0  0  0
    5.7342   54.4851   22.9069 C   0  0  0  0  0  0
    6.8049   54.8999   22.4629 O   0  0  0  0  0  0
    5.4666   54.4946   24.3955 C   0  0  0  0  0  0
    4.1555   54.4946   24.9047 C   0  0  0  0  0  0
    3.9341   54.4808   26.2764 C   0  0  0  0  0  0
    5.0159   54.4873   27.1488 C   0  0  0  0  0  0
    6.3208   54.5023   26.6657 C   0  0  0  0  0  0
    6.5441   54.5074   25.2909 C   0  0  0  0  0  0
    4.6977   54.4883   29.0198 Br  0  0  0  0  0  0
   -1.8244   51.6220   20.2492 C   0  0  0  0  0  0
   -2.9042   51.1642   20.6880 O   0  0  0  0  0  0
    0.5967   48.5710   22.8283 H   0  0  0  0  0  0
   -1.4640   49.3755   21.7693 H   0  0  0  0  0  0
    0.6830   52.7206   20.1312 H   0  0  0  0  0  0
    2.7027   49.8123   22.5752 H   0  0  0  0  0  0
    3.6386   51.8842   22.1001 H   0  0  0  0  0  0
    6.0138   55.2982   20.2734 H   0  0  0  0  0  0
    4.7572   56.6246   18.2129 H   0  0  0  0  0  0
    4.7494   56.5797   15.7690 H   0  0  0  0  0  0
    5.8629   52.4094   15.8669 H   0  0  0  0  0  0
    5.8873   52.4970   18.3121 H   0  0  0  0  0  0
    3.9380   53.6463   22.6891 H   0  0  0  0  0  0
    3.2912   54.5081   24.2550 H   0  0  0  0  0  0
    2.9254   54.4660   26.6635 H   0  0  0  0  0  0
    7.1502   54.5073   27.3588 H   0  0  0  0  0  0
    7.5575   54.5129   24.9157 H   0  0  0  0  0  0
   -1.7636   52.4966   19.3558 O   0  5  0  0  0  0
  1  6  2  0  0  0
  1  2  1  0  0  0
  1 33  1  0  0  0
  2  3  2  0  0  0
  2 34  1  0  0  0
  3  4  1  0  0  0
  3 31  1  0  0  0
  4  5  2  0  0  0
  4 35  1  0  0  0
  5  6  1  0  0  0
  5  7  1  0  0  0
  6 36  1  0  0  0
  7  8  1  0  0  0
  7 37  1  0  0  0
  8  9  2  0  0  0
  8 10  1  0  0  0
 10 11  2  0  0  0
 10 21  1  0  0  0
 11 12  1  0  0  0
 11 38  1  0  0  0
 12 17  2  0  0  0
 12 13  1  0  0  0
 13 14  2  0  0  0
 13 39  1  0  0  0
 14 15  1  0  0  0
 14 40  1  0  0  0
 15 16  2  0  0  0
 15 18  1  0  0  0
 16 17  1  0  0  0
 16 41  1  0  0  0
 17 42  1  0  0  0
 18 19  2  0  0  0
 18 20  1  0  0  0
 21 22  1  0  0  0
 21 43  1  0  0  0
 22 23  2  0  0  0
 22 24  1  0  0  0
 24 29  2  0  0  0
 24 25  1  0  0  0
 25 26  2  0  0  0
 25 44  1  0  0  0
 26 27  1  0  0  0
 26 45  1  0  0  0
 27 28  2  0  0  0
 27 30  1  0  0  0
 28 29  1  0  0  0
 28 46  1  0  0  0
 29 47  1  0  0  0
 31 32  2  0  0  0
 31 48  1  0  0  0
M  CHG  3  18   1  20  -1  48  -1
M  END
> <i_i_glide_confnum>
117

> <i_i_glide_lignum>
4621

> <i_i_glide_posenum>
143

> <i_i_glide_rotatable_bonds>
9

> <i_m_Source_File_Index>
2880

> <b_m_subgroup_collapsed>
0

> <r_i_docking_score>
-4.65161

> <r_i_glide_ecoul>
-1.01505

> <r_i_glide_eff_state_penalty>
0

> <r_i_glide_einternal>
3.23251

> <r_i_glide_emodel>
-55.4789

> <r_i_glide_energy>
-41.9291

> <r_i_glide_erotb>
0.473734

> <r_i_glide_esite>
-0.0294778

> <r_i_glide_evdw>
-40.914

> <r_i_glide_gscore>
-4.65161

> <r_i_glide_hbond>
-0.158649

> <r_i_glide_ligand_efficiency>
-0.140958

> <r_i_glide_ligand_efficiency_ln>
-1.03449

> <r_i_glide_ligand_efficiency_sa>
-0.452127

> <r_i_glide_lipo>
-2.34927

> <r_i_glide_metal>
0

> <r_i_glide_rewards>
-0.38999

> <s_i_glide_gridfile>
wee1_glide-grid

> <s_m_Source_File>
wee1_decoys_glide_SP.sdf

> <s_m_Source_Path>
/Users/zhangxujun/Desktop

> <s_m_entry_id>
3155

> <s_m_entry_name>
wee1_decoys_glide_SP.2880

> <s_m_subgroup_title>
wee1_decoys_glide_SP

> <s_m_subgroupid>
wee1_decoys_glide_SP


$$$$
