ZINC09926763_62
                    3D
 Schrodinger Suite 2024-2.
 65 68  0  0  1  0            999 V2000
    3.8197   54.0882   24.5367 C   0  0  0  0  0  0
    3.1731   54.3809   23.1743 C   0  0  0  0  0  0
    2.3687   53.3051   22.6892 O   0  0  0  0  0  0
    1.1059   53.0826   23.1557 C   0  0  0  0  0  0
    0.6258   53.7264   24.0847 O   0  0  0  0  0  0
    0.3548   51.9624   22.5061 C   0  0  0  0  0  0
    0.6884   51.5641   21.2445 C   0  0  0  0  0  0
    0.1111   50.5335   20.5925 O   0  0  0  0  0  0
   -0.9040   49.8325   21.1381 C   0  0  0  0  0  0
   -1.4050   50.0784   22.3762 C   0  0  0  0  0  0
   -0.7390   51.1575   23.3022 C   0  0  2  0  0  0
   -1.7711   51.9967   24.0230 C   0  0  0  0  0  0
   -2.7747   52.8348   23.5386 C   0  0  0  0  0  0
   -3.6970   53.4007   24.4218 C   0  0  0  0  0  0
   -3.6114   53.1335   25.7896 C   0  0  0  0  0  0
   -2.5911   52.3141   26.2761 C   0  0  0  0  0  0
   -1.6680   51.7650   25.3837 C   0  0  0  0  0  0
   -0.6143   50.8899   25.6314 N   0  0  0  0  0  0
   -0.0241   50.4553   24.4892 C   0  0  0  0  0  0
    0.9152   49.6645   24.3799 O   0  0  0  0  0  0
   -0.1005   50.4895   26.9446 C   0  0  0  0  0  0
    0.9578   51.4552   27.5317 C   0  0  0  0  0  0
    0.4057   52.7606   28.1553 C   0  0  0  0  0  0
   -0.3817   52.4998   29.4566 C   0  0  0  0  0  0
    1.5318   53.7811   28.4008 C   0  0  0  0  0  0
   -2.5650   49.2730   22.8507 C   0  0  0  0  0  0
   -2.9130   49.2126   24.0272 O   0  0  0  0  0  0
   -3.2814   48.4066   21.7999 C   0  0  0  0  0  0
   -2.3197   47.7211   20.7961 C   0  0  0  0  0  0
   -1.4307   48.8104   20.1307 C   0  0  0  0  0  0
   -3.1799   47.0669   19.6962 C   0  0  0  0  0  0
   -1.4381   46.6915   21.5471 C   0  0  0  0  0  0
    1.5922   52.0964   20.3598 N   0  0  0  0  0  0
    4.3325   54.9709   24.9173 H   0  0  0  0  0  0
    3.0804   53.7937   25.2804 H   0  0  0  0  0  0
    4.5607   53.2960   24.4553 H   0  0  0  0  0  0
    3.9588   54.5698   22.4396 H   0  0  0  0  0  0
    2.5844   55.2957   23.2329 H   0  0  0  0  0  0
   -2.8692   53.0165   22.4817 H   0  0  0  0  0  0
   -4.4857   54.0346   24.0442 H   0  0  0  0  0  0
   -4.3324   53.5615   26.4702 H   0  0  0  0  0  0
   -2.5396   52.0966   27.3319 H   0  0  0  0  0  0
    0.3125   49.4797   26.8797 H   0  0  0  0  0  0
   -0.9420   50.4074   27.6320 H   0  0  0  0  0  0
    1.6863   51.6976   26.7569 H   0  0  0  0  0  0
    1.5136   50.9222   28.3041 H   0  0  0  0  0  0
   -0.2711   53.2210   27.4371 H   0  0  0  0  0  0
    0.2507   52.0477   30.2215 H   0  0  0  0  0  0
   -1.2274   51.8310   29.2992 H   0  0  0  0  0  0
   -0.7791   53.4269   29.8697 H   0  0  0  0  0  0
    2.2785   53.3955   29.0959 H   0  0  0  0  0  0
    2.0403   54.0361   27.4716 H   0  0  0  0  0  0
    1.1417   54.7107   28.8149 H   0  0  0  0  0  0
   -3.9458   49.0849   21.2625 H   0  0  0  0  0  0
   -3.9235   47.6877   22.3109 H   0  0  0  0  0  0
   -1.9818   49.3999   19.3961 H   0  0  0  0  0  0
   -0.6095   48.3382   19.5894 H   0  0  0  0  0  0
   -3.8452   46.3098   20.1139 H   0  0  0  0  0  0
   -3.8038   47.7945   19.1762 H   0  0  0  0  0  0
   -2.5569   46.5787   18.9460 H   0  0  0  0  0  0
   -2.0402   45.8828   21.9583 H   0  0  0  0  0  0
   -0.7046   46.2372   20.8811 H   0  0  0  0  0  0
   -0.8955   47.1327   22.3795 H   0  0  0  0  0  0
    2.1219   52.9242   20.5995 H   0  0  0  0  0  0
    1.7578   51.6678   19.4612 H   0  0  0  0  0  0
  1  2  1  0  0  0
  1 34  1  0  0  0
  1 35  1  0  0  0
  1 36  1  0  0  0
  2  3  1  0  0  0
  2 37  1  0  0  0
  2 38  1  0  0  0
  3  4  1  0  0  0
  4  5  2  0  0  0
  4  6  1  0  0  0
  6 11  1  0  0  0
  6  7  2  0  0  0
  7  8  1  0  0  0
  7 33  1  0  0  0
  8  9  1  0  0  0
  9 30  1  0  0  0
  9 10  2  0  0  0
 10 11  1  0  0  0
 10 26  1  0  0  0
 11 19  1  0  0  0
 11 12  1  0  0  0
 12 17  2  0  0  0
 12 13  1  0  0  0
 13 14  2  0  0  0
 13 39  1  0  0  0
 14 15  1  0  0  0
 14 40  1  0  0  0
 15 16  2  0  0  0
 15 41  1  0  0  0
 16 17  1  0  0  0
 16 42  1  0  0  0
 17 18  1  0  0  0
 18 19  1  0  0  0
 18 21  1  0  0  0
 19 20  2  0  0  0
 21 22  1  0  0  0
 21 43  1  0  0  0
 21 44  1  0  0  0
 22 23  1  0  0  0
 22 45  1  0  0  0
 22 46  1  0  0  0
 23 24  1  0  0  0
 23 25  1  0  0  0
 23 47  1  0  0  0
 24 48  1  0  0  0
 24 49  1  0  0  0
 24 50  1  0  0  0
 25 51  1  0  0  0
 25 52  1  0  0  0
 25 53  1  0  0  0
 26 27  2  0  0  0
 26 28  1  0  0  0
 28 29  1  0  0  0
 28 54  1  0  0  0
 28 55  1  0  0  0
 29 30  1  0  0  0
 29 31  1  0  0  0
 29 32  1  0  0  0
 30 56  1  0  0  0
 30 57  1  0  0  0
 31 58  1  0  0  0
 31 59  1  0  0  0
 31 60  1  0  0  0
 32 61  1  0  0  0
 32 62  1  0  0  0
 32 63  1  0  0  0
 33 64  1  0  0  0
 33 65  1  0  0  0
M  END
> <i_i_glide_confnum>
39

> <i_i_glide_lignum>
63

> <i_i_glide_posenum>
22

> <i_i_glide_rotatable_bonds>
6

> <i_m_Source_File_Index>
3102

> <b_m_subgroup_collapsed>
0

> <r_i_docking_score>
-2.89166

> <r_i_glide_ecoul>
0.24751

> <r_i_glide_eff_state_penalty>
0

> <r_i_glide_einternal>
4.77752

> <r_i_glide_emodel>
-34.5

> <r_i_glide_energy>
-31.2019

> <r_i_glide_erotb>
0.391923

> <r_i_glide_esite>
-0.0504978

> <r_i_glide_evdw>
-31.4494

> <r_i_glide_gscore>
-2.89166

> <r_i_glide_hbond>
0

> <r_i_glide_ligand_efficiency>
-0.0876261

> <r_i_glide_ligand_efficiency_ln>
-0.64309

> <r_i_glide_ligand_efficiency_sa>
-0.281064

> <r_i_glide_lipo>
-1.16689

> <r_i_glide_metal>
0

> <r_i_glide_rewards>
-0.530847

> <s_i_glide_gridfile>
wee1_glide-grid

> <s_m_Source_File>
wee1_decoys_glide_SP.sdf

> <s_m_Source_Path>
/Users/zhangxujun/Desktop

> <s_m_entry_id>
3377

> <s_m_entry_name>
wee1_decoys_glide_SP.3102

> <s_m_subgroup_title>
wee1_decoys_glide_SP

> <s_m_subgroupid>
wee1_decoys_glide_SP


$$$$
