ZINC37581870_1784
                    3D
 Schrodinger Suite 2024-2.
 33 34  0  0  1  0            999 V2000
    3.6312   50.9437   20.7666 C   0  0  0  0  0  0
    3.7184   52.3199   20.9122 C   0  0  0  0  0  0
    2.8761   52.9667   21.8063 C   0  0  0  0  0  0
    1.9448   52.2508   22.5746 C   0  0  0  0  0  0
    1.8585   50.8512   22.4105 C   0  0  0  0  0  0
    2.7044   50.2103   21.5019 C   0  0  0  0  0  0
    0.9155   50.0244   23.1467 C   0  0  0  0  0  0
    0.1107   49.3812   23.8003 C   0  0  0  0  0  0
   -0.8487   48.7230   24.6861 C   0  0  0  0  0  0
   -0.2632   48.8967   26.0817 N   0  3  0  0  0  0
    0.8954   53.2117   23.6991 S   0  0  0  0  0  0
    1.1044   54.5978   23.2817 O   0  0  0  0  0  0
   -0.4612   52.6771   23.5371 O   0  0  0  0  0  0
    1.5182   52.8965   25.1050 N   0  5  0  0  0  0
    2.7033   53.4447   25.5294 C   0  0  0  0  0  0
    3.0388   53.2967   26.8819 C   0  0  0  0  0  0
    4.2708   53.7551   27.3539 C   0  0  0  0  0  0
    5.1511   54.3670   26.4644 C   0  0  0  0  0  0
    4.7559   54.5294   25.1428 C   0  0  0  0  0  0
    3.5591   54.0950   24.6865 N   0  0  0  0  0  0
    6.7044   54.8967   26.9715 Cl  0  0  0  0  0  0
    4.2978   50.4524   20.0817 H   0  0  0  0  0  0
    4.4325   52.8826   20.3286 H   0  0  0  0  0  0
    2.9561   54.0412   21.8927 H   0  0  0  0  0  0
    2.6643   49.1382   21.3628 H   0  0  0  0  0  0
   -0.9341   47.6509   24.5039 H   0  0  0  0  0  0
   -1.8199   49.2216   24.6843 H   0  0  0  0  0  0
   -0.8956   48.5468   26.8067 H   0  0  0  0  0  0
   -0.0962   49.8738   26.2740 H   0  0  0  0  0  0
    2.3621   52.7949   27.5575 H   0  0  0  0  0  0
    4.5461   53.6162   28.3888 H   0  0  0  0  0  0
    5.4045   55.0062   24.4228 H   0  0  0  0  0  0
    0.5953   48.3699   26.1716 H   0  0  0  0  0  0
  1  6  2  0  0  0
  1  2  1  0  0  0
  1 22  1  0  0  0
  2  3  2  0  0  0
  2 23  1  0  0  0
  3  4  1  0  0  0
  3 24  1  0  0  0
  4  5  2  0  0  0
  4 11  1  0  0  0
  5  6  1  0  0  0
  5  7  1  0  0  0
  6 25  1  0  0  0
  7  8  3  0  0  0
  8  9  1  0  0  0
  9 10  1  0  0  0
  9 26  1  0  0  0
  9 27  1  0  0  0
 10 28  1  0  0  0
 10 29  1  0  0  0
 10 33  1  0  0  0
 11 12  2  0  0  0
 11 13  2  0  0  0
 11 14  1  0  0  0
 14 15  1  0  0  0
 15 20  2  0  0  0
 15 16  1  0  0  0
 16 17  2  0  0  0
 16 30  1  0  0  0
 17 18  1  0  0  0
 17 31  1  0  0  0
 18 19  2  0  0  0
 18 21  1  0  0  0
 19 20  1  0  0  0
 19 32  1  0  0  0
M  CHG  2  10   1  14  -1
M  END
> <i_i_glide_confnum>
9

> <i_i_glide_lignum>
1785

> <i_i_glide_posenum>
233

> <i_i_glide_rotatable_bonds>
5

> <i_m_Source_File_Index>
5118

> <b_m_subgroup_collapsed>
0

> <r_i_docking_score>
-5.02809

> <r_i_glide_ecoul>
-7.53453

> <r_i_glide_eff_state_penalty>
0

> <r_i_glide_einternal>
2.20313

> <r_i_glide_emodel>
-47.081

> <r_i_glide_energy>
-34.9185

> <r_i_glide_erotb>
0.902578

> <r_i_glide_esite>
-0.1

> <r_i_glide_evdw>
-27.3839

> <r_i_glide_gscore>
-5.02809

> <r_i_glide_hbond>
-0.2

> <r_i_glide_ligand_efficiency>
-0.239433

> <r_i_glide_ligand_efficiency_ln>
-1.24318

> <r_i_glide_ligand_efficiency_sa>
-0.660577

> <r_i_glide_lipo>
-1.78553

> <r_i_glide_metal>
0

> <r_i_glide_rewards>
-1.34576

> <s_i_glide_gridfile>
wee1_glide-grid

> <s_m_Source_File>
wee1_decoys_glide_SP.sdf

> <s_m_Source_Path>
/Users/zhangxujun/Desktop

> <s_m_entry_id>
5393

> <s_m_entry_name>
wee1_decoys_glide_SP.5118

> <s_m_subgroup_title>
wee1_decoys_glide_SP

> <s_m_subgroupid>
wee1_decoys_glide_SP


$$$$
