ZINC12714943_3132
                    3D
 Schrodinger Suite 2024-2.
 65 68  0  0  1  0            999 V2000
   -1.6310   53.0702   18.2027 C   0  0  0  0  0  0
   -2.1685   52.0503   19.1737 C   0  0  0  0  0  0
   -3.1047   51.0368   19.0762 C   0  0  0  0  0  0
   -3.1822   50.4394   20.3326 C   0  0  0  0  0  0
   -2.2931   51.1125   21.1583 C   0  0  0  0  0  0
   -1.6834   52.0967   20.4433 O   0  0  0  0  0  0
   -1.8990   50.9325   22.5879 C   0  0  2  0  0  0
   -2.3561   50.0102   22.9378 H   0  0  0  0  0  0
   -2.6094   52.0360   23.4071 C   0  0  0  0  0  0
   -2.2884   53.2186   23.2880 O   0  0  0  0  0  0
   -3.6260   51.6105   24.1723 N   0  0  0  0  0  0
   -4.4295   52.4609   25.0488 C   0  0  0  0  0  0
   -4.2038   52.1727   26.5467 C   0  0  1  0  0  0
   -4.7865   52.8935   27.1211 H   0  0  0  0  0  0
   -4.6477   50.7914   27.0259 C   0  0  0  0  0  0
   -3.7866   50.5980   28.2500 C   0  0  0  0  0  0
   -2.4575   51.2157   27.8168 C   0  0  0  0  0  0
   -2.8152   52.2390   26.8815 O   0  0  0  0  0  0
   -0.4171   50.7587   22.7834 N   0  0  0  0  0  0
    0.3537   51.7027   23.5007 C   0  0  0  0  0  0
    1.2319   52.5763   22.8458 C   0  0  0  0  0  0
    2.0614   53.4209   23.5884 C   0  0  0  0  0  0
    1.9856   53.4168   24.9840 C   0  0  0  0  0  0
    1.1009   52.5588   25.6429 C   0  0  0  0  0  0
    0.2947   51.6969   24.8989 C   0  0  0  0  0  0
    1.0291   52.5355   27.1580 C   0  0  0  0  0  0
    3.0500   54.3315   22.8871 C   0  0  0  0  0  0
    0.2617   49.6920   22.2417 C   0  0  0  0  0  0
    1.4902   49.6045   22.1551 O   0  0  0  0  0  0
   -0.5224   48.5731   21.7921 C   0  0  0  0  0  0
   -1.3355   47.7015   22.5111 C   0  0  0  0  0  0
   -1.8931   46.7291   21.6561 C   0  0  0  0  0  0
   -1.5303   46.7579   20.3868 N   0  0  0  0  0  0
   -0.4381   48.0515   20.1431 S   0  0  0  0  0  0
   -2.8064   45.6861   22.0380 C   0  0  0  0  0  0
   -2.5341   44.4913   21.9340 O   0  0  0  0  0  0
   -3.9731   46.1165   22.5221 N   0  0  0  0  0  0
   -1.5381   47.7764   23.8696 N   0  0  0  0  0  0
   -0.5459   53.1592   18.2703 H   0  0  0  0  0  0
   -1.8682   52.8112   17.1713 H   0  0  0  0  0  0
   -2.0540   54.0565   18.3920 H   0  0  0  0  0  0
   -3.6611   50.7595   18.1930 H   0  0  0  0  0  0
   -3.8083   49.6045   20.6105 H   0  0  0  0  0  0
   -3.8468   50.6258   24.1811 H   0  0  0  0  0  0
   -5.4809   52.3007   24.8058 H   0  0  0  0  0  0
   -4.2645   53.5247   24.8628 H   0  0  0  0  0  0
   -4.4308   50.0314   26.2738 H   0  0  0  0  0  0
   -5.7231   50.7267   27.1971 H   0  0  0  0  0  0
   -3.6887   49.5492   28.5357 H   0  0  0  0  0  0
   -4.1983   51.1390   29.1036 H   0  0  0  0  0  0
   -1.8493   50.4712   27.3037 H   0  0  0  0  0  0
   -1.9162   51.6160   28.6745 H   0  0  0  0  0  0
    1.2919   52.5699   21.7661 H   0  0  0  0  0  0
    2.6257   54.0724   25.5567 H   0  0  0  0  0  0
   -0.3721   51.0150   25.4072 H   0  0  0  0  0  0
    1.8696   53.0591   27.6159 H   0  0  0  0  0  0
    0.0959   52.9843   27.5002 H   0  0  0  0  0  0
    1.0524   51.5055   27.5181 H   0  0  0  0  0  0
    3.1015   55.2962   23.3907 H   0  0  0  0  0  0
    4.0476   53.8918   22.8971 H   0  0  0  0  0  0
    2.7556   54.5182   21.8545 H   0  0  0  0  0  0
   -4.1583   47.1044   22.6067 H   0  0  0  0  0  0
   -4.6876   45.4506   22.7728 H   0  0  0  0  0  0
   -2.1206   47.1195   24.3682 H   0  0  0  0  0  0
   -1.0252   48.4308   24.4467 H   0  0  0  0  0  0
  1  2  1  0  0  0
  1 39  1  0  0  0
  1 40  1  0  0  0
  1 41  1  0  0  0
  2  6  1  0  0  0
  2  3  2  0  0  0
  3  4  1  0  0  0
  3 42  1  0  0  0
  4  5  2  0  0  0
  4 43  1  0  0  0
  5  6  1  0  0  0
  5  7  1  0  0  0
  7  8  1  0  0  0
  7  9  1  0  0  0
  7 19  1  0  0  0
  9 10  2  0  0  0
  9 11  1  0  0  0
 11 12  1  0  0  0
 11 44  1  0  0  0
 12 13  1  0  0  0
 12 45  1  0  0  0
 12 46  1  0  0  0
 13 14  1  0  0  0
 13 18  1  0  0  0
 13 15  1  0  0  0
 15 16  1  0  0  0
 15 47  1  0  0  0
 15 48  1  0  0  0
 16 17  1  0  0  0
 16 49  1  0  0  0
 16 50  1  0  0  0
 17 18  1  0  0  0
 17 51  1  0  0  0
 17 52  1  0  0  0
 19 20  1  0  0  0
 19 28  1  0  0  0
 20 25  2  0  0  0
 20 21  1  0  0  0
 21 22  2  0  0  0
 21 53  1  0  0  0
 22 23  1  0  0  0
 22 27  1  0  0  0
 23 24  2  0  0  0
 23 54  1  0  0  0
 24 25  1  0  0  0
 24 26  1  0  0  0
 25 55  1  0  0  0
 26 56  1  0  0  0
 26 57  1  0  0  0
 26 58  1  0  0  0
 27 59  1  0  0  0
 27 60  1  0  0  0
 27 61  1  0  0  0
 28 29  2  0  0  0
 28 30  1  0  0  0
 30 34  1  0  0  0
 30 31  2  0  0  0
 31 32  1  0  0  0
 31 38  1  0  0  0
 32 33  2  0  0  0
 32 35  1  0  0  0
 33 34  1  0  0  0
 35 36  2  0  0  0
 35 37  1  0  0  0
 37 62  1  0  0  0
 37 63  1  0  0  0
 38 64  1  0  0  0
 38 65  1  0  0  0
M  END
> <i_i_glide_confnum>
217

> <i_i_glide_lignum>
3133

> <i_i_glide_posenum>
359

> <i_i_glide_rotatable_bonds>
10

> <i_m_Source_File_Index>
5136

> <b_m_subgroup_collapsed>
0

> <r_i_docking_score>
-1.77108

> <r_i_glide_ecoul>
-5.92657

> <r_i_glide_eff_state_penalty>
0

> <r_i_glide_einternal>
18.2344

> <r_i_glide_emodel>
-28.6926

> <r_i_glide_energy>
-38.5983

> <r_i_glide_erotb>
0.626422

> <r_i_glide_esite>
-0.0689434

> <r_i_glide_evdw>
-32.6717

> <r_i_glide_gscore>
-1.77108

> <r_i_glide_hbond>
-0.326308

> <r_i_glide_ligand_efficiency>
-0.0491966

> <r_i_glide_ligand_efficiency_ln>
-0.386401

> <r_i_glide_ligand_efficiency_sa>
-0.162444

> <r_i_glide_lipo>
-1.07315

> <r_i_glide_metal>
0

> <r_i_glide_rewards>
1.59347

> <s_i_glide_gridfile>
wee1_glide-grid

> <s_m_Source_File>
wee1_decoys_glide_SP.sdf

> <s_m_Source_Path>
/Users/zhangxujun/Desktop

> <s_m_entry_id>
5411

> <s_m_entry_name>
wee1_decoys_glide_SP.5136

> <s_m_subgroup_title>
wee1_decoys_glide_SP

> <s_m_subgroupid>
wee1_decoys_glide_SP


$$$$
