ZINC24838125_117
                    3D
 Schrodinger Suite 2024-2.
 50 53  0  0  1  0            999 V2000
    6.8863   55.2482   23.3432 C   0  0  0  0  0  0
    6.1496   54.9687   24.6541 C   0  0  0  0  0  0
    6.7419   55.2971   25.6829 O   0  0  0  0  0  0
    4.7535   54.3705   24.6624 C   0  0  0  0  0  0
    4.1630   54.2492   25.9427 C   0  0  0  0  0  0
    2.8974   53.6965   26.0590 C   0  0  0  0  0  0
    2.1901   53.2958   24.9696 C   0  0  0  0  0  0
    2.7038   53.4010   23.6879 C   0  0  0  0  0  0
    4.0090   53.9155   23.5230 C   0  0  0  0  0  0
    4.5403   54.0203   22.2232 N   0  0  0  0  0  0
    4.3411   53.2350   21.1448 C   0  0  0  0  0  0
    3.6722   52.2005   21.1369 O   0  0  0  0  0  0
    5.0442   53.7444   19.8817 C   0  0  0  0  0  0
    4.6959   52.8967   18.6951 N   0  3  0  0  0  0
    5.1378   53.4857   17.3396 C   0  0  1  0  0  0
    4.8191   52.6487   16.7123 H   0  0  0  0  0  0
    4.3264   54.7170   16.8897 C   0  0  0  0  0  0
    3.2381   54.5137   16.0307 C   0  0  0  0  0  0
    2.4604   55.5856   15.6024 C   0  0  0  0  0  0
    2.7654   56.8735   16.0298 C   0  0  0  0  0  0
    3.8415   57.0970   16.8829 C   0  0  0  0  0  0
    4.6167   56.0229   17.3147 C   0  0  0  0  0  0
    2.0089   57.9132   15.6158 F   0  0  0  0  0  0
    6.6705   53.5140   17.2742 C   0  0  0  0  0  0
    7.5060   52.4973   16.8043 C   0  0  0  0  0  0
    8.8754   52.7640   16.8821 C   0  0  0  0  0  0
    9.1372   54.0110   17.4116 C   0  0  0  0  0  0
    7.6771   54.8458   17.8041 S   0  0  0  0  0  0
    0.9762   52.8316   25.3682 O   0  0  0  0  0  0
    1.0650   52.7197   26.7644 C   0  0  0  0  0  0
    2.1522   53.5032   27.1781 O   0  0  0  0  0  0
    7.3177   54.3328   22.9405 H   0  0  0  0  0  0
    6.2514   55.7047   22.5948 H   0  0  0  0  0  0
    7.6810   55.9711   23.5204 H   0  0  0  0  0  0
    4.6756   54.5679   26.8393 H   0  0  0  0  0  0
    2.1031   53.0878   22.8462 H   0  0  0  0  0  0
    5.1869   54.7787   22.0969 H   0  0  0  0  0  0
    4.7186   54.7581   19.6582 H   0  0  0  0  0  0
    6.1266   53.6973   19.9817 H   0  0  0  0  0  0
    5.1043   51.9573   18.7398 H   0  0  0  0  0  0
    2.9843   53.5200   15.6878 H   0  0  0  0  0  0
    1.6225   55.4229   14.9405 H   0  0  0  0  0  0
    4.0659   58.1037   17.2080 H   0  0  0  0  0  0
    5.4254   56.2322   17.9946 H   0  0  0  0  0  0
    7.1235   51.5620   16.4242 H   0  0  0  0  0  0
    9.6414   52.0681   16.5738 H   0  0  0  0  0  0
   10.0987   54.4718   17.5913 H   0  0  0  0  0  0
    1.2476   51.6748   27.0309 H   0  0  0  0  0  0
    0.1424   53.0421   27.2513 H   0  0  0  0  0  0
    3.6963   52.7488   18.6571 H   0  0  0  0  0  0
  1  2  1  0  0  0
  1 32  1  0  0  0
  1 33  1  0  0  0
  1 34  1  0  0  0
  2  3  2  0  0  0
  2  4  1  0  0  0
  4  9  2  0  0  0
  4  5  1  0  0  0
  5  6  2  0  0  0
  5 35  1  0  0  0
  6 31  1  0  0  0
  6  7  1  0  0  0
  7  8  2  0  0  0
  7 29  1  0  0  0
  8  9  1  0  0  0
  8 36  1  0  0  0
  9 10  1  0  0  0
 10 11  1  0  0  0
 10 37  1  0  0  0
 11 12  2  0  0  0
 11 13  1  0  0  0
 13 14  1  0  0  0
 13 38  1  0  0  0
 13 39  1  0  0  0
 14 15  1  0  0  0
 14 40  1  0  0  0
 14 50  1  0  0  0
 15 16  1  0  0  0
 15 17  1  0  0  0
 15 24  1  0  0  0
 17 22  2  0  0  0
 17 18  1  0  0  0
 18 19  2  0  0  0
 18 41  1  0  0  0
 19 20  1  0  0  0
 19 42  1  0  0  0
 20 21  2  0  0  0
 20 23  1  0  0  0
 21 22  1  0  0  0
 21 43  1  0  0  0
 22 44  1  0  0  0
 24 28  1  0  0  0
 24 25  2  0  0  0
 25 26  1  0  0  0
 25 45  1  0  0  0
 26 27  2  0  0  0
 26 46  1  0  0  0
 27 28  1  0  0  0
 27 47  1  0  0  0
 29 30  1  0  0  0
 30 31  1  0  0  0
 30 48  1  0  0  0
 30 49  1  0  0  0
M  CHG  1  14   1
M  END
> <i_i_glide_confnum>
62

> <i_i_glide_lignum>
118

> <i_i_glide_posenum>
262

> <i_i_glide_rotatable_bonds>
8

> <i_m_Source_File_Index>
5744

> <b_m_subgroup_collapsed>
0

> <r_i_docking_score>
-6.20035

> <r_i_glide_ecoul>
-6.71707

> <r_i_glide_eff_state_penalty>
0

> <r_i_glide_einternal>
9.44597

> <r_i_glide_emodel>
-58.5956

> <r_i_glide_energy>
-43.0823

> <r_i_glide_erotb>
0.760609

> <r_i_glide_esite>
-0.116657

> <r_i_glide_evdw>
-36.3652

> <r_i_glide_gscore>
-6.20035

> <r_i_glide_hbond>
-0.52

> <r_i_glide_ligand_efficiency>
-0.206678

> <r_i_glide_ligand_efficiency_ln>
-1.40879

> <r_i_glide_ligand_efficiency_sa>
-0.642198

> <r_i_glide_lipo>
-1.7081

> <r_i_glide_metal>
0

> <r_i_glide_rewards>
-1.79039

> <s_i_glide_gridfile>
wee1_glide-grid

> <s_m_Source_File>
wee1_decoys_glide_SP.sdf

> <s_m_Source_Path>
/Users/zhangxujun/Desktop

> <s_m_entry_id>
6019

> <s_m_entry_name>
wee1_decoys_glide_SP.5744

> <s_m_subgroup_title>
wee1_decoys_glide_SP

> <s_m_subgroupid>
wee1_decoys_glide_SP


$$$$
