ZINC39668863_1323
                    3D
 Schrodinger Suite 2024-2.
 63 66  0  0  1  0            999 V2000
    1.9478   49.8053   21.1079 C   0  0  0  0  0  0
    1.5269   51.2938   21.1314 C   0  0  0  0  0  0
    1.4549   51.8403   19.6882 C   0  0  0  0  0  0
    0.2255   51.5502   21.9461 C   0  0  0  0  0  0
   -0.8200   51.8257   21.3507 O   0  0  0  0  0  0
    0.2645   51.4931   23.3010 N   0  0  0  0  0  0
    1.4575   51.1681   24.0968 C   0  0  0  0  0  0
    1.0801   51.6249   25.5239 C   0  0  2  0  0  0
    1.5037   51.0289   26.3289 H   0  0  0  0  0  0
   -0.4516   51.3763   25.5684 C   0  0  0  0  0  0
   -0.8948   51.8162   24.1523 C   0  0  0  0  0  0
   -1.1943   52.0018   26.7817 C   0  0  0  0  0  0
   -2.7061   51.6787   26.7800 C   0  0  0  0  0  0
   -2.8955   50.1433   26.8210 N   0  3  0  0  0  0
   -2.1587   49.4135   25.6829 C   0  0  0  0  0  0
   -0.6775   49.8326   25.7520 C   0  0  0  0  0  0
    1.5974   53.0759   25.7265 C   0  0  0  0  0  0
    1.5165   53.9196   24.8340 O   0  0  0  0  0  0
    2.3447   53.2676   26.8246 N   0  0  0  0  0  0
    3.2281   54.4129   27.0878 C   0  0  0  0  0  0
    3.6938   54.5694   28.5521 C   0  0  1  0  0  0
    3.9061   55.6222   28.7328 H   0  0  0  0  0  0
    2.6449   54.1061   29.5573 C   0  0  0  0  0  0
    1.5059   54.8780   29.8173 C   0  0  0  0  0  0
    0.5161   54.4172   30.6784 C   0  0  0  0  0  0
    0.6622   53.1817   31.2975 C   0  0  0  0  0  0
    1.7986   52.4156   31.0551 C   0  0  0  0  0  0
    2.7991   52.8538   30.1816 C   0  0  0  0  0  0
    4.0548   52.0162   29.9313 C   0  0  0  0  0  0
    4.8716   52.5120   28.7215 C   0  0  0  0  0  0
    4.9489   53.9255   28.7418 O   0  0  0  0  0  0
    1.9520   49.3467   22.0938 H   0  0  0  0  0  0
    1.2806   49.2171   20.4775 H   0  0  0  0  0  0
    2.9619   49.6956   20.7107 H   0  0  0  0  0  0
    2.3134   51.8655   21.6222 H   0  0  0  0  0  0
    1.1969   52.8981   19.6738 H   0  0  0  0  0  0
    2.4121   51.7364   19.1767 H   0  0  0  0  0  0
    0.7062   51.3167   19.0915 H   0  0  0  0  0  0
    2.3785   51.6442   23.7618 H   0  0  0  0  0  0
    1.6329   50.0915   24.1112 H   0  0  0  0  0  0
   -1.8408   51.3851   23.8307 H   0  0  0  0  0  0
   -1.0250   52.9001   24.1540 H   0  0  0  0  0  0
   -1.0827   53.0843   26.7743 H   0  0  0  0  0  0
   -0.7416   51.6756   27.7207 H   0  0  0  0  0  0
   -3.2189   52.0365   25.8851 H   0  0  0  0  0  0
   -3.2157   52.0660   27.6635 H   0  0  0  0  0  0
   -3.8756   49.8971   26.8177 H   0  0  0  0  0  0
   -2.6608   49.6622   24.7490 H   0  0  0  0  0  0
   -2.2866   48.3487   25.8843 H   0  0  0  0  0  0
   -0.2214   49.4709   26.6755 H   0  0  0  0  0  0
   -0.1684   49.2661   24.9721 H   0  0  0  0  0  0
    2.3697   52.5346   27.5168 H   0  0  0  0  0  0
    4.0827   54.3959   26.4097 H   0  0  0  0  0  0
    2.7045   55.3154   26.8813 H   0  0  0  0  0  0
    1.3814   55.8375   29.3350 H   0  0  0  0  0  0
   -0.3556   55.0208   30.8762 H   0  0  0  0  0  0
   -0.0927   52.8298   31.9861 H   0  0  0  0  0  0
    1.9069   51.4783   31.5791 H   0  0  0  0  0  0
    3.7830   50.9770   29.7633 H   0  0  0  0  0  0
    4.6786   52.0558   30.8247 H   0  0  0  0  0  0
    4.3887   52.1740   27.8114 H   0  0  0  0  0  0
    5.8699   52.0979   28.6301 H   0  0  0  0  0  0
   -2.5082   49.7626   27.6842 H   0  0  0  0  0  0
  1  2  1  0  0  0
  1 32  1  0  0  0
  1 33  1  0  0  0
  1 34  1  0  0  0
  2  3  1  0  0  0
  2  4  1  0  0  0
  2 35  1  0  0  0
  3 36  1  0  0  0
  3 37  1  0  0  0
  3 38  1  0  0  0
  4  5  2  0  0  0
  4  6  1  0  0  0
  6 11  1  0  0  0
  6  7  1  0  0  0
  7  8  1  0  0  0
  7 39  1  0  0  0
  7 40  1  0  0  0
  8  9  1  0  0  0
  8 10  1  0  0  0
  8 17  1  0  0  0
 10 16  1  0  0  0
 10 11  1  0  0  0
 10 12  1  0  0  0
 11 41  1  0  0  0
 11 42  1  0  0  0
 12 13  1  0  0  0
 12 43  1  0  0  0
 12 44  1  0  0  0
 13 14  1  0  0  0
 13 45  1  0  0  0
 13 46  1  0  0  0
 14 15  1  0  0  0
 14 47  1  0  0  0
 14 63  1  0  0  0
 15 16  1  0  0  0
 15 48  1  0  0  0
 15 49  1  0  0  0
 16 50  1  0  0  0
 16 51  1  0  0  0
 17 18  2  0  0  0
 17 19  1  0  0  0
 19 20  1  0  0  0
 19 52  1  0  0  0
 20 21  1  0  0  0
 20 53  1  0  0  0
 20 54  1  0  0  0
 21 22  1  0  0  0
 21 31  1  0  0  0
 21 23  1  0  0  0
 23 28  2  0  0  0
 23 24  1  0  0  0
 24 25  2  0  0  0
 24 55  1  0  0  0
 25 26  1  0  0  0
 25 56  1  0  0  0
 26 27  2  0  0  0
 26 57  1  0  0  0
 27 28  1  0  0  0
 27 58  1  0  0  0
 28 29  1  0  0  0
 29 30  1  0  0  0
 29 59  1  0  0  0
 29 60  1  0  0  0
 30 31  1  0  0  0
 30 61  1  0  0  0
 30 62  1  0  0  0
M  CHG  1  14   1
M  END
> <i_i_glide_confnum>
71

> <i_i_glide_lignum>
1324

> <i_i_glide_posenum>
232

> <i_i_glide_rotatable_bonds>
6

> <i_m_Source_File_Index>
497

> <b_m_subgroup_collapsed>
0

> <r_i_docking_score>
-4.7252

> <r_i_glide_ecoul>
-4.80592

> <r_i_glide_eff_state_penalty>
0

> <r_i_glide_einternal>
13.7969

> <r_i_glide_emodel>
-36.8639

> <r_i_glide_energy>
-31.8811

> <r_i_glide_erotb>
0.488824

> <r_i_glide_esite>
-0.1

> <r_i_glide_evdw>
-27.0751

> <r_i_glide_gscore>
-4.7252

> <r_i_glide_hbond>
-0.177638

> <r_i_glide_ligand_efficiency>
-0.162938

> <r_i_glide_ligand_efficiency_ln>
-1.08195

> <r_i_glide_ligand_efficiency_sa>
-0.500597

> <r_i_glide_lipo>
-1.76328

> <r_i_glide_metal>
0

> <r_i_glide_rewards>
-1.09846

> <s_i_glide_gridfile>
wee1_glide-grid

> <s_m_Source_File>
wee1_decoys_glide_SP.sdf

> <s_m_Source_Path>
/Users/zhangxujun/Desktop

> <s_m_entry_id>
772

> <s_m_entry_name>
wee1_decoys_glide_SP.497

> <s_m_subgroup_title>
wee1_decoys_glide_SP

> <s_m_subgroupid>
wee1_decoys_glide_SP


$$$$
