ZINC08781320_5278
                    3D
 Schrodinger Suite 2024-2.
 48 50  0  0  1  0            999 V2000
    0.9116   49.9638   17.6577 C   0  0  0  0  0  0
    1.2133   50.9497   18.7960 C   0  0  1  0  0  0
    1.6330   51.8559   18.3535 H   0  0  0  0  0  0
   -0.0318   51.3142   19.6562 C   0  0  1  0  0  0
   -0.4932   50.3980   20.0306 H   0  0  0  0  0  0
    0.3756   52.1169   20.7713 O   0  0  0  0  0  0
    1.3133   51.4404   21.5655 C   0  0  1  0  0  0
    0.8163   50.5465   21.9584 H   0  0  0  0  0  0
    2.5712   51.1261   20.7229 C   0  0  1  0  0  0
    3.2981   50.4961   21.2445 H   0  0  0  0  0  0
    2.1981   50.3340   19.6320 O   0  0  0  0  0  0
    3.2705   52.3487   20.3770 N   0  0  0  0  0  0
    4.4735   52.7403   20.8368 C   0  0  0  0  0  0
    5.1045   52.1045   21.6817 O   0  0  0  0  0  0
    5.0037   54.0518   20.3086 C   0  0  0  0  0  0
    4.7068   54.4911   19.0085 C   0  0  0  0  0  0
    5.2214   55.6977   18.5392 C   0  0  0  0  0  0
    6.0335   56.4712   19.3655 C   0  0  0  0  0  0
    6.3476   56.0393   20.6509 C   0  0  0  0  0  0
    5.8331   54.8378   21.1216 C   0  0  0  0  0  0
    6.7064   58.1407   18.7536 Br  0  0  0  0  0  0
    1.7199   52.1249   22.7607 N   0  0  0  0  0  0
    0.9309   52.4551   23.7998 C   0  0  0  0  0  0
   -0.2888   52.2805   23.8062 O   0  0  0  0  0  0
    1.6477   52.9859   25.0207 C   0  0  0  0  0  0
    2.8528   53.6990   24.9119 C   0  0  0  0  0  0
    3.5067   54.1513   26.0547 C   0  0  0  0  0  0
    2.9601   53.9073   27.3119 C   0  0  0  0  0  0
    1.7606   53.2110   27.4337 C   0  0  0  0  0  0
    1.1071   52.7524   26.2928 C   0  0  0  0  0  0
    3.8543   54.5318   28.8720 Br  0  0  0  0  0  0
   -1.1032   52.0964   18.8809 C   0  0  0  0  0  0
    0.2340   50.3901   16.9195 H   0  0  0  0  0  0
    1.8313   49.6914   17.1362 H   0  0  0  0  0  0
    0.4667   49.0420   18.0365 H   0  0  0  0  0  0
    2.7913   52.9697   19.7431 H   0  0  0  0  0  0
    4.0907   53.8998   18.3464 H   0  0  0  0  0  0
    4.9851   56.0372   17.5414 H   0  0  0  0  0  0
    6.9853   56.6293   21.2890 H   0  0  0  0  0  0
    6.0906   54.5174   22.1217 H   0  0  0  0  0  0
    2.7011   52.3482   22.8259 H   0  0  0  0  0  0
    3.2973   53.9082   23.9492 H   0  0  0  0  0  0
    4.4379   54.6922   25.9678 H   0  0  0  0  0  0
    1.3404   53.0211   28.4104 H   0  0  0  0  0  0
    0.1815   52.2037   26.4061 H   0  0  0  0  0  0
   -1.5036   51.5161   18.0487 H   0  0  0  0  0  0
   -1.9392   52.3474   19.5322 H   0  0  0  0  0  0
   -0.6999   53.0268   18.4811 H   0  0  0  0  0  0
  1  2  1  0  0  0
  1 33  1  0  0  0
  1 34  1  0  0  0
  1 35  1  0  0  0
  2  3  1  0  0  0
  2 11  1  0  0  0
  2  4  1  0  0  0
  4  5  1  0  0  0
  4  6  1  0  0  0
  4 32  1  0  0  0
  6  7  1  0  0  0
  7  8  1  0  0  0
  7  9  1  0  0  0
  7 22  1  0  0  0
  9 10  1  0  0  0
  9 11  1  0  0  0
  9 12  1  0  0  0
 12 13  1  0  0  0
 12 36  1  0  0  0
 13 14  2  0  0  0
 13 15  1  0  0  0
 15 20  2  0  0  0
 15 16  1  0  0  0
 16 17  2  0  0  0
 16 37  1  0  0  0
 17 18  1  0  0  0
 17 38  1  0  0  0
 18 19  2  0  0  0
 18 21  1  0  0  0
 19 20  1  0  0  0
 19 39  1  0  0  0
 20 40  1  0  0  0
 22 23  1  0  0  0
 22 41  1  0  0  0
 23 24  2  0  0  0
 23 25  1  0  0  0
 25 30  2  0  0  0
 25 26  1  0  0  0
 26 27  2  0  0  0
 26 42  1  0  0  0
 27 28  1  0  0  0
 27 43  1  0  0  0
 28 29  2  0  0  0
 28 31  1  0  0  0
 29 30  1  0  0  0
 29 44  1  0  0  0
 30 45  1  0  0  0
 32 46  1  0  0  0
 32 47  1  0  0  0
 32 48  1  0  0  0
M  END
> <i_i_glide_confnum>
4

> <i_i_glide_lignum>
5279

> <i_i_glide_posenum>
330

> <i_i_glide_rotatable_bonds>
6

> <i_m_Source_File_Index>
4714

> <b_m_subgroup_collapsed>
0

> <r_i_docking_score>
-3.85127

> <r_i_glide_ecoul>
-1.4501

> <r_i_glide_eff_state_penalty>
0

> <r_i_glide_einternal>
3.47651

> <r_i_glide_emodel>
-48.2669

> <r_i_glide_energy>
-39.5671

> <r_i_glide_erotb>
0.46881

> <r_i_glide_esite>
-0.0185368

> <r_i_glide_evdw>
-38.117

> <r_i_glide_gscore>
-3.85127

> <r_i_glide_hbond>
0

> <r_i_glide_ligand_efficiency>
-0.137545

> <r_i_glide_ligand_efficiency_ln>
-0.888985

> <r_i_glide_ligand_efficiency_sa>
-0.417668

> <r_i_glide_lipo>
-1.89287

> <r_i_glide_metal>
0

> <r_i_glide_rewards>
-0.285302

> <s_i_glide_gridfile>
wee1_glide-grid

> <s_m_Source_File>
wee1_decoys_glide_SP.sdf

> <s_m_Source_Path>
/Users/zhangxujun/Desktop

> <s_m_entry_id>
4989

> <s_m_entry_name>
wee1_decoys_glide_SP.4714

> <s_m_subgroup_title>
wee1_decoys_glide_SP

> <s_m_subgroupid>
wee1_decoys_glide_SP


$$$$
