ZINC15421790_2041
                    3D
 Schrodinger Suite 2024-2.
 64 67  0  0  1  0            999 V2000
    3.5474   59.2964   14.8779 C   0  0  0  0  0  0
    4.7025   58.3786   15.2607 C   0  0  0  0  0  0
    5.4272   57.9305   14.3729 O   0  0  0  0  0  0
    4.8181   58.0957   16.5735 N   0  0  0  0  0  0
    5.7868   57.3015   17.2119 C   0  0  0  0  0  0
    7.0825   57.0943   16.7132 C   0  0  0  0  0  0
    7.9954   56.3211   17.4308 C   0  0  0  0  0  0
    7.6313   55.7602   18.6544 C   0  0  0  0  0  0
    6.3444   55.9758   19.1712 C   0  0  0  0  0  0
    5.4293   56.7336   18.4372 C   0  0  0  0  0  0
    5.9051   55.4485   20.3966 N   0  0  0  0  0  0
    6.6375   55.2967   21.5208 C   0  0  0  0  0  0
    7.8243   55.6177   21.5979 O   0  0  0  0  0  0
    5.9061   54.7792   22.7453 C   0  0  0  0  0  0
    6.5103   54.9060   24.0060 C   0  0  0  0  0  0
    5.8284   54.5680   25.1718 C   0  0  0  0  0  0
    4.5224   54.0966   25.0976 C   0  0  0  0  0  0
    3.9095   53.9170   23.8550 C   0  0  0  0  0  0
    4.6014   54.2474   22.6836 C   0  0  0  0  0  0
    2.2072   53.3557   23.7869 S   0  0  0  0  0  0
    1.8882   52.7815   25.0990 O   0  0  0  0  0  0
    1.4407   54.4966   23.2817 O   0  0  0  0  0  0
    2.1298   52.0611   22.5786 N   0  0  0  0  0  0
    1.9513   52.3121   21.1231 C   0  0  0  0  0  0
    1.4826   50.9305   20.6167 C   0  0  1  0  0  0
    2.2255   49.9968   21.5615 C   0  0  0  0  0  0
    1.9062   50.6303   22.9113 C   0  0  2  0  0  0
    2.5952   50.2855   23.6818 H   0  0  0  0  0  0
    0.4518   50.3355   23.3343 C   0  0  0  0  0  0
   -0.6423   50.6323   22.2495 C   0  0  0  0  0  0
   -0.0596   50.7310   20.7882 C   0  0  0  0  0  0
   -1.7217   49.5241   22.3004 C   0  0  0  0  0  0
   -1.2690   52.0046   22.5927 C   0  0  0  0  0  0
    1.9087   50.7128   19.1485 C   0  0  0  0  0  0
    2.8702   58.7874   14.1926 H   0  0  0  0  0  0
    3.9342   60.1886   14.3850 H   0  0  0  0  0  0
    2.9792   59.6226   15.7501 H   0  0  0  0  0  0
    4.1070   58.4834   17.1738 H   0  0  0  0  0  0
    7.3994   57.5379   15.7813 H   0  0  0  0  0  0
    8.9898   56.1604   17.0406 H   0  0  0  0  0  0
    8.3542   55.1599   19.1880 H   0  0  0  0  0  0
    4.4345   56.8954   18.8262 H   0  0  0  0  0  0
    4.9171   55.2644   20.4586 H   0  0  0  0  0  0
    7.5043   55.3160   24.0963 H   0  0  0  0  0  0
    6.3023   54.6916   26.1345 H   0  0  0  0  0  0
    3.9945   53.8571   26.0100 H   0  0  0  0  0  0
    4.0889   54.1400   21.7399 H   0  0  0  0  0  0
    1.1808   53.0563   20.9221 H   0  0  0  0  0  0
    2.8966   52.5890   20.6564 H   0  0  0  0  0  0
    3.3007   50.0078   21.3691 H   0  0  0  0  0  0
    1.8968   48.9584   21.4911 H   0  0  0  0  0  0
    0.4919   49.2521   23.4642 H   0  0  0  0  0  0
    0.1865   50.6968   24.3291 H   0  0  0  0  0  0
   -0.6688   51.3476   20.1253 H   0  0  0  0  0  0
   -0.1768   49.7311   20.3653 H   0  0  0  0  0  0
   -2.5243   49.7165   21.5872 H   0  0  0  0  0  0
   -1.3057   48.5429   22.0672 H   0  0  0  0  0  0
   -2.1756   49.4562   23.2903 H   0  0  0  0  0  0
   -2.0475   52.2802   21.8812 H   0  0  0  0  0  0
   -1.7311   51.9959   23.5802 H   0  0  0  0  0  0
   -0.5331   52.8054   22.5938 H   0  0  0  0  0  0
    1.6598   49.7091   18.8020 H   0  0  0  0  0  0
    1.4160   51.4221   18.4824 H   0  0  0  0  0  0
    2.9850   50.8352   19.0136 H   0  0  0  0  0  0
  1  2  1  0  0  0
  1 35  1  0  0  0
  1 36  1  0  0  0
  1 37  1  0  0  0
  2  3  2  0  0  0
  2  4  1  0  0  0
  4  5  1  0  0  0
  4 38  1  0  0  0
  5 10  2  0  0  0
  5  6  1  0  0  0
  6  7  2  0  0  0
  6 39  1  0  0  0
  7  8  1  0  0  0
  7 40  1  0  0  0
  8  9  2  0  0  0
  8 41  1  0  0  0
  9 10  1  0  0  0
  9 11  1  0  0  0
 10 42  1  0  0  0
 11 12  1  0  0  0
 11 43  1  0  0  0
 12 13  2  0  0  0
 12 14  1  0  0  0
 14 19  2  0  0  0
 14 15  1  0  0  0
 15 16  2  0  0  0
 15 44  1  0  0  0
 16 17  1  0  0  0
 16 45  1  0  0  0
 17 18  2  0  0  0
 17 46  1  0  0  0
 18 19  1  0  0  0
 18 20  1  0  0  0
 19 47  1  0  0  0
 20 21  2  0  0  0
 20 22  2  0  0  0
 20 23  1  0  0  0
 23 27  1  0  0  0
 23 24  1  0  0  0
 24 25  1  0  0  0
 24 48  1  0  0  0
 24 49  1  0  0  0
 25 31  1  0  0  0
 25 26  1  0  0  0
 25 34  1  0  0  0
 26 27  1  0  0  0
 26 50  1  0  0  0
 26 51  1  0  0  0
 27 28  1  0  0  0
 27 29  1  0  0  0
 29 30  1  0  0  0
 29 52  1  0  0  0
 29 53  1  0  0  0
 30 31  1  0  0  0
 30 32  1  0  0  0
 30 33  1  0  0  0
 31 54  1  0  0  0
 31 55  1  0  0  0
 32 56  1  0  0  0
 32 57  1  0  0  0
 32 58  1  0  0  0
 33 59  1  0  0  0
 33 60  1  0  0  0
 33 61  1  0  0  0
 34 62  1  0  0  0
 34 63  1  0  0  0
 34 64  1  0  0  0
M  END
> <i_i_glide_confnum>
180

> <i_i_glide_lignum>
2042

> <i_i_glide_posenum>
338

> <i_i_glide_rotatable_bonds>
7

> <i_m_Source_File_Index>
9

> <b_m_subgroup_collapsed>
0

> <r_i_docking_score>
-4.04131

> <r_i_glide_ecoul>
-2.61336

> <r_i_glide_eff_state_penalty>
0

> <r_i_glide_einternal>
11.809

> <r_i_glide_emodel>
-44.3732

> <r_i_glide_energy>
-42.4719

> <r_i_glide_erotb>
0.549571

> <r_i_glide_esite>
-0.0892951

> <r_i_glide_evdw>
-39.8586

> <r_i_glide_gscore>
-4.04131

> <r_i_glide_hbond>
0

> <r_i_glide_ligand_efficiency>
-0.122464

> <r_i_glide_ligand_efficiency_ln>
-0.898766

> <r_i_glide_ligand_efficiency_sa>
-0.392807

> <r_i_glide_lipo>
-1.9756

> <r_i_glide_metal>
0

> <r_i_glide_rewards>
-0.141055

> <s_i_glide_gridfile>
wee1_glide-grid

> <s_m_Source_File>
wee1_decoys_glide_SP.sdf

> <s_m_Source_Path>
/Users/zhangxujun/Desktop

> <s_m_entry_id>
284

> <s_m_entry_name>
wee1_decoys_glide_SP.9

> <s_m_subgroup_title>
wee1_decoys_glide_SP

> <s_m_subgroupid>
wee1_decoys_glide_SP


$$$$
