ZINC39653038_376
                    3D
 Schrodinger Suite 2024-2.
 75 78  0  0  1  0            999 V2000
    6.6564   54.4321   26.5553 C   0  0  0  0  0  0
    6.0600   53.8910   27.7239 O   0  0  0  0  0  0
    4.7014   53.6546   27.7387 C   0  0  0  0  0  0
    3.8154   53.9872   26.7079 C   0  0  0  0  0  0
    2.4633   53.6710   26.8158 C   0  0  0  0  0  0
    1.9578   53.0092   27.9464 C   0  0  0  0  0  0
    2.8402   52.7123   29.0110 C   0  0  0  0  0  0
    4.2003   53.0347   28.8768 C   0  0  0  0  0  0
    2.3492   52.0970   30.1523 O   0  0  0  0  0  0
    3.1859   51.9505   31.2989 C   0  0  0  0  0  0
    0.4708   52.7171   28.0586 C   0  0  0  0  0  0
   -0.0981   52.9845   29.1197 O   0  0  0  0  0  0
   -0.2129   52.1907   27.0000 N   0  0  0  0  0  0
   -1.6568   51.9583   27.0758 C   0  0  0  0  0  0
   -2.0577   51.4697   25.6691 C   0  0  1  0  0  0
   -2.3995   52.3606   25.1433 H   0  0  0  0  0  0
   -0.7670   50.8851   25.0534 C   0  0  0  0  0  0
    0.3316   51.7614   25.7111 C   0  0  0  0  0  0
   -0.5851   49.3717   25.3895 C   0  0  0  0  0  0
    0.7023   48.7829   24.8096 C   0  0  0  0  0  0
    0.7894   49.0854   23.2945 N   0  3  0  0  0  0
    0.5572   50.5582   22.9049 C   0  0  0  0  0  0
   -0.7913   50.9789   23.5081 C   0  0  0  0  0  0
   -3.2753   50.5011   25.7226 C   0  0  0  0  0  0
   -3.8318   50.2258   24.6600 O   0  0  0  0  0  0
   -3.7041   50.0133   26.9020 N   0  0  0  0  0  0
   -4.8295   49.0953   27.1161 C   0  0  0  0  0  0
   -6.2163   49.5830   26.6220 C   0  0  0  0  0  0
   -6.5839   51.0001   27.0453 C   0  0  0  0  0  0
   -6.1622   52.0776   26.2671 C   0  0  0  0  0  0
   -6.4162   53.3924   26.6634 C   0  0  0  0  0  0
   -7.1889   53.6117   27.8008 C   0  0  0  0  0  0
   -7.6424   52.5550   28.5900 C   0  0  0  0  0  0
   -7.3222   51.2404   28.2079 C   0  0  0  0  0  0
   -8.3697   52.8953   29.7128 O   0  0  0  0  0  0
   -8.8656   51.8616   30.5552 C   0  0  0  0  0  0
   -5.9249   54.5023   26.0124 O   0  0  0  0  0  0
   -4.9195   54.3295   25.0163 C   0  0  0  0  0  0
    7.7299   54.4968   26.7213 H   0  0  0  0  0  0
    6.2897   55.4370   26.3441 H   0  0  0  0  0  0
    6.4912   53.7932   25.6864 H   0  0  0  0  0  0
    4.1600   54.4885   25.8165 H   0  0  0  0  0  0
    1.8116   53.9772   26.0113 H   0  0  0  0  0  0
    4.9101   52.7965   29.6515 H   0  0  0  0  0  0
    2.6106   51.5210   32.1192 H   0  0  0  0  0  0
    4.0317   51.2962   31.1009 H   0  0  0  0  0  0
    3.5909   52.8966   31.6413 H   0  0  0  0  0  0
   -1.7803   51.1946   27.8458 H   0  0  0  0  0  0
   -2.1951   52.8803   27.2816 H   0  0  0  0  0  0
    0.4130   52.6596   25.0982 H   0  0  0  0  0  0
    1.3132   51.2962   25.7391 H   0  0  0  0  0  0
   -0.5692   49.2339   26.4744 H   0  0  0  0  0  0
   -1.4225   48.7668   25.0425 H   0  0  0  0  0  0
    1.5871   49.1848   25.2815 H   0  0  0  0  0  0
    0.7047   47.6978   24.9023 H   0  0  0  0  0  0
    1.6973   48.7818   22.9660 H   0  0  0  0  0  0
    1.4080   51.1297   23.2793 H   0  0  0  0  0  0
    0.5583   50.5938   21.8138 H   0  0  0  0  0  0
   -1.6218   50.4125   23.0822 H   0  0  0  0  0  0
   -0.9715   52.0132   23.2137 H   0  0  0  0  0  0
   -3.1158   50.1559   27.7113 H   0  0  0  0  0  0
   -4.5827   48.1167   26.6995 H   0  0  0  0  0  0
   -4.8706   49.0006   28.2028 H   0  0  0  0  0  0
   -6.2506   49.5336   25.5329 H   0  0  0  0  0  0
   -6.9908   48.8859   26.9453 H   0  0  0  0  0  0
   -5.6131   51.8827   25.3615 H   0  0  0  0  0  0
   -7.4238   54.6240   28.0815 H   0  0  0  0  0  0
   -7.6413   50.3984   28.8028 H   0  0  0  0  0  0
   -9.4196   52.3085   31.3820 H   0  0  0  0  0  0
   -9.5496   51.2014   30.0193 H   0  0  0  0  0  0
   -8.0538   51.2691   30.9811 H   0  0  0  0  0  0
   -4.5040   55.2961   24.7315 H   0  0  0  0  0  0
   -4.0924   53.7315   25.3965 H   0  0  0  0  0  0
   -5.3219   53.8579   24.1186 H   0  0  0  0  0  0
    0.1028   48.5190   22.8166 H   0  0  0  0  0  0
  1  2  1  0  0  0
  1 39  1  0  0  0
  1 40  1  0  0  0
  1 41  1  0  0  0
  2  3  1  0  0  0
  3  8  2  0  0  0
  3  4  1  0  0  0
  4  5  2  0  0  0
  4 42  1  0  0  0
  5  6  1  0  0  0
  5 43  1  0  0  0
  6  7  2  0  0  0
  6 11  1  0  0  0
  7  8  1  0  0  0
  7  9  1  0  0  0
  8 44  1  0  0  0
  9 10  1  0  0  0
 10 45  1  0  0  0
 10 46  1  0  0  0
 10 47  1  0  0  0
 11 12  2  0  0  0
 11 13  1  0  0  0
 13 18  1  0  0  0
 13 14  1  0  0  0
 14 15  1  0  0  0
 14 48  1  0  0  0
 14 49  1  0  0  0
 15 16  1  0  0  0
 15 17  1  0  0  0
 15 24  1  0  0  0
 17 23  1  0  0  0
 17 18  1  0  0  0
 17 19  1  0  0  0
 18 50  1  0  0  0
 18 51  1  0  0  0
 19 20  1  0  0  0
 19 52  1  0  0  0
 19 53  1  0  0  0
 20 21  1  0  0  0
 20 54  1  0  0  0
 20 55  1  0  0  0
 21 22  1  0  0  0
 21 56  1  0  0  0
 21 75  1  0  0  0
 22 23  1  0  0  0
 22 57  1  0  0  0
 22 58  1  0  0  0
 23 59  1  0  0  0
 23 60  1  0  0  0
 24 25  2  0  0  0
 24 26  1  0  0  0
 26 27  1  0  0  0
 26 61  1  0  0  0
 27 28  1  0  0  0
 27 62  1  0  0  0
 27 63  1  0  0  0
 28 29  1  0  0  0
 28 64  1  0  0  0
 28 65  1  0  0  0
 29 34  2  0  0  0
 29 30  1  0  0  0
 30 31  2  0  0  0
 30 66  1  0  0  0
 31 32  1  0  0  0
 31 37  1  0  0  0
 32 33  2  0  0  0
 32 67  1  0  0  0
 33 34  1  0  0  0
 33 35  1  0  0  0
 34 68  1  0  0  0
 35 36  1  0  0  0
 36 69  1  0  0  0
 36 70  1  0  0  0
 36 71  1  0  0  0
 37 38  1  0  0  0
 38 72  1  0  0  0
 38 73  1  0  0  0
 38 74  1  0  0  0
M  CHG  1  21   1
M  END
> <i_i_glide_confnum>
223

> <i_i_glide_lignum>
377

> <i_i_glide_posenum>
248

> <i_i_glide_rotatable_bonds>
11

> <i_m_Source_File_Index>
3817

> <b_m_subgroup_collapsed>
0

> <r_i_docking_score>
-4.63414

> <r_i_glide_ecoul>
-3.39644

> <r_i_glide_eff_state_penalty>
0

> <r_i_glide_einternal>
4.42115

> <r_i_glide_emodel>
-53.9886

> <r_i_glide_energy>
-42.4852

> <r_i_glide_erotb>
0.546111

> <r_i_glide_esite>
-0.115652

> <r_i_glide_evdw>
-39.0888

> <r_i_glide_gscore>
-4.63414

> <r_i_glide_hbond>
-0.57073

> <r_i_glide_ligand_efficiency>
-0.125247

> <r_i_glide_ligand_efficiency_ln>
-1.00504

> <r_i_glide_ligand_efficiency_sa>
-0.417351

> <r_i_glide_lipo>
-1.86827

> <r_i_glide_metal>
0

> <r_i_glide_rewards>
-0.161703

> <s_i_glide_gridfile>
wee1_glide-grid

> <s_m_Source_File>
wee1_decoys_glide_SP.sdf

> <s_m_Source_Path>
/Users/zhangxujun/Desktop

> <s_m_entry_id>
4092

> <s_m_entry_name>
wee1_decoys_glide_SP.3817

> <s_m_subgroup_title>
wee1_decoys_glide_SP

> <s_m_subgroupid>
wee1_decoys_glide_SP


$$$$
