ZINC12063477_5738
                    3D
 Schrodinger Suite 2024-2.
 69 72  0  0  1  0            999 V2000
    1.8225   50.3012   23.2347 C   0  0  0  0  0  0
    1.4378   50.2375   21.7488 C   0  0  0  0  0  0
    2.5177   50.6051   20.8970 O   0  0  0  0  0  0
    2.7760   52.0009   20.8022 C   0  0  0  0  0  0
    4.0162   52.1920   19.9052 C   0  0  0  0  0  0
    4.4064   53.6012   19.7119 N   0  0  0  0  0  0
    4.2414   54.3034   18.4916 C   0  0  0  0  0  0
    3.4486   54.0008   17.3550 C   0  0  0  0  0  0
    3.4706   54.8711   16.2591 C   0  0  0  0  0  0
    4.2463   56.0247   16.2679 C   0  0  0  0  0  0
    5.0219   56.3394   17.3810 C   0  0  0  0  0  0
    5.0090   55.4730   18.4796 C   0  0  0  0  0  0
    5.9045   55.6750   19.9675 S   0  0  0  0  0  0
    5.1107   54.2426   20.7304 C   0  0  0  0  0  0
    5.2196   53.8361   21.9436 N   0  0  0  0  0  0
    5.9807   54.4940   22.8961 C   0  0  0  0  0  0
    7.1044   54.9427   22.6760 O   0  0  0  0  0  0
    5.4030   54.4895   24.2927 C   0  0  0  0  0  0
    6.2548   54.6191   25.3991 C   0  0  0  0  0  0
    5.7388   54.6054   26.6927 C   0  0  0  0  0  0
    4.3611   54.4860   26.8829 C   0  0  0  0  0  0
    3.5047   54.3679   25.7909 C   0  0  0  0  0  0
    4.0218   54.3640   24.5029 C   0  0  0  0  0  0
    3.6658   54.4735   28.5302 S   0  0  0  0  0  0
    4.7181   54.8966   29.4594 O   0  0  0  0  0  0
    2.3957   55.2072   28.4630 O   0  0  0  0  0  0
    3.3402   52.7672   28.8608 N   0  0  0  0  0  0
    4.4775   51.9578   29.3038 C   0  0  0  0  0  0
    2.2884   52.0523   28.0885 C   0  0  0  0  0  0
    0.8697   52.5624   28.3784 C   0  0  1  0  0  0
    0.6771   53.4977   27.8534 H   0  0  0  0  0  0
   -0.2394   51.5208   28.2095 C   0  0  0  0  0  0
   -1.1885   51.7802   29.3617 C   0  0  0  0  0  0
   -0.4956   52.8359   30.2169 C   0  0  0  0  0  0
    0.8435   52.8222   29.7790 O   0  0  0  0  0  0
    5.8732   57.6003   17.3575 C   0  0  0  0  0  0
    2.5139   52.8027   17.2284 C   0  0  0  0  0  0
    1.0170   49.9160   23.8606 H   0  0  0  0  0  0
    2.7084   49.6974   23.4328 H   0  0  0  0  0  0
    2.0310   51.3200   23.5621 H   0  0  0  0  0  0
    0.5506   50.8415   21.5447 H   0  0  0  0  0  0
    1.1704   49.2080   21.5030 H   0  0  0  0  0  0
    2.9667   52.4041   21.7962 H   0  0  0  0  0  0
    1.9054   52.5146   20.3912 H   0  0  0  0  0  0
    3.8797   51.6970   18.9518 H   0  0  0  0  0  0
    4.8604   51.6727   20.3619 H   0  0  0  0  0  0
    2.8726   54.6600   15.3825 H   0  0  0  0  0  0
    4.2396   56.6739   15.4038 H   0  0  0  0  0  0
    7.3220   54.7122   25.2577 H   0  0  0  0  0  0
    6.4059   54.6988   27.5384 H   0  0  0  0  0  0
    2.4381   54.2767   25.9388 H   0  0  0  0  0  0
    3.3362   54.2734   23.6716 H   0  0  0  0  0  0
    4.1043   51.0118   29.6821 H   0  0  0  0  0  0
    5.1678   51.8036   28.4817 H   0  0  0  0  0  0
    5.0219   52.4778   30.0818 H   0  0  0  0  0  0
    2.5267   52.1298   27.0298 H   0  0  0  0  0  0
    2.3351   50.9877   28.3197 H   0  0  0  0  0  0
   -0.7149   51.5881   27.2305 H   0  0  0  0  0  0
    0.1426   50.5030   28.2898 H   0  0  0  0  0  0
   -2.1645   52.0950   29.0074 H   0  0  0  0  0  0
   -1.3515   50.8880   29.9604 H   0  0  0  0  0  0
   -0.8958   53.8406   30.0791 H   0  0  0  0  0  0
   -0.5390   52.6183   31.2814 H   0  0  0  0  0  0
    5.5043   58.3284   18.0811 H   0  0  0  0  0  0
    6.9026   57.3607   17.6323 H   0  0  0  0  0  0
    5.8969   58.0673   16.3709 H   0  0  0  0  0  0
    1.9518   52.6445   18.1470 H   0  0  0  0  0  0
    3.0707   51.8942   16.9845 H   0  0  0  0  0  0
    1.7617   52.9518   16.4526 H   0  0  0  0  0  0
  1  2  1  0  0  0
  1 38  1  0  0  0
  1 39  1  0  0  0
  1 40  1  0  0  0
  2  3  1  0  0  0
  2 41  1  0  0  0
  2 42  1  0  0  0
  3  4  1  0  0  0
  4  5  1  0  0  0
  4 43  1  0  0  0
  4 44  1  0  0  0
  5  6  1  0  0  0
  5 45  1  0  0  0
  5 46  1  0  0  0
  6 14  1  0  0  0
  6  7  1  0  0  0
  7 12  2  0  0  0
  7  8  1  0  0  0
  8  9  2  0  0  0
  8 37  1  0  0  0
  9 10  1  0  0  0
  9 47  1  0  0  0
 10 11  2  0  0  0
 10 48  1  0  0  0
 11 12  1  0  0  0
 11 36  1  0  0  0
 12 13  1  0  0  0
 13 14  1  0  0  0
 14 15  2  0  0  0
 15 16  1  0  0  0
 16 17  2  0  0  0
 16 18  1  0  0  0
 18 23  2  0  0  0
 18 19  1  0  0  0
 19 20  2  0  0  0
 19 49  1  0  0  0
 20 21  1  0  0  0
 20 50  1  0  0  0
 21 22  2  0  0  0
 21 24  1  0  0  0
 22 23  1  0  0  0
 22 51  1  0  0  0
 23 52  1  0  0  0
 24 25  2  0  0  0
 24 26  2  0  0  0
 24 27  1  0  0  0
 27 28  1  0  0  0
 27 29  1  0  0  0
 28 53  1  0  0  0
 28 54  1  0  0  0
 28 55  1  0  0  0
 29 30  1  0  0  0
 29 56  1  0  0  0
 29 57  1  0  0  0
 30 31  1  0  0  0
 30 35  1  0  0  0
 30 32  1  0  0  0
 32 33  1  0  0  0
 32 58  1  0  0  0
 32 59  1  0  0  0
 33 34  1  0  0  0
 33 60  1  0  0  0
 33 61  1  0  0  0
 34 35  1  0  0  0
 34 62  1  0  0  0
 34 63  1  0  0  0
 36 64  1  0  0  0
 36 65  1  0  0  0
 36 66  1  0  0  0
 37 67  1  0  0  0
 37 68  1  0  0  0
 37 69  1  0  0  0
M  END
> <i_i_glide_confnum>
456

> <i_i_glide_lignum>
5739

> <i_i_glide_posenum>
143

> <i_i_glide_rotatable_bonds>
10

> <i_m_Source_File_Index>
3498

> <b_m_subgroup_collapsed>
0

> <r_i_docking_score>
-5.17589

> <r_i_glide_ecoul>
-1.80709

> <r_i_glide_eff_state_penalty>
0

> <r_i_glide_einternal>
7.71265

> <r_i_glide_emodel>
-62.6386

> <r_i_glide_energy>
-51.12

> <r_i_glide_erotb>
0.583572

> <r_i_glide_esite>
-0.0127578

> <r_i_glide_evdw>
-49.3129

> <r_i_glide_gscore>
-5.17589

> <r_i_glide_hbond>
0

> <r_i_glide_ligand_efficiency>
-0.143775

> <r_i_glide_ligand_efficiency_ln>
-1.12924

> <r_i_glide_ligand_efficiency_sa>
-0.474734

> <r_i_glide_lipo>
-2.32713

> <r_i_glide_metal>
0

> <r_i_glide_rewards>
-0.682867

> <s_i_glide_gridfile>
wee1_glide-grid

> <s_m_Source_File>
wee1_decoys_glide_SP.sdf

> <s_m_Source_Path>
/Users/zhangxujun/Desktop

> <s_m_entry_id>
3773

> <s_m_entry_name>
wee1_decoys_glide_SP.3498

> <s_m_subgroup_title>
wee1_decoys_glide_SP

> <s_m_subgroupid>
wee1_decoys_glide_SP


$$$$
