ZINC03258698_6082
                    3D
 Schrodinger Suite 2024-2.
 68 72  0  0  1  0            999 V2000
   -6.2322   48.5978   21.2178 C   0  0  0  0  0  0
   -4.8567   47.9480   21.4801 C   0  0  0  0  0  0
   -4.5373   47.6049   22.9524 C   0  0  0  0  0  0
   -4.1745   48.8160   23.8078 C   0  0  0  0  0  0
   -5.0642   49.8896   23.9633 C   0  0  0  0  0  0
   -4.3497   51.1506   24.9138 S   0  0  0  0  0  0
   -2.8897   50.2440   25.1664 C   0  0  0  0  0  0
   -2.9546   49.0172   24.5044 C   0  0  0  0  0  0
   -1.8557   48.0557   24.4956 C   0  0  0  0  0  0
   -0.9849   47.2950   24.4815 N   0  0  0  0  0  0
   -1.8090   50.7103   25.9200 N   0  0  0  0  0  0
   -1.6340   51.9243   26.4895 C   0  0  0  0  0  0
   -2.4594   52.8369   26.4231 O   0  0  0  0  0  0
   -0.2745   52.2016   27.1900 C   0  0  2  0  0  0
    0.4359   50.9297   27.6827 C   0  0  0  0  0  0
    1.8307   51.2963   28.2266 C   0  0  0  0  0  0
    1.7927   52.3689   29.3442 C   0  0  2  0  0  0
    0.7755   53.5248   29.1820 C   0  0  0  0  0  0
   -0.4953   53.1234   28.4125 C   0  0  0  0  0  0
    3.1933   52.9206   29.6877 C   0  0  0  0  0  0
    3.5213   52.8845   30.8724 O   0  0  0  0  0  0
    4.0804   53.4427   28.8091 N   0  0  0  0  0  0
    4.0412   53.7418   27.4369 C   0  0  0  0  0  0
    5.1405   54.0286   26.6404 C   0  0  0  0  0  0
    4.8594   54.2455   25.2667 C   0  0  0  0  0  0
    3.4851   54.1384   25.0063 C   0  0  0  0  0  0
    2.6273   53.9566   26.4915 S   0  0  0  0  0  0
    2.7234   54.2596   23.7034 C   0  0  0  0  0  0
    3.2715   53.4551   22.5217 C   0  0  0  0  0  0
    4.6110   53.9622   21.9704 C   0  0  0  0  0  0
    5.8239   53.7415   22.8859 C   0  0  0  0  0  0
    5.9054   54.5514   24.1934 C   0  0  0  0  0  0
    6.4629   54.0695   27.2128 C   0  0  0  0  0  0
    7.5042   54.0968   27.6841 N   0  0  0  0  0  0
   -6.4558   50.0105   23.3800 C   0  0  0  0  0  0
   -6.4741   49.9876   21.8418 C   0  0  0  0  0  0
   -6.3679   48.6834   20.1388 H   0  0  0  0  0  0
   -7.0158   47.9162   21.5514 H   0  0  0  0  0  0
   -4.0660   48.5788   21.0707 H   0  0  0  0  0  0
   -4.8160   47.0241   20.9005 H   0  0  0  0  0  0
   -5.3914   47.0863   23.3894 H   0  0  0  0  0  0
   -3.7382   46.8636   22.9584 H   0  0  0  0  0  0
   -1.0598   50.0448   26.0473 H   0  0  0  0  0  0
    0.2696   52.7154   26.4033 H   0  0  0  0  0  0
   -0.1176   50.4966   28.5144 H   0  0  0  0  0  0
    0.6086   50.2047   26.8840 H   0  0  0  0  0  0
    2.3677   51.6098   27.3485 H   0  0  0  0  0  0
    2.3039   50.3881   28.6002 H   0  0  0  0  0  0
    1.4644   51.7797   30.2047 H   0  0  0  0  0  0
    1.1892   54.3613   28.6253 H   0  0  0  0  0  0
    0.4642   53.8920   30.1622 H   0  0  0  0  0  0
   -0.8956   54.0815   28.0837 H   0  0  0  0  0  0
   -1.1177   52.6112   29.1523 H   0  0  0  0  0  0
    4.9912   53.5823   29.2219 H   0  0  0  0  0  0
    1.6826   53.9652   23.8480 H   0  0  0  0  0  0
    2.7043   55.2966   23.4030 H   0  0  0  0  0  0
    3.3417   52.4038   22.7923 H   0  0  0  0  0  0
    2.5395   53.4996   21.7127 H   0  0  0  0  0  0
    4.8024   53.4446   21.0282 H   0  0  0  0  0  0
    4.5283   55.0155   21.7043 H   0  0  0  0  0  0
    5.9085   52.6763   23.0922 H   0  0  0  0  0  0
    6.7072   54.0102   22.3090 H   0  0  0  0  0  0
    5.9061   55.6170   23.9647 H   0  0  0  0  0  0
    6.9080   54.3694   24.5822 H   0  0  0  0  0  0
   -6.9422   50.9192   23.7381 H   0  0  0  0  0  0
   -7.0791   49.1888   23.7355 H   0  0  0  0  0  0
   -5.7515   50.7039   21.4484 H   0  0  0  0  0  0
   -7.4485   50.3447   21.5052 H   0  0  0  0  0  0
  1 36  1  0  0  0
  1  2  1  0  0  0
  1 37  1  0  0  0
  1 38  1  0  0  0
  2  3  1  0  0  0
  2 39  1  0  0  0
  2 40  1  0  0  0
  3  4  1  0  0  0
  3 41  1  0  0  0
  3 42  1  0  0  0
  4  8  1  0  0  0
  4  5  2  0  0  0
  5  6  1  0  0  0
  5 35  1  0  0  0
  6  7  1  0  0  0
  7  8  2  0  0  0
  7 11  1  0  0  0
  8  9  1  0  0  0
  9 10  3  0  0  0
 11 12  1  0  0  0
 11 43  1  0  0  0
 12 13  2  0  0  0
 12 14  1  0  0  0
 14 19  1  0  0  0
 14 15  1  0  0  0
 14 44  1  0  0  0
 15 16  1  0  0  0
 15 45  1  0  0  0
 15 46  1  0  0  0
 16 17  1  0  0  0
 16 47  1  0  0  0
 16 48  1  0  0  0
 17 18  1  0  0  0
 17 20  1  0  0  0
 17 49  1  0  0  0
 18 19  1  0  0  0
 18 50  1  0  0  0
 18 51  1  0  0  0
 19 52  1  0  0  0
 19 53  1  0  0  0
 20 21  2  0  0  0
 20 22  1  0  0  0
 22 23  1  0  0  0
 22 54  1  0  0  0
 23 27  1  0  0  0
 23 24  2  0  0  0
 24 25  1  0  0  0
 24 33  1  0  0  0
 25 32  1  0  0  0
 25 26  2  0  0  0
 26 27  1  0  0  0
 26 28  1  0  0  0
 28 29  1  0  0  0
 28 55  1  0  0  0
 28 56  1  0  0  0
 29 30  1  0  0  0
 29 57  1  0  0  0
 29 58  1  0  0  0
 30 31  1  0  0  0
 30 59  1  0  0  0
 30 60  1  0  0  0
 31 32  1  0  0  0
 31 61  1  0  0  0
 31 62  1  0  0  0
 32 63  1  0  0  0
 32 64  1  0  0  0
 33 34  3  0  0  0
 35 36  1  0  0  0
 35 65  1  0  0  0
 35 66  1  0  0  0
 36 67  1  0  0  0
 36 68  1  0  0  0
M  END
> <i_i_glide_confnum>
96

> <i_i_glide_lignum>
6083

> <i_i_glide_posenum>
300

> <i_i_glide_rotatable_bonds>
8

> <i_m_Source_File_Index>
1100

> <b_m_subgroup_collapsed>
0

> <r_i_docking_score>
-4.80081

> <r_i_glide_ecoul>
-4.30642

> <r_i_glide_eff_state_penalty>
0

> <r_i_glide_einternal>
14.7018

> <r_i_glide_emodel>
-45.734

> <r_i_glide_energy>
-43.0675

> <r_i_glide_erotb>
0.454811

> <r_i_glide_esite>
-0.12032

> <r_i_glide_evdw>
-38.7611

> <r_i_glide_gscore>
-4.80081

> <r_i_glide_hbond>
-0.373294

> <r_i_glide_ligand_efficiency>
-0.133356

> <r_i_glide_ligand_efficiency_ln>
-1.04741

> <r_i_glide_ligand_efficiency_sa>
-0.440331

> <r_i_glide_lipo>
-2.78325

> <r_i_glide_metal>
0

> <r_i_glide_rewards>
0.605256

> <s_i_glide_gridfile>
wee1_glide-grid

> <s_m_Source_File>
wee1_decoys_glide_SP.sdf

> <s_m_Source_Path>
/Users/zhangxujun/Desktop

> <s_m_entry_id>
1375

> <s_m_entry_name>
wee1_decoys_glide_SP.1100

> <s_m_subgroup_title>
wee1_decoys_glide_SP

> <s_m_subgroupid>
wee1_decoys_glide_SP


$$$$
