ZINC09824682_4525
                    3D
 Schrodinger Suite 2024-2.
 54 57  0  0  1  0            999 V2000
    6.9707   54.9661   24.1581 C   0  0  0  0  0  0
    5.5794   54.4957   23.7865 C   0  0  0  0  0  0
    5.2305   54.4779   22.4357 C   0  0  0  0  0  0
    3.9562   54.0855   22.0531 C   0  0  0  0  0  0
    3.0284   53.7005   23.0127 C   0  0  0  0  0  0
    3.3507   53.7006   24.3796 C   0  0  0  0  0  0
    4.6498   54.0996   24.7665 C   0  0  0  0  0  0
    5.0760   54.0772   26.2415 C   0  0  0  0  0  0
    2.4633   53.2756   25.3933 N   0  0  0  0  0  0
    1.1464   52.8684   25.4456 C   0  0  0  0  0  0
    0.4879   52.4102   26.5912 C   0  0  0  0  0  0
   -0.8622   52.0965   26.3282 C   0  0  0  0  0  0
   -1.2472   52.2569   24.9908 C   0  0  0  0  0  0
    0.0780   52.8951   24.0765 S   0  0  0  0  0  0
   -2.5124   52.0203   24.2744 C   0  0  0  0  0  0
   -2.7983   52.7282   23.3048 O   0  0  0  0  0  0
   -3.4816   50.9889   24.7725 C   0  0  0  0  0  0
   -4.8559   51.1738   24.5640 C   0  0  0  0  0  0
   -5.7693   50.2118   24.9890 C   0  0  0  0  0  0
   -5.3149   49.0529   25.6139 C   0  0  0  0  0  0
   -3.9528   48.8414   25.8000 C   0  0  0  0  0  0
   -3.0371   49.7955   25.3642 C   0  0  0  0  0  0
   -6.2037   48.1245   26.0343 F   0  0  0  0  0  0
   -1.7134   51.6964   27.3131 N   0  0  0  0  0  0
    1.2657   52.2543   28.2438 S   0  0  0  0  0  0
    0.4495   51.3357   29.0436 O   0  0  0  0  0  0
    2.7038   52.0329   28.0783 O   0  0  0  0  0  0
    1.1755   53.8570   28.9904 C   0  0  0  0  0  0
    1.7939   54.9391   28.3637 C   0  0  0  0  0  0
    1.8485   56.1699   29.0033 C   0  0  0  0  0  0
    1.3165   56.3044   30.2802 C   0  0  0  0  0  0
    0.7033   55.2169   30.8976 C   0  0  0  0  0  0
    0.6174   53.9925   30.2569 C   0  0  0  0  0  0
    6.9260   55.7156   24.9482 H   0  0  0  0  0  0
    7.5291   54.1093   24.5330 H   0  0  0  0  0  0
    7.5022   55.4129   23.3179 H   0  0  0  0  0  0
    5.9401   54.7784   21.6784 H   0  0  0  0  0  0
    3.6818   54.0822   21.0087 H   0  0  0  0  0  0
    2.0728   53.3972   22.6317 H   0  0  0  0  0  0
    6.1376   53.8585   26.3555 H   0  0  0  0  0  0
    4.8571   55.0321   26.7217 H   0  0  0  0  0  0
    4.5892   53.2845   26.8025 H   0  0  0  0  0  0
    2.9831   53.1567   26.2543 H   0  0  0  0  0  0
   -5.2289   52.0651   24.0777 H   0  0  0  0  0  0
   -6.8270   50.3628   24.8341 H   0  0  0  0  0  0
   -3.6020   47.9414   26.2854 H   0  0  0  0  0  0
   -1.9835   49.5973   25.5070 H   0  0  0  0  0  0
   -1.3279   51.3956   28.2048 H   0  0  0  0  0  0
   -2.6452   51.3665   27.1038 H   0  0  0  0  0  0
    2.2493   54.8349   27.3932 H   0  0  0  0  0  0
    2.3051   57.0126   28.5110 H   0  0  0  0  0  0
    1.3808   57.2554   30.7922 H   0  0  0  0  0  0
    0.3119   55.2866   31.8982 H   0  0  0  0  0  0
    0.1659   53.1508   30.7653 H   0  0  0  0  0  0
  1  2  1  0  0  0
  1 34  1  0  0  0
  1 35  1  0  0  0
  1 36  1  0  0  0
  2  7  2  0  0  0
  2  3  1  0  0  0
  3  4  2  0  0  0
  3 37  1  0  0  0
  4  5  1  0  0  0
  4 38  1  0  0  0
  5  6  2  0  0  0
  5 39  1  0  0  0
  6  7  1  0  0  0
  6  9  1  0  0  0
  7  8  1  0  0  0
  8 40  1  0  0  0
  8 41  1  0  0  0
  8 42  1  0  0  0
  9 10  1  0  0  0
  9 43  1  0  0  0
 10 14  1  0  0  0
 10 11  2  0  0  0
 11 12  1  0  0  0
 11 25  1  0  0  0
 12 13  2  0  0  0
 12 24  1  0  0  0
 13 14  1  0  0  0
 13 15  1  0  0  0
 15 16  2  0  0  0
 15 17  1  0  0  0
 17 22  2  0  0  0
 17 18  1  0  0  0
 18 19  2  0  0  0
 18 44  1  0  0  0
 19 20  1  0  0  0
 19 45  1  0  0  0
 20 21  2  0  0  0
 20 23  1  0  0  0
 21 22  1  0  0  0
 21 46  1  0  0  0
 22 47  1  0  0  0
 24 48  1  0  0  0
 24 49  1  0  0  0
 25 26  2  0  0  0
 25 27  2  0  0  0
 25 28  1  0  0  0
 28 33  2  0  0  0
 28 29  1  0  0  0
 29 30  2  0  0  0
 29 50  1  0  0  0
 30 31  1  0  0  0
 30 51  1  0  0  0
 31 32  2  0  0  0
 31 52  1  0  0  0
 32 33  1  0  0  0
 32 53  1  0  0  0
 33 54  1  0  0  0
M  END
> <i_i_glide_confnum>
100

> <i_i_glide_lignum>
4526

> <i_i_glide_posenum>
127

> <i_i_glide_rotatable_bonds>
6

> <i_m_Source_File_Index>
5957

> <b_m_subgroup_collapsed>
0

> <r_i_docking_score>
-6.25176

> <r_i_glide_ecoul>
-4.04595

> <r_i_glide_eff_state_penalty>
0

> <r_i_glide_einternal>
2.82663

> <r_i_glide_emodel>
-64.8146

> <r_i_glide_energy>
-47.1315

> <r_i_glide_erotb>
0.526861

> <r_i_glide_esite>
-0.0581406

> <r_i_glide_evdw>
-43.0855

> <r_i_glide_gscore>
-6.25176

> <r_i_glide_hbond>
0

> <r_i_glide_ligand_efficiency>
-0.189447

> <r_i_glide_ligand_efficiency_ln>
-1.39036

> <r_i_glide_ligand_efficiency_sa>
-0.607659

> <r_i_glide_lipo>
-3.54122

> <r_i_glide_metal>
0

> <r_i_glide_rewards>
-0.418093

> <s_i_glide_gridfile>
wee1_glide-grid

> <s_m_Source_File>
wee1_decoys_glide_SP.sdf

> <s_m_Source_Path>
/Users/zhangxujun/Desktop

> <s_m_entry_id>
6232

> <s_m_entry_name>
wee1_decoys_glide_SP.5957

> <s_m_subgroup_title>
wee1_decoys_glide_SP

> <s_m_subgroupid>
wee1_decoys_glide_SP


$$$$
