ZINC39624113_282
                    3D
 Schrodinger Suite 2024-2.
 62 65  0  0  1  0            999 V2000
    6.8290   55.2490   24.1219 C   0  0  0  0  0  0
    6.6132   54.8785   22.6453 C   0  0  0  0  0  0
    5.6549   53.6877   22.4837 C   0  0  0  0  0  0
    5.0935   53.5250   21.0537 C   0  0  0  0  0  0
    4.3266   52.2953   20.8592 N   0  0  0  0  0  0
    3.1402   52.0454   21.4393 C   0  0  0  0  0  0
    2.6112   52.8335   22.2248 O   0  0  0  0  0  0
    2.4944   50.6617   21.1610 C   0  0  1  0  0  0
    3.2301   50.0410   20.6557 H   0  0  0  0  0  0
    2.0197   49.9986   22.4672 C   0  0  0  0  0  0
    0.6508   50.5096   22.6478 N   0  0  0  0  0  0
    0.1329   51.1005   21.4061 C   0  0  0  0  0  0
    1.1842   50.7732   20.3217 C   0  0  0  0  0  0
    1.1360   51.7737   19.1319 C   0  0  0  0  0  0
    2.1970   51.4236   18.0649 C   0  0  0  0  0  0
    1.9044   50.0063   17.5248 N   0  3  0  0  0  0
    1.7718   48.9225   18.6163 C   0  0  0  0  0  0
    0.7658   49.4116   19.6837 C   0  0  0  0  0  0
    0.0790   50.5158   23.8840 C   0  0  0  0  0  0
    0.6346   49.9836   24.8479 O   0  0  0  0  0  0
   -1.2148   51.1512   24.0893 C   0  0  0  0  0  0
   -2.0257   52.0181   23.3506 C   0  0  0  0  0  0
   -3.1456   52.3017   24.1344 C   0  0  0  0  0  0
   -2.9839   51.6293   25.3381 C   0  0  0  0  0  0
   -1.8037   50.9553   25.3035 O   0  0  0  0  0  0
   -3.8129   51.5047   26.5748 C   0  0  0  0  0  0
   -3.2946   50.8956   27.7246 C   0  0  0  0  0  0
   -4.0789   50.7752   28.8693 C   0  0  0  0  0  0
   -5.3808   51.2694   28.8680 C   0  0  0  0  0  0
   -5.9085   51.8717   27.7280 C   0  0  0  0  0  0
   -5.1244   51.9926   26.5832 C   0  0  0  0  0  0
   -6.1323   51.1776   29.9875 F   0  0  0  0  0  0
    7.5048   56.0975   24.2132 H   0  0  0  0  0  0
    7.2665   54.4171   24.6755 H   0  0  0  0  0  0
    5.8903   55.5213   24.6088 H   0  0  0  0  0  0
    6.2343   55.7452   22.1008 H   0  0  0  0  0  0
    7.5759   54.6464   22.1845 H   0  0  0  0  0  0
    6.1615   52.7732   22.7956 H   0  0  0  0  0  0
    4.8175   53.8156   23.1702 H   0  0  0  0  0  0
    4.4922   54.3985   20.7875 H   0  0  0  0  0  0
    5.9050   53.5330   20.3296 H   0  0  0  0  0  0
    4.7038   51.6277   20.2009 H   0  0  0  0  0  0
    2.0093   48.9176   22.3232 H   0  0  0  0  0  0
    2.7039   50.2266   23.2869 H   0  0  0  0  0  0
    0.1337   52.1837   21.5405 H   0  0  0  0  0  0
   -0.8778   50.8084   21.1180 H   0  0  0  0  0  0
    0.1403   51.8100   18.6876 H   0  0  0  0  0  0
    1.3193   52.7915   19.4843 H   0  0  0  0  0  0
    2.1697   52.0939   17.2039 H   0  0  0  0  0  0
    3.2163   51.3926   18.4515 H   0  0  0  0  0  0
    1.0663   50.0274   16.9600 H   0  0  0  0  0  0
    1.4355   48.0177   18.1057 H   0  0  0  0  0  0
    2.7827   48.7415   18.9899 H   0  0  0  0  0  0
    0.6861   48.6389   20.4512 H   0  0  0  0  0  0
   -0.2375   49.4716   19.2531 H   0  0  0  0  0  0
   -1.8553   52.4175   22.3663 H   0  0  0  0  0  0
   -3.9793   52.9314   23.8607 H   0  0  0  0  0  0
   -2.2885   50.4967   27.7352 H   0  0  0  0  0  0
   -3.6699   50.2942   29.7473 H   0  0  0  0  0  0
   -6.9237   52.2420   27.7376 H   0  0  0  0  0  0
   -5.5444   52.4579   25.7048 H   0  0  0  0  0  0
    2.6706   49.7146   16.9071 H   0  0  0  0  0  0
  1  2  1  0  0  0
  1 33  1  0  0  0
  1 34  1  0  0  0
  1 35  1  0  0  0
  2  3  1  0  0  0
  2 36  1  0  0  0
  2 37  1  0  0  0
  3  4  1  0  0  0
  3 38  1  0  0  0
  3 39  1  0  0  0
  4  5  1  0  0  0
  4 40  1  0  0  0
  4 41  1  0  0  0
  5  6  1  0  0  0
  5 42  1  0  0  0
  6  7  2  0  0  0
  6  8  1  0  0  0
  8  9  1  0  0  0
  8 13  1  0  0  0
  8 10  1  0  0  0
 10 11  1  0  0  0
 10 43  1  0  0  0
 10 44  1  0  0  0
 11 12  1  0  0  0
 11 19  1  0  0  0
 12 13  1  0  0  0
 12 45  1  0  0  0
 12 46  1  0  0  0
 13 18  1  0  0  0
 13 14  1  0  0  0
 14 15  1  0  0  0
 14 47  1  0  0  0
 14 48  1  0  0  0
 15 16  1  0  0  0
 15 49  1  0  0  0
 15 50  1  0  0  0
 16 17  1  0  0  0
 16 51  1  0  0  0
 16 62  1  0  0  0
 17 18  1  0  0  0
 17 52  1  0  0  0
 17 53  1  0  0  0
 18 54  1  0  0  0
 18 55  1  0  0  0
 19 20  2  0  0  0
 19 21  1  0  0  0
 21 25  1  0  0  0
 21 22  2  0  0  0
 22 23  1  0  0  0
 22 56  1  0  0  0
 23 24  2  0  0  0
 23 57  1  0  0  0
 24 25  1  0  0  0
 24 26  1  0  0  0
 26 31  2  0  0  0
 26 27  1  0  0  0
 27 28  2  0  0  0
 27 58  1  0  0  0
 28 29  1  0  0  0
 28 59  1  0  0  0
 29 30  2  0  0  0
 29 32  1  0  0  0
 30 31  1  0  0  0
 30 60  1  0  0  0
 31 61  1  0  0  0
M  CHG  1  16   1
M  END
> <i_i_glide_confnum>
63

> <i_i_glide_lignum>
283

> <i_i_glide_posenum>
48

> <i_i_glide_rotatable_bonds>
8

> <i_m_Source_File_Index>
2857

> <b_m_subgroup_collapsed>
0

> <r_i_docking_score>
-3.34982

> <r_i_glide_ecoul>
-3.86773

> <r_i_glide_eff_state_penalty>
0

> <r_i_glide_einternal>
2.11983

> <r_i_glide_emodel>
-45.4183

> <r_i_glide_energy>
-35.4914

> <r_i_glide_erotb>
0.757238

> <r_i_glide_esite>
-0.123118

> <r_i_glide_evdw>
-31.6237

> <r_i_glide_gscore>
-3.34982

> <r_i_glide_hbond>
-0.2

> <r_i_glide_ligand_efficiency>
-0.108059

> <r_i_glide_ligand_efficiency_ln>
-0.755488

> <r_i_glide_ligand_efficiency_sa>
-0.339454

> <r_i_glide_lipo>
-1.03923

> <r_i_glide_metal>
0

> <r_i_glide_rewards>
-0.583366

> <s_i_glide_gridfile>
wee1_glide-grid

> <s_m_Source_File>
wee1_decoys_glide_SP.sdf

> <s_m_Source_Path>
/Users/zhangxujun/Desktop

> <s_m_entry_id>
3132

> <s_m_entry_name>
wee1_decoys_glide_SP.2857

> <s_m_subgroup_title>
wee1_decoys_glide_SP

> <s_m_subgroupid>
wee1_decoys_glide_SP


$$$$
