ZINC32972021_5919
                    3D
 Schrodinger Suite 2024-2.
 62 64  0  0  1  0            999 V2000
    0.6688   50.1794   20.3180 C   0  0  0  0  0  0
    0.2202   48.8841   21.0221 C   0  0  0  0  0  0
   -0.0485   49.0171   22.4648 N   0  0  0  0  0  0
    0.6559   49.6699   23.4564 C   0  0  0  0  0  0
   -0.0209   49.3739   24.6554 C   0  0  0  0  0  0
   -1.0889   48.5358   24.2473 C   0  0  0  0  0  0
   -1.0907   48.3373   22.9506 N   0  0  0  0  0  0
   -2.1866   47.8725   25.0614 C   0  0  0  0  0  0
    0.3043   49.8506   26.0809 C   0  0  0  0  0  0
    0.4405   51.3116   26.1094 N   0  5  0  0  0  0
   -0.2202   51.9593   27.0103 C   0  0  0  0  0  0
   -1.5894   52.1670   26.8379 N   0  0  0  0  0  0
   -2.4727   51.9190   25.7681 C   0  0  0  0  0  0
   -2.0643   52.0131   24.4303 C   0  0  0  0  0  0
   -2.9331   51.6746   23.3973 C   0  0  0  0  0  0
   -4.2431   51.2963   23.6859 C   0  0  0  0  0  0
   -4.6800   51.2552   25.0093 C   0  0  0  0  0  0
   -3.7996   51.5505   26.0539 C   0  0  0  0  0  0
   -4.2660   51.4746   27.3461 O   0  0  0  0  0  0
   -3.9654   50.2467   28.0017 C   0  0  0  0  0  0
   -2.3711   51.6967   21.7678 Cl  0  0  0  0  0  0
    0.2844   52.5502   28.0356 N   0  0  0  0  0  0
    1.6240   52.5559   28.4297 C   0  0  0  0  0  0
    1.9148   52.0850   29.5326 O   0  0  0  0  0  0
    2.7044   53.1992   27.5645 C   0  0  0  0  0  0
    2.4586   53.6797   26.2676 C   0  0  0  0  0  0
    3.4959   54.1278   25.4521 C   0  0  0  0  0  0
    4.7925   54.2096   25.9608 C   0  0  0  0  0  0
    5.0587   53.7962   27.2674 C   0  0  0  0  0  0
    4.0188   53.2967   28.0578 C   0  0  0  0  0  0
    6.4708   53.8742   27.8175 C   0  0  0  0  0  0
    3.1993   54.5090   24.0156 C   0  0  0  0  0  0
    1.8909   50.5111   23.1705 C   0  0  0  0  0  0
    0.5573   50.0798   19.2373 H   0  0  0  0  0  0
    0.0863   51.0451   20.6300 H   0  0  0  0  0  0
    1.7219   50.3919   20.4965 H   0  0  0  0  0  0
    0.9650   48.0985   20.8805 H   0  0  0  0  0  0
   -0.6957   48.5366   20.5336 H   0  0  0  0  0  0
   -3.0658   48.5138   25.1354 H   0  0  0  0  0  0
   -2.5128   46.9265   24.6293 H   0  0  0  0  0  0
   -1.8690   47.6495   26.0817 H   0  0  0  0  0  0
    1.2189   49.3710   26.4278 H   0  0  0  0  0  0
   -0.4613   49.4784   26.7602 H   0  0  0  0  0  0
   -1.0502   52.2975   24.1910 H   0  0  0  0  0  0
   -4.9226   51.0345   22.8877 H   0  0  0  0  0  0
   -5.6988   50.9704   25.2279 H   0  0  0  0  0  0
   -4.4502   50.2214   28.9764 H   0  0  0  0  0  0
   -4.3178   49.3858   27.4325 H   0  0  0  0  0  0
   -2.8956   50.1351   28.1680 H   0  0  0  0  0  0
   -2.0471   52.4258   27.6926 H   0  0  0  0  0  0
    1.4653   53.6619   25.8467 H   0  0  0  0  0  0
    5.5971   54.5721   25.3367 H   0  0  0  0  0  0
    4.2501   52.9487   29.0559 H   0  0  0  0  0  0
    6.9921   52.9296   27.6680 H   0  0  0  0  0  0
    7.0380   54.6704   27.3369 H   0  0  0  0  0  0
    6.4609   54.0966   28.8832 H   0  0  0  0  0  0
    3.8800   55.2848   23.6752 H   0  0  0  0  0  0
    2.1901   54.9092   23.9138 H   0  0  0  0  0  0
    3.2955   53.6380   23.3669 H   0  0  0  0  0  0
    2.3044   50.9362   24.0810 H   0  0  0  0  0  0
    2.6826   49.9331   22.6930 H   0  0  0  0  0  0
    1.6654   51.3687   22.5368 H   0  0  0  0  0  0
  1  2  1  0  0  0
  1 34  1  0  0  0
  1 35  1  0  0  0
  1 36  1  0  0  0
  2  3  1  0  0  0
  2 37  1  0  0  0
  2 38  1  0  0  0
  3  7  1  0  0  0
  3  4  1  0  0  0
  4  5  2  0  0  0
  4 33  1  0  0  0
  5  6  1  0  0  0
  5  9  1  0  0  0
  6  7  2  0  0  0
  6  8  1  0  0  0
  8 39  1  0  0  0
  8 40  1  0  0  0
  8 41  1  0  0  0
  9 42  1  0  0  0
  9 43  1  0  0  0
  9 10  1  0  0  0
 10 11  1  0  0  0
 11 12  1  0  0  0
 11 22  2  0  0  0
 12 13  1  0  0  0
 12 50  1  0  0  0
 13 18  2  0  0  0
 13 14  1  0  0  0
 14 15  2  0  0  0
 14 44  1  0  0  0
 15 16  1  0  0  0
 15 21  1  0  0  0
 16 17  2  0  0  0
 16 45  1  0  0  0
 17 18  1  0  0  0
 17 46  1  0  0  0
 18 19  1  0  0  0
 19 20  1  0  0  0
 20 47  1  0  0  0
 20 48  1  0  0  0
 20 49  1  0  0  0
 22 23  1  0  0  0
 23 24  2  0  0  0
 23 25  1  0  0  0
 25 30  2  0  0  0
 25 26  1  0  0  0
 26 27  2  0  0  0
 26 51  1  0  0  0
 27 28  1  0  0  0
 27 32  1  0  0  0
 28 29  2  0  0  0
 28 52  1  0  0  0
 29 30  1  0  0  0
 29 31  1  0  0  0
 30 53  1  0  0  0
 31 54  1  0  0  0
 31 55  1  0  0  0
 31 56  1  0  0  0
 32 57  1  0  0  0
 32 58  1  0  0  0
 32 59  1  0  0  0
 33 60  1  0  0  0
 33 61  1  0  0  0
 33 62  1  0  0  0
M  CHG  1  10  -1
M  END
> <i_i_glide_confnum>
96

> <i_i_glide_lignum>
5920

> <i_i_glide_posenum>
301

> <i_i_glide_rotatable_bonds>
9

> <i_m_Source_File_Index>
1058

> <b_m_subgroup_collapsed>
0

> <r_i_docking_score>
-4.48881

> <r_i_glide_ecoul>
-4.21481

> <r_i_glide_eff_state_penalty>
0

> <r_i_glide_einternal>
25.5785

> <r_i_glide_emodel>
-44.4253

> <r_i_glide_energy>
-44.2624

> <r_i_glide_erotb>
0.647729

> <r_i_glide_esite>
-0.040875

> <r_i_glide_evdw>
-40.0476

> <r_i_glide_gscore>
-4.48881

> <r_i_glide_hbond>
0

> <r_i_glide_ligand_efficiency>
-0.136025

> <r_i_glide_ligand_efficiency_ln>
-0.998288

> <r_i_glide_ligand_efficiency_sa>
-0.436304

> <r_i_glide_lipo>
-1.97361

> <r_i_glide_metal>
0

> <r_i_glide_rewards>
-0.48745

> <s_i_glide_gridfile>
wee1_glide-grid

> <s_m_Source_File>
wee1_decoys_glide_SP.sdf

> <s_m_Source_Path>
/Users/zhangxujun/Desktop

> <s_m_entry_id>
1333

> <s_m_entry_name>
wee1_decoys_glide_SP.1058

> <s_m_subgroup_title>
wee1_decoys_glide_SP

> <s_m_subgroupid>
wee1_decoys_glide_SP


$$$$
