ZINC67049712_1411
                    3D
 Schrodinger Suite 2024-2.
 50 53  0  0  1  0            999 V2000
    8.3313   56.1811   17.7966 C   0  0  0  0  0  0
    7.6845   56.7710   19.0630 C   0  0  0  0  0  0
    7.1278   58.1847   18.8023 C   0  0  0  0  0  0
    6.6104   55.8460   19.6145 C   0  0  0  0  0  0
    6.6952   55.2886   20.8013 N   0  0  0  0  0  0
    5.6696   54.4966   21.0919 C   0  0  0  0  0  0
    4.7034   54.4248   20.0945 C   0  0  0  0  0  0
    5.1699   55.4077   18.7461 S   0  0  0  0  0  0
    5.6532   53.7260   22.4184 C   0  0  0  0  0  0
    5.9481   54.5343   23.6884 C   0  0  0  0  0  0
    6.7044   55.5049   23.6884 O   0  0  0  0  0  0
    5.2697   54.1515   24.7732 N   0  0  0  0  0  0
    4.9810   55.0022   25.9208 C   0  0  0  0  0  0
    3.4730   54.8968   26.1754 C   0  0  0  0  0  0
    3.0063   53.5180   26.6761 C   0  0  0  0  0  0
    3.7178   53.1604   27.9130 N   0  0  0  0  0  0
    5.1817   53.1773   27.6733 C   0  0  0  0  0  0
    5.6809   54.5566   27.2114 C   0  0  0  0  0  0
    3.1237   52.7030   29.0930 C   0  0  0  0  0  0
    1.7266   52.5498   29.3156 C   0  0  0  0  0  0
    0.6067   52.5925   28.5184 N   0  0  0  0  0  0
   -0.3857   52.2785   29.3168 C   0  0  0  0  0  0
   -0.0234   52.1392   30.6343 N   0  0  0  0  0  0
    1.3435   52.2582   30.6515 C   0  0  0  0  0  0
    2.1683   52.0802   31.6819 N   0  0  0  0  0  0
    3.4740   52.0973   31.3186 C   0  0  0  0  0  0
    3.9806   52.4209   30.1121 N   0  0  0  0  0  0
   -0.6547   51.8942   31.3990 H   0  0  0  0  0  0
    8.7635   55.1989   17.9966 H   0  0  0  0  0  0
    9.1332   56.8218   17.4289 H   0  0  0  0  0  0
    7.6089   56.0650   16.9892 H   0  0  0  0  0  0
    8.4878   56.8667   19.7938 H   0  0  0  0  0  0
    6.7048   58.6246   19.7038 H   0  0  0  0  0  0
    7.9086   58.8574   18.4467 H   0  0  0  0  0  0
    6.3432   58.1781   18.0440 H   0  0  0  0  0  0
    3.7864   53.8529   20.0754 H   0  0  0  0  0  0
    4.6577   53.2935   22.5246 H   0  0  0  0  0  0
    6.3044   52.8588   22.4309 H   0  0  0  0  0  0
    4.8630   53.2290   24.7930 H   0  0  0  0  0  0
    5.2267   56.0412   25.6831 H   0  0  0  0  0  0
    3.1154   55.6562   26.8705 H   0  0  0  0  0  0
    2.9736   55.0932   25.2269 H   0  0  0  0  0  0
    1.9339   53.5877   26.8175 H   0  0  0  0  0  0
    3.1649   52.7490   25.9217 H   0  0  0  0  0  0
    5.7671   52.8577   28.5352 H   0  0  0  0  0  0
    5.4042   52.4659   26.8845 H   0  0  0  0  0  0
    6.7576   54.5171   27.0476 H   0  0  0  0  0  0
    5.5446   55.2931   28.0051 H   0  0  0  0  0  0
   -1.4093   52.0969   29.0215 H   0  0  0  0  0  0
    4.2045   51.8912   32.0817 H   0  0  0  0  0  0
  1  2  1  0  0  0
  1 29  1  0  0  0
  1 30  1  0  0  0
  1 31  1  0  0  0
  2  3  1  0  0  0
  2  4  1  0  0  0
  2 32  1  0  0  0
  3 33  1  0  0  0
  3 34  1  0  0  0
  3 35  1  0  0  0
  4  8  1  0  0  0
  4  5  2  0  0  0
  5  6  1  0  0  0
  6  7  2  0  0  0
  6  9  1  0  0  0
  7  8  1  0  0  0
  7 36  1  0  0  0
  9 10  1  0  0  0
  9 37  1  0  0  0
  9 38  1  0  0  0
 10 11  2  0  0  0
 10 12  1  0  0  0
 12 13  1  0  0  0
 12 39  1  0  0  0
 13 18  1  0  0  0
 13 14  1  0  0  0
 13 40  1  0  0  0
 14 15  1  0  0  0
 14 41  1  0  0  0
 14 42  1  0  0  0
 15 43  1  0  0  0
 15 44  1  0  0  0
 15 16  1  0  0  0
 16 17  1  0  0  0
 16 19  1  0  0  0
 17 18  1  0  0  0
 17 45  1  0  0  0
 17 46  1  0  0  0
 18 47  1  0  0  0
 18 48  1  0  0  0
 19 20  2  0  0  0
 19 27  1  0  0  0
 20 21  1  0  0  0
 20 24  1  0  0  0
 21 22  2  0  0  0
 22 49  1  0  0  0
 22 23  1  0  0  0
 23 28  1  0  0  0
 23 24  1  0  0  0
 24 25  2  0  0  0
 25 26  1  0  0  0
 26 50  1  0  0  0
 26 27  2  0  0  0
M  END
> <i_i_glide_confnum>
104

> <i_i_glide_lignum>
1412

> <i_i_glide_posenum>
325

> <i_i_glide_rotatable_bonds>
6

> <i_m_Source_File_Index>
43

> <b_m_subgroup_collapsed>
0

> <r_i_docking_score>
-6.00163

> <r_i_glide_ecoul>
-3.83499

> <r_i_glide_eff_state_penalty>
0

> <r_i_glide_einternal>
5.35635

> <r_i_glide_emodel>
-57.1809

> <r_i_glide_energy>
-43.4305

> <r_i_glide_erotb>
0.654557

> <r_i_glide_esite>
-0.150395

> <r_i_glide_evdw>
-39.5955

> <r_i_glide_gscore>
-6.00163

> <r_i_glide_hbond>
-0.312045

> <r_i_glide_ligand_efficiency>
-0.222282

> <r_i_glide_ligand_efficiency_ln>
-1.39708

> <r_i_glide_ligand_efficiency_sa>
-0.666847

> <r_i_glide_lipo>
-2.06953

> <r_i_glide_metal>
0

> <r_i_glide_rewards>
-1.56919

> <s_i_glide_gridfile>
wee1_glide-grid

> <s_m_Source_File>
wee1_decoys_glide_SP.sdf

> <s_m_Source_Path>
/Users/zhangxujun/Desktop

> <s_m_entry_id>
318

> <s_m_entry_name>
wee1_decoys_glide_SP.43

> <s_m_subgroup_title>
wee1_decoys_glide_SP

> <s_m_subgroupid>
wee1_decoys_glide_SP


$$$$
