ZINC12401682_4372
                    3D
 Schrodinger Suite 2024-2.
 59 62  0  0  1  0            999 V2000
    0.7527   51.8606   25.3497 C   0  0  0  0  0  0
   -0.3337   51.3926   24.3682 C   0  0  0  0  0  0
   -1.0755   52.5810   23.7321 C   0  0  0  0  0  0
    0.2113   50.0805   23.2143 S   0  0  0  0  0  0
    1.5512   50.7444   22.2644 C   0  0  0  0  0  0
    2.3967   49.9746   21.6212 N   0  0  0  0  0  0
    3.3458   50.6705   20.8814 N   0  0  0  0  0  0
    3.1956   51.9654   20.9696 C   0  0  0  0  0  0
    1.8435   52.4386   21.9678 S   0  0  0  0  0  0
    3.9591   52.9194   20.3075 N   0  0  0  0  0  0
    4.9830   53.5885   21.0177 C   0  0  0  0  0  0
    5.6034   54.6757   20.4603 C   0  0  0  0  0  0
    5.4308   55.0017   18.9608 C   0  0  2  0  0  0
    5.4753   56.0727   18.7508 H   0  0  0  0  0  0
    4.0777   54.4804   18.4859 C   0  0  0  0  0  0
    3.5046   53.4026   19.0643 C   0  0  0  0  0  0
    2.4000   52.7876   18.5065 N   0  0  0  0  0  0
    3.5126   55.0749   17.3158 C   0  0  0  0  0  0
    3.0282   55.5525   16.3805 N   0  0  0  0  0  0
    6.5630   54.3682   18.1509 C   0  0  0  0  0  0
    6.5841   53.2122   17.3771 C   0  0  0  0  0  0
    7.7897   52.9697   16.7217 C   0  0  0  0  0  0
    8.7732   53.9328   16.9324 C   0  0  0  0  0  0
    8.1388   55.1060   18.0632 S   0  0  0  0  0  0
   10.1771   54.0593   16.3262 C   0  0  0  0  0  0
   10.5212   52.8269   15.4559 C   0  0  0  0  0  0
   11.2363   54.1774   17.4422 C   0  0  0  0  0  0
   10.2369   55.3227   15.4393 C   0  0  0  0  0  0
    6.4534   55.5967   21.2443 C   0  0  0  0  0  0
    6.7044   56.7419   20.8679 O   0  0  0  0  0  0
    6.8940   55.1272   22.6353 C   0  0  0  0  0  0
    5.7996   54.3164   23.3411 C   0  0  0  0  0  0
    5.2771   53.1613   22.4741 C   0  0  0  0  0  0
    0.3671   52.6111   26.0407 H   0  0  0  0  0  0
    1.1043   51.0249   25.9542 H   0  0  0  0  0  0
    1.6137   52.2932   24.8416 H   0  0  0  0  0  0
   -1.0802   50.8786   24.9773 H   0  0  0  0  0  0
   -1.6402   53.1308   24.4857 H   0  0  0  0  0  0
   -0.3944   53.2969   23.2814 H   0  0  0  0  0  0
   -1.7847   52.2497   22.9733 H   0  0  0  0  0  0
    2.0212   53.1061   17.6264 H   0  0  0  0  0  0
    2.0489   51.9189   18.8815 H   0  0  0  0  0  0
    5.7359   52.5468   17.2847 H   0  0  0  0  0  0
    7.9294   52.1117   16.0811 H   0  0  0  0  0  0
   11.5208   52.9019   15.0259 H   0  0  0  0  0  0
    9.8206   52.7106   14.6273 H   0  0  0  0  0  0
   10.4864   51.9048   16.0382 H   0  0  0  0  0  0
   11.0602   55.0427   18.0816 H   0  0  0  0  0  0
   11.2267   53.2970   18.0817 H   0  0  0  0  0  0
   12.2441   54.2761   17.0371 H   0  0  0  0  0  0
   10.0442   56.2301   16.0143 H   0  0  0  0  0  0
   11.2127   55.4386   14.9659 H   0  0  0  0  0  0
    9.4895   55.2854   14.6451 H   0  0  0  0  0  0
    7.2328   55.9801   23.2239 H   0  0  0  0  0  0
    7.7672   54.4937   22.4812 H   0  0  0  0  0  0
    4.9673   54.9631   23.6166 H   0  0  0  0  0  0
    6.1842   53.9205   24.2824 H   0  0  0  0  0  0
    4.3647   52.8967   23.0004 H   0  0  0  0  0  0
    5.9053   52.2709   22.4858 H   0  0  0  0  0  0
  1  2  1  0  0  0
  1 34  1  0  0  0
  1 35  1  0  0  0
  1 36  1  0  0  0
  2  3  1  0  0  0
  2  4  1  0  0  0
  2 37  1  0  0  0
  3 38  1  0  0  0
  3 39  1  0  0  0
  3 40  1  0  0  0
  4  5  1  0  0  0
  5  9  1  0  0  0
  5  6  2  0  0  0
  6  7  1  0  0  0
  7  8  2  0  0  0
  8  9  1  0  0  0
  8 10  1  0  0  0
 10 16  1  0  0  0
 10 11  1  0  0  0
 11 33  1  0  0  0
 11 12  2  0  0  0
 12 13  1  0  0  0
 12 29  1  0  0  0
 13 14  1  0  0  0
 13 15  1  0  0  0
 13 20  1  0  0  0
 15 16  2  0  0  0
 15 18  1  0  0  0
 16 17  1  0  0  0
 17 41  1  0  0  0
 17 42  1  0  0  0
 18 19  3  0  0  0
 20 24  1  0  0  0
 20 21  2  0  0  0
 21 22  1  0  0  0
 21 43  1  0  0  0
 22 23  2  0  0  0
 22 44  1  0  0  0
 23 24  1  0  0  0
 23 25  1  0  0  0
 25 26  1  0  0  0
 25 27  1  0  0  0
 25 28  1  0  0  0
 26 45  1  0  0  0
 26 46  1  0  0  0
 26 47  1  0  0  0
 27 48  1  0  0  0
 27 49  1  0  0  0
 27 50  1  0  0  0
 28 51  1  0  0  0
 28 52  1  0  0  0
 28 53  1  0  0  0
 29 30  2  0  0  0
 29 31  1  0  0  0
 31 32  1  0  0  0
 31 54  1  0  0  0
 31 55  1  0  0  0
 32 33  1  0  0  0
 32 56  1  0  0  0
 32 57  1  0  0  0
 33 58  1  0  0  0
 33 59  1  0  0  0
M  END
> <i_i_glide_confnum>
8

> <i_i_glide_lignum>
4373

> <i_i_glide_posenum>
329

> <i_i_glide_rotatable_bonds>
6

> <i_m_Source_File_Index>
2255

> <b_m_subgroup_collapsed>
0

> <r_i_docking_score>
-3.94631

> <r_i_glide_ecoul>
-2.28864

> <r_i_glide_eff_state_penalty>
0

> <r_i_glide_einternal>
3.98257

> <r_i_glide_emodel>
-46.7388

> <r_i_glide_energy>
-39.2436

> <r_i_glide_erotb>
0.25838

> <r_i_glide_esite>
-0.016068

> <r_i_glide_evdw>
-36.9549

> <r_i_glide_gscore>
-3.94631

> <r_i_glide_hbond>
-0.32

> <r_i_glide_ligand_efficiency>
-0.123322

> <r_i_glide_ligand_efficiency_ln>
-0.883686

> <r_i_glide_ligand_efficiency_sa>
-0.391524

> <r_i_glide_lipo>
-1.26222

> <r_i_glide_metal>
0

> <r_i_glide_rewards>
-0.415359

> <s_i_glide_gridfile>
wee1_glide-grid

> <s_m_Source_File>
wee1_decoys_glide_SP.sdf

> <s_m_Source_Path>
/Users/zhangxujun/Desktop

> <s_m_entry_id>
2530

> <s_m_entry_name>
wee1_decoys_glide_SP.2255

> <s_m_subgroup_title>
wee1_decoys_glide_SP

> <s_m_subgroupid>
wee1_decoys_glide_SP


$$$$
