ZINC12037387_1169
                    3D
 Schrodinger Suite 2024-2.
 71 75  0  0  1  0            999 V2000
    7.0503   56.8419   18.0739 C   0  0  0  0  0  0
    6.3824   55.7508   18.8914 C   0  0  0  0  0  0
    6.3084   55.8695   20.2779 C   0  0  0  0  0  0
    5.6854   54.8798   21.0304 C   0  0  0  0  0  0
    5.1039   53.7658   20.4086 C   0  0  0  0  0  0
    5.2110   53.6449   19.0153 C   0  0  0  0  0  0
    5.8358   54.6336   18.2600 C   0  0  0  0  0  0
    4.4151   52.6508   21.1733 C   0  0  0  0  0  0
    4.7048   51.4893   20.8817 O   0  0  0  0  0  0
    3.3756   52.9175   22.0145 N   0  0  0  0  0  0
    3.1230   54.1744   22.7293 C   0  0  0  0  0  0
    3.5123   54.1027   24.2074 C   0  0  0  0  0  0
    2.5065   54.0964   25.1692 C   0  0  0  0  0  0
    2.8177   54.0959   26.5249 C   0  0  0  0  0  0
    4.1424   54.1421   26.9404 C   0  0  0  0  0  0
    5.1632   54.1242   25.9800 C   0  0  0  0  0  0
    4.8476   54.0970   24.6221 C   0  0  0  0  0  0
    4.3479   54.2215   28.3007 O   0  0  0  0  0  0
    5.6098   54.6761   28.7663 C   0  0  0  0  0  0
    2.3486   51.8853   22.2829 C   0  0  0  0  0  0
    1.1388   51.8621   21.3273 C   0  0  0  0  0  0
    1.3444   52.0880   19.9569 C   0  0  0  0  0  0
    0.3319   51.8017   19.0114 C   0  0  0  0  0  0
    0.4873   52.0356   17.6226 C   0  0  0  0  0  0
   -0.5520   51.7247   16.7419 C   0  0  0  0  0  0
   -1.7462   51.1736   17.2059 C   0  0  0  0  0  0
   -1.9320   50.9205   18.5630 C   0  0  0  0  0  0
   -0.8918   51.2326   19.4645 C   0  0  0  0  0  0
   -0.0949   51.3125   21.7381 C   0  0  0  0  0  0
   -0.4512   51.1383   23.1100 N   0  0  0  0  0  0
   -0.4446   52.3204   24.0029 C   0  0  0  0  0  0
   -0.0063   51.9315   25.4226 C   0  0  0  0  0  0
   -0.8883   50.8222   25.9985 C   0  0  0  0  0  0
   -0.9236   49.6254   25.0316 C   0  0  0  0  0  0
   -1.3389   50.0532   23.5996 C   0  0  0  0  0  0
   -0.4204   50.4967   27.2815 O   0  0  0  0  0  0
   -2.7320   50.8774   16.3309 F   0  0  0  0  0  0
    6.7337   56.8140   17.0311 H   0  0  0  0  0  0
    6.7787   57.8273   18.4569 H   0  0  0  0  0  0
    8.1348   56.7473   18.1205 H   0  0  0  0  0  0
    6.7332   56.7256   20.7783 H   0  0  0  0  0  0
    5.6762   55.0035   22.0972 H   0  0  0  0  0  0
    4.8109   52.7772   18.5035 H   0  0  0  0  0  0
    5.8993   54.5265   17.1875 H   0  0  0  0  0  0
    2.0578   54.3983   22.6493 H   0  0  0  0  0  0
    3.5947   55.0342   22.2676 H   0  0  0  0  0  0
    1.4722   54.1468   24.8738 H   0  0  0  0  0  0
    2.0244   54.1103   27.2579 H   0  0  0  0  0  0
    6.2008   54.1210   26.2732 H   0  0  0  0  0  0
    5.6547   54.0554   23.9103 H   0  0  0  0  0  0
    5.5397   54.8968   29.8305 H   0  0  0  0  0  0
    5.9043   55.6027   28.2664 H   0  0  0  0  0  0
    6.3876   53.9221   28.6247 H   0  0  0  0  0  0
    2.8006   50.8937   22.2197 H   0  0  0  0  0  0
    2.0301   51.9627   23.3201 H   0  0  0  0  0  0
    2.2871   52.4586   19.5836 H   0  0  0  0  0  0
    1.4128   52.4547   17.2491 H   0  0  0  0  0  0
   -0.4307   51.9057   15.6834 H   0  0  0  0  0  0
   -2.8548   50.4832   18.9159 H   0  0  0  0  0  0
    0.1724   53.1062   23.5711 H   0  0  0  0  0  0
   -1.4585   52.7254   24.0081 H   0  0  0  0  0  0
    1.0314   51.5895   25.3867 H   0  0  0  0  0  0
   -0.0232   52.7989   26.0832 H   0  0  0  0  0  0
   -1.9051   51.2139   26.0750 H   0  0  0  0  0  0
   -1.5867   48.8495   25.4176 H   0  0  0  0  0  0
    0.0710   49.1768   24.9805 H   0  0  0  0  0  0
   -2.3684   50.4142   23.5697 H   0  0  0  0  0  0
   -1.2691   49.2051   22.9147 H   0  0  0  0  0  0
   -0.8963   49.7233   27.6363 H   0  0  0  0  0  0
   -1.0231   51.0055   20.8106 N   0  3  0  0  0  0
   -1.8890   50.6102   21.1419 H   0  0  0  0  0  0
  1  2  1  0  0  0
  1 38  1  0  0  0
  1 39  1  0  0  0
  1 40  1  0  0  0
  2  7  2  0  0  0
  2  3  1  0  0  0
  3  4  2  0  0  0
  3 41  1  0  0  0
  4  5  1  0  0  0
  4 42  1  0  0  0
  5  6  2  0  0  0
  5  8  1  0  0  0
  6  7  1  0  0  0
  6 43  1  0  0  0
  7 44  1  0  0  0
  8  9  2  0  0  0
  8 10  1  0  0  0
 10 11  1  0  0  0
 10 20  1  0  0  0
 11 12  1  0  0  0
 11 45  1  0  0  0
 11 46  1  0  0  0
 12 17  2  0  0  0
 12 13  1  0  0  0
 13 14  2  0  0  0
 13 47  1  0  0  0
 14 15  1  0  0  0
 14 48  1  0  0  0
 15 16  2  0  0  0
 15 18  1  0  0  0
 16 17  1  0  0  0
 16 49  1  0  0  0
 17 50  1  0  0  0
 18 19  1  0  0  0
 19 51  1  0  0  0
 19 52  1  0  0  0
 19 53  1  0  0  0
 20 21  1  0  0  0
 20 54  1  0  0  0
 20 55  1  0  0  0
 21 29  2  0  0  0
 21 22  1  0  0  0
 22 23  2  0  0  0
 22 56  1  0  0  0
 23 28  1  0  0  0
 23 24  1  0  0  0
 24 25  2  0  0  0
 24 57  1  0  0  0
 25 26  1  0  0  0
 25 58  1  0  0  0
 26 27  2  0  0  0
 26 37  1  0  0  0
 27 28  1  0  0  0
 27 59  1  0  0  0
 28 70  2  0  0  0
 29 30  1  0  0  0
 29 70  1  0  0  0
 30 35  1  0  0  0
 30 31  1  0  0  0
 31 32  1  0  0  0
 31 60  1  0  0  0
 31 61  1  0  0  0
 32 33  1  0  0  0
 32 62  1  0  0  0
 32 63  1  0  0  0
 33 34  1  0  0  0
 33 36  1  0  0  0
 33 64  1  0  0  0
 34 35  1  0  0  0
 34 65  1  0  0  0
 34 66  1  0  0  0
 35 67  1  0  0  0
 35 68  1  0  0  0
 36 69  1  0  0  0
 70 71  1  0  0  0
M  CHG  1  70   1
M  END
> <i_i_glide_confnum>
174

> <i_i_glide_lignum>
1170

> <i_i_glide_posenum>
94

> <i_i_glide_rotatable_bonds>
9

> <i_m_Source_File_Index>
5046

> <b_m_subgroup_collapsed>
0

> <r_i_docking_score>
-4.9119

> <r_i_glide_ecoul>
-8.16616

> <r_i_glide_eff_state_penalty>
0

> <r_i_glide_einternal>
8.5588

> <r_i_glide_emodel>
-56.3801

> <r_i_glide_energy>
-46.1995

> <r_i_glide_erotb>
0.542233

> <r_i_glide_esite>
-0.00245141

> <r_i_glide_evdw>
-38.0333

> <r_i_glide_gscore>
-4.9119

> <r_i_glide_hbond>
-0.16

> <r_i_glide_ligand_efficiency>
-0.129261

> <r_i_glide_ligand_efficiency_ln>
-1.05915

> <r_i_glide_ligand_efficiency_sa>
-0.434571

> <r_i_glide_lipo>
-2.03716

> <r_i_glide_metal>
0

> <r_i_glide_rewards>
-0.127935

> <s_i_glide_gridfile>
wee1_glide-grid

> <s_m_Source_File>
wee1_decoys_glide_SP.sdf

> <s_m_Source_Path>
/Users/zhangxujun/Desktop

> <s_m_entry_id>
5321

> <s_m_entry_name>
wee1_decoys_glide_SP.5046

> <s_m_subgroup_title>
wee1_decoys_glide_SP

> <s_m_subgroupid>
wee1_decoys_glide_SP


$$$$
