ZINC12710873_2398
                    3D
 Schrodinger Suite 2024-2.
 50 54  0  0  1  0            999 V2000
    6.7374   56.5040   19.8790 C   0  0  0  0  0  0
    6.7037   55.8128   21.0960 C   0  0  0  0  0  0
    5.8588   54.7034   21.1061 C   0  0  0  0  0  0
    5.0951   54.5508   19.5394 S   0  0  0  0  0  0
    5.9034   55.9487   18.9303 C   0  0  0  0  0  0
    5.6093   53.7146   22.2379 C   0  0  0  0  0  0
    4.1994   53.3096   22.3981 N   0  0  0  0  0  0
    3.3599   54.2644   23.1639 C   0  0  0  0  0  0
    3.3625   54.0753   24.6923 C   0  0  0  0  0  0
    2.3202   53.4788   25.3314 C   0  0  0  0  0  0
    2.3024   53.2966   26.7982 C   0  0  0  0  0  0
    1.2279   52.7096   27.4872 C   0  0  0  0  0  0
    1.3332   52.6213   28.8744 C   0  0  0  0  0  0
    2.4409   53.0619   29.5484 C   0  0  0  0  0  0
    3.5270   53.6338   28.8941 C   0  0  0  0  0  0
    3.4399   53.7545   27.5012 C   0  0  0  0  0  0
    4.4718   54.3692   26.7845 N   0  0  0  0  0  0
    5.2679   54.7454   27.2717 H   0  0  0  0  0  0
    4.5012   54.6192   25.4582 C   0  0  0  0  0  0
    5.4326   55.2957   25.0323 O   0  0  0  0  0  0
    2.2818   52.8204   30.8763 O   0  0  0  0  0  0
    0.9271   52.4897   31.0297 C   0  0  0  0  0  0
    0.4500   52.0998   29.7676 O   0  0  0  0  0  0
    3.7387   52.2375   21.6817 C   0  0  0  0  0  0
    4.4869   51.5604   20.9726 O   0  0  0  0  0  0
    2.4405   51.9159   21.8796 N   0  0  0  0  0  0
    1.7337   50.8133   21.3624 C   0  0  0  0  0  0
    2.0706   50.1586   20.1646 C   0  0  0  0  0  0
    1.3208   49.0684   19.7327 C   0  0  0  0  0  0
    0.2288   48.6394   20.4820 C   0  0  0  0  0  0
   -0.1243   49.2956   21.6587 C   0  0  0  0  0  0
    0.6255   50.3842   22.0971 C   0  0  0  0  0  0
   -0.4941   47.5749   20.0672 F   0  0  0  0  0  0
    7.3477   57.3717   19.6817 H   0  0  0  0  0  0
    7.2959   56.0963   21.9546 H   0  0  0  0  0  0
    5.7360   56.2778   17.9149 H   0  0  0  0  0  0
    6.0083   54.0871   23.1739 H   0  0  0  0  0  0
    6.2013   52.8145   22.0818 H   0  0  0  0  0  0
    3.6498   55.2857   22.9202 H   0  0  0  0  0  0
    2.3257   54.2203   22.8199 H   0  0  0  0  0  0
    1.4859   53.1101   24.7520 H   0  0  0  0  0  0
    0.3540   52.3462   26.9662 H   0  0  0  0  0  0
    4.3971   53.9762   29.4334 H   0  0  0  0  0  0
    0.7876   51.7131   31.7854 H   0  0  0  0  0  0
    0.3693   53.3662   31.3675 H   0  0  0  0  0  0
    1.9361   52.4826   22.5410 H   0  0  0  0  0  0
    2.9010   50.4784   19.5501 H   0  0  0  0  0  0
    1.5877   48.5610   18.8169 H   0  0  0  0  0  0
   -0.9737   48.9543   22.2313 H   0  0  0  0  0  0
    0.3482   50.8783   23.0170 H   0  0  0  0  0  0
  1  5  2  0  0  0
  1  2  1  0  0  0
  1 34  1  0  0  0
  2  3  2  0  0  0
  2 35  1  0  0  0
  3  4  1  0  0  0
  3  6  1  0  0  0
  4  5  1  0  0  0
  5 36  1  0  0  0
  6  7  1  0  0  0
  6 37  1  0  0  0
  6 38  1  0  0  0
  7  8  1  0  0  0
  7 24  1  0  0  0
  8  9  1  0  0  0
  8 39  1  0  0  0
  8 40  1  0  0  0
  9 19  1  0  0  0
  9 10  2  0  0  0
 10 11  1  0  0  0
 10 41  1  0  0  0
 11 16  2  0  0  0
 11 12  1  0  0  0
 12 13  2  0  0  0
 12 42  1  0  0  0
 13 23  1  0  0  0
 13 14  1  0  0  0
 14 15  2  0  0  0
 14 21  1  0  0  0
 15 16  1  0  0  0
 15 43  1  0  0  0
 16 17  1  0  0  0
 17 18  1  0  0  0
 17 19  1  0  0  0
 19 20  2  0  0  0
 21 22  1  0  0  0
 22 23  1  0  0  0
 22 44  1  0  0  0
 22 45  1  0  0  0
 24 25  2  0  0  0
 24 26  1  0  0  0
 26 27  1  0  0  0
 26 46  1  0  0  0
 27 32  2  0  0  0
 27 28  1  0  0  0
 28 29  2  0  0  0
 28 47  1  0  0  0
 29 30  1  0  0  0
 29 48  1  0  0  0
 30 31  2  0  0  0
 30 33  1  0  0  0
 31 32  1  0  0  0
 31 49  1  0  0  0
 32 50  1  0  0  0
M  END
> <i_i_glide_confnum>
24

> <i_i_glide_lignum>
2399

> <i_i_glide_posenum>
183

> <i_i_glide_rotatable_bonds>
7

> <i_m_Source_File_Index>
1453

> <b_m_subgroup_collapsed>
0

> <r_i_docking_score>
-5.67548

> <r_i_glide_ecoul>
-3.10964

> <r_i_glide_eff_state_penalty>
0

> <r_i_glide_einternal>
5.50846

> <r_i_glide_emodel>
-62.8562

> <r_i_glide_energy>
-48.0419

> <r_i_glide_erotb>
0.393617

> <r_i_glide_esite>
-0.0653004

> <r_i_glide_evdw>
-44.9323

> <r_i_glide_gscore>
-5.67548

> <r_i_glide_hbond>
-0.201477

> <r_i_glide_ligand_efficiency>
-0.177359

> <r_i_glide_ligand_efficiency_ln>
-1.2709

> <r_i_glide_ligand_efficiency_sa>
-0.563079

> <r_i_glide_lipo>
-2.68928

> <r_i_glide_metal>
0

> <r_i_glide_rewards>
-0.399985

> <s_i_glide_gridfile>
wee1_glide-grid

> <s_m_Source_File>
wee1_decoys_glide_SP.sdf

> <s_m_Source_Path>
/Users/zhangxujun/Desktop

> <s_m_entry_id>
1728

> <s_m_entry_name>
wee1_decoys_glide_SP.1453

> <s_m_subgroup_title>
wee1_decoys_glide_SP

> <s_m_subgroupid>
wee1_decoys_glide_SP


$$$$
