ZINC36507945_5753
                    3D
 Schrodinger Suite 2024-2.
 84 86  0  0  1  0            999 V2000
    5.6492   53.3859   27.4803 C   0  0  0  0  0  0
    4.4099   54.2835   27.4205 C   0  0  0  0  0  0
    4.0669   54.7790   26.0026 C   0  0  0  0  0  0
    3.2497   53.8062   25.1234 C   0  0  0  0  0  0
    2.6328   54.5328   23.9134 C   0  0  0  0  0  0
    1.9046   53.6714   22.8530 C   0  0  0  0  0  0
    2.6135   52.5320   22.1939 N   0  0  0  0  0  0
    2.0027   51.1365   22.2817 C   0  0  1  0  0  0
    2.6807   50.6209   22.9611 H   0  0  0  0  0  0
    0.6501   51.0548   23.0104 C   0  0  0  0  0  0
    0.6125   50.4239   24.2611 C   0  0  0  0  0  0
   -0.5738   50.3044   24.9822 C   0  0  0  0  0  0
   -1.7576   50.8062   24.4515 C   0  0  0  0  0  0
   -1.7547   51.4067   23.1950 C   0  0  0  0  0  0
   -0.5692   51.5225   22.4618 C   0  0  0  0  0  0
   -0.6588   52.1414   21.0721 C   0  0  0  0  0  0
    2.0148   50.2441   20.9810 C   0  0  0  0  0  0
    2.8767   50.3911   20.1228 O   0  0  0  0  0  0
    1.0280   49.3303   20.8400 N   0  0  0  0  0  0
    0.7631   48.4462   19.6989 C   0  0  0  0  0  0
   -0.5513   47.6924   19.9958 C   0  0  0  0  0  0
    1.9035   47.4250   19.5300 C   0  0  0  0  0  0
    0.5704   49.2344   18.3781 C   0  0  0  0  0  0
    3.8998   52.7023   21.7349 C   0  0  0  0  0  0
    4.7041   51.7747   21.6199 O   0  0  0  0  0  0
    4.4357   54.0980   21.3014 C   0  0  1  0  0  0
    3.6684   54.8705   21.3445 H   0  0  0  0  0  0
    5.6761   54.4963   22.1372 C   0  0  0  0  0  0
    6.4434   55.4567   21.2515 C   0  0  0  0  0  0
    6.2647   54.8393   19.8741 C   0  0  0  0  0  0
    4.9578   54.1669   19.9123 N   0  0  0  0  0  0
    4.2932   53.6707   18.7778 C   0  0  0  0  0  0
    3.1376   53.2432   18.7539 O   0  0  0  0  0  0
    5.1060   53.6949   17.6957 O   0  0  0  0  0  0
    4.7564   53.0043   16.4990 C   0  0  0  0  0  0
    5.9951   52.6687   15.6723 C   0  0  0  0  0  0
    5.8592   52.4886   14.2940 C   0  0  0  0  0  0
    6.9664   52.1462   13.5210 C   0  0  0  0  0  0
    8.2094   51.9810   14.1305 C   0  0  0  0  0  0
    8.3539   52.1535   15.5047 C   0  0  0  0  0  0
    7.2475   52.4968   16.2769 C   0  0  0  0  0  0
    5.8574   53.0686   28.5006 H   0  0  0  0  0  0
    5.5027   52.4967   26.8797 H   0  0  0  0  0  0
    6.5338   53.9002   27.1076 H   0  0  0  0  0  0
    4.5889   55.1466   28.0636 H   0  0  0  0  0  0
    3.5528   53.7666   27.8557 H   0  0  0  0  0  0
    4.9781   55.0736   25.4816 H   0  0  0  0  0  0
    3.5044   55.6972   26.1111 H   0  0  0  0  0  0
    2.4540   53.3421   25.7070 H   0  0  0  0  0  0
    3.8980   52.9981   24.7898 H   0  0  0  0  0  0
    3.3692   55.1756   23.4507 H   0  0  0  0  0  0
    1.9020   55.2594   24.2656 H   0  0  0  0  0  0
    1.5215   54.3314   22.0818 H   0  0  0  0  0  0
    1.0130   53.3271   23.3637 H   0  0  0  0  0  0
    1.5044   49.9952   24.6847 H   0  0  0  0  0  0
   -0.5781   49.8168   25.9465 H   0  0  0  0  0  0
   -2.6772   50.7138   25.0086 H   0  0  0  0  0  0
   -2.6883   51.7663   22.7906 H   0  0  0  0  0  0
    0.1108   52.8950   20.9146 H   0  0  0  0  0  0
   -0.5392   51.3900   20.2960 H   0  0  0  0  0  0
   -1.6233   52.6193   20.9078 H   0  0  0  0  0  0
    0.3565   49.2741   21.5917 H   0  0  0  0  0  0
   -1.3884   48.3830   20.1083 H   0  0  0  0  0  0
   -0.8113   47.0057   19.1883 H   0  0  0  0  0  0
   -0.4953   47.1049   20.9132 H   0  0  0  0  0  0
    2.8293   47.9060   19.2110 H   0  0  0  0  0  0
    2.1165   46.9095   20.4680 H   0  0  0  0  0  0
    1.6626   46.6745   18.7739 H   0  0  0  0  0  0
    1.4714   49.7757   18.0855 H   0  0  0  0  0  0
    0.3280   48.5689   17.5484 H   0  0  0  0  0  0
   -0.2367   49.9620   18.4558 H   0  0  0  0  0  0
    5.4554   54.9271   23.1086 H   0  0  0  0  0  0
    6.3041   53.6293   22.3387 H   0  0  0  0  0  0
    5.9632   56.4355   21.2815 H   0  0  0  0  0  0
    7.4867   55.5808   21.5401 H   0  0  0  0  0  0
    6.3254   55.6001   19.0937 H   0  0  0  0  0  0
    7.0382   54.0974   19.6791 H   0  0  0  0  0  0
    4.2385   52.0711   16.7275 H   0  0  0  0  0  0
    4.0791   53.6314   15.9166 H   0  0  0  0  0  0
    4.8946   52.6046   13.8203 H   0  0  0  0  0  0
    6.8615   52.0025   12.4552 H   0  0  0  0  0  0
    9.0670   51.7104   13.5319 H   0  0  0  0  0  0
    9.3190   52.0118   15.9731 H   0  0  0  0  0  0
    7.3626   52.6082   17.3455 H   0  0  0  0  0  0
  1  2  1  0  0  0
  1 42  1  0  0  0
  1 43  1  0  0  0
  1 44  1  0  0  0
  2  3  1  0  0  0
  2 45  1  0  0  0
  2 46  1  0  0  0
  3  4  1  0  0  0
  3 47  1  0  0  0
  3 48  1  0  0  0
  4  5  1  0  0  0
  4 49  1  0  0  0
  4 50  1  0  0  0
  5  6  1  0  0  0
  5 51  1  0  0  0
  5 52  1  0  0  0
  6  7  1  0  0  0
  6 53  1  0  0  0
  6 54  1  0  0  0
  7  8  1  0  0  0
  7 24  1  0  0  0
  8  9  1  0  0  0
  8 10  1  0  0  0
  8 17  1  0  0  0
 10 15  2  0  0  0
 10 11  1  0  0  0
 11 12  2  0  0  0
 11 55  1  0  0  0
 12 13  1  0  0  0
 12 56  1  0  0  0
 13 14  2  0  0  0
 13 57  1  0  0  0
 14 15  1  0  0  0
 14 58  1  0  0  0
 15 16  1  0  0  0
 16 59  1  0  0  0
 16 60  1  0  0  0
 16 61  1  0  0  0
 17 18  2  0  0  0
 17 19  1  0  0  0
 19 20  1  0  0  0
 19 62  1  0  0  0
 20 21  1  0  0  0
 20 22  1  0  0  0
 20 23  1  0  0  0
 21 63  1  0  0  0
 21 64  1  0  0  0
 21 65  1  0  0  0
 22 66  1  0  0  0
 22 67  1  0  0  0
 22 68  1  0  0  0
 23 69  1  0  0  0
 23 70  1  0  0  0
 23 71  1  0  0  0
 24 25  2  0  0  0
 24 26  1  0  0  0
 26 27  1  0  0  0
 26 31  1  0  0  0
 26 28  1  0  0  0
 28 29  1  0  0  0
 28 72  1  0  0  0
 28 73  1  0  0  0
 29 30  1  0  0  0
 29 74  1  0  0  0
 29 75  1  0  0  0
 30 31  1  0  0  0
 30 76  1  0  0  0
 30 77  1  0  0  0
 31 32  1  0  0  0
 32 33  2  0  0  0
 32 34  1  0  0  0
 34 35  1  0  0  0
 35 36  1  0  0  0
 35 78  1  0  0  0
 35 79  1  0  0  0
 36 41  2  0  0  0
 36 37  1  0  0  0
 37 38  2  0  0  0
 37 80  1  0  0  0
 38 39  1  0  0  0
 38 81  1  0  0  0
 39 40  2  0  0  0
 39 82  1  0  0  0
 40 41  1  0  0  0
 40 83  1  0  0  0
 41 84  1  0  0  0
M  END
> <i_i_glide_confnum>
484

> <i_i_glide_lignum>
5754

> <i_i_glide_posenum>
145

> <i_i_glide_rotatable_bonds>
16

> <i_m_Source_File_Index>
3502

> <b_m_subgroup_collapsed>
0

> <r_i_docking_score>
-3.22464

> <r_i_glide_ecoul>
0.656791

> <r_i_glide_eff_state_penalty>
0

> <r_i_glide_einternal>
10.3162

> <r_i_glide_emodel>
-41.4029

> <r_i_glide_energy>
-39.0357

> <r_i_glide_erotb>
0.935211

> <r_i_glide_esite>
-0.0307444

> <r_i_glide_evdw>
-39.6924

> <r_i_glide_gscore>
-3.22464

> <r_i_glide_hbond>
0

> <r_i_glide_ligand_efficiency>
-0.082683

> <r_i_glide_ligand_efficiency_ln>
-0.691454

> <r_i_glide_ligand_efficiency_sa>
-0.280396

> <r_i_glide_lipo>
-2.1755

> <r_i_glide_metal>
0

> <r_i_glide_rewards>
-0.0675037

> <s_i_glide_gridfile>
wee1_glide-grid

> <s_m_Source_File>
wee1_decoys_glide_SP.sdf

> <s_m_Source_Path>
/Users/zhangxujun/Desktop

> <s_m_entry_id>
3777

> <s_m_entry_name>
wee1_decoys_glide_SP.3502

> <s_m_subgroup_title>
wee1_decoys_glide_SP

> <s_m_subgroupid>
wee1_decoys_glide_SP


$$$$
