ZINC13262025_1935
                    3D
 Schrodinger Suite 2024-2.
 35 36  0  0  1  0            999 V2000
    2.9375   50.3093   19.7665 C   0  0  0  0  0  0
    2.3559   50.3016   21.0675 O   0  0  0  0  0  0
    1.2318   49.5860   21.3213 C   0  0  0  0  0  0
    0.7122   48.8433   20.4828 O   0  0  0  0  0  0
    0.7281   49.6971   22.7460 C   0  0  0  0  0  0
   -0.1863   48.7142   23.1622 C   0  0  0  0  0  0
   -0.6987   48.6849   24.4536 C   0  0  0  0  0  0
   -0.3449   49.6811   25.3554 C   0  0  0  0  0  0
    0.5065   50.7077   24.9504 C   0  0  0  0  0  0
    1.0505   50.7352   23.6587 C   0  0  0  0  0  0
    1.9039   51.7857   23.2842 N   0  0  0  0  0  0
    1.7404   53.4734   23.7833 S   0  0  0  0  0  0
    0.3231   53.6964   24.0854 O   0  0  0  0  0  0
    2.4133   54.2502   22.7389 O   0  0  0  0  0  0
    2.7125   53.7034   25.2795 C   0  0  0  0  0  0
    4.0755   53.9693   25.1595 C   0  0  0  0  0  0
    4.8443   54.2102   26.2942 C   0  0  0  0  0  0
    4.2578   54.2174   27.5595 C   0  0  0  0  0  0
    2.8770   53.9708   27.7067 C   0  0  0  0  0  0
    2.1241   53.6967   26.5488 C   0  0  0  0  0  0
    2.1951   54.0381   29.0442 C   0  0  0  0  0  0
    0.9397   54.0389   29.0530 O   0  0  0  0  0  0
    5.0585   54.4948   28.6173 F   0  0  0  0  0  0
   -1.8696   47.2732   24.9653 Br  0  0  0  0  0  0
    3.8525   50.8988   19.7756 H   0  0  0  0  0  0
    3.1834   49.2995   19.4282 H   0  0  0  0  0  0
    2.2546   50.7536   19.0393 H   0  0  0  0  0  0
   -0.4970   47.9252   22.4935 H   0  0  0  0  0  0
   -0.7355   49.6579   26.3662 H   0  0  0  0  0  0
    0.7517   51.4756   25.6641 H   0  0  0  0  0  0
    2.5683   51.5947   22.5450 H   0  0  0  0  0  0
    4.5492   53.9911   24.1874 H   0  0  0  0  0  0
    5.9027   54.4076   26.1944 H   0  0  0  0  0  0
    1.0603   53.5242   26.6279 H   0  0  0  0  0  0
    2.8968   54.0952   30.0815 O   0  5  0  0  0  0
  1  2  1  0  0  0
  1 25  1  0  0  0
  1 26  1  0  0  0
  1 27  1  0  0  0
  2  3  1  0  0  0
  3  4  2  0  0  0
  3  5  1  0  0  0
  5 10  2  0  0  0
  5  6  1  0  0  0
  6  7  2  0  0  0
  6 28  1  0  0  0
  7  8  1  0  0  0
  7 24  1  0  0  0
  8  9  2  0  0  0
  8 29  1  0  0  0
  9 10  1  0  0  0
  9 30  1  0  0  0
 10 11  1  0  0  0
 11 12  1  0  0  0
 11 31  1  0  0  0
 12 13  2  0  0  0
 12 14  2  0  0  0
 12 15  1  0  0  0
 15 20  2  0  0  0
 15 16  1  0  0  0
 16 17  2  0  0  0
 16 32  1  0  0  0
 17 18  1  0  0  0
 17 33  1  0  0  0
 18 19  2  0  0  0
 18 23  1  0  0  0
 19 20  1  0  0  0
 19 21  1  0  0  0
 20 34  1  0  0  0
 21 22  2  0  0  0
 21 35  1  0  0  0
M  CHG  1  35  -1
M  END
> <i_i_glide_confnum>
61

> <i_i_glide_lignum>
1936

> <i_i_glide_posenum>
204

> <i_i_glide_rotatable_bonds>
6

> <i_m_Source_File_Index>
4591

> <b_m_subgroup_collapsed>
0

> <r_i_docking_score>
-4.87972

> <r_i_glide_ecoul>
-4.28078

> <r_i_glide_eff_state_penalty>
0

> <r_i_glide_einternal>
7.89967

> <r_i_glide_emodel>
-50.278

> <r_i_glide_energy>
-37.7917

> <r_i_glide_erotb>
0.427827

> <r_i_glide_esite>
0

> <r_i_glide_evdw>
-33.5109

> <r_i_glide_gscore>
-4.87972

> <r_i_glide_hbond>
-0.16

> <r_i_glide_ligand_efficiency>
-0.195189

> <r_i_glide_ligand_efficiency_ln>
-1.15664

> <r_i_glide_ligand_efficiency_sa>
-0.570736

> <r_i_glide_lipo>
-1.45496

> <r_i_glide_metal>
0

> <r_i_glide_rewards>
-1.37493

> <s_i_glide_gridfile>
wee1_glide-grid

> <s_m_Source_File>
wee1_decoys_glide_SP.sdf

> <s_m_Source_Path>
/Users/zhangxujun/Desktop

> <s_m_entry_id>
4866

> <s_m_entry_name>
wee1_decoys_glide_SP.4591

> <s_m_subgroup_title>
wee1_decoys_glide_SP

> <s_m_subgroupid>
wee1_decoys_glide_SP


$$$$
