ZINC20159521_2967
                    3D
 Schrodinger Suite 2024-2.
 52 54  0  0  1  0            999 V2000
    4.4509   53.6359   21.8999 C   0  0  0  0  0  0
    5.6955   54.4996   22.1998 C   0  0  0  0  0  0
    6.1195   54.7860   23.3802 N   0  0  0  0  0  0
    5.3564   54.4025   24.4214 N   0  0  0  0  0  0
    5.6593   54.6709   25.7044 C   0  0  0  0  0  0
    6.6846   55.2500   26.0830 O   0  0  0  0  0  0
    4.6621   54.1977   26.6365 C   0  0  0  0  0  0
    4.8701   54.1479   28.0065 C   0  0  0  0  0  0
    3.7799   53.6241   28.6586 N   0  0  0  0  0  0
    2.8134   53.2962   27.7288 C   0  0  0  0  0  0
    3.3128   53.6964   26.4466 C   0  0  0  0  0  0
    2.4707   53.5151   25.3301 C   0  0  0  0  0  0
    1.2326   52.8970   25.4923 C   0  0  0  0  0  0
    0.7907   52.4958   26.7469 C   0  0  0  0  0  0
    1.5571   52.6953   27.8925 C   0  0  0  0  0  0
    3.7063   53.3630   30.0840 C   0  0  0  0  0  0
    6.4088   55.0494   21.0116 C   0  0  0  0  0  0
    5.9022   54.9308   19.7041 C   0  0  0  0  0  0
    6.6316   55.3752   18.6021 C   0  0  0  0  0  0
    7.8804   55.9660   18.7821 C   0  0  0  0  0  0
    8.3992   56.0960   20.0717 C   0  0  0  0  0  0
    7.6615   55.6688   21.1652 C   0  0  0  0  0  0
    8.5998   56.3476   17.6379 N   0  0  0  0  0  0
    9.4755   57.3747   17.5218 C   0  0  0  0  0  0
    9.6714   58.2086   18.4112 O   0  0  0  0  0  0
   10.2546   57.4890   16.1887 C   0  0  0  0  0  0
   11.7037   56.9102   16.2861 C   0  0  0  0  0  0
   12.6955   57.7269   17.1666 C   0  0  0  0  0  0
   13.9377   57.2515   17.0556 F   0  0  0  0  0  0
   12.3915   57.6961   18.4639 F   0  0  0  0  0  0
   12.7367   59.0139   16.8155 F   0  0  0  0  0  0
   12.2105   56.8652   15.0516 F   0  0  0  0  0  0
   11.6747   55.6430   16.7185 F   0  0  0  0  0  0
   10.2652   58.7765   15.8246 F   0  0  0  0  0  0
    9.5749   56.8259   15.2425 F   0  0  0  0  0  0
    3.5963   54.2665   21.6476 H   0  0  0  0  0  0
    4.6247   52.9488   21.0701 H   0  0  0  0  0  0
    4.1433   53.0085   22.7345 H   0  0  0  0  0  0
    4.5144   53.9032   24.1848 H   0  0  0  0  0  0
    5.7442   54.4343   28.5779 H   0  0  0  0  0  0
    2.7668   53.8281   24.3435 H   0  0  0  0  0  0
    0.5989   52.7360   24.6322 H   0  0  0  0  0  0
   -0.1772   52.0208   26.8345 H   0  0  0  0  0  0
    1.1867   52.3851   28.8588 H   0  0  0  0  0  0
    2.6715   53.4473   30.4197 H   0  0  0  0  0  0
    4.0780   52.3577   30.2859 H   0  0  0  0  0  0
    4.3044   54.0966   30.6230 H   0  0  0  0  0  0
    4.9402   54.4829   19.5069 H   0  0  0  0  0  0
    6.2173   55.2551   17.6117 H   0  0  0  0  0  0
    9.3885   56.4970   20.2371 H   0  0  0  0  0  0
    8.1127   55.7786   22.1385 H   0  0  0  0  0  0
    8.3723   55.8448   16.7903 H   0  0  0  0  0  0
  1  2  1  0  0  0
  1 36  1  0  0  0
  1 37  1  0  0  0
  1 38  1  0  0  0
  2  3  2  0  0  0
  2 17  1  0  0  0
  3  4  1  0  0  0
  4  5  1  0  0  0
  4 39  1  0  0  0
  5  6  2  0  0  0
  5  7  1  0  0  0
  7 11  1  0  0  0
  7  8  2  0  0  0
  8  9  1  0  0  0
  8 40  1  0  0  0
  9 10  1  0  0  0
  9 16  1  0  0  0
 10 15  2  0  0  0
 10 11  1  0  0  0
 11 12  2  0  0  0
 12 13  1  0  0  0
 12 41  1  0  0  0
 13 14  2  0  0  0
 13 42  1  0  0  0
 14 15  1  0  0  0
 14 43  1  0  0  0
 15 44  1  0  0  0
 16 45  1  0  0  0
 16 46  1  0  0  0
 16 47  1  0  0  0
 17 22  2  0  0  0
 17 18  1  0  0  0
 18 19  2  0  0  0
 18 48  1  0  0  0
 19 20  1  0  0  0
 19 49  1  0  0  0
 20 21  2  0  0  0
 20 23  1  0  0  0
 21 22  1  0  0  0
 21 50  1  0  0  0
 22 51  1  0  0  0
 23 24  1  0  0  0
 23 52  1  0  0  0
 24 25  2  0  0  0
 24 26  1  0  0  0
 26 27  1  0  0  0
 26 34  1  0  0  0
 26 35  1  0  0  0
 27 28  1  0  0  0
 27 32  1  0  0  0
 27 33  1  0  0  0
 28 29  1  0  0  0
 28 30  1  0  0  0
 28 31  1  0  0  0
M  END
> <i_i_glide_confnum>
183

> <i_i_glide_lignum>
2968

> <i_i_glide_posenum>
163

> <i_i_glide_rotatable_bonds>
9

> <i_m_Source_File_Index>
4363

> <b_m_subgroup_collapsed>
0

> <r_i_docking_score>
-5.56445

> <r_i_glide_ecoul>
-3.19873

> <r_i_glide_eff_state_penalty>
0

> <r_i_glide_einternal>
9.44504

> <r_i_glide_emodel>
-54.2358

> <r_i_glide_energy>
-42.0188

> <r_i_glide_erotb>
0.647658

> <r_i_glide_esite>
-0.0453475

> <r_i_glide_evdw>
-38.82

> <r_i_glide_gscore>
-5.56445

> <r_i_glide_hbond>
-0.32

> <r_i_glide_ligand_efficiency>
-0.158984

> <r_i_glide_ligand_efficiency_ln>
-1.22152

> <r_i_glide_ligand_efficiency_sa>
-0.520048

> <r_i_glide_lipo>
-2.46785

> <r_i_glide_metal>
0

> <r_i_glide_rewards>
-0.958099

> <s_i_glide_gridfile>
wee1_glide-grid

> <s_m_Source_File>
wee1_decoys_glide_SP.sdf

> <s_m_Source_Path>
/Users/zhangxujun/Desktop

> <s_m_entry_id>
4638

> <s_m_entry_name>
wee1_decoys_glide_SP.4363

> <s_m_subgroup_title>
wee1_decoys_glide_SP

> <s_m_subgroupid>
wee1_decoys_glide_SP


$$$$
