ZINC17082738_6187
                    3D
 Schrodinger Suite 2024-2.
 58 60  0  0  1  0            999 V2000
    9.5647   50.7763   13.7173 C   0  0  0  0  0  0
    8.0315   50.7592   13.5509 C   0  0  0  0  0  0
    7.3101   51.7015   14.4283 N   0  0  0  0  0  0
    7.5278   52.0967   15.7422 C   0  0  0  0  0  0
    6.5321   53.0336   16.0237 C   0  0  0  0  0  0
    5.7903   53.0937   14.8385 C   0  0  0  0  0  0
    6.2325   52.2972   13.9013 N   0  0  0  0  0  0
    6.3476   53.8633   17.2835 C   0  0  0  0  0  0
    3.8593   53.2348   17.5432 C   0  0  0  0  0  0
    5.2173   54.1371   19.4844 C   0  0  0  0  0  0
    4.5276   53.4289   20.6680 C   0  0  0  0  0  0
    4.0233   52.3131   20.5488 O   0  0  0  0  0  0
    4.5692   54.1292   21.8201 N   0  0  0  0  0  0
    3.9616   53.8089   23.0333 C   0  0  0  0  0  0
    4.4400   54.0977   24.3369 C   0  0  0  0  0  0
    3.4512   53.7966   25.3216 C   0  0  0  0  0  0
    2.3137   53.1746   24.7732 C   0  0  0  0  0  0
    2.3788   53.0779   23.0512 S   0  0  0  0  0  0
    1.1160   52.6503   25.5598 C   0  0  0  0  0  0
    1.4637   52.6086   27.0692 C   0  0  1  0  0  0
    2.1200   51.7584   27.2655 H   0  0  0  0  0  0
    2.1570   53.9160   27.4894 C   0  0  0  0  0  0
    3.5473   54.0617   26.8339 C   0  0  0  0  0  0
    0.1932   52.3581   27.8998 C   0  0  0  0  0  0
    5.7473   54.6869   24.6464 C   0  0  0  0  0  0
    5.9899   55.2991   25.6816 O   0  0  0  0  0  0
    6.7049   54.5096   23.7356 N   0  0  0  0  0  0
    8.6509   51.5816   16.6210 C   0  0  0  0  0  0
   10.0448   50.2470   12.8932 H   0  0  0  0  0  0
    9.9628   51.7926   13.7231 H   0  0  0  0  0  0
    9.8862   50.2702   14.6280 H   0  0  0  0  0  0
    7.6249   49.7549   13.6841 H   0  0  0  0  0  0
    7.8114   51.0272   12.5136 H   0  0  0  0  0  0
    4.9340   53.7292   14.6630 H   0  0  0  0  0  0
    6.0629   54.8941   17.0602 H   0  0  0  0  0  0
    7.2650   53.8771   17.8740 H   0  0  0  0  0  0
    3.6429   54.2121   17.1110 H   0  0  0  0  0  0
    3.9168   52.4582   16.7808 H   0  0  0  0  0  0
    3.1089   52.9598   18.2830 H   0  0  0  0  0  0
    4.7182   55.0728   19.2226 H   0  0  0  0  0  0
    6.2503   54.3567   19.7594 H   0  0  0  0  0  0
    5.1376   54.9627   21.8253 H   0  0  0  0  0  0
    0.8412   51.6517   25.2184 H   0  0  0  0  0  0
    0.2599   53.2965   25.3812 H   0  0  0  0  0  0
    2.2815   53.9309   28.5727 H   0  0  0  0  0  0
    1.5096   54.7685   27.2821 H   0  0  0  0  0  0
    3.9189   55.0631   27.0479 H   0  0  0  0  0  0
    4.2508   53.3613   27.2864 H   0  0  0  0  0  0
   -0.5277   53.1692   27.7879 H   0  0  0  0  0  0
   -0.2999   51.4301   27.6030 H   0  0  0  0  0  0
    0.4306   52.2686   28.9612 H   0  0  0  0  0  0
    6.5481   53.8830   22.9626 H   0  0  0  0  0  0
    7.6295   54.8949   23.8912 H   0  0  0  0  0  0
    8.5082   51.8348   17.6737 H   0  0  0  0  0  0
    8.7258   50.4968   16.5839 H   0  0  0  0  0  0
    9.6183   51.9873   16.3252 H   0  0  0  0  0  0
    5.2485   53.2967   18.2268 N   0  3  2  0  0  0
    5.5039   52.3334   18.4519 H   0  0  0  0  0  0
  1  2  1  0  0  0
  1 29  1  0  0  0
  1 30  1  0  0  0
  1 31  1  0  0  0
  2  3  1  0  0  0
  2 32  1  0  0  0
  2 33  1  0  0  0
  3  7  1  0  0  0
  3  4  1  0  0  0
  4  5  2  0  0  0
  4 28  1  0  0  0
  5  6  1  0  0  0
  5  8  1  0  0  0
  6  7  2  0  0  0
  6 34  1  0  0  0
  8 35  1  0  0  0
  8 36  1  0  0  0
  8 57  1  0  0  0
  9 37  1  0  0  0
  9 38  1  0  0  0
  9 39  1  0  0  0
  9 57  1  0  0  0
 10 11  1  0  0  0
 10 40  1  0  0  0
 10 41  1  0  0  0
 10 57  1  0  0  0
 11 12  2  0  0  0
 11 13  1  0  0  0
 13 14  1  0  0  0
 13 42  1  0  0  0
 14 18  1  0  0  0
 14 15  2  0  0  0
 15 16  1  0  0  0
 15 25  1  0  0  0
 16 23  1  0  0  0
 16 17  2  0  0  0
 17 18  1  0  0  0
 17 19  1  0  0  0
 19 20  1  0  0  0
 19 43  1  0  0  0
 19 44  1  0  0  0
 20 21  1  0  0  0
 20 22  1  0  0  0
 20 24  1  0  0  0
 22 23  1  0  0  0
 22 45  1  0  0  0
 22 46  1  0  0  0
 23 47  1  0  0  0
 23 48  1  0  0  0
 24 49  1  0  0  0
 24 50  1  0  0  0
 24 51  1  0  0  0
 25 26  2  0  0  0
 25 27  1  0  0  0
 27 52  1  0  0  0
 27 53  1  0  0  0
 28 54  1  0  0  0
 28 55  1  0  0  0
 28 56  1  0  0  0
 57 58  1  0  0  0
M  CHG  1  57   1
M  END
> <i_i_glide_confnum>
139

> <i_i_glide_lignum>
6188

> <i_i_glide_posenum>
298

> <i_i_glide_rotatable_bonds>
8

> <i_m_Source_File_Index>
1062

> <b_m_subgroup_collapsed>
0

> <r_i_docking_score>
-5.4639

> <r_i_glide_ecoul>
-5.07082

> <r_i_glide_eff_state_penalty>
0

> <r_i_glide_einternal>
10.0761

> <r_i_glide_emodel>
-54.1248

> <r_i_glide_energy>
-40.6406

> <r_i_glide_erotb>
0.720178

> <r_i_glide_esite>
-0.0890944

> <r_i_glide_evdw>
-35.5697

> <r_i_glide_gscore>
-5.4639

> <r_i_glide_hbond>
-0.503096

> <r_i_glide_ligand_efficiency>
-0.195139

> <r_i_glide_ligand_efficiency_ln>
-1.26123

> <r_i_glide_ligand_efficiency_sa>
-0.592558

> <r_i_glide_lipo>
-1.89996

> <r_i_glide_metal>
0

> <r_i_glide_rewards>
-1.15281

> <s_i_glide_gridfile>
wee1_glide-grid

> <s_m_Source_File>
wee1_decoys_glide_SP.sdf

> <s_m_Source_Path>
/Users/zhangxujun/Desktop

> <s_m_entry_id>
1337

> <s_m_entry_name>
wee1_decoys_glide_SP.1062

> <s_m_subgroup_title>
wee1_decoys_glide_SP

> <s_m_subgroupid>
wee1_decoys_glide_SP


$$$$
