ZINC14664698_2860
                    3D
 Schrodinger Suite 2024-2.
 54 56  0  0  1  0            999 V2000
   -3.4021   47.0389   23.2872 C   0  0  0  0  0  0
   -2.4401   47.5785   24.3531 C   0  0  0  0  0  0
   -1.9468   46.4599   25.2845 C   0  0  0  0  0  0
   -1.3429   48.1576   23.6447 O   0  0  0  0  0  0
   -0.6891   49.2787   24.1320 C   0  0  0  0  0  0
   -0.7509   49.6508   25.4851 C   0  0  0  0  0  0
   -0.0631   50.7610   25.9592 C   0  0  0  0  0  0
    0.7028   51.5223   25.0865 C   0  0  0  0  0  0
    0.7858   51.1726   23.7404 C   0  0  0  0  0  0
    0.0962   50.0513   23.2437 C   0  0  0  0  0  0
    0.1475   49.7219   21.7649 C   0  0  0  0  0  0
   -0.8549   49.2792   21.1953 O   0  0  0  0  0  0
    1.3145   49.9997   21.1272 N   0  0  0  0  0  0
    1.8136   49.5100   19.9422 C   0  0  0  0  0  0
    1.5029   48.0066   19.2815 S   0  0  0  0  0  0
    2.7045   50.2885   19.2612 N   0  0  0  0  0  0
    2.9437   51.6465   19.4959 N   0  0  0  0  0  0
    3.7967   52.0462   20.4588 C   0  0  0  0  0  0
    4.3181   51.2957   21.2818 O   0  0  0  0  0  0
    4.0994   53.5491   20.4712 C   0  0  0  0  0  0
    5.0183   53.8958   21.5157 O   0  0  0  0  0  0
    4.6050   54.0347   22.8302 C   0  0  0  0  0  0
    3.2656   54.1687   23.2108 C   0  0  0  0  0  0
    2.9135   54.3293   24.5441 C   0  0  0  0  0  0
    3.9001   54.3448   25.5562 C   0  0  0  0  0  0
    3.5548   54.4867   26.9242 C   0  0  0  0  0  0
    4.5437   54.4931   27.9037 C   0  0  0  0  0  0
    5.8821   54.3605   27.5556 C   0  0  0  0  0  0
    6.2521   54.2128   26.2221 C   0  0  0  0  0  0
    5.2726   54.2007   25.1897 C   0  0  0  0  0  0
    5.6026   54.0332   23.8119 C   0  0  0  0  0  0
    7.4064   53.6966   23.2829 Br  0  0  0  0  0  0
   -4.2831   46.5853   23.7409 H   0  0  0  0  0  0
   -3.7447   47.8422   22.6348 H   0  0  0  0  0  0
   -2.9192   46.2892   22.6593 H   0  0  0  0  0  0
   -2.9869   48.3284   24.9283 H   0  0  0  0  0  0
   -2.7800   45.9719   25.7894 H   0  0  0  0  0  0
   -1.3900   45.7040   24.7319 H   0  0  0  0  0  0
   -1.2963   46.8507   26.0661 H   0  0  0  0  0  0
   -1.3195   49.0793   26.2005 H   0  0  0  0  0  0
   -0.1216   51.0199   27.0066 H   0  0  0  0  0  0
    1.2406   52.3759   25.4637 H   0  0  0  0  0  0
    1.3842   51.7963   23.0903 H   0  0  0  0  0  0
    1.9929   50.4956   21.6845 H   0  0  0  0  0  0
    3.3715   49.8900   18.6068 H   0  0  0  0  0  0
    2.5139   52.2514   18.8117 H   0  0  0  0  0  0
    3.1662   54.1008   20.5134 H   0  0  0  0  0  0
    4.5771   53.8154   19.5277 H   0  0  0  0  0  0
    2.4704   54.1739   22.4833 H   0  0  0  0  0  0
    1.8738   54.4512   24.8114 H   0  0  0  0  0  0
    2.5166   54.5871   27.2058 H   0  0  0  0  0  0
    4.2708   54.6055   28.9424 H   0  0  0  0  0  0
    6.6398   54.3719   28.3268 H   0  0  0  0  0  0
    7.2953   54.0990   25.9758 H   0  0  0  0  0  0
  1  2  1  0  0  0
  1 33  1  0  0  0
  1 34  1  0  0  0
  1 35  1  0  0  0
  2  3  1  0  0  0
  2  4  1  0  0  0
  2 36  1  0  0  0
  3 37  1  0  0  0
  3 38  1  0  0  0
  3 39  1  0  0  0
  4  5  1  0  0  0
  5 10  2  0  0  0
  5  6  1  0  0  0
  6  7  2  0  0  0
  6 40  1  0  0  0
  7  8  1  0  0  0
  7 41  1  0  0  0
  8  9  2  0  0  0
  8 42  1  0  0  0
  9 10  1  0  0  0
  9 43  1  0  0  0
 10 11  1  0  0  0
 11 12  2  0  0  0
 11 13  1  0  0  0
 13 14  1  0  0  0
 13 44  1  0  0  0
 14 15  2  0  0  0
 14 16  1  0  0  0
 16 17  1  0  0  0
 16 45  1  0  0  0
 17 18  1  0  0  0
 17 46  1  0  0  0
 18 19  2  0  0  0
 18 20  1  0  0  0
 20 21  1  0  0  0
 20 47  1  0  0  0
 20 48  1  0  0  0
 21 22  1  0  0  0
 22 31  2  0  0  0
 22 23  1  0  0  0
 23 24  2  0  0  0
 23 49  1  0  0  0
 24 25  1  0  0  0
 24 50  1  0  0  0
 25 30  2  0  0  0
 25 26  1  0  0  0
 26 27  2  0  0  0
 26 51  1  0  0  0
 27 28  1  0  0  0
 27 52  1  0  0  0
 28 29  2  0  0  0
 28 53  1  0  0  0
 29 30  1  0  0  0
 29 54  1  0  0  0
 30 31  1  0  0  0
 31 32  1  0  0  0
M  END
> <i_i_glide_confnum>
266

> <i_i_glide_lignum>
2861

> <i_i_glide_posenum>
28

> <i_i_glide_rotatable_bonds>
11

> <i_m_Source_File_Index>
1186

> <b_m_subgroup_collapsed>
0

> <r_i_docking_score>
-5.48439

> <r_i_glide_ecoul>
-5.89357

> <r_i_glide_eff_state_penalty>
0

> <r_i_glide_einternal>
4.99956

> <r_i_glide_emodel>
-64.659

> <r_i_glide_energy>
-48.9274

> <r_i_glide_erotb>
0.692702

> <r_i_glide_esite>
-0.261314

> <r_i_glide_evdw>
-43.0339

> <r_i_glide_gscore>
-5.48439

> <r_i_glide_hbond>
-0.177902

> <r_i_glide_ligand_efficiency>
-0.171387

> <r_i_glide_ligand_efficiency_ln>
-1.2281

> <r_i_glide_ligand_efficiency_sa>
-0.54412

> <r_i_glide_lipo>
-2.67065

> <r_i_glide_metal>
0

> <r_i_glide_rewards>
-0.0315014

> <s_i_glide_gridfile>
wee1_glide-grid

> <s_m_Source_File>
wee1_decoys_glide_SP.sdf

> <s_m_Source_Path>
/Users/zhangxujun/Desktop

> <s_m_entry_id>
1461

> <s_m_entry_name>
wee1_decoys_glide_SP.1186

> <s_m_subgroup_title>
wee1_decoys_glide_SP

> <s_m_subgroupid>
wee1_decoys_glide_SP


$$$$
