ZINC20232798_1526
                    3D
 Schrodinger Suite 2024-2.
 60 63  0  0  1  0            999 V2000
    3.6527   54.0976   24.2066 C   0  0  0  0  0  0
    4.9306   54.2581   24.7285 C   0  0  0  0  0  0
    5.8122   54.1027   23.7485 N   0  0  0  0  0  0
    5.1412   53.7967   22.5790 N   0  0  0  0  0  0
    3.8402   53.8117   22.8818 N   0  0  0  0  0  0
    2.8445   53.4992   21.8683 C   0  0  0  0  0  0
    2.5270   51.9797   21.8014 C   0  0  0  0  0  0
    1.7691   51.4284   23.0272 C   0  0  0  0  0  0
    0.3399   52.0137   23.1307 C   0  0  0  0  0  0
   -0.3684   51.7105   21.8648 N   0  0  0  0  0  0
    0.2649   52.2104   20.6226 C   0  0  0  0  0  0
    1.6938   51.6162   20.5573 C   0  0  0  0  0  0
   -1.6647   51.2918   21.8319 C   0  0  0  0  0  0
   -2.3572   51.3984   20.8154 O   0  0  0  0  0  0
   -2.2894   50.5006   23.0147 C   0  0  2  0  0  0
   -3.1744   50.0151   22.5963 H   0  0  0  0  0  0
   -2.8072   51.4799   24.0955 C   0  0  0  0  0  0
   -3.3075   50.6979   25.3134 C   0  0  0  0  0  0
   -2.2654   49.6907   25.8324 C   0  0  0  0  0  0
   -1.9668   48.7471   24.7317 N   0  0  0  0  0  0
   -1.3807   49.3289   23.5066 C   0  0  0  0  0  0
   -2.0733   47.3931   24.8475 C   0  0  0  0  0  0
   -2.1420   46.6190   23.8950 O   0  0  0  0  0  0
   -2.0960   46.8983   26.0818 N   0  0  0  0  0  0
    5.3567   54.5574   26.1565 C   0  0  0  0  0  0
    4.4489   53.9343   27.2276 C   0  0  0  0  0  0
    5.3048   53.9032   28.4951 C   0  0  0  0  0  0
    6.7191   53.5967   27.9978 C   0  0  0  0  0  0
    6.7775   54.1016   26.5477 C   0  0  0  0  0  0
    2.6677   54.1373   24.6481 H   0  0  0  0  0  0
    3.2220   53.8488   20.9045 H   0  0  0  0  0  0
    1.9608   54.0966   22.0818 H   0  0  0  0  0  0
    3.4674   51.4339   21.7165 H   0  0  0  0  0  0
    2.3034   51.6697   23.9450 H   0  0  0  0  0  0
    1.7182   50.3391   22.9886 H   0  0  0  0  0  0
    0.3803   53.0969   23.2453 H   0  0  0  0  0  0
   -0.1365   51.6040   24.0160 H   0  0  0  0  0  0
   -0.2612   51.8996   19.7191 H   0  0  0  0  0  0
    0.3087   53.2953   20.6585 H   0  0  0  0  0  0
    1.6400   50.5331   20.4296 H   0  0  0  0  0  0
    2.1864   51.9967   19.6578 H   0  0  0  0  0  0
   -3.6381   52.0773   23.7257 H   0  0  0  0  0  0
   -2.0273   52.1362   24.4709 H   0  0  0  0  0  0
   -4.2366   50.1768   25.0738 H   0  0  0  0  0  0
   -3.5622   51.3948   26.1148 H   0  0  0  0  0  0
   -2.6427   49.2080   26.7321 H   0  0  0  0  0  0
   -1.3455   50.2064   26.1034 H   0  0  0  0  0  0
   -0.3809   49.6509   23.7783 H   0  0  0  0  0  0
   -1.3249   48.5970   22.7013 H   0  0  0  0  0  0
   -2.1870   45.9092   26.2236 H   0  0  0  0  0  0
   -1.9140   47.4851   26.9057 H   0  0  0  0  0  0
    5.3022   55.6392   26.2783 H   0  0  0  0  0  0
    3.5236   54.4941   27.3612 H   0  0  0  0  0  0
    4.1679   52.9153   26.9444 H   0  0  0  0  0  0
    5.2846   54.8785   28.9857 H   0  0  0  0  0  0
    4.9514   53.1631   29.2166 H   0  0  0  0  0  0
    7.4787   54.0719   28.6243 H   0  0  0  0  0  0
    6.9068   52.5233   28.0241 H   0  0  0  0  0  0
    7.1044   53.2849   25.9058 H   0  0  0  0  0  0
    7.5034   54.9017   26.4057 H   0  0  0  0  0  0
  1  5  1  0  0  0
  1  2  2  0  0  0
  1 30  1  0  0  0
  2  3  1  0  0  0
  2 25  1  0  0  0
  3  4  2  0  0  0
  4  5  1  0  0  0
  5  6  1  0  0  0
  6  7  1  0  0  0
  6 31  1  0  0  0
  6 32  1  0  0  0
  7 12  1  0  0  0
  7  8  1  0  0  0
  7 33  1  0  0  0
  8  9  1  0  0  0
  8 34  1  0  0  0
  8 35  1  0  0  0
  9 10  1  0  0  0
  9 36  1  0  0  0
  9 37  1  0  0  0
 10 11  1  0  0  0
 10 13  1  0  0  0
 11 12  1  0  0  0
 11 38  1  0  0  0
 11 39  1  0  0  0
 12 40  1  0  0  0
 12 41  1  0  0  0
 13 14  2  0  0  0
 13 15  1  0  0  0
 15 16  1  0  0  0
 15 21  1  0  0  0
 15 17  1  0  0  0
 17 18  1  0  0  0
 17 42  1  0  0  0
 17 43  1  0  0  0
 18 19  1  0  0  0
 18 44  1  0  0  0
 18 45  1  0  0  0
 19 20  1  0  0  0
 19 46  1  0  0  0
 19 47  1  0  0  0
 20 21  1  0  0  0
 20 22  1  0  0  0
 21 48  1  0  0  0
 21 49  1  0  0  0
 22 23  2  0  0  0
 22 24  1  0  0  0
 24 50  1  0  0  0
 24 51  1  0  0  0
 25 29  1  0  0  0
 25 26  1  0  0  0
 25 52  1  0  0  0
 26 27  1  0  0  0
 26 53  1  0  0  0
 26 54  1  0  0  0
 27 28  1  0  0  0
 27 55  1  0  0  0
 27 56  1  0  0  0
 28 29  1  0  0  0
 28 57  1  0  0  0
 28 58  1  0  0  0
 29 59  1  0  0  0
 29 60  1  0  0  0
M  END
> <i_i_glide_confnum>
559

> <i_i_glide_lignum>
1527

> <i_i_glide_posenum>
113

> <i_i_glide_rotatable_bonds>
6

> <i_m_Source_File_Index>
3233

> <b_m_subgroup_collapsed>
0

> <r_i_docking_score>
-5.75433

> <r_i_glide_ecoul>
-7.09653

> <r_i_glide_eff_state_penalty>
0

> <r_i_glide_einternal>
6.72809

> <r_i_glide_emodel>
-54.2459

> <r_i_glide_energy>
-41.9738

> <r_i_glide_erotb>
0.645455

> <r_i_glide_esite>
-0.215187

> <r_i_glide_evdw>
-34.8772

> <r_i_glide_gscore>
-5.75433

> <r_i_glide_hbond>
-0.16

> <r_i_glide_ligand_efficiency>
-0.205512

> <r_i_glide_ligand_efficiency_ln>
-1.32827

> <r_i_glide_ligand_efficiency_sa>
-0.624055

> <r_i_glide_lipo>
-2.12465

> <r_i_glide_metal>
0

> <r_i_glide_rewards>
-1.0916

> <s_i_glide_gridfile>
wee1_glide-grid

> <s_m_Source_File>
wee1_decoys_glide_SP.sdf

> <s_m_Source_Path>
/Users/zhangxujun/Desktop

> <s_m_entry_id>
3508

> <s_m_entry_name>
wee1_decoys_glide_SP.3233

> <s_m_subgroup_title>
wee1_decoys_glide_SP

> <s_m_subgroupid>
wee1_decoys_glide_SP


$$$$
