ZINC12767545_4225
                    3D
 Schrodinger Suite 2024-2.
 55 59  0  0  1  0            999 V2000
   -2.6119   46.2527   26.1269 C   0  0  0  0  0  0
   -1.8840   47.1838   25.1634 C   0  0  0  0  0  0
   -1.6956   46.8239   24.0016 O   0  0  0  0  0  0
   -1.5138   48.3669   25.6817 N   0  0  0  0  0  0
   -0.8380   49.4205   25.0581 C   0  0  0  0  0  0
    0.2296   49.2209   24.1743 C   0  0  0  0  0  0
    0.9305   50.3195   23.6797 C   0  0  0  0  0  0
    0.5576   51.6085   24.0636 C   0  0  0  0  0  0
   -0.5283   51.8088   24.9156 C   0  0  0  0  0  0
   -1.2122   50.7122   25.4299 C   0  0  0  0  0  0
    1.5044   52.9975   23.5044 S   0  0  0  0  0  0
    2.4794   53.4292   24.9374 C   0  0  0  0  0  0
    3.7702   53.9727   24.8094 C   0  0  0  0  0  0
    4.5141   54.2909   25.9033 N   0  0  0  0  0  0
    3.9735   54.0543   27.1320 C   0  0  0  0  0  0
    4.7028   54.3673   28.3028 C   0  0  0  0  0  0
    4.1464   54.1059   29.5545 C   0  0  0  0  0  0
    2.8866   53.5217   29.6727 C   0  0  0  0  0  0
    2.1382   53.2189   28.5393 C   0  0  0  0  0  0
    2.6684   53.4887   27.2575 C   0  0  0  0  0  0
    1.9301   53.1962   26.1567 N   0  0  0  0  0  0
    4.3092   54.1815   23.5352 N   0  0  0  0  0  0
    6.0094   54.5349   23.1795 S   0  0  0  0  0  0
    6.4098   55.6967   23.9795 O   0  0  0  0  0  0
    6.7684   53.2967   23.2817 O   0  0  0  0  0  0
    5.9761   54.9681   21.4450 C   0  0  0  0  0  0
    5.2174   54.2058   20.5456 C   0  0  0  0  0  0
    5.0941   54.6068   19.2138 C   0  0  0  0  0  0
    5.7182   55.7775   18.7859 C   0  0  0  0  0  0
    6.5217   56.5118   19.6725 C   0  0  0  0  0  0
    6.6615   56.0967   20.9951 C   0  0  0  0  0  0
    7.1044   57.7117   19.3173 O   0  0  0  0  0  0
    7.1344   57.9659   17.9075 C   0  0  0  0  0  0
    5.8055   57.5461   17.2355 C   0  0  0  0  0  0
    5.5502   56.1560   17.4699 O   0  0  0  0  0  0
   -2.9733   46.7951   27.0022 H   0  0  0  0  0  0
   -1.9396   45.4725   26.4817 H   0  0  0  0  0  0
   -3.4706   45.7925   25.6398 H   0  0  0  0  0  0
   -1.6956   48.4967   26.6796 H   0  0  0  0  0  0
    0.5468   48.2231   23.9089 H   0  0  0  0  0  0
    1.7774   50.1657   23.0269 H   0  0  0  0  0  0
   -0.8104   52.8078   25.2140 H   0  0  0  0  0  0
   -2.0237   50.8682   26.1266 H   0  0  0  0  0  0
    5.6868   54.8080   28.2172 H   0  0  0  0  0  0
    4.7044   54.3599   30.4428 H   0  0  0  0  0  0
    2.4763   53.2967   30.6463 H   0  0  0  0  0  0
    1.1570   52.7734   28.6275 H   0  0  0  0  0  0
    3.7002   54.0041   22.7516 H   0  0  0  0  0  0
    4.7045   53.3134   20.8750 H   0  0  0  0  0  0
    4.4987   54.0259   18.5240 H   0  0  0  0  0  0
    7.2631   56.6681   21.6817 H   0  0  0  0  0  0
    7.9559   57.4034   17.4607 H   0  0  0  0  0  0
    7.3259   59.0264   17.7381 H   0  0  0  0  0  0
    5.8394   57.7353   16.1624 H   0  0  0  0  0  0
    4.9912   58.1434   17.6500 H   0  0  0  0  0  0
  1  2  1  0  0  0
  1 36  1  0  0  0
  1 37  1  0  0  0
  1 38  1  0  0  0
  2  3  2  0  0  0
  2  4  1  0  0  0
  4  5  1  0  0  0
  4 39  1  0  0  0
  5 10  2  0  0  0
  5  6  1  0  0  0
  6  7  2  0  0  0
  6 40  1  0  0  0
  7  8  1  0  0  0
  7 41  1  0  0  0
  8  9  2  0  0  0
  8 11  1  0  0  0
  9 10  1  0  0  0
  9 42  1  0  0  0
 10 43  1  0  0  0
 11 12  1  0  0  0
 12 21  2  0  0  0
 12 13  1  0  0  0
 13 14  2  0  0  0
 13 22  1  0  0  0
 14 15  1  0  0  0
 15 20  2  0  0  0
 15 16  1  0  0  0
 16 17  2  0  0  0
 16 44  1  0  0  0
 17 18  1  0  0  0
 17 45  1  0  0  0
 18 19  2  0  0  0
 18 46  1  0  0  0
 19 20  1  0  0  0
 19 47  1  0  0  0
 20 21  1  0  0  0
 22 23  1  0  0  0
 22 48  1  0  0  0
 23 24  2  0  0  0
 23 25  2  0  0  0
 23 26  1  0  0  0
 26 31  2  0  0  0
 26 27  1  0  0  0
 27 28  2  0  0  0
 27 49  1  0  0  0
 28 29  1  0  0  0
 28 50  1  0  0  0
 29 35  1  0  0  0
 29 30  2  0  0  0
 30 31  1  0  0  0
 30 32  1  0  0  0
 31 51  1  0  0  0
 32 33  1  0  0  0
 33 34  1  0  0  0
 33 52  1  0  0  0
 33 53  1  0  0  0
 34 35  1  0  0  0
 34 54  1  0  0  0
 34 55  1  0  0  0
M  END
> <i_i_glide_confnum>
92

> <i_i_glide_lignum>
4226

> <i_i_glide_posenum>
359

> <i_i_glide_rotatable_bonds>
7

> <i_m_Source_File_Index>
4009

> <b_m_subgroup_collapsed>
0

> <r_i_docking_score>
-2.88165

> <r_i_glide_ecoul>
-7.77667

> <r_i_glide_eff_state_penalty>
0

> <r_i_glide_einternal>
9.41071

> <r_i_glide_emodel>
-52.8055

> <r_i_glide_energy>
-56.3715

> <r_i_glide_erotb>
0.474957

> <r_i_glide_esite>
-0.189812

> <r_i_glide_evdw>
-48.5949

> <r_i_glide_gscore>
-2.88165

> <r_i_glide_hbond>
-0.374711

> <r_i_glide_ligand_efficiency>
-0.0823328

> <r_i_glide_ligand_efficiency_ln>
-0.632586

> <r_i_glide_ligand_efficiency_sa>
-0.269316

> <r_i_glide_lipo>
-2.23579

> <r_i_glide_metal>
0

> <r_i_glide_rewards>
3.03995

> <s_i_glide_gridfile>
wee1_glide-grid

> <s_m_Source_File>
wee1_decoys_glide_SP.sdf

> <s_m_Source_Path>
/Users/zhangxujun/Desktop

> <s_m_entry_id>
4284

> <s_m_entry_name>
wee1_decoys_glide_SP.4009

> <s_m_subgroup_title>
wee1_decoys_glide_SP

> <s_m_subgroupid>
wee1_decoys_glide_SP


$$$$
