ZINC43460825_4704
                    3D
 Schrodinger Suite 2024-2.
 25 27  0  0  1  0            999 V2000
    4.2373   54.2053   24.6069 C   0  0  0  0  0  0
    5.4624   54.4961   24.0071 C   0  0  0  0  0  0
    6.5740   54.7953   24.7971 C   0  0  0  0  0  0
    6.5810   54.7921   26.1587 N   0  0  0  0  0  0
    5.4231   54.4760   26.7493 C   0  0  0  0  0  0
    4.2449   54.2013   26.0043 C   0  0  0  0  0  0
    3.3034   53.9597   26.9674 N   0  0  0  0  0  0
    3.9350   54.0041   28.1914 C   0  0  0  0  0  0
    5.1966   54.3543   28.0968 N   0  0  0  0  0  0
    2.3344   53.6968   26.8611 H   0  0  0  0  0  0
    3.2481   53.6865   29.5194 C   0  0  0  0  0  0
    1.8868   52.9874   29.4512 C   0  0  0  0  0  0
    0.8471   53.0732   30.3795 C   0  0  0  0  0  0
   -0.4956   52.0976   29.8564 S   0  0  0  0  0  0
    0.4291   51.6839   28.4602 C   0  0  0  0  0  0
    1.6392   52.1700   28.4372 N   0  0  0  0  0  0
   -0.1081   50.8967   27.4861 N   0  0  0  0  0  0
    5.6147   54.4979   22.1103 Br  0  0  0  0  0  0
    3.3544   53.9830   24.0237 H   0  0  0  0  0  0
    7.5040   55.0480   24.3188 H   0  0  0  0  0  0
    3.1484   54.6157   30.0793 H   0  0  0  0  0  0
    3.9180   53.0659   30.1152 H   0  0  0  0  0  0
    0.7897   53.6327   31.3016 H   0  0  0  0  0  0
    0.4249   50.6739   26.6593 H   0  0  0  0  0  0
   -0.8176   50.2046   27.7229 H   0  0  0  0  0  0
  1  2  2  0  0  0
  1 19  1  0  0  0
  1  6  1  0  0  0
  2  3  1  0  0  0
  2 18  1  0  0  0
  3  4  2  0  0  0
  3 20  1  0  0  0
  4  5  1  0  0  0
  5  9  1  0  0  0
  5  6  2  0  0  0
  6  7  1  0  0  0
  7  8  1  0  0  0
  7 10  1  0  0  0
  8 11  1  0  0  0
  8  9  2  0  0  0
 11 12  1  0  0  0
 11 21  1  0  0  0
 11 22  1  0  0  0
 12 16  1  0  0  0
 12 13  2  0  0  0
 13 14  1  0  0  0
 13 23  1  0  0  0
 14 15  1  0  0  0
 15 16  2  0  0  0
 15 17  1  0  0  0
 17 24  1  0  0  0
 17 25  1  0  0  0
M  END
> <i_i_glide_confnum>
3

> <i_i_glide_lignum>
4705

> <i_i_glide_posenum>
158

> <i_i_glide_rotatable_bonds>
2

> <i_m_Source_File_Index>
2452

> <b_m_subgroup_collapsed>
0

> <r_i_docking_score>
-5.92659

> <r_i_glide_ecoul>
-2.35544

> <r_i_glide_eff_state_penalty>
0

> <r_i_glide_einternal>
1.43282

> <r_i_glide_emodel>
-49.5158

> <r_i_glide_energy>
-36.3567

> <r_i_glide_erotb>
0.385143

> <r_i_glide_esite>
-0.0753893

> <r_i_glide_evdw>
-34.0013

> <r_i_glide_gscore>
-5.92659

> <r_i_glide_hbond>
-0.282555

> <r_i_glide_ligand_efficiency>
-0.348623

> <r_i_glide_ligand_efficiency_ln>
-1.54612

> <r_i_glide_ligand_efficiency_sa>
-0.896408

> <r_i_glide_lipo>
-1.53359

> <r_i_glide_metal>
0

> <r_i_glide_rewards>
-2.36683

> <s_i_glide_gridfile>
wee1_glide-grid

> <s_m_Source_File>
wee1_decoys_glide_SP.sdf

> <s_m_Source_Path>
/Users/zhangxujun/Desktop

> <s_m_entry_id>
2727

> <s_m_entry_name>
wee1_decoys_glide_SP.2452

> <s_m_subgroup_title>
wee1_decoys_glide_SP

> <s_m_subgroupid>
wee1_decoys_glide_SP


$$$$
