ZINC09279777_58
                    3D
 Schrodinger Suite 2024-2.
 52 55  0  0  1  0            999 V2000
   -0.1548   48.1816   24.3000 C   0  0  0  0  0  0
   -0.7498   49.4517   24.5012 O   0  0  0  0  0  0
    0.1651   50.5301   24.3691 C   0  0  0  0  0  0
   -0.4664   51.8121   24.9342 C   0  0  0  0  0  0
   -0.6657   51.7691   26.3904 N   0  0  0  0  0  0
   -1.8758   51.2989   26.9233 C   0  0  0  0  0  0
   -3.0143   50.8443   26.2429 C   0  0  0  0  0  0
   -4.1331   50.4138   26.9593 C   0  0  0  0  0  0
   -4.1151   50.4381   28.3568 C   0  0  0  0  0  0
   -2.9852   50.8967   29.0307 C   0  0  0  0  0  0
   -1.8777   51.3227   28.3078 C   0  0  0  0  0  0
   -0.3828   51.9650   28.9446 S   0  0  0  0  0  0
    0.3413   52.1198   27.2881 C   0  0  0  0  0  0
    1.5237   52.4965   26.9818 N   0  0  0  0  0  0
    2.4305   52.8970   27.9441 C   0  0  0  0  0  0
    2.8521   52.1705   28.8496 O   0  0  0  0  0  0
    2.9732   54.3166   27.7305 C   0  0  0  0  0  0
    4.2644   54.3470   26.9040 C   0  0  0  0  0  0
    5.4841   54.4656   27.5749 C   0  0  0  0  0  0
    6.6862   54.5172   26.8847 C   0  0  0  0  0  0
    6.7043   54.4528   25.4966 C   0  0  0  0  0  0
    5.5030   54.3152   24.7666 C   0  0  0  0  0  0
    4.2523   54.2774   25.4664 C   0  0  0  0  0  0
    3.0646   54.1763   24.6857 C   0  0  0  0  0  0
    3.1188   54.0899   23.2973 C   0  0  0  0  0  0
    4.3402   54.0967   22.6358 C   0  0  0  0  0  0
    5.5258   54.2119   23.3524 C   0  0  0  0  0  0
   -5.4898   49.8355   29.3140 S   0  0  0  0  0  0
   -5.6935   50.7860   30.4113 O   0  0  0  0  0  0
   -6.5746   49.4982   28.3883 O   0  0  0  0  0  0
   -4.8955   48.3494   29.9996 N   0  0  0  0  0  0
   -0.9024   47.4003   24.4324 H   0  0  0  0  0  0
    0.2519   48.0970   23.2913 H   0  0  0  0  0  0
    0.6465   48.0011   25.0180 H   0  0  0  0  0  0
    0.4012   50.6674   23.3137 H   0  0  0  0  0  0
    1.1079   50.3325   24.8817 H   0  0  0  0  0  0
   -1.3808   52.0496   24.3896 H   0  0  0  0  0  0
    0.2004   52.6458   24.7036 H   0  0  0  0  0  0
   -3.0437   50.7949   25.1653 H   0  0  0  0  0  0
   -4.9976   50.0474   26.4270 H   0  0  0  0  0  0
   -2.9621   50.8946   30.1119 H   0  0  0  0  0  0
    2.2128   54.9589   27.2939 H   0  0  0  0  0  0
    3.1701   54.7241   28.7211 H   0  0  0  0  0  0
    5.5087   54.5170   28.6544 H   0  0  0  0  0  0
    7.6064   54.6079   27.4414 H   0  0  0  0  0  0
    7.6399   54.4960   24.9552 H   0  0  0  0  0  0
    2.0981   54.1750   25.1607 H   0  0  0  0  0  0
    2.2063   54.0166   22.7232 H   0  0  0  0  0  0
    4.3635   54.0235   21.5591 H   0  0  0  0  0  0
    6.4714   54.2275   22.8308 H   0  0  0  0  0  0
   -4.6918   47.6629   29.2719 H   0  0  0  0  0  0
   -4.0489   48.4964   30.5612 H   0  0  0  0  0  0
  1  2  1  0  0  0
  1 32  1  0  0  0
  1 33  1  0  0  0
  1 34  1  0  0  0
  2  3  1  0  0  0
  3  4  1  0  0  0
  3 35  1  0  0  0
  3 36  1  0  0  0
  4  5  1  0  0  0
  4 37  1  0  0  0
  4 38  1  0  0  0
  5 13  1  0  0  0
  5  6  1  0  0  0
  6 11  2  0  0  0
  6  7  1  0  0  0
  7  8  2  0  0  0
  7 39  1  0  0  0
  8  9  1  0  0  0
  8 40  1  0  0  0
  9 10  2  0  0  0
  9 28  1  0  0  0
 10 11  1  0  0  0
 10 41  1  0  0  0
 11 12  1  0  0  0
 12 13  1  0  0  0
 13 14  2  0  0  0
 14 15  1  0  0  0
 15 16  2  0  0  0
 15 17  1  0  0  0
 17 18  1  0  0  0
 17 42  1  0  0  0
 17 43  1  0  0  0
 18 23  2  0  0  0
 18 19  1  0  0  0
 19 20  2  0  0  0
 19 44  1  0  0  0
 20 21  1  0  0  0
 20 45  1  0  0  0
 21 22  2  0  0  0
 21 46  1  0  0  0
 22 27  1  0  0  0
 22 23  1  0  0  0
 23 24  1  0  0  0
 24 25  2  0  0  0
 24 47  1  0  0  0
 25 26  1  0  0  0
 25 48  1  0  0  0
 26 27  2  0  0  0
 26 49  1  0  0  0
 27 50  1  0  0  0
 28 29  2  0  0  0
 28 30  2  0  0  0
 28 31  1  0  0  0
 31 51  1  0  0  0
 31 52  1  0  0  0
M  END
> <i_i_glide_confnum>
16

> <i_i_glide_lignum>
59

> <i_i_glide_posenum>
376

> <i_i_glide_rotatable_bonds>
7

> <i_m_Source_File_Index>
5081

> <b_m_subgroup_collapsed>
0

> <r_i_docking_score>
-5.71479

> <r_i_glide_ecoul>
-3.78957

> <r_i_glide_eff_state_penalty>
0

> <r_i_glide_einternal>
3.95902

> <r_i_glide_emodel>
-62.2179

> <r_i_glide_energy>
-47.7324

> <r_i_glide_erotb>
0.387225

> <r_i_glide_esite>
-0.174151

> <r_i_glide_evdw>
-43.9428

> <r_i_glide_gscore>
-5.71479

> <r_i_glide_hbond>
-0.0465667

> <r_i_glide_ligand_efficiency>
-0.184348

> <r_i_glide_ligand_efficiency_ln>
-1.28886

> <r_i_glide_ligand_efficiency_sa>
-0.579107

> <r_i_glide_lipo>
-2.77666

> <r_i_glide_metal>
0

> <r_i_glide_rewards>
-0.339062

> <s_i_glide_gridfile>
wee1_glide-grid

> <s_m_Source_File>
wee1_decoys_glide_SP.sdf

> <s_m_Source_Path>
/Users/zhangxujun/Desktop

> <s_m_entry_id>
5356

> <s_m_entry_name>
wee1_decoys_glide_SP.5081

> <s_m_subgroup_title>
wee1_decoys_glide_SP

> <s_m_subgroupid>
wee1_decoys_glide_SP


$$$$
