ZINC63752745_146
                    3D
 Schrodinger Suite 2024-2.
 55 58  0  0  1  0            999 V2000
   -1.9960   46.7890   22.4256 C   0  0  0  0  0  0
   -1.2957   47.9475   21.7405 C   0  0  0  0  0  0
   -1.1835   48.0219   20.2845 C   0  0  0  0  0  0
   -0.5213   49.0177   19.6391 C   0  0  0  0  0  0
    0.0877   50.0438   20.3665 C   0  0  0  0  0  0
    0.7710   51.0846   19.9375 N   0  3  0  0  0  0
    1.2219   51.9155   21.0763 C   0  0  1  0  0  0
    0.7548   52.8970   20.9777 H   0  0  0  0  0  0
    0.6804   51.0979   22.2494 C   0  0  0  0  0  0
    0.0219   50.0330   21.7613 C   0  0  0  0  0  0
   -0.6881   48.9358   22.4350 C   0  0  0  0  0  0
    0.8851   51.4195   23.5630 N   0  0  0  0  0  0
    1.0673   52.6427   24.1043 C   0  0  0  0  0  0
    1.1044   53.6916   23.4571 O   0  0  0  0  0  0
    1.2723   52.6637   25.6029 C   0  0  0  0  0  0
    0.6870   51.6965   26.4393 C   0  0  0  0  0  0
    0.9110   51.7246   27.8136 C   0  0  0  0  0  0
    1.7152   52.7182   28.3640 C   0  0  0  0  0  0
    2.2853   53.6948   27.5522 C   0  0  0  0  0  0
    2.0598   53.6716   26.1781 C   0  0  0  0  0  0
    1.9444   52.7365   29.6968 F   0  0  0  0  0  0
    2.7536   52.0536   21.0182 C   0  0  0  0  0  0
    3.4803   51.0990   21.2971 O   0  0  0  0  0  0
    3.2254   53.2677   20.6903 N   0  0  0  0  0  0
    4.6382   53.6481   20.6857 C   0  0  0  0  0  0
    5.2047   54.0960   22.0361 C   0  0  0  0  0  0
    4.6380   53.6967   23.2515 C   0  0  0  0  0  0
    5.1932   54.0968   24.4611 C   0  0  0  0  0  0
    6.3042   54.9456   24.4789 C   0  0  0  0  0  0
    6.8279   55.3856   23.2652 C   0  0  0  0  0  0
    6.3042   54.9531   22.0522 C   0  0  0  0  0  0
    6.9246   55.3879   25.6317 O   0  0  0  0  0  0
    6.4766   54.8915   26.8898 C   0  0  0  0  0  0
   -1.8436   46.7832   23.5053 H   0  0  0  0  0  0
   -3.0613   46.8014   22.1960 H   0  0  0  0  0  0
   -1.6096   45.8495   22.0297 H   0  0  0  0  0  0
   -1.6460   47.2455   19.6919 H   0  0  0  0  0  0
   -0.4766   49.0008   18.5593 H   0  0  0  0  0  0
   -0.7361   48.8935   23.5143 H   0  0  0  0  0  0
    0.8856   50.6385   24.1999 H   0  0  0  0  0  0
    0.0513   50.9151   26.0469 H   0  0  0  0  0  0
    0.4608   50.9764   28.4513 H   0  0  0  0  0  0
    2.9014   54.4662   27.9893 H   0  0  0  0  0  0
    2.5098   54.4375   25.5613 H   0  0  0  0  0  0
    2.5610   54.0102   20.4914 H   0  0  0  0  0  0
    4.7450   54.4659   19.9712 H   0  0  0  0  0  0
    5.2565   52.8296   20.3083 H   0  0  0  0  0  0
    3.7833   53.0430   23.2799 H   0  0  0  0  0  0
    4.7553   53.7269   25.3742 H   0  0  0  0  0  0
    7.6628   56.0716   23.2654 H   0  0  0  0  0  0
    6.7500   55.2960   21.1292 H   0  0  0  0  0  0
    7.1036   55.2966   27.6810 H   0  0  0  0  0  0
    6.5490   53.8037   26.9423 H   0  0  0  0  0  0
    5.4489   55.1936   27.0965 H   0  0  0  0  0  0
    0.9778   51.2939   18.9637 H   0  0  0  0  0  0
  1  2  1  0  0  0
  1 34  1  0  0  0
  1 35  1  0  0  0
  1 36  1  0  0  0
  2 11  2  0  0  0
  2  3  1  0  0  0
  3  4  2  0  0  0
  3 37  1  0  0  0
  4  5  1  0  0  0
  4 38  1  0  0  0
  5 10  1  0  0  0
  5  6  2  0  0  0
  6  7  1  0  0  0
  6 55  1  0  0  0
  7  8  1  0  0  0
  7  9  1  0  0  0
  7 22  1  0  0  0
  9 10  2  0  0  0
  9 12  1  0  0  0
 10 11  1  0  0  0
 11 39  1  0  0  0
 12 13  1  0  0  0
 12 40  1  0  0  0
 13 14  2  0  0  0
 13 15  1  0  0  0
 15 20  2  0  0  0
 15 16  1  0  0  0
 16 17  2  0  0  0
 16 41  1  0  0  0
 17 18  1  0  0  0
 17 42  1  0  0  0
 18 19  2  0  0  0
 18 21  1  0  0  0
 19 20  1  0  0  0
 19 43  1  0  0  0
 20 44  1  0  0  0
 22 23  2  0  0  0
 22 24  1  0  0  0
 24 25  1  0  0  0
 24 45  1  0  0  0
 25 26  1  0  0  0
 25 46  1  0  0  0
 25 47  1  0  0  0
 26 31  2  0  0  0
 26 27  1  0  0  0
 27 28  2  0  0  0
 27 48  1  0  0  0
 28 29  1  0  0  0
 28 49  1  0  0  0
 29 30  2  0  0  0
 29 32  1  0  0  0
 30 31  1  0  0  0
 30 50  1  0  0  0
 31 51  1  0  0  0
 32 33  1  0  0  0
 33 52  1  0  0  0
 33 53  1  0  0  0
 33 54  1  0  0  0
M  CHG  1   6   1
M  END
> <i_i_glide_confnum>
7

> <i_i_glide_lignum>
147

> <i_i_glide_posenum>
116

> <i_i_glide_rotatable_bonds>
8

> <i_m_Source_File_Index>
2109

> <b_m_subgroup_collapsed>
0

> <r_i_docking_score>
-6.37553

> <r_i_glide_ecoul>
-7.7928

> <r_i_glide_eff_state_penalty>
0

> <r_i_glide_einternal>
2.87038

> <r_i_glide_emodel>
-65.6148

> <r_i_glide_energy>
-44.8745

> <r_i_glide_erotb>
0.744764

> <r_i_glide_esite>
-0.0194921

> <r_i_glide_evdw>
-37.0817

> <r_i_glide_gscore>
-6.37553

> <r_i_glide_hbond>
-0.608

> <r_i_glide_ligand_efficiency>
-0.199235

> <r_i_glide_ligand_efficiency_ln>
-1.42766

> <r_i_glide_ligand_efficiency_sa>
-0.632533

> <r_i_glide_lipo>
-2.56021

> <r_i_glide_metal>
0

> <r_i_glide_rewards>
-0.909594

> <s_i_glide_gridfile>
wee1_glide-grid

> <s_m_Source_File>
wee1_decoys_glide_SP.sdf

> <s_m_Source_Path>
/Users/zhangxujun/Desktop

> <s_m_entry_id>
2384

> <s_m_entry_name>
wee1_decoys_glide_SP.2109

> <s_m_subgroup_title>
wee1_decoys_glide_SP

> <s_m_subgroupid>
wee1_decoys_glide_SP


$$$$
