ZINC61857302_3848
                    3D
 Schrodinger Suite 2024-2.
 32 34  0  0  1  0            999 V2000
   -0.5504   52.0149   27.1873 C   0  0  0  0  0  0
    0.5287   52.4073   28.2022 C   0  0  0  0  0  0
    1.7649   52.9536   27.7713 C   0  0  0  0  0  0
    2.7559   53.2127   28.7319 C   0  0  0  0  0  0
    2.5373   52.9725   30.0819 C   0  0  0  0  0  0
    1.3052   52.4959   30.5084 C   0  0  0  0  0  0
    0.3061   52.2040   29.5819 C   0  0  0  0  0  0
   -0.8955   51.6968   30.0815 N   0  0  0  0  0  0
    2.1395   53.2776   26.3427 C   0  0  0  0  0  0
    3.2992   53.6967   25.9042 N   0  0  0  0  0  0
    3.1359   53.7316   24.5944 C   0  0  0  0  0  0
    1.9273   53.4269   24.1675 N   0  0  0  0  0  0
    1.2426   53.1109   25.3384 O   0  0  0  0  0  0
    4.2607   54.0971   23.6621 C   0  0  0  0  0  0
    5.5102   54.4781   24.1758 C   0  0  0  0  0  0
    6.5285   54.8962   23.3244 C   0  0  0  0  0  0
    6.3043   54.9411   21.9521 C   0  0  0  0  0  0
    5.0967   54.4973   21.4188 C   0  0  0  0  0  0
    4.0756   54.0861   22.2720 C   0  0  0  0  0  0
    7.6275   55.6967   20.8110 Br  0  0  0  0  0  0
   -0.1261   51.3500   26.4344 H   0  0  0  0  0  0
   -1.3961   51.4770   27.6170 H   0  0  0  0  0  0
   -0.9369   52.8965   26.6765 H   0  0  0  0  0  0
    3.7214   53.6011   28.4403 H   0  0  0  0  0  0
    3.3266   53.1581   30.7945 H   0  0  0  0  0  0
    1.1364   52.3274   31.5634 H   0  0  0  0  0  0
   -1.3729   51.0157   29.5048 H   0  0  0  0  0  0
   -0.9909   51.5963   31.0892 H   0  0  0  0  0  0
    5.6896   54.4810   25.2407 H   0  0  0  0  0  0
    7.4739   55.2288   23.7260 H   0  0  0  0  0  0
    4.9303   54.5227   20.3516 H   0  0  0  0  0  0
    3.1284   53.7893   21.8420 H   0  0  0  0  0  0
  1  2  1  0  0  0
  1 21  1  0  0  0
  1 22  1  0  0  0
  1 23  1  0  0  0
  2  7  2  0  0  0
  2  3  1  0  0  0
  3  4  2  0  0  0
  3  9  1  0  0  0
  4  5  1  0  0  0
  4 24  1  0  0  0
  5  6  2  0  0  0
  5 25  1  0  0  0
  6  7  1  0  0  0
  6 26  1  0  0  0
  7  8  1  0  0  0
  8 27  1  0  0  0
  8 28  1  0  0  0
  9 13  1  0  0  0
  9 10  2  0  0  0
 10 11  1  0  0  0
 11 12  2  0  0  0
 11 14  1  0  0  0
 12 13  1  0  0  0
 14 19  2  0  0  0
 14 15  1  0  0  0
 15 16  2  0  0  0
 15 29  1  0  0  0
 16 17  1  0  0  0
 16 30  1  0  0  0
 17 18  2  0  0  0
 17 20  1  0  0  0
 18 19  1  0  0  0
 18 31  1  0  0  0
 19 32  1  0  0  0
M  END
> <i_i_glide_confnum>
3

> <i_i_glide_lignum>
3849

> <i_i_glide_posenum>
269

> <i_i_glide_rotatable_bonds>
2

> <i_m_Source_File_Index>
2942

> <b_m_subgroup_collapsed>
0

> <r_i_docking_score>
-5.93932

> <r_i_glide_ecoul>
-3.40557

> <r_i_glide_eff_state_penalty>
0

> <r_i_glide_einternal>
1.00756

> <r_i_glide_emodel>
-50.6108

> <r_i_glide_energy>
-37.1003

> <r_i_glide_erotb>
0.344982

> <r_i_glide_esite>
-0.0658208

> <r_i_glide_evdw>
-33.6947

> <r_i_glide_gscore>
-5.93932

> <r_i_glide_hbond>
-0.13062

> <r_i_glide_ligand_efficiency>
-0.296966

> <r_i_glide_ligand_efficiency_ln>
-1.48642

> <r_i_glide_ligand_efficiency_sa>
-0.80609

> <r_i_glide_lipo>
-2.32851

> <r_i_glide_metal>
0

> <r_i_glide_rewards>
-1.56378

> <s_i_glide_gridfile>
wee1_glide-grid

> <s_m_Source_File>
wee1_decoys_glide_SP.sdf

> <s_m_Source_Path>
/Users/zhangxujun/Desktop

> <s_m_entry_id>
3217

> <s_m_entry_name>
wee1_decoys_glide_SP.2942

> <s_m_subgroup_title>
wee1_decoys_glide_SP

> <s_m_subgroupid>
wee1_decoys_glide_SP


$$$$
