ZINC35446779_5874
                    3D
 Schrodinger Suite 2024-2.
 55 59  0  0  1  0            999 V2000
   -4.4591   43.4609   21.0978 C   0  0  0  0  0  0
   -3.9064   44.6314   21.8881 C   0  0  0  0  0  0
   -4.7181   45.2955   22.8116 C   0  0  0  0  0  0
   -4.2116   46.3773   23.5308 C   0  0  0  0  0  0
   -2.8965   46.8079   23.3156 C   0  0  0  0  0  0
   -2.0945   46.1438   22.3870 C   0  0  0  0  0  0
   -2.5935   45.0576   21.6746 C   0  0  0  0  0  0
   -2.3293   47.8807   24.0232 N   0  0  0  0  0  0
   -2.9090   49.0811   24.2539 C   0  0  0  0  0  0
   -4.0375   49.3587   23.8290 O   0  0  0  0  0  0
   -2.1335   49.9867   24.9147 N   0  0  0  0  0  0
   -1.0708   49.6169   25.8789 C   0  0  0  0  0  0
    0.1636   50.5058   25.5808 C   0  0  0  0  0  0
   -0.1333   52.0315   25.5878 C   0  0  0  0  0  0
   -1.3547   52.2606   24.6661 C   0  0  0  0  0  0
   -2.5811   51.3880   25.0147 C   0  0  0  0  0  0
    1.0950   52.8374   25.1312 C   0  0  0  0  0  0
    1.5386   53.2781   23.8839 C   0  0  0  0  0  0
    2.7503   53.9476   24.0373 C   0  0  0  0  0  0
    3.0543   53.9062   25.3844 C   0  0  0  0  0  0
    2.0508   53.2375   26.0512 N   0  0  0  0  0  0
    1.9000   52.9848   27.4310 C   0  0  0  0  0  0
    2.9435   53.0558   28.3618 C   0  0  0  0  0  0
    2.6938   52.8600   29.7211 C   0  0  0  0  0  0
    1.3947   52.5931   30.1652 C   0  0  0  0  0  0
    0.3547   52.4791   29.2362 C   0  0  0  0  0  0
    0.5968   52.6914   27.8787 C   0  0  0  0  0  0
   -0.4514   52.4951   26.9545 N   0  0  0  0  0  0
    1.1133   52.4098   31.6468 C   0  0  0  0  0  0
   -3.9680   43.3714   20.1271 H   0  0  0  0  0  0
   -5.5221   43.6023   20.8948 H   0  0  0  0  0  0
   -4.3312   42.5266   21.6468 H   0  0  0  0  0  0
   -5.7377   44.9779   22.9735 H   0  0  0  0  0  0
   -4.8438   46.8854   24.2474 H   0  0  0  0  0  0
   -1.0829   46.4730   22.2056 H   0  0  0  0  0  0
   -1.9618   44.5573   20.9533 H   0  0  0  0  0  0
   -1.3635   47.7776   24.3030 H   0  0  0  0  0  0
   -1.4408   49.8376   26.8801 H   0  0  0  0  0  0
   -0.7947   48.5605   25.8566 H   0  0  0  0  0  0
    0.9353   50.2711   26.3158 H   0  0  0  0  0  0
    0.5867   50.2121   24.6187 H   0  0  0  0  0  0
   -1.0788   52.0830   23.6256 H   0  0  0  0  0  0
   -1.6505   53.3080   24.7070 H   0  0  0  0  0  0
   -3.3964   51.6291   24.3332 H   0  0  0  0  0  0
   -2.9181   51.5770   26.0347 H   0  0  0  0  0  0
    1.0296   53.1205   22.9440 H   0  0  0  0  0  0
    3.3342   54.4070   23.2545 H   0  0  0  0  0  0
    3.8932   54.3096   25.9285 H   0  0  0  0  0  0
    3.9537   53.2702   28.0402 H   0  0  0  0  0  0
    3.5102   52.9190   30.4252 H   0  0  0  0  0  0
   -0.6408   52.2288   29.5761 H   0  0  0  0  0  0
   -1.3266   52.1299   27.3031 H   0  0  0  0  0  0
    1.9863   52.0175   32.1678 H   0  0  0  0  0  0
    0.8207   53.3544   32.1036 H   0  0  0  0  0  0
    0.3041   51.6993   31.8062 H   0  0  0  0  0  0
  1  2  1  0  0  0
  1 30  1  0  0  0
  1 31  1  0  0  0
  1 32  1  0  0  0
  2  7  2  0  0  0
  2  3  1  0  0  0
  3  4  2  0  0  0
  3 33  1  0  0  0
  4  5  1  0  0  0
  4 34  1  0  0  0
  5  6  2  0  0  0
  5  8  1  0  0  0
  6  7  1  0  0  0
  6 35  1  0  0  0
  7 36  1  0  0  0
  8  9  1  0  0  0
  8 37  1  0  0  0
  9 10  2  0  0  0
  9 11  1  0  0  0
 11 16  1  0  0  0
 11 12  1  0  0  0
 12 13  1  0  0  0
 12 38  1  0  0  0
 12 39  1  0  0  0
 13 14  1  0  0  0
 13 40  1  0  0  0
 13 41  1  0  0  0
 14 28  1  0  0  0
 14 15  1  0  0  0
 14 17  1  0  0  0
 15 16  1  0  0  0
 15 42  1  0  0  0
 15 43  1  0  0  0
 16 44  1  0  0  0
 16 45  1  0  0  0
 17 21  1  0  0  0
 17 18  2  0  0  0
 18 19  1  0  0  0
 18 46  1  0  0  0
 19 20  2  0  0  0
 19 47  1  0  0  0
 20 21  1  0  0  0
 20 48  1  0  0  0
 21 22  1  0  0  0
 22 27  2  0  0  0
 22 23  1  0  0  0
 23 24  2  0  0  0
 23 49  1  0  0  0
 24 25  1  0  0  0
 24 50  1  0  0  0
 25 26  2  0  0  0
 25 29  1  0  0  0
 26 27  1  0  0  0
 26 51  1  0  0  0
 27 28  1  0  0  0
 28 52  1  0  0  0
 29 53  1  0  0  0
 29 54  1  0  0  0
 29 55  1  0  0  0
M  END
> <i_i_glide_confnum>
18

> <i_i_glide_lignum>
5875

> <i_i_glide_posenum>
197

> <i_i_glide_rotatable_bonds>
3

> <i_m_Source_File_Index>
3787

> <b_m_subgroup_collapsed>
0

> <r_i_docking_score>
-4.09814

> <r_i_glide_ecoul>
-2.70639

> <r_i_glide_eff_state_penalty>
0

> <r_i_glide_einternal>
4.89236

> <r_i_glide_emodel>
-39.656

> <r_i_glide_energy>
-34.1911

> <r_i_glide_erotb>
0.39091

> <r_i_glide_esite>
-0.0689222

> <r_i_glide_evdw>
-31.4847

> <r_i_glide_gscore>
-4.09814

> <r_i_glide_hbond>
0

> <r_i_glide_ligand_efficiency>
-0.141315

> <r_i_glide_ligand_efficiency_ln>
-0.93837

> <r_i_glide_ligand_efficiency_sa>
-0.434165

> <r_i_glide_lipo>
-1.75124

> <r_i_glide_metal>
0

> <r_i_glide_rewards>
-0.688699

> <s_i_glide_gridfile>
wee1_glide-grid

> <s_m_Source_File>
wee1_decoys_glide_SP.sdf

> <s_m_Source_Path>
/Users/zhangxujun/Desktop

> <s_m_entry_id>
4062

> <s_m_entry_name>
wee1_decoys_glide_SP.3787

> <s_m_subgroup_title>
wee1_decoys_glide_SP

> <s_m_subgroupid>
wee1_decoys_glide_SP


$$$$
