ZINC09700031_4219
                    3D
 Schrodinger Suite 2024-2.
 55 59  0  0  1  0            999 V2000
   -2.2810   47.8625   25.3645 C   0  0  0  0  0  0
   -1.6579   48.9158   24.4669 C   0  0  0  0  0  0
   -2.4646   49.9176   23.9208 C   0  0  0  0  0  0
   -1.9371   50.9155   23.0998 C   0  0  0  0  0  0
   -0.5624   50.8933   22.8263 C   0  0  0  0  0  0
    0.2505   49.8608   23.3668 C   0  0  0  0  0  0
   -0.2883   48.8674   24.1957 C   0  0  0  0  0  0
    1.9027   50.0963   22.8309 S   0  0  0  0  0  0
    1.3678   51.5664   22.0183 C   0  0  0  0  0  0
    0.0934   51.8250   22.0837 N   0  0  0  0  0  0
    2.2253   52.4986   21.4600 N   0  0  0  0  0  0
    3.5577   52.3825   21.2808 C   0  0  0  0  0  0
    4.1913   51.3270   21.2797 O   0  0  0  0  0  0
    4.3183   53.7091   21.1499 C   0  0  0  0  0  0
    5.0286   54.1052   22.4451 C   0  0  0  0  0  0
    6.3586   54.4954   22.6086 C   0  0  0  0  0  0
    6.6982   54.7656   24.2913 S   0  0  0  0  0  0
    5.0372   54.3746   24.6251 C   0  0  0  0  0  0
    4.3207   54.0961   23.5663 N   0  0  0  0  0  0
    4.4498   54.3868   25.8803 N   0  0  0  0  0  0
    5.0432   54.4970   27.0884 C   0  0  0  0  0  0
    6.2623   54.5024   27.2626 O   0  0  0  0  0  0
    4.1128   54.7068   28.3167 C   0  0  2  0  0  0
    4.3237   55.6965   28.7001 H   0  0  0  0  0  0
    4.3779   53.7061   29.4294 C   0  0  0  0  0  0
    3.2106   52.7287   29.4226 C   0  0  0  0  0  0
    3.1818   51.6968   30.0833 O   0  0  0  0  0  0
    2.2761   53.2205   28.5662 N   0  0  0  0  0  0
    2.6224   54.5456   28.0624 C   0  0  0  0  0  0
    1.0381   52.6246   28.2913 C   0  0  0  0  0  0
    0.6379   52.4955   26.9562 C   0  0  0  0  0  0
   -0.6132   51.9644   26.6566 C   0  0  0  0  0  0
   -1.4628   51.5764   27.6865 C   0  0  0  0  0  0
   -1.0623   51.6964   29.0172 C   0  0  0  0  0  0
    0.1904   52.2134   29.3239 C   0  0  0  0  0  0
   -2.6893   51.0901   27.3921 F   0  0  0  0  0  0
   -1.6302   46.9932   25.4915 H   0  0  0  0  0  0
   -2.4962   48.2860   26.3476 H   0  0  0  0  0  0
   -3.2208   47.5023   24.9451 H   0  0  0  0  0  0
   -3.5201   49.9315   24.1521 H   0  0  0  0  0  0
   -2.5731   51.6902   22.6999 H   0  0  0  0  0  0
    0.3455   48.1027   24.6257 H   0  0  0  0  0  0
    1.8025   53.3781   21.1957 H   0  0  0  0  0  0
    5.0236   53.6058   20.3254 H   0  0  0  0  0  0
    3.6335   54.4994   20.8365 H   0  0  0  0  0  0
    7.1294   54.6095   21.8605 H   0  0  0  0  0  0
    3.4526   54.2516   25.8812 H   0  0  0  0  0  0
    5.2844   53.1146   29.2758 H   0  0  0  0  0  0
    4.4849   54.1986   30.3948 H   0  0  0  0  0  0
    2.0704   55.2744   28.6599 H   0  0  0  0  0  0
    2.2893   54.7614   27.0480 H   0  0  0  0  0  0
    1.2879   52.8011   26.1495 H   0  0  0  0  0  0
   -0.9298   51.8575   25.6306 H   0  0  0  0  0  0
   -1.7087   51.3539   29.8108 H   0  0  0  0  0  0
    0.4881   52.3020   30.3603 H   0  0  0  0  0  0
  1  2  1  0  0  0
  1 37  1  0  0  0
  1 38  1  0  0  0
  1 39  1  0  0  0
  2  7  2  0  0  0
  2  3  1  0  0  0
  3  4  2  0  0  0
  3 40  1  0  0  0
  4  5  1  0  0  0
  4 41  1  0  0  0
  5 10  1  0  0  0
  5  6  2  0  0  0
  6  7  1  0  0  0
  6  8  1  0  0  0
  7 42  1  0  0  0
  8  9  1  0  0  0
  9 10  2  0  0  0
  9 11  1  0  0  0
 11 12  1  0  0  0
 11 43  1  0  0  0
 12 13  2  0  0  0
 12 14  1  0  0  0
 14 15  1  0  0  0
 14 44  1  0  0  0
 14 45  1  0  0  0
 15 19  1  0  0  0
 15 16  2  0  0  0
 16 17  1  0  0  0
 16 46  1  0  0  0
 17 18  1  0  0  0
 18 19  2  0  0  0
 18 20  1  0  0  0
 20 21  1  0  0  0
 20 47  1  0  0  0
 21 22  2  0  0  0
 21 23  1  0  0  0
 23 24  1  0  0  0
 23 29  1  0  0  0
 23 25  1  0  0  0
 25 26  1  0  0  0
 25 48  1  0  0  0
 25 49  1  0  0  0
 26 27  2  0  0  0
 26 28  1  0  0  0
 28 29  1  0  0  0
 28 30  1  0  0  0
 29 50  1  0  0  0
 29 51  1  0  0  0
 30 35  2  0  0  0
 30 31  1  0  0  0
 31 32  2  0  0  0
 31 52  1  0  0  0
 32 33  1  0  0  0
 32 53  1  0  0  0
 33 34  2  0  0  0
 33 36  1  0  0  0
 34 35  1  0  0  0
 34 54  1  0  0  0
 35 55  1  0  0  0
M  END
> <i_i_glide_confnum>
138

> <i_i_glide_lignum>
4220

> <i_i_glide_posenum>
286

> <i_i_glide_rotatable_bonds>
8

> <i_m_Source_File_Index>
1162

> <b_m_subgroup_collapsed>
0

> <r_i_docking_score>
-6.63152

> <r_i_glide_ecoul>
-6.70516

> <r_i_glide_eff_state_penalty>
0

> <r_i_glide_einternal>
12.8089

> <r_i_glide_emodel>
-74.3244

> <r_i_glide_energy>
-58.9363

> <r_i_glide_erotb>
0.630981

> <r_i_glide_esite>
-0.0848657

> <r_i_glide_evdw>
-52.2312

> <r_i_glide_gscore>
-6.63152

> <r_i_glide_hbond>
-0.501634

> <r_i_glide_ligand_efficiency>
-0.189472

> <r_i_glide_ligand_efficiency_ln>
-1.45577

> <r_i_glide_ligand_efficiency_sa>
-0.619775

> <r_i_glide_lipo>
-2.19046

> <r_i_glide_metal>
0

> <r_i_glide_rewards>
-0.868204

> <s_i_glide_gridfile>
wee1_glide-grid

> <s_m_Source_File>
wee1_decoys_glide_SP.sdf

> <s_m_Source_Path>
/Users/zhangxujun/Desktop

> <s_m_entry_id>
1437

> <s_m_entry_name>
wee1_decoys_glide_SP.1162

> <s_m_subgroup_title>
wee1_decoys_glide_SP

> <s_m_subgroupid>
wee1_decoys_glide_SP


$$$$
