ZINC20168670_2868
                    3D
 Schrodinger Suite 2024-2.
 48 50  0  0  1  0            999 V2000
   -2.2010   52.7865   24.2237 C   0  0  0  0  0  0
   -1.1131   51.7193   24.4193 C   0  0  0  0  0  0
    0.0597   52.2773   25.0043 O   0  0  0  0  0  0
    1.0198   52.8720   24.2484 C   0  0  0  0  0  0
    0.9832   52.9714   23.0195 O   0  0  0  0  0  0
    2.1218   53.3868   25.0786 C   0  0  0  0  0  0
    2.1846   53.2891   26.4851 C   0  0  0  0  0  0
    3.3195   53.7999   27.1022 C   0  0  0  0  0  0
    4.2964   54.5775   25.9204 S   0  0  0  0  0  0
    3.2808   54.0263   24.6083 C   0  0  0  0  0  0
    3.5719   54.2615   23.2628 N   0  0  0  0  0  0
    4.7738   54.2994   22.6026 C   0  0  0  0  0  0
    6.3044   54.0970   23.2814 S   0  0  0  0  0  0
    4.5532   54.4963   21.2654 N   0  0  0  0  0  0
    5.5038   54.3917   20.2431 N   0  0  0  0  0  0
    6.3309   55.4215   19.9493 C   0  0  0  0  0  0
    6.3061   56.5346   20.4835 O   0  0  0  0  0  0
    7.3007   55.0971   18.9375 C   0  0  0  0  0  0
    7.3407   54.0967   17.9655 C   0  0  0  0  0  0
    8.5134   54.2916   17.2351 C   0  0  0  0  0  0
    9.1188   55.4224   17.7563 C   0  0  0  0  0  0
    8.3723   55.9203   18.7762 O   0  0  0  0  0  0
   10.7172   56.3428   17.2910 Br  0  0  0  0  0  0
    3.7353   53.7584   28.5541 C   0  0  0  0  0  0
    2.5545   54.0147   29.4638 C   0  0  0  0  0  0
    1.8627   52.9411   30.0347 C   0  0  0  0  0  0
    0.7470   53.1841   30.8289 C   0  0  0  0  0  0
    0.3422   54.4974   31.0460 C   0  0  0  0  0  0
    1.0304   55.5714   30.4813 C   0  0  0  0  0  0
    2.1366   55.3284   29.6787 C   0  0  0  0  0  0
   -3.0907   52.3535   23.7685 H   0  0  0  0  0  0
   -2.4963   53.2162   25.1802 H   0  0  0  0  0  0
   -1.8574   53.5975   23.5828 H   0  0  0  0  0  0
   -0.8838   51.2184   23.4765 H   0  0  0  0  0  0
   -1.4881   50.9469   25.0906 H   0  0  0  0  0  0
    1.4137   52.7999   27.0630 H   0  0  0  0  0  0
    2.7592   54.1653   22.6670 H   0  0  0  0  0  0
    3.6784   54.8753   20.9273 H   0  0  0  0  0  0
    5.5850   53.4590   19.8599 H   0  0  0  0  0  0
    6.6162   53.3096   17.8090 H   0  0  0  0  0  0
    8.8743   53.6879   16.4153 H   0  0  0  0  0  0
    4.1806   52.7908   28.7870 H   0  0  0  0  0  0
    4.5079   54.5023   28.7604 H   0  0  0  0  0  0
    2.1740   51.9255   29.8451 H   0  0  0  0  0  0
    0.2007   52.3669   31.2800 H   0  0  0  0  0  0
   -0.4965   54.6887   31.6839 H   0  0  0  0  0  0
    0.7091   56.5832   30.6714 H   0  0  0  0  0  0
    2.6668   56.1576   29.2319 H   0  0  0  0  0  0
  1  2  1  0  0  0
  1 31  1  0  0  0
  1 32  1  0  0  0
  1 33  1  0  0  0
  2  3  1  0  0  0
  2 34  1  0  0  0
  2 35  1  0  0  0
  3  4  1  0  0  0
  4  5  2  0  0  0
  4  6  1  0  0  0
  6 10  2  0  0  0
  6  7  1  0  0  0
  7  8  2  0  0  0
  7 36  1  0  0  0
  8  9  1  0  0  0
  8 24  1  0  0  0
  9 10  1  0  0  0
 10 11  1  0  0  0
 11 12  1  0  0  0
 11 37  1  0  0  0
 12 13  2  0  0  0
 12 14  1  0  0  0
 14 15  1  0  0  0
 14 38  1  0  0  0
 15 16  1  0  0  0
 15 39  1  0  0  0
 16 17  2  0  0  0
 16 18  1  0  0  0
 18 22  1  0  0  0
 18 19  2  0  0  0
 19 20  1  0  0  0
 19 40  1  0  0  0
 20 21  2  0  0  0
 20 41  1  0  0  0
 21 22  1  0  0  0
 21 23  1  0  0  0
 24 25  1  0  0  0
 24 42  1  0  0  0
 24 43  1  0  0  0
 25 30  2  0  0  0
 25 26  1  0  0  0
 26 27  2  0  0  0
 26 44  1  0  0  0
 27 28  1  0  0  0
 27 45  1  0  0  0
 28 29  2  0  0  0
 28 46  1  0  0  0
 29 30  1  0  0  0
 29 47  1  0  0  0
 30 48  1  0  0  0
M  END
> <i_i_glide_confnum>
266

> <i_i_glide_lignum>
2869

> <i_i_glide_posenum>
175

> <i_i_glide_rotatable_bonds>
11

> <i_m_Source_File_Index>
5145

> <b_m_subgroup_collapsed>
0

> <r_i_docking_score>
-5.92108

> <r_i_glide_ecoul>
-4.07039

> <r_i_glide_eff_state_penalty>
0

> <r_i_glide_einternal>
8.14791

> <r_i_glide_emodel>
-67.8374

> <r_i_glide_energy>
-52.2207

> <r_i_glide_erotb>
0.712848

> <r_i_glide_esite>
0

> <r_i_glide_evdw>
-48.1503

> <r_i_glide_gscore>
-5.92108

> <r_i_glide_hbond>
0

> <r_i_glide_ligand_efficiency>
-0.197369

> <r_i_glide_ligand_efficiency_ln>
-1.34533

> <r_i_glide_ligand_efficiency_sa>
-0.613272

> <r_i_glide_lipo>
-2.49548

> <r_i_glide_metal>
0

> <r_i_glide_rewards>
-1.12037

> <s_i_glide_gridfile>
wee1_glide-grid

> <s_m_Source_File>
wee1_decoys_glide_SP.sdf

> <s_m_Source_Path>
/Users/zhangxujun/Desktop

> <s_m_entry_id>
5420

> <s_m_entry_name>
wee1_decoys_glide_SP.5145

> <s_m_subgroup_title>
wee1_decoys_glide_SP

> <s_m_subgroupid>
wee1_decoys_glide_SP


$$$$
