ZINC40425347_223
                    3D
 Schrodinger Suite 2024-2.
 53 56  0  0  1  0            999 V2000
   -0.3639   50.9105   20.0286 C   0  0  0  0  0  0
    1.1266   51.3549   19.9581 C   0  0  0  0  0  0
    1.2439   52.3781   18.8011 C   0  0  0  0  0  0
    1.6344   52.0076   21.2736 C   0  0  0  0  0  0
    2.9432   52.5007   21.3150 C   0  0  0  0  0  0
    3.4693   53.0598   22.4741 C   0  0  0  0  0  0
    2.7053   53.1247   23.6157 N   0  0  0  0  0  0
    1.3934   52.6308   23.6227 C   0  0  0  0  0  0
    0.8478   52.0921   22.4383 C   0  0  0  0  0  0
    0.8482   52.7276   24.8537 N   0  0  0  0  0  0
    1.7970   53.2192   25.6324 C   0  0  0  0  0  0
    2.9759   53.5433   24.9152 C   0  0  0  0  0  0
    4.3023   54.0968   25.3853 C   0  0  0  0  0  0
    5.1565   54.8495   24.5692 C   0  0  0  0  0  0
    6.3588   55.2962   25.1184 C   0  0  0  0  0  0
    6.7043   55.0445   26.4054 N   0  0  0  0  0  0
    5.8217   54.3169   27.1300 C   0  0  0  0  0  0
    4.6470   53.8140   26.6738 N   0  0  0  0  0  0
    6.1361   54.0955   28.4634 N   0  0  0  0  0  0
    1.5045   53.3588   27.1008 C   0  0  0  0  0  0
    1.9205   54.4968   27.8002 C   0  0  0  0  0  0
    1.6120   54.6509   29.1509 C   0  0  0  0  0  0
    0.8862   53.6608   29.8090 C   0  0  0  0  0  0
    0.4718   52.5181   29.1293 C   0  0  0  0  0  0
    0.7806   52.3678   27.7790 C   0  0  0  0  0  0
    0.5804   53.8147   31.1162 F   0  0  0  0  0  0
    2.0094   50.1089   19.6036 N   0  3  0  0  0  0
    2.0059   49.0031   20.6889 C   0  0  0  0  0  0
    1.8173   49.4729   18.2020 C   0  0  0  0  0  0
   -1.0114   51.7650   20.2269 H   0  0  0  0  0  0
   -0.7110   50.4740   19.0933 H   0  0  0  0  0  0
   -0.5499   50.1813   20.8146 H   0  0  0  0  0  0
    0.7108   53.2975   19.0456 H   0  0  0  0  0  0
    2.2756   52.6517   18.5806 H   0  0  0  0  0  0
    0.8016   52.0180   17.8708 H   0  0  0  0  0  0
    3.5742   52.4348   20.4388 H   0  0  0  0  0  0
    4.4955   53.3758   22.5257 H   0  0  0  0  0  0
   -0.1616   51.7113   22.4648 H   0  0  0  0  0  0
    4.9014   55.1039   23.5589 H   0  0  0  0  0  0
    7.0577   55.8712   24.5262 H   0  0  0  0  0  0
    5.4582   53.6112   29.0301 H   0  0  0  0  0  0
    6.8616   54.6698   28.8825 H   0  0  0  0  0  0
    2.4753   55.2719   27.2917 H   0  0  0  0  0  0
    1.9258   55.5362   29.6822 H   0  0  0  0  0  0
   -0.0908   51.7535   29.6470 H   0  0  0  0  0  0
    0.4466   51.4817   27.2586 H   0  0  0  0  0  0
    1.0007   48.5898   20.7656 H   0  0  0  0  0  0
    2.3318   49.4447   21.6311 H   0  0  0  0  0  0
    2.7054   48.2280   20.3792 H   0  0  0  0  0  0
    0.7957   49.1056   18.1147 H   0  0  0  0  0  0
    2.0481   50.2207   17.4445 H   0  0  0  0  0  0
    2.5316   48.6532   18.0964 H   0  0  0  0  0  0
    2.9556   50.4693   19.5772 H   0  0  0  0  0  0
  1  2  1  0  0  0
  1 30  1  0  0  0
  1 31  1  0  0  0
  1 32  1  0  0  0
  2  3  1  0  0  0
  2  4  1  0  0  0
  2 27  1  0  0  0
  3 33  1  0  0  0
  3 34  1  0  0  0
  3 35  1  0  0  0
  4  9  2  0  0  0
  4  5  1  0  0  0
  5  6  2  0  0  0
  5 36  1  0  0  0
  6  7  1  0  0  0
  6 37  1  0  0  0
  7 12  1  0  0  0
  7  8  1  0  0  0
  8  9  1  0  0  0
  8 10  2  0  0  0
  9 38  1  0  0  0
 10 11  1  0  0  0
 11 12  2  0  0  0
 11 20  1  0  0  0
 12 13  1  0  0  0
 13 18  2  0  0  0
 13 14  1  0  0  0
 14 15  2  0  0  0
 14 39  1  0  0  0
 15 16  1  0  0  0
 15 40  1  0  0  0
 16 17  2  0  0  0
 17 18  1  0  0  0
 17 19  1  0  0  0
 19 41  1  0  0  0
 19 42  1  0  0  0
 20 25  2  0  0  0
 20 21  1  0  0  0
 21 22  2  0  0  0
 21 43  1  0  0  0
 22 23  1  0  0  0
 22 44  1  0  0  0
 23 24  2  0  0  0
 23 26  1  0  0  0
 24 25  1  0  0  0
 24 45  1  0  0  0
 25 46  1  0  0  0
 27 28  1  0  0  0
 27 29  1  0  0  0
 27 53  1  0  0  0
 28 47  1  0  0  0
 28 48  1  0  0  0
 28 49  1  0  0  0
 29 50  1  0  0  0
 29 51  1  0  0  0
 29 52  1  0  0  0
M  CHG  1  27   1
M  END
> <i_i_glide_confnum>
19

> <i_i_glide_lignum>
224

> <i_i_glide_posenum>
27

> <i_i_glide_rotatable_bonds>
4

> <i_m_Source_File_Index>
105

> <b_m_subgroup_collapsed>
0

> <r_i_docking_score>
-8.05405

> <r_i_glide_ecoul>
-3.92379

> <r_i_glide_eff_state_penalty>
0

> <r_i_glide_einternal>
1.21981

> <r_i_glide_emodel>
-66.6673

> <r_i_glide_energy>
-43.1092

> <r_i_glide_erotb>
0.267424

> <r_i_glide_esite>
-0.0478402

> <r_i_glide_evdw>
-39.1854

> <r_i_glide_gscore>
-8.05405

> <r_i_glide_hbond>
-0.582683

> <r_i_glide_ligand_efficiency>
-0.277726

> <r_i_glide_ligand_efficiency_ln>
-1.84417

> <r_i_glide_ligand_efficiency_sa>
-0.853262

> <r_i_glide_lipo>
-2.437

> <r_i_glide_metal>
0

> <r_i_glide_rewards>
-2.70612

> <s_i_glide_gridfile>
wee1_glide-grid

> <s_m_Source_File>
wee1_decoys_glide_SP.sdf

> <s_m_Source_Path>
/Users/zhangxujun/Desktop

> <s_m_entry_id>
380

> <s_m_entry_name>
wee1_decoys_glide_SP.105

> <s_m_subgroup_title>
wee1_decoys_glide_SP

> <s_m_subgroupid>
wee1_decoys_glide_SP


$$$$
