ZINC08958596_5735
                    3D
 Schrodinger Suite 2024-2.
 69 72  0  0  1  0            999 V2000
    6.9022   53.5831   28.2972 C   0  0  0  0  0  0
    5.8925   54.7334   28.3658 C   0  0  0  0  0  0
    4.7366   54.4626   27.5826 O   0  0  0  0  0  0
    4.7875   54.4835   26.2022 C   0  0  0  0  0  0
    5.9210   54.8979   25.4814 C   0  0  0  0  0  0
    5.9256   54.8872   24.0899 C   0  0  0  0  0  0
    4.7858   54.4907   23.3972 C   0  0  0  0  0  0
    3.6533   54.0975   24.1068 C   0  0  0  0  0  0
    3.6348   54.0738   25.4988 C   0  0  0  0  0  0
    2.3961   53.6002   25.9876 N   0  0  0  0  0  0
    1.4882   53.1075   25.0509 C   0  0  0  0  0  0
    0.4042   52.4830   25.3276 N   0  0  0  0  0  0
   -0.5547   52.1148   24.3920 C   0  0  0  0  0  0
   -0.3037   51.7667   23.2337 O   0  0  0  0  0  0
   -1.9752   52.0742   24.9253 C   0  0  0  0  0  0
   -3.0482   51.9450   24.0314 C   0  0  0  0  0  0
   -4.3605   51.8904   24.4941 C   0  0  0  0  0  0
   -4.6145   51.9605   25.8654 C   0  0  0  0  0  0
   -3.5605   52.0853   26.7676 C   0  0  0  0  0  0
   -2.2502   52.1397   26.3032 C   0  0  0  0  0  0
   -6.2897   51.8749   26.4915 S   0  0  0  0  0  0
   -7.1529   51.5642   25.3453 O   0  0  0  0  0  0
   -6.4810   53.0929   27.2893 O   0  0  0  0  0  0
   -6.2826   50.4770   27.5826 N   0  0  0  0  0  0
   -6.0216   50.6270   29.0342 C   0  0  0  0  0  0
   -4.8295   49.7442   29.4683 C   0  0  2  0  0  0
   -3.9353   50.0830   28.9417 H   0  0  0  0  0  0
   -5.1015   48.2787   29.0378 C   0  0  0  0  0  0
   -5.3607   48.1374   27.5117 C   0  0  1  0  0  0
   -5.7336   47.1254   27.3475 H   0  0  0  0  0  0
   -6.4985   49.0973   27.0739 C   0  0  0  0  0  0
   -4.0908   48.3119   26.6538 C   0  0  0  0  0  0
   -4.5727   49.8734   30.9795 C   0  0  0  0  0  0
    2.1245   53.6022   23.4322 S   0  0  0  0  0  0
    2.0495   53.5874   27.4238 C   0  0  0  0  0  0
    2.4686   52.2859   28.1451 C   0  0  0  0  0  0
    2.1575   52.3081   29.5369 O   0  0  0  0  0  0
    0.7706   52.1892   29.8471 C   0  0  0  0  0  0
    7.6716   53.6969   29.0616 H   0  0  0  0  0  0
    6.3874   52.6365   28.4616 H   0  0  0  0  0  0
    7.4000   53.5114   27.3322 H   0  0  0  0  0  0
    6.3048   55.6958   28.0815 H   0  0  0  0  0  0
    5.5527   54.8504   29.3951 H   0  0  0  0  0  0
    6.8139   55.2350   25.9815 H   0  0  0  0  0  0
    6.8092   55.1964   23.5487 H   0  0  0  0  0  0
    4.7893   54.4974   22.3164 H   0  0  0  0  0  0
   -2.8755   51.8792   22.9663 H   0  0  0  0  0  0
   -5.1736   51.7881   23.7879 H   0  0  0  0  0  0
   -3.7499   52.0979   27.8293 H   0  0  0  0  0  0
   -1.4543   52.2149   27.0319 H   0  0  0  0  0  0
   -6.9365   50.3451   29.5580 H   0  0  0  0  0  0
   -5.8359   51.6772   29.2645 H   0  0  0  0  0  0
   -5.9602   47.8972   29.5940 H   0  0  0  0  0  0
   -4.2645   47.6483   29.3473 H   0  0  0  0  0  0
   -6.5888   49.1369   25.9880 H   0  0  0  0  0  0
   -7.4626   48.7623   27.4618 H   0  0  0  0  0  0
   -3.6271   49.2864   26.7986 H   0  0  0  0  0  0
   -4.3135   48.2086   25.5901 H   0  0  0  0  0  0
   -3.3418   47.5582   26.9036 H   0  0  0  0  0  0
   -5.4201   49.5242   31.5697 H   0  0  0  0  0  0
   -3.7021   49.2966   31.2793 H   0  0  0  0  0  0
   -4.3710   50.9030   31.2683 H   0  0  0  0  0  0
    2.4929   54.4501   27.9166 H   0  0  0  0  0  0
    0.9714   53.7196   27.5167 H   0  0  0  0  0  0
    2.0092   51.4115   27.6808 H   0  0  0  0  0  0
    3.5474   52.1526   28.0729 H   0  0  0  0  0  0
    0.6468   52.0985   30.9275 H   0  0  0  0  0  0
    0.2031   53.0637   29.5258 H   0  0  0  0  0  0
    0.3306   51.3011   29.3905 H   0  0  0  0  0  0
  1  2  1  0  0  0
  1 39  1  0  0  0
  1 40  1  0  0  0
  1 41  1  0  0  0
  2  3  1  0  0  0
  2 42  1  0  0  0
  2 43  1  0  0  0
  3  4  1  0  0  0
  4  9  2  0  0  0
  4  5  1  0  0  0
  5  6  2  0  0  0
  5 44  1  0  0  0
  6  7  1  0  0  0
  6 45  1  0  0  0
  7  8  2  0  0  0
  7 46  1  0  0  0
  8 34  1  0  0  0
  8  9  1  0  0  0
  9 10  1  0  0  0
 10 11  1  0  0  0
 10 35  1  0  0  0
 11 12  2  0  0  0
 11 34  1  0  0  0
 12 13  1  0  0  0
 13 14  2  0  0  0
 13 15  1  0  0  0
 15 20  2  0  0  0
 15 16  1  0  0  0
 16 17  2  0  0  0
 16 47  1  0  0  0
 17 18  1  0  0  0
 17 48  1  0  0  0
 18 19  2  0  0  0
 18 21  1  0  0  0
 19 20  1  0  0  0
 19 49  1  0  0  0
 20 50  1  0  0  0
 21 22  2  0  0  0
 21 23  2  0  0  0
 21 24  1  0  0  0
 24 31  1  0  0  0
 24 25  1  0  0  0
 25 26  1  0  0  0
 25 51  1  0  0  0
 25 52  1  0  0  0
 26 27  1  0  0  0
 26 28  1  0  0  0
 26 33  1  0  0  0
 28 29  1  0  0  0
 28 53  1  0  0  0
 28 54  1  0  0  0
 29 30  1  0  0  0
 29 31  1  0  0  0
 29 32  1  0  0  0
 31 55  1  0  0  0
 31 56  1  0  0  0
 32 57  1  0  0  0
 32 58  1  0  0  0
 32 59  1  0  0  0
 33 60  1  0  0  0
 33 61  1  0  0  0
 33 62  1  0  0  0
 35 36  1  0  0  0
 35 63  1  0  0  0
 35 64  1  0  0  0
 36 37  1  0  0  0
 36 65  1  0  0  0
 36 66  1  0  0  0
 37 38  1  0  0  0
 38 67  1  0  0  0
 38 68  1  0  0  0
 38 69  1  0  0  0
M  END
> <i_i_glide_confnum>
75

> <i_i_glide_lignum>
5736

> <i_i_glide_posenum>
35

> <i_i_glide_rotatable_bonds>
9

> <i_m_Source_File_Index>
3658

> <b_m_subgroup_collapsed>
0

> <r_i_docking_score>
-4.21668

> <r_i_glide_ecoul>
-1.60586

> <r_i_glide_eff_state_penalty>
0

> <r_i_glide_einternal>
5.36432

> <r_i_glide_emodel>
-53.83

> <r_i_glide_energy>
-46.3885

> <r_i_glide_erotb>
0.510626

> <r_i_glide_esite>
-0.00183615

> <r_i_glide_evdw>
-44.7826

> <r_i_glide_gscore>
-4.21668

> <r_i_glide_hbond>
0

> <r_i_glide_ligand_efficiency>
-0.11713

> <r_i_glide_ligand_efficiency_ln>
-0.919965

> <r_i_glide_ligand_efficiency_sa>
-0.386755

> <r_i_glide_lipo>
-2.65947

> <r_i_glide_metal>
0

> <r_i_glide_rewards>
0.414013

> <s_i_glide_gridfile>
wee1_glide-grid

> <s_m_Source_File>
wee1_decoys_glide_SP.sdf

> <s_m_Source_Path>
/Users/zhangxujun/Desktop

> <s_m_entry_id>
3933

> <s_m_entry_name>
wee1_decoys_glide_SP.3658

> <s_m_subgroup_title>
wee1_decoys_glide_SP

> <s_m_subgroupid>
wee1_decoys_glide_SP


$$$$
