ZINC63182446_4914
                    3D
 Schrodinger Suite 2024-2.
 65 69  0  0  1  0            999 V2000
    0.9946   54.1255   29.6430 C   0  0  0  0  0  0
    0.2680   53.1416   30.4352 C   0  0  0  0  0  0
   -0.3371   52.0668   29.8651 C   0  0  0  0  0  0
   -0.2687   51.8657   28.4804 C   0  0  0  0  0  0
   -0.7652   50.8967   27.7486 N   0  3  0  0  0  0
   -0.4206   51.0849   26.3390 C   0  0  2  0  0  0
    0.2390   50.2520   26.0867 H   0  0  0  0  0  0
    0.3389   52.3975   26.3814 C   0  0  0  0  0  0
    0.4182   52.7789   27.6737 C   0  0  0  0  0  0
    1.0606   53.9421   28.3080 C   0  0  0  0  0  0
    0.8508   53.0388   25.1026 C   0  0  0  0  0  0
    1.7102   52.1064   24.2123 C   0  0  0  0  0  0
    1.8396   52.5549   22.7443 C   0  0  0  0  0  0
    1.5052   53.7062   22.4816 O   0  0  0  0  0  0
    2.1820   51.6573   21.7799 N   0  0  0  0  0  0
    2.1478   52.0433   20.3492 C   0  0  0  0  0  0
    1.4366   50.9085   19.5717 C   0  0  0  0  0  0
    2.1760   49.5647   19.7792 C   0  0  0  0  0  0
    2.1596   49.2639   21.3003 C   0  0  0  0  0  0
    2.8751   50.3877   22.0812 C   0  0  0  0  0  0
    1.4044   48.4385   19.0544 C   0  0  0  0  0  0
    0.2402   48.1984   19.3859 O   0  0  0  0  0  0
    2.0628   47.7712   18.0774 N   0  0  0  0  0  0
    1.5941   46.6617   17.3275 C   0  0  0  0  0  0
    0.7023   45.7250   17.8861 C   0  0  0  0  0  0
    0.2558   44.6305   17.1485 C   0  0  0  0  0  0
    0.6914   44.4477   15.8404 C   0  0  0  0  0  0
    1.5782   45.3589   15.2732 C   0  0  0  0  0  0
    2.0355   46.4590   16.0017 C   0  0  0  0  0  0
    2.9103   47.2966   15.3541 O   0  0  0  0  0  0
   -1.6565   51.0532   25.4427 C   0  0  0  0  0  0
   -2.6607   52.0205   25.5706 C   0  0  0  0  0  0
   -3.7850   51.9678   24.7518 C   0  0  0  0  0  0
   -3.9040   50.9516   23.8082 C   0  0  0  0  0  0
   -2.9059   49.9910   23.6699 C   0  0  0  0  0  0
   -1.7816   50.0397   24.4892 C   0  0  0  0  0  0
   -5.0001   50.8945   23.0206 F   0  0  0  0  0  0
    1.4559   54.9839   30.1103 H   0  0  0  0  0  0
    0.1928   53.2701   31.5075 H   0  0  0  0  0  0
   -0.8776   51.3762   30.5033 H   0  0  0  0  0  0
    1.5956   54.6782   27.7244 H   0  0  0  0  0  0
   -0.0308   53.3703   24.5506 H   0  0  0  0  0  0
    1.4107   53.9446   25.3397 H   0  0  0  0  0  0
    2.7043   52.0965   24.6403 H   0  0  0  0  0  0
    1.3140   51.0920   24.2350 H   0  0  0  0  0  0
    1.5954   52.9664   20.1760 H   0  0  0  0  0  0
    3.1711   52.1641   19.9883 H   0  0  0  0  0  0
    0.4093   50.8838   19.9435 H   0  0  0  0  0  0
    1.4595   51.2056   18.5214 H   0  0  0  0  0  0
    3.1906   49.5968   19.3755 H   0  0  0  0  0  0
    2.7048   48.3462   21.5232 H   0  0  0  0  0  0
    1.1475   49.2138   21.7078 H   0  0  0  0  0  0
    3.9036   50.4965   21.7322 H   0  0  0  0  0  0
    2.8856   50.1134   23.1359 H   0  0  0  0  0  0
    2.9318   48.1896   17.7582 H   0  0  0  0  0  0
    0.3567   45.8224   18.9041 H   0  0  0  0  0  0
   -0.4291   43.9232   17.5931 H   0  0  0  0  0  0
    0.3446   43.6017   15.2651 H   0  0  0  0  0  0
    1.9131   45.2112   14.2574 H   0  0  0  0  0  0
    3.3218   47.9999   15.8914 H   0  0  0  0  0  0
   -2.5726   52.8066   26.3067 H   0  0  0  0  0  0
   -4.5671   52.7058   24.8499 H   0  0  0  0  0  0
   -3.0092   49.2080   22.9339 H   0  0  0  0  0  0
   -1.0151   49.2856   24.3819 H   0  0  0  0  0  0
   -1.2411   50.0423   28.0813 H   0  0  0  0  0  0
  1 10  2  0  0  0
  1  2  1  0  0  0
  1 38  1  0  0  0
  2  3  2  0  0  0
  2 39  1  0  0  0
  3  4  1  0  0  0
  3 40  1  0  0  0
  4  9  1  0  0  0
  4  5  2  0  0  0
  5  6  1  0  0  0
  5 65  1  0  0  0
  6  7  1  0  0  0
  6  8  1  0  0  0
  6 31  1  0  0  0
  8  9  2  0  0  0
  8 11  1  0  0  0
  9 10  1  0  0  0
 10 41  1  0  0  0
 11 12  1  0  0  0
 11 42  1  0  0  0
 11 43  1  0  0  0
 12 13  1  0  0  0
 12 44  1  0  0  0
 12 45  1  0  0  0
 13 14  2  0  0  0
 13 15  1  0  0  0
 15 20  1  0  0  0
 15 16  1  0  0  0
 16 17  1  0  0  0
 16 46  1  0  0  0
 16 47  1  0  0  0
 17 18  1  0  0  0
 17 48  1  0  0  0
 17 49  1  0  0  0
 18 19  1  0  0  0
 18 21  1  0  0  0
 18 50  1  0  0  0
 19 20  1  0  0  0
 19 51  1  0  0  0
 19 52  1  0  0  0
 20 53  1  0  0  0
 20 54  1  0  0  0
 21 22  2  0  0  0
 21 23  1  0  0  0
 23 24  1  0  0  0
 23 55  1  0  0  0
 24 29  2  0  0  0
 24 25  1  0  0  0
 25 26  2  0  0  0
 25 56  1  0  0  0
 26 27  1  0  0  0
 26 57  1  0  0  0
 27 28  2  0  0  0
 27 58  1  0  0  0
 28 29  1  0  0  0
 28 59  1  0  0  0
 29 30  1  0  0  0
 30 60  1  0  0  0
 31 36  2  0  0  0
 31 32  1  0  0  0
 32 33  2  0  0  0
 32 61  1  0  0  0
 33 34  1  0  0  0
 33 62  1  0  0  0
 34 35  2  0  0  0
 34 37  1  0  0  0
 35 36  1  0  0  0
 35 63  1  0  0  0
 36 64  1  0  0  0
M  CHG  1   5   1
M  END
> <i_i_glide_confnum>
108

> <i_i_glide_lignum>
4915

> <i_i_glide_posenum>
286

> <i_i_glide_rotatable_bonds>
9

> <i_m_Source_File_Index>
3104

> <b_m_subgroup_collapsed>
0

> <r_i_docking_score>
-4.6849

> <r_i_glide_ecoul>
-10.088

> <r_i_glide_eff_state_penalty>
0

> <r_i_glide_einternal>
4.00408

> <r_i_glide_emodel>
-59.3887

> <r_i_glide_energy>
-44.9989

> <r_i_glide_erotb>
0.686771

> <r_i_glide_esite>
-0.234768

> <r_i_glide_evdw>
-34.9108

> <r_i_glide_gscore>
-4.6849

> <r_i_glide_hbond>
-0.504

> <r_i_glide_ligand_efficiency>
-0.130136

> <r_i_glide_ligand_efficiency_ln>
-1.02212

> <r_i_glide_ligand_efficiency_sa>
-0.4297

> <r_i_glide_lipo>
-1.03842

> <r_i_glide_metal>
0

> <r_i_glide_rewards>
-0.335739

> <s_i_glide_gridfile>
wee1_glide-grid

> <s_m_Source_File>
wee1_decoys_glide_SP.sdf

> <s_m_Source_Path>
/Users/zhangxujun/Desktop

> <s_m_entry_id>
3379

> <s_m_entry_name>
wee1_decoys_glide_SP.3104

> <s_m_subgroup_title>
wee1_decoys_glide_SP

> <s_m_subgroupid>
wee1_decoys_glide_SP


$$$$
