ZINC00672931_2336
                    3D
 Schrodinger Suite 2024-2.
 55 59  0  0  1  0            999 V2000
    6.8219   55.2324   17.8783 C   0  0  0  0  0  0
    6.7654   55.2124   19.3881 C   0  0  0  0  0  0
    7.6826   55.6967   20.3146 C   0  0  0  0  0  0
    7.3022   55.5103   21.6460 C   0  0  0  0  0  0
    6.0816   54.8631   21.7936 C   0  0  0  0  0  0
    5.4158   54.4974   20.2251 S   0  0  0  0  0  0
    5.3539   54.4920   23.0489 C   0  0  0  0  0  0
    3.9981   54.1639   23.0610 C   0  0  0  0  0  0
    3.3145   53.9855   24.2705 C   0  0  0  0  0  0
    4.0623   54.1474   25.4985 C   0  0  0  0  0  0
    3.5114   54.0957   26.8161 C   0  0  0  0  0  0
    4.3265   54.1954   27.9403 C   0  0  0  0  0  0
    5.6966   54.3779   27.8086 C   0  0  0  0  0  0
    6.2715   54.4926   26.5490 C   0  0  0  0  0  0
    5.4694   54.4007   25.3857 C   0  0  0  0  0  0
    6.0874   54.5755   24.1863 N   0  0  0  0  0  0
    1.8446   53.6287   24.1897 C   0  0  0  0  0  0
    1.1509   54.0960   23.2853 O   0  0  0  0  0  0
    1.3865   52.7778   25.1320 N   0  0  0  0  0  0
    0.1001   52.2498   25.2556 C   0  0  0  0  0  0
   -0.5257   51.8173   26.4370 C   0  0  0  0  0  0
   -1.8601   51.3720   26.2127 C   0  0  0  0  0  0
   -2.2071   51.3713   24.8518 C   0  0  0  0  0  0
   -0.9414   52.0478   23.8857 S   0  0  0  0  0  0
   -3.5081   50.8926   24.2444 C   0  0  0  0  0  0
   -4.7313   51.6965   24.7151 C   0  0  0  0  0  0
   -5.1844   51.3766   26.1546 C   0  0  0  0  0  0
   -4.1807   51.6952   27.2806 C   0  0  0  0  0  0
   -2.8601   50.8951   27.2628 C   0  0  0  0  0  0
    0.0720   51.9328   27.7546 C   0  0  0  0  0  0
   -0.4957   52.4765   28.6980 O   0  0  0  0  0  0
    1.3153   51.4669   27.8654 N   0  0  0  0  0  0
    7.7255   55.7182   17.5086 H   0  0  0  0  0  0
    6.8065   54.2241   17.4616 H   0  0  0  0  0  0
    5.9738   55.7706   17.4527 H   0  0  0  0  0  0
    8.6102   56.1715   20.0255 H   0  0  0  0  0  0
    7.9008   55.8344   22.4833 H   0  0  0  0  0  0
    3.4599   54.0942   22.1255 H   0  0  0  0  0  0
    2.4529   53.9939   26.9781 H   0  0  0  0  0  0
    3.8865   54.1411   28.9236 H   0  0  0  0  0  0
    6.3134   54.4581   28.6931 H   0  0  0  0  0  0
    7.3333   54.6494   26.4523 H   0  0  0  0  0  0
    1.9865   52.6430   25.9313 H   0  0  0  0  0  0
   -3.6695   49.8475   24.5093 H   0  0  0  0  0  0
   -3.4502   50.9097   23.1563 H   0  0  0  0  0  0
   -5.5640   51.4834   24.0437 H   0  0  0  0  0  0
   -4.5376   52.7661   24.6108 H   0  0  0  0  0  0
   -5.4627   50.3236   26.2168 H   0  0  0  0  0  0
   -6.1050   51.9287   26.3513 H   0  0  0  0  0  0
   -4.6782   51.5057   28.2327 H   0  0  0  0  0  0
   -3.9567   52.7616   27.2781 H   0  0  0  0  0  0
   -2.4299   50.9141   28.2639 H   0  0  0  0  0  0
   -3.0822   49.8384   27.1048 H   0  0  0  0  0  0
    1.6755   50.8356   27.1661 H   0  0  0  0  0  0
    1.7898   51.5708   28.7488 H   0  0  0  0  0  0
  1  2  1  0  0  0
  1 33  1  0  0  0
  1 34  1  0  0  0
  1 35  1  0  0  0
  2  6  1  0  0  0
  2  3  2  0  0  0
  3  4  1  0  0  0
  3 36  1  0  0  0
  4  5  2  0  0  0
  4 37  1  0  0  0
  5  6  1  0  0  0
  5  7  1  0  0  0
  7 16  2  0  0  0
  7  8  1  0  0  0
  8  9  2  0  0  0
  8 38  1  0  0  0
  9 10  1  0  0  0
  9 17  1  0  0  0
 10 15  2  0  0  0
 10 11  1  0  0  0
 11 12  2  0  0  0
 11 39  1  0  0  0
 12 13  1  0  0  0
 12 40  1  0  0  0
 13 14  2  0  0  0
 13 41  1  0  0  0
 14 15  1  0  0  0
 14 42  1  0  0  0
 15 16  1  0  0  0
 17 18  2  0  0  0
 17 19  1  0  0  0
 19 20  1  0  0  0
 19 43  1  0  0  0
 20 24  1  0  0  0
 20 21  2  0  0  0
 21 22  1  0  0  0
 21 30  1  0  0  0
 22 29  1  0  0  0
 22 23  2  0  0  0
 23 24  1  0  0  0
 23 25  1  0  0  0
 25 26  1  0  0  0
 25 44  1  0  0  0
 25 45  1  0  0  0
 26 27  1  0  0  0
 26 46  1  0  0  0
 26 47  1  0  0  0
 27 28  1  0  0  0
 27 48  1  0  0  0
 27 49  1  0  0  0
 28 29  1  0  0  0
 28 50  1  0  0  0
 28 51  1  0  0  0
 29 52  1  0  0  0
 29 53  1  0  0  0
 30 31  2  0  0  0
 30 32  1  0  0  0
 32 54  1  0  0  0
 32 55  1  0  0  0
M  END
> <i_i_glide_confnum>
67

> <i_i_glide_lignum>
2337

> <i_i_glide_posenum>
347

> <i_i_glide_rotatable_bonds>
5

> <i_m_Source_File_Index>
4448

> <b_m_subgroup_collapsed>
0

> <r_i_docking_score>
-5.90388

> <r_i_glide_ecoul>
-0.996439

> <r_i_glide_eff_state_penalty>
0

> <r_i_glide_einternal>
7.75015

> <r_i_glide_emodel>
-62.6419

> <r_i_glide_energy>
-49.7531

> <r_i_glide_erotb>
0.378034

> <r_i_glide_esite>
-0.00131274

> <r_i_glide_evdw>
-48.7566

> <r_i_glide_gscore>
-5.90388

> <r_i_glide_hbond>
0

> <r_i_glide_ligand_efficiency>
-0.184496

> <r_i_glide_ligand_efficiency_ln>
-1.32204

> <r_i_glide_ligand_efficiency_sa>
-0.585739

> <r_i_glide_lipo>
-2.96912

> <r_i_glide_metal>
0

> <r_i_glide_rewards>
-0.724185

> <s_i_glide_gridfile>
wee1_glide-grid

> <s_m_Source_File>
wee1_decoys_glide_SP.sdf

> <s_m_Source_Path>
/Users/zhangxujun/Desktop

> <s_m_entry_id>
4723

> <s_m_entry_name>
wee1_decoys_glide_SP.4448

> <s_m_subgroup_title>
wee1_decoys_glide_SP

> <s_m_subgroupid>
wee1_decoys_glide_SP


$$$$
