ZINC08965983_2440
                    3D
 Schrodinger Suite 2024-2.
 52 55  0  0  1  0            999 V2000
    7.3347   55.6972   20.8199 C   0  0  0  0  0  0
    6.4801   55.1992   19.8420 C   0  0  0  0  0  0
    5.3985   54.4025   20.2074 C   0  0  0  0  0  0
    5.1632   54.0967   21.5557 C   0  0  0  0  0  0
    6.0284   54.5942   22.5549 C   0  0  0  0  0  0
    7.1045   55.4075   22.1639 C   0  0  0  0  0  0
    5.7301   54.2936   23.9025 N   0  0  0  0  0  0
    6.1501   54.8614   25.0559 C   0  0  0  0  0  0
    7.1006   55.6376   25.1623 O   0  0  0  0  0  0
    5.3359   54.4920   26.2781 C   0  0  0  0  0  0
    5.8771   54.6227   27.5648 C   0  0  0  0  0  0
    5.0993   54.3589   28.6941 C   0  0  0  0  0  0
    3.7769   53.9343   28.5571 C   0  0  0  0  0  0
    3.2252   53.7806   27.2836 C   0  0  0  0  0  0
    4.0022   54.0669   26.1633 C   0  0  0  0  0  0
    1.9042   53.3765   27.0626 N   0  0  0  0  0  0
    1.0285   52.2561   28.1105 S   0  0  0  0  0  0
    1.9988   51.2971   28.6511 O   0  0  0  0  0  0
    0.1991   53.0816   28.9957 O   0  0  0  0  0  0
   -0.0474   51.3992   26.9672 C   0  0  0  0  0  0
    0.3005   50.1343   26.4819 C   0  0  0  0  0  0
   -0.5167   49.4899   25.5543 C   0  0  0  0  0  0
   -1.6841   50.1076   25.1053 C   0  0  0  0  0  0
   -2.0355   51.3713   25.5869 C   0  0  0  0  0  0
   -1.2197   52.0145   26.5180 C   0  0  0  0  0  0
   -3.1611   51.9797   25.1474 F   0  0  0  0  0  0
   -2.4712   49.4801   24.2016 F   0  0  0  0  0  0
    4.0460   53.3065   21.8848 N   0  0  0  0  0  0
    2.8211   53.8678   22.4530 C   0  0  0  0  0  0
    1.9660   52.6672   22.7906 C   0  0  0  0  0  0
    2.4498   51.6215   21.8100 C   0  0  0  0  0  0
    3.8756   52.0322   21.4437 C   0  0  0  0  0  0
    4.6947   51.3074   20.8831 O   0  0  0  0  0  0
    8.1813   56.3048   20.5346 H   0  0  0  0  0  0
    6.6563   55.4233   18.8003 H   0  0  0  0  0  0
    4.7413   54.0205   19.4382 H   0  0  0  0  0  0
    7.7916   55.8235   22.8823 H   0  0  0  0  0  0
    4.9810   53.6275   24.0007 H   0  0  0  0  0  0
    6.8966   54.9580   27.7010 H   0  0  0  0  0  0
    5.5212   54.5001   29.6772 H   0  0  0  0  0  0
    3.1834   53.7327   29.4366 H   0  0  0  0  0  0
    3.5407   53.9600   25.1972 H   0  0  0  0  0  0
    1.6182   53.3401   26.0979 H   0  0  0  0  0  0
    1.1886   49.6334   26.8374 H   0  0  0  0  0  0
   -0.2520   48.5047   25.1997 H   0  0  0  0  0  0
   -1.4991   52.9928   26.8817 H   0  0  0  0  0  0
    3.0134   54.5344   23.2914 H   0  0  0  0  0  0
    2.3603   54.4822   21.6821 H   0  0  0  0  0  0
    0.8980   52.8759   22.7188 H   0  0  0  0  0  0
    2.1660   52.3379   23.8124 H   0  0  0  0  0  0
    1.8603   51.6405   20.8923 H   0  0  0  0  0  0
    2.4071   50.6101   22.2149 H   0  0  0  0  0  0
  1  6  2  0  0  0
  1  2  1  0  0  0
  1 34  1  0  0  0
  2  3  2  0  0  0
  2 35  1  0  0  0
  3  4  1  0  0  0
  3 36  1  0  0  0
  4  5  2  0  0  0
  4 28  1  0  0  0
  5  6  1  0  0  0
  5  7  1  0  0  0
  6 37  1  0  0  0
  7  8  1  0  0  0
  7 38  1  0  0  0
  8  9  2  0  0  0
  8 10  1  0  0  0
 10 15  2  0  0  0
 10 11  1  0  0  0
 11 12  2  0  0  0
 11 39  1  0  0  0
 12 13  1  0  0  0
 12 40  1  0  0  0
 13 14  2  0  0  0
 13 41  1  0  0  0
 14 15  1  0  0  0
 14 16  1  0  0  0
 15 42  1  0  0  0
 16 17  1  0  0  0
 16 43  1  0  0  0
 17 18  2  0  0  0
 17 19  2  0  0  0
 17 20  1  0  0  0
 20 25  2  0  0  0
 20 21  1  0  0  0
 21 22  2  0  0  0
 21 44  1  0  0  0
 22 23  1  0  0  0
 22 45  1  0  0  0
 23 24  2  0  0  0
 23 27  1  0  0  0
 24 25  1  0  0  0
 24 26  1  0  0  0
 25 46  1  0  0  0
 28 32  1  0  0  0
 28 29  1  0  0  0
 29 30  1  0  0  0
 29 47  1  0  0  0
 29 48  1  0  0  0
 30 31  1  0  0  0
 30 49  1  0  0  0
 30 50  1  0  0  0
 31 32  1  0  0  0
 31 51  1  0  0  0
 31 52  1  0  0  0
 32 33  2  0  0  0
M  END
> <i_i_glide_confnum>
114

> <i_i_glide_lignum>
2441

> <i_i_glide_posenum>
105

> <i_i_glide_rotatable_bonds>
7

> <i_m_Source_File_Index>
3977

> <b_m_subgroup_collapsed>
0

> <r_i_docking_score>
-5.5187

> <r_i_glide_ecoul>
-7.57151

> <r_i_glide_eff_state_penalty>
0

> <r_i_glide_einternal>
7.86401

> <r_i_glide_emodel>
-69.0969

> <r_i_glide_energy>
-58.2701

> <r_i_glide_erotb>
0.636508

> <r_i_glide_esite>
-0.0109138

> <r_i_glide_evdw>
-50.6986

> <r_i_glide_gscore>
-5.5187

> <r_i_glide_hbond>
-0.345468

> <r_i_glide_ligand_efficiency>
-0.167233

> <r_i_glide_ligand_efficiency_ln>
-1.22733

> <r_i_glide_ligand_efficiency_sa>
-0.536407

> <r_i_glide_lipo>
-2.4861

> <r_i_glide_metal>
0

> <r_i_glide_rewards>
0.357928

> <s_i_glide_gridfile>
wee1_glide-grid

> <s_m_Source_File>
wee1_decoys_glide_SP.sdf

> <s_m_Source_Path>
/Users/zhangxujun/Desktop

> <s_m_entry_id>
4252

> <s_m_entry_name>
wee1_decoys_glide_SP.3977

> <s_m_subgroup_title>
wee1_decoys_glide_SP

> <s_m_subgroupid>
wee1_decoys_glide_SP


$$$$
