ZINC00716531_4110
                    3D
 Schrodinger Suite 2024-2.
 50 53  0  0  1  0            999 V2000
    3.8460   54.0177   22.1997 C   0  0  0  0  0  0
    3.5172   53.8203   23.5467 C   0  0  0  0  0  0
    4.4883   54.0953   24.5197 C   0  0  0  0  0  0
    5.7550   54.5791   24.1188 C   0  0  0  0  0  0
    6.0901   54.7628   22.7738 C   0  0  0  0  0  0
    5.1047   54.4972   21.8113 C   0  0  0  0  0  0
    5.3159   54.7418   20.4410 N   0  0  0  0  0  0
    6.0595   55.7321   19.8926 C   0  0  0  0  0  0
    6.7059   56.5660   20.5334 O   0  0  0  0  0  0
    5.9682   55.8521   18.3923 C   0  0  0  0  0  0
    5.6749   57.1095   17.8410 C   0  0  0  0  0  0
    5.5953   57.2870   16.4610 C   0  0  0  0  0  0
    5.8249   56.2106   15.6081 C   0  0  0  0  0  0
    6.1451   54.9625   16.1374 C   0  0  0  0  0  0
    6.2325   54.7757   17.5193 C   0  0  0  0  0  0
    6.7020   53.2058   18.0821 Cl  0  0  0  0  0  0
    5.7336   56.4264   13.8979 Cl  0  0  0  0  0  0
    6.7044   54.8960   25.5418 S   0  0  0  0  0  0
    5.4671   54.1403   26.4936 C   0  0  0  0  0  0
    4.3545   53.8730   25.8597 N   0  0  0  0  0  0
    5.8690   53.7496   28.1636 S   0  0  0  0  0  0
    4.6124   52.5033   28.6227 C   0  0  0  0  0  0
    3.5521   53.0025   29.5952 C   0  0  0  0  0  0
    3.6362   54.1227   30.0895 O   0  0  0  0  0  0
    2.5077   52.1819   29.8035 N   0  0  0  0  0  0
    1.2702   52.5845   30.4846 C   0  0  0  0  0  0
    0.2931   53.3987   29.5998 C   0  0  2  0  0  0
   -0.6563   53.5629   30.1089 H   0  0  0  0  0  0
    0.0913   52.9068   28.1575 C   0  0  0  0  0  0
    1.1445   53.6180   27.3459 C   0  0  0  0  0  0
    1.2763   54.9550   28.0825 C   0  0  0  0  0  0
    0.8618   54.6988   29.4243 O   0  0  0  0  0  0
    3.0939   53.8200   21.4463 H   0  0  0  0  0  0
    2.5461   53.4443   23.8295 H   0  0  0  0  0  0
    7.0715   55.1272   22.5028 H   0  0  0  0  0  0
    4.7596   54.1945   19.8005 H   0  0  0  0  0  0
    5.5058   57.9658   18.4778 H   0  0  0  0  0  0
    5.3594   58.2625   16.0564 H   0  0  0  0  0  0
    6.3423   54.1340   15.4727 H   0  0  0  0  0  0
    5.1047   51.6794   29.1260 H   0  0  0  0  0  0
    4.1327   52.0975   27.7349 H   0  0  0  0  0  0
    2.4705   51.3162   29.2852 H   0  0  0  0  0  0
    1.5023   53.1470   31.3913 H   0  0  0  0  0  0
    0.7499   51.6968   30.8253 H   0  0  0  0  0  0
   -0.8929   53.2062   27.8051 H   0  0  0  0  0  0
    0.1100   51.8184   28.0729 H   0  0  0  0  0  0
    0.8941   53.6957   26.2910 H   0  0  0  0  0  0
    2.0781   53.0669   27.3572 H   0  0  0  0  0  0
    0.5948   55.6961   27.6818 H   0  0  0  0  0  0
    2.3003   55.3264   28.0375 H   0  0  0  0  0  0
  1  6  2  0  0  0
  1  2  1  0  0  0
  1 33  1  0  0  0
  2  3  2  0  0  0
  2 34  1  0  0  0
  3 20  1  0  0  0
  3  4  1  0  0  0
  4  5  2  0  0  0
  4 18  1  0  0  0
  5  6  1  0  0  0
  5 35  1  0  0  0
  6  7  1  0  0  0
  7  8  1  0  0  0
  7 36  1  0  0  0
  8  9  2  0  0  0
  8 10  1  0  0  0
 10 15  2  0  0  0
 10 11  1  0  0  0
 11 12  2  0  0  0
 11 37  1  0  0  0
 12 13  1  0  0  0
 12 38  1  0  0  0
 13 14  2  0  0  0
 13 17  1  0  0  0
 14 15  1  0  0  0
 14 39  1  0  0  0
 15 16  1  0  0  0
 18 19  1  0  0  0
 19 20  2  0  0  0
 19 21  1  0  0  0
 21 22  1  0  0  0
 22 23  1  0  0  0
 22 40  1  0  0  0
 22 41  1  0  0  0
 23 24  2  0  0  0
 23 25  1  0  0  0
 25 26  1  0  0  0
 25 42  1  0  0  0
 26 27  1  0  0  0
 26 43  1  0  0  0
 26 44  1  0  0  0
 27 28  1  0  0  0
 27 32  1  0  0  0
 27 29  1  0  0  0
 29 30  1  0  0  0
 29 45  1  0  0  0
 29 46  1  0  0  0
 30 31  1  0  0  0
 30 47  1  0  0  0
 30 48  1  0  0  0
 31 32  1  0  0  0
 31 49  1  0  0  0
 31 50  1  0  0  0
M  END
> <i_i_glide_confnum>
224

> <i_i_glide_lignum>
4111

> <i_i_glide_posenum>
229

> <i_i_glide_rotatable_bonds>
9

> <i_m_Source_File_Index>
629

> <b_m_subgroup_collapsed>
0

> <r_i_docking_score>
-6.50496

> <r_i_glide_ecoul>
-6.61264

> <r_i_glide_eff_state_penalty>
0

> <r_i_glide_einternal>
12.2032

> <r_i_glide_emodel>
-67.4381

> <r_i_glide_energy>
-52.0085

> <r_i_glide_erotb>
0.661967

> <r_i_glide_esite>
0

> <r_i_glide_evdw>
-45.3958

> <r_i_glide_gscore>
-6.50496

> <r_i_glide_hbond>
-0.524042

> <r_i_glide_ligand_efficiency>
-0.209837

> <r_i_glide_ligand_efficiency_ln>
-1.46707

> <r_i_glide_ligand_efficiency_sa>
-0.659179

> <r_i_glide_lipo>
-2.98874

> <r_i_glide_metal>
0

> <r_i_glide_rewards>
-0.392462

> <s_i_glide_gridfile>
wee1_glide-grid

> <s_m_Source_File>
wee1_decoys_glide_SP.sdf

> <s_m_Source_Path>
/Users/zhangxujun/Desktop

> <s_m_entry_id>
904

> <s_m_entry_name>
wee1_decoys_glide_SP.629

> <s_m_subgroup_title>
wee1_decoys_glide_SP

> <s_m_subgroupid>
wee1_decoys_glide_SP


$$$$
