ZINC46706313_2124
                    3D
 Schrodinger Suite 2024-2.
 57 59  0  0  1  0            999 V2000
    3.4941   53.7578   30.0820 C   0  0  0  0  0  0
    4.1152   53.9258   28.7075 C   0  0  0  0  0  0
    5.3863   54.4963   28.6486 C   0  0  0  0  0  0
    5.9963   54.7547   27.4298 C   0  0  0  0  0  0
    5.3371   54.4749   26.2299 C   0  0  0  0  0  0
    4.0532   53.9075   26.2838 C   0  0  0  0  0  0
    3.4461   53.6042   27.5069 C   0  0  0  0  0  0
    2.1631   53.0338   27.4357 N   0  0  0  0  0  0
    1.7215   51.9299   28.0815 C   0  0  0  0  0  0
    2.4040   51.2968   28.8825 O   0  0  0  0  0  0
    0.3234   51.3888   27.7128 C   0  0  0  0  0  0
   -0.7031   52.5500   27.5817 C   0  0  0  0  0  0
   -2.0313   52.0872   26.9533 C   0  0  0  0  0  0
   -1.7344   51.3748   25.6991 N   0  0  0  0  0  0
   -0.9707   50.1254   25.8532 C   0  0  0  0  0  0
    0.4138   50.4359   26.4723 C   0  0  0  0  0  0
   -2.4868   51.8203   24.1574 S   0  0  0  0  0  0
   -3.3250   50.6999   23.7156 O   0  0  0  0  0  0
   -3.0707   53.1612   24.2872 O   0  0  0  0  0  0
   -1.1453   51.9693   22.9874 C   0  0  0  0  0  0
    0.0848   52.4957   23.3867 C   0  0  0  0  0  0
    1.1287   52.5990   22.4693 C   0  0  0  0  0  0
    0.9389   52.1973   21.1457 C   0  0  0  0  0  0
   -0.3015   51.6961   20.7285 C   0  0  0  0  0  0
   -1.3370   51.5772   21.6615 C   0  0  0  0  0  0
   -0.5535   51.3002   19.2768 C   0  0  0  0  0  0
    0.5045   51.5264   18.4958 F   0  0  0  0  0  0
   -0.8551   50.0031   19.2113 F   0  0  0  0  0  0
   -1.5810   52.0060   18.8019 F   0  0  0  0  0  0
    6.0140   54.8169   24.9265 C   0  0  0  0  0  0
    6.8756   55.6953   24.8853 O   0  0  0  0  0  0
    5.6448   54.0971   23.8546 N   0  0  0  0  0  0
    6.2147   54.2843   22.5296 C   0  0  0  0  0  0
    3.9116   54.4968   30.7586 H   0  0  0  0  0  0
    2.4159   53.9196   30.0640 H   0  0  0  0  0  0
    3.7118   52.7722   30.4909 H   0  0  0  0  0  0
    5.9046   54.7740   29.5544 H   0  0  0  0  0  0
    6.9807   55.2013   27.4352 H   0  0  0  0  0  0
    3.5193   53.6890   25.3697 H   0  0  0  0  0  0
    1.5852   53.3687   26.6813 H   0  0  0  0  0  0
   -0.0216   50.8215   28.5781 H   0  0  0  0  0  0
   -0.8947   52.9943   28.5575 H   0  0  0  0  0  0
   -0.3416   53.2934   26.8818 H   0  0  0  0  0  0
   -2.5760   51.4126   27.6165 H   0  0  0  0  0  0
   -2.6859   52.9322   26.7457 H   0  0  0  0  0  0
   -1.5449   49.4445   26.4808 H   0  0  0  0  0  0
   -0.8705   49.6419   24.8803 H   0  0  0  0  0  0
    0.9713   50.9077   25.6645 H   0  0  0  0  0  0
    0.8694   49.4796   26.7389 H   0  0  0  0  0  0
    0.2360   52.8246   24.4040 H   0  0  0  0  0  0
    2.0824   53.0056   22.7751 H   0  0  0  0  0  0
    1.7544   52.3072   20.4449 H   0  0  0  0  0  0
   -2.2970   51.1838   21.3527 H   0  0  0  0  0  0
    4.9957   53.3379   23.9779 H   0  0  0  0  0  0
    5.7580   53.5930   21.8196 H   0  0  0  0  0  0
    7.2901   54.1003   22.5497 H   0  0  0  0  0  0
    6.0431   55.2967   22.1660 H   0  0  0  0  0  0
  1  2  1  0  0  0
  1 34  1  0  0  0
  1 35  1  0  0  0
  1 36  1  0  0  0
  2  7  2  0  0  0
  2  3  1  0  0  0
  3  4  2  0  0  0
  3 37  1  0  0  0
  4  5  1  0  0  0
  4 38  1  0  0  0
  5  6  2  0  0  0
  5 30  1  0  0  0
  6  7  1  0  0  0
  6 39  1  0  0  0
  7  8  1  0  0  0
  8  9  1  0  0  0
  8 40  1  0  0  0
  9 10  2  0  0  0
  9 11  1  0  0  0
 11 16  1  0  0  0
 11 12  1  0  0  0
 11 41  1  0  0  0
 12 13  1  0  0  0
 12 42  1  0  0  0
 12 43  1  0  0  0
 13 14  1  0  0  0
 13 44  1  0  0  0
 13 45  1  0  0  0
 14 15  1  0  0  0
 14 17  1  0  0  0
 15 16  1  0  0  0
 15 46  1  0  0  0
 15 47  1  0  0  0
 16 48  1  0  0  0
 16 49  1  0  0  0
 17 18  2  0  0  0
 17 19  2  0  0  0
 17 20  1  0  0  0
 20 25  2  0  0  0
 20 21  1  0  0  0
 21 22  2  0  0  0
 21 50  1  0  0  0
 22 23  1  0  0  0
 22 51  1  0  0  0
 23 24  2  0  0  0
 23 52  1  0  0  0
 24 25  1  0  0  0
 24 26  1  0  0  0
 25 53  1  0  0  0
 26 27  1  0  0  0
 26 28  1  0  0  0
 26 29  1  0  0  0
 30 31  2  0  0  0
 30 32  1  0  0  0
 32 33  1  0  0  0
 32 54  1  0  0  0
 33 55  1  0  0  0
 33 56  1  0  0  0
 33 57  1  0  0  0
M  END
> <i_i_glide_confnum>
23

> <i_i_glide_lignum>
2125

> <i_i_glide_posenum>
273

> <i_i_glide_rotatable_bonds>
8

> <i_m_Source_File_Index>
5831

> <b_m_subgroup_collapsed>
0

> <r_i_docking_score>
-4.33659

> <r_i_glide_ecoul>
-3.68352

> <r_i_glide_eff_state_penalty>
0

> <r_i_glide_einternal>
11.5636

> <r_i_glide_emodel>
-51.815

> <r_i_glide_energy>
-45.4399

> <r_i_glide_erotb>
0.521041

> <r_i_glide_esite>
-0.0624692

> <r_i_glide_evdw>
-41.7564

> <r_i_glide_gscore>
-4.33659

> <r_i_glide_hbond>
-0.281724

> <r_i_glide_ligand_efficiency>
-0.131412

> <r_i_glide_ligand_efficiency_ln>
-0.964435

> <r_i_glide_ligand_efficiency_sa>
-0.421508

> <r_i_glide_lipo>
-1.7542

> <r_i_glide_metal>
0

> <r_i_glide_rewards>
-0.118884

> <s_i_glide_gridfile>
wee1_glide-grid

> <s_m_Source_File>
wee1_decoys_glide_SP.sdf

> <s_m_Source_Path>
/Users/zhangxujun/Desktop

> <s_m_entry_id>
6106

> <s_m_entry_name>
wee1_decoys_glide_SP.5831

> <s_m_subgroup_title>
wee1_decoys_glide_SP

> <s_m_subgroupid>
wee1_decoys_glide_SP


$$$$
