ZINC13565754_5482
                    3D
 Schrodinger Suite 2024-2.
 63 65  0  0  1  0            999 V2000
    2.4599   51.5747   29.2806 C   0  0  0  0  0  0
    2.0857   53.0220   29.5555 C   0  0  0  0  0  0
    1.0390   53.2740   30.4502 C   0  0  0  0  0  0
    0.6366   54.5798   30.7158 C   0  0  0  0  0  0
    1.2680   55.6462   30.0828 C   0  0  0  0  0  0
    2.3046   55.4034   29.1862 C   0  0  0  0  0  0
    2.7338   54.0979   28.9148 C   0  0  0  0  0  0
    3.9002   53.8868   27.9362 C   0  0  0  0  0  0
    3.5996   54.2786   26.4555 C   0  0  2  0  0  0
    3.3420   55.3335   26.4293 H   0  0  0  0  0  0
    2.4267   53.5158   25.7862 C   0  0  0  0  0  0
    1.6512   52.8328   26.4467 O   0  0  0  0  0  0
    2.3741   53.5878   24.4451 N   0  0  0  0  0  0
    1.6643   52.6719   23.5566 C   0  0  0  0  0  0
    0.1200   52.6194   23.7052 C   0  0  0  0  0  0
   -0.5437   51.7077   22.6453 C   0  0  0  0  0  0
   -0.0951   52.0969   21.2858 N   0  0  0  0  0  0
    1.3687   52.0014   21.0821 C   0  0  0  0  0  0
    2.1071   52.8931   22.0932 C   0  0  0  0  0  0
   -1.0840   51.5600   19.9176 S   0  0  0  0  0  0
   -2.4912   51.5948   20.3350 O   0  0  0  0  0  0
   -0.6397   52.3016   18.7325 O   0  0  0  0  0  0
   -0.6184   49.8475   19.6618 C   0  0  0  0  0  0
    0.4904   49.5448   18.8649 C   0  0  0  0  0  0
    0.8779   48.2192   18.6806 C   0  0  0  0  0  0
    0.1585   47.1900   19.2879 C   0  0  0  0  0  0
   -0.9524   47.4801   20.0934 C   0  0  0  0  0  0
   -1.3313   48.8165   20.2796 C   0  0  0  0  0  0
   -1.7547   46.3708   20.7708 C   0  0  0  0  0  0
   -3.0262   46.4332   20.3765 F   0  0  0  0  0  0
   -1.2924   45.1518   20.4816 F   0  0  0  0  0  0
   -1.7086   46.5291   22.0934 F   0  0  0  0  0  0
    4.7488   54.0965   25.5627 N   0  0  0  0  0  0
    5.9846   54.6036   25.6244 C   0  0  0  0  0  0
    6.4161   55.2953   26.5411 O   0  0  0  0  0  0
    6.8758   54.2736   24.4367 C   0  0  0  0  0  0
    3.3559   51.2979   29.8349 H   0  0  0  0  0  0
    1.6360   50.9087   29.5328 H   0  0  0  0  0  0
    2.6497   51.3971   28.2246 H   0  0  0  0  0  0
    0.5303   52.4586   30.9460 H   0  0  0  0  0  0
   -0.1633   54.7628   31.4169 H   0  0  0  0  0  0
    0.9582   56.6605   30.2890 H   0  0  0  0  0  0
    2.7729   56.2454   28.7067 H   0  0  0  0  0  0
    4.7257   54.4905   28.3154 H   0  0  0  0  0  0
    4.2900   52.8708   27.9815 H   0  0  0  0  0  0
    2.9594   54.2693   23.9852 H   0  0  0  0  0  0
    2.0180   51.6783   23.8480 H   0  0  0  0  0  0
   -0.1503   52.2552   24.6974 H   0  0  0  0  0  0
   -0.2910   53.6277   23.6512 H   0  0  0  0  0  0
   -0.1932   50.6945   22.8501 H   0  0  0  0  0  0
   -1.6297   51.7710   22.7187 H   0  0  0  0  0  0
    1.6826   50.9778   21.2930 H   0  0  0  0  0  0
    1.6274   52.2957   20.0640 H   0  0  0  0  0  0
    1.9498   53.9379   21.8289 H   0  0  0  0  0  0
    3.1809   52.7257   21.9973 H   0  0  0  0  0  0
    1.0567   50.3324   18.3867 H   0  0  0  0  0  0
    1.7374   47.9952   18.0632 H   0  0  0  0  0  0
    0.4746   46.1696   19.1277 H   0  0  0  0  0  0
   -2.1828   49.0511   20.9034 H   0  0  0  0  0  0
    4.5452   53.4781   24.7910 H   0  0  0  0  0  0
    6.2905   54.0314   23.5494 H   0  0  0  0  0  0
    7.5044   55.1293   24.1958 H   0  0  0  0  0  0
    7.5044   53.4175   24.6685 H   0  0  0  0  0  0
  1  2  1  0  0  0
  1 37  1  0  0  0
  1 38  1  0  0  0
  1 39  1  0  0  0
  2  7  2  0  0  0
  2  3  1  0  0  0
  3  4  2  0  0  0
  3 40  1  0  0  0
  4  5  1  0  0  0
  4 41  1  0  0  0
  5  6  2  0  0  0
  5 42  1  0  0  0
  6  7  1  0  0  0
  6 43  1  0  0  0
  7  8  1  0  0  0
  8  9  1  0  0  0
  8 44  1  0  0  0
  8 45  1  0  0  0
  9 10  1  0  0  0
  9 11  1  0  0  0
  9 33  1  0  0  0
 11 12  2  0  0  0
 11 13  1  0  0  0
 13 14  1  0  0  0
 13 46  1  0  0  0
 14 19  1  0  0  0
 14 15  1  0  0  0
 14 47  1  0  0  0
 15 16  1  0  0  0
 15 48  1  0  0  0
 15 49  1  0  0  0
 16 17  1  0  0  0
 16 50  1  0  0  0
 16 51  1  0  0  0
 17 18  1  0  0  0
 17 20  1  0  0  0
 18 19  1  0  0  0
 18 52  1  0  0  0
 18 53  1  0  0  0
 19 54  1  0  0  0
 19 55  1  0  0  0
 20 21  2  0  0  0
 20 22  2  0  0  0
 20 23  1  0  0  0
 23 28  2  0  0  0
 23 24  1  0  0  0
 24 25  2  0  0  0
 24 56  1  0  0  0
 25 26  1  0  0  0
 25 57  1  0  0  0
 26 27  2  0  0  0
 26 58  1  0  0  0
 27 28  1  0  0  0
 27 29  1  0  0  0
 28 59  1  0  0  0
 29 30  1  0  0  0
 29 31  1  0  0  0
 29 32  1  0  0  0
 33 34  1  0  0  0
 33 60  1  0  0  0
 34 35  2  0  0  0
 34 36  1  0  0  0
 36 61  1  0  0  0
 36 62  1  0  0  0
 36 63  1  0  0  0
M  END
> <i_i_glide_confnum>
174

> <i_i_glide_lignum>
5483

> <i_i_glide_posenum>
241

> <i_i_glide_rotatable_bonds>
10

> <i_m_Source_File_Index>
5525

> <b_m_subgroup_collapsed>
0

> <r_i_docking_score>
-5.64001

> <r_i_glide_ecoul>
-5.31539

> <r_i_glide_eff_state_penalty>
0

> <r_i_glide_einternal>
9.7872

> <r_i_glide_emodel>
-62.4467

> <r_i_glide_energy>
-49.5898

> <r_i_glide_erotb>
0.626503

> <r_i_glide_esite>
-0.0907844

> <r_i_glide_evdw>
-44.2744

> <r_i_glide_gscore>
-5.64001

> <r_i_glide_hbond>
-0.112955

> <r_i_glide_ligand_efficiency>
-0.161143

> <r_i_glide_ligand_efficiency_ln>
-1.23811

> <r_i_glide_ligand_efficiency_sa>
-0.527109

> <r_i_glide_lipo>
-2.48013

> <r_i_glide_metal>
0

> <r_i_glide_rewards>
-0.571607

> <s_i_glide_gridfile>
wee1_glide-grid

> <s_m_Source_File>
wee1_decoys_glide_SP.sdf

> <s_m_Source_Path>
/Users/zhangxujun/Desktop

> <s_m_entry_id>
5800

> <s_m_entry_name>
wee1_decoys_glide_SP.5525

> <s_m_subgroup_title>
wee1_decoys_glide_SP

> <s_m_subgroupid>
wee1_decoys_glide_SP


$$$$
