ZINC67014427_4611
                    3D
 Schrodinger Suite 2024-2.
 59 61  0  0  1  0            999 V2000
    5.8447   53.7405   28.5919 C   0  0  0  0  0  0
    4.5867   53.6291   27.7189 C   0  0  2  0  0  0
    4.6227   52.6298   27.2814 H   0  0  0  0  0  0
    4.6692   54.6239   26.5289 C   0  0  0  0  0  0
    4.0785   54.1599   25.2597 N   0  0  0  0  0  0
    2.6841   53.6963   25.3638 C   0  0  0  0  0  0
    4.8103   54.1989   24.1098 C   0  0  0  0  0  0
    5.9792   54.5928   24.0829 O   0  0  0  0  0  0
    4.1505   53.8116   22.9978 N   0  0  0  0  0  0
    4.5734   53.8447   21.6532 C   0  0  0  0  0  0
    5.5022   54.7933   21.1989 C   0  0  0  0  0  0
    5.9310   54.8186   19.8689 C   0  0  0  0  0  0
    5.4092   53.8672   18.9832 C   0  0  0  0  0  0
    4.4918   52.9175   19.4242 C   0  0  0  0  0  0
    4.0747   52.8711   20.7610 C   0  0  0  0  0  0
    3.1418   51.9191   21.1748 N   0  0  0  0  0  0
    3.1026   50.5878   20.5486 C   0  0  0  0  0  0
    2.4554   49.5400   21.4777 C   0  0  0  0  0  0
    1.0352   49.9506   21.8866 C   0  0  0  0  0  0
    1.0320   51.3967   22.4050 C   0  0  0  0  0  0
    1.7629   52.3644   21.4453 C   0  0  0  0  0  0
    6.9287   55.8659   19.4323 C   0  0  0  0  0  0
    7.1045   56.8962   20.0803 O   0  0  0  0  0  0
    7.6353   55.6172   18.3320 N   0  0  0  0  0  0
    3.3079   53.6929   28.5784 C   0  0  0  0  0  0
    2.5110   54.8461   28.6694 C   0  0  0  0  0  0
    1.3657   54.8550   29.4638 C   0  0  0  0  0  0
    1.0142   53.7137   30.1781 C   0  0  0  0  0  0
    1.7974   52.5669   30.1047 C   0  0  0  0  0  0
    2.9396   52.5564   29.3078 C   0  0  0  0  0  0
    5.8966   52.8990   29.2779 H   0  0  0  0  0  0
    6.7561   53.7085   27.9932 H   0  0  0  0  0  0
    5.8568   54.6676   29.1670 H   0  0  0  0  0  0
    4.2483   55.5935   26.7731 H   0  0  0  0  0  0
    5.7241   54.8544   26.3743 H   0  0  0  0  0  0
    2.1783   53.5781   24.4064 H   0  0  0  0  0  0
    2.6487   52.7337   25.8761 H   0  0  0  0  0  0
    2.0925   54.3985   25.9486 H   0  0  0  0  0  0
    3.2765   53.3267   23.1392 H   0  0  0  0  0  0
    5.9005   55.5291   21.8814 H   0  0  0  0  0  0
    5.6933   53.8517   17.9408 H   0  0  0  0  0  0
    4.1119   52.2032   18.7083 H   0  0  0  0  0  0
    2.5801   50.6416   19.5915 H   0  0  0  0  0  0
    4.1226   50.2797   20.3306 H   0  0  0  0  0  0
    2.4160   48.5785   20.9641 H   0  0  0  0  0  0
    3.0946   49.3811   22.3486 H   0  0  0  0  0  0
    0.6448   49.2703   22.6434 H   0  0  0  0  0  0
    0.3735   49.8715   21.0237 H   0  0  0  0  0  0
    1.4840   51.4505   23.3963 H   0  0  0  0  0  0
   -0.0000   51.7301   22.5384 H   0  0  0  0  0  0
    1.7682   53.3571   21.8971 H   0  0  0  0  0  0
    1.2236   52.4604   20.4995 H   0  0  0  0  0  0
    7.5296   54.7430   17.8413 H   0  0  0  0  0  0
    8.3208   56.2907   18.0269 H   0  0  0  0  0  0
    2.7491   55.7493   28.1339 H   0  0  0  0  0  0
    0.7485   55.7402   29.5296 H   0  0  0  0  0  0
    0.1285   53.7188   30.7976 H   0  0  0  0  0  0
    1.5093   51.6957   30.6703 H   0  0  0  0  0  0
    3.5435   51.6623   29.2561 H   0  0  0  0  0  0
  1  2  1  0  0  0
  1 31  1  0  0  0
  1 32  1  0  0  0
  1 33  1  0  0  0
  2  3  1  0  0  0
  2  4  1  0  0  0
  2 25  1  0  0  0
  4  5  1  0  0  0
  4 34  1  0  0  0
  4 35  1  0  0  0
  5  6  1  0  0  0
  5  7  1  0  0  0
  6 36  1  0  0  0
  6 37  1  0  0  0
  6 38  1  0  0  0
  7  8  2  0  0  0
  7  9  1  0  0  0
  9 10  1  0  0  0
  9 39  1  0  0  0
 10 15  2  0  0  0
 10 11  1  0  0  0
 11 12  2  0  0  0
 11 40  1  0  0  0
 12 13  1  0  0  0
 12 22  1  0  0  0
 13 14  2  0  0  0
 13 41  1  0  0  0
 14 15  1  0  0  0
 14 42  1  0  0  0
 15 16  1  0  0  0
 16 21  1  0  0  0
 16 17  1  0  0  0
 17 18  1  0  0  0
 17 43  1  0  0  0
 17 44  1  0  0  0
 18 19  1  0  0  0
 18 45  1  0  0  0
 18 46  1  0  0  0
 19 20  1  0  0  0
 19 47  1  0  0  0
 19 48  1  0  0  0
 20 21  1  0  0  0
 20 49  1  0  0  0
 20 50  1  0  0  0
 21 51  1  0  0  0
 21 52  1  0  0  0
 22 23  2  0  0  0
 22 24  1  0  0  0
 24 53  1  0  0  0
 24 54  1  0  0  0
 25 30  2  0  0  0
 25 26  1  0  0  0
 26 27  2  0  0  0
 26 55  1  0  0  0
 27 28  1  0  0  0
 27 56  1  0  0  0
 28 29  2  0  0  0
 28 57  1  0  0  0
 29 30  1  0  0  0
 29 58  1  0  0  0
 30 59  1  0  0  0
M  END
> <i_i_glide_confnum>
74

> <i_i_glide_lignum>
4612

> <i_i_glide_posenum>
272

> <i_i_glide_rotatable_bonds>
8

> <i_m_Source_File_Index>
3245

> <b_m_subgroup_collapsed>
0

> <r_i_docking_score>
-6.37636

> <r_i_glide_ecoul>
-4.57459

> <r_i_glide_eff_state_penalty>
0

> <r_i_glide_einternal>
6.30734

> <r_i_glide_emodel>
-62.2221

> <r_i_glide_energy>
-46.4106

> <r_i_glide_erotb>
0.753502

> <r_i_glide_esite>
-0.00709508

> <r_i_glide_evdw>
-41.836

> <r_i_glide_gscore>
-6.37636

> <r_i_glide_hbond>
-0.298541

> <r_i_glide_ligand_efficiency>
-0.219875

> <r_i_glide_ligand_efficiency_ln>
-1.46003

> <r_i_glide_ligand_efficiency_sa>
-0.675524

> <r_i_glide_lipo>
-2.86075

> <r_i_glide_metal>
0

> <r_i_glide_rewards>
-1.1855

> <s_i_glide_gridfile>
wee1_glide-grid

> <s_m_Source_File>
wee1_decoys_glide_SP.sdf

> <s_m_Source_Path>
/Users/zhangxujun/Desktop

> <s_m_entry_id>
3520

> <s_m_entry_name>
wee1_decoys_glide_SP.3245

> <s_m_subgroup_title>
wee1_decoys_glide_SP

> <s_m_subgroupid>
wee1_decoys_glide_SP


$$$$
