ZINC36072010_4639
                    3D
 Schrodinger Suite 2024-2.
 68 72  0  0  1  0            999 V2000
    1.6028   52.9995   21.7431 C   0  0  0  0  0  0
    1.1309   52.0476   22.8227 C   0  0  0  0  0  0
    1.4878   50.7049   22.7558 C   0  0  0  0  0  0
    1.0828   49.8308   23.7573 C   0  0  0  0  0  0
    0.3385   50.2808   24.8512 C   0  0  0  0  0  0
   -0.0388   51.6384   24.9215 C   0  0  0  0  0  0
    0.3594   52.5050   23.8926 C   0  0  0  0  0  0
   -0.9262   52.2089   26.0479 C   0  0  1  0  0  0
   -1.0898   53.2577   25.8087 H   0  0  0  0  0  0
   -2.3586   51.5999   26.1130 C   0  0  0  0  0  0
   -2.8702   51.1760   27.3075 C   0  0  0  0  0  0
   -2.2094   51.2967   28.4904 N   0  0  0  0  0  0
   -1.0201   51.7520   28.4945 C   0  0  0  0  0  0
   -0.2786   52.2035   27.4017 N   0  0  0  0  0  0
    0.9040   52.8547   27.7478 C   0  0  0  0  0  0
    1.1220   52.8488   29.0755 C   0  0  0  0  0  0
   -0.1523   52.0968   30.0005 S   0  0  0  0  0  0
    1.7937   53.5481   26.8298 C   0  0  0  0  0  0
    3.0940   53.8444   27.0060 C   0  0  0  0  0  0
    3.9063   53.5618   27.9645 O   0  5  0  0  0  0
    3.7066   54.6033   26.0412 N   0  0  0  0  0  0
    5.0833   55.0384   25.8659 C   0  0  0  0  0  0
    5.7636   54.3502   24.6824 C   0  0  2  0  0  0
    5.8950   53.2968   24.9155 H   0  0  0  0  0  0
    7.0537   55.0256   24.2463 C   0  0  0  0  0  0
    7.1047   54.8152   22.7453 C   0  0  0  0  0  0
    5.7187   54.2949   22.3674 C   0  0  0  0  0  0
    4.9299   54.4894   23.5332 O   0  0  0  0  0  0
   -4.2571   50.5898   27.5582 C   0  0  0  0  0  0
   -3.0857   51.5090   24.8671 C   0  0  0  0  0  0
   -3.3599   52.5061   24.1967 O   0  0  0  0  0  0
   -3.3680   50.2367   24.5203 N   0  0  0  0  0  0
   -4.0967   49.7886   23.4107 C   0  0  0  0  0  0
   -5.1844   50.4960   22.8817 C   0  0  0  0  0  0
   -5.8849   49.9807   21.7934 C   0  0  0  0  0  0
   -5.5046   48.7585   21.2448 C   0  0  0  0  0  0
   -4.4345   48.0421   21.7787 C   0  0  0  0  0  0
   -3.7341   48.5547   22.8687 C   0  0  0  0  0  0
   -0.0216   49.2720   25.9316 C   0  0  0  0  0  0
    2.6377   52.7847   21.4688 H   0  0  0  0  0  0
    0.9887   52.8968   20.8474 H   0  0  0  0  0  0
    1.5789   54.0359   22.0837 H   0  0  0  0  0  0
    2.0805   50.3367   21.9298 H   0  0  0  0  0  0
    1.3687   48.7955   23.6812 H   0  0  0  0  0  0
    0.0749   53.5456   23.9266 H   0  0  0  0  0  0
    1.9555   53.3032   29.5884 H   0  0  0  0  0  0
    1.3431   53.9046   25.9188 H   0  0  0  0  0  0
    3.1593   54.7936   25.2161 H   0  0  0  0  0  0
    5.6617   54.8953   26.7793 H   0  0  0  0  0  0
    5.0597   56.1090   25.6816 H   0  0  0  0  0  0
    7.9018   54.6354   24.8111 H   0  0  0  0  0  0
    7.0229   56.0964   24.4591 H   0  0  0  0  0  0
    7.8809   54.0969   22.4820 H   0  0  0  0  0  0
    7.3357   55.7479   22.2281 H   0  0  0  0  0  0
    5.7252   53.2335   22.1118 H   0  0  0  0  0  0
    5.2823   54.8242   21.5195 H   0  0  0  0  0  0
   -4.9096   50.6445   26.6899 H   0  0  0  0  0  0
   -4.1638   49.5421   27.8477 H   0  0  0  0  0  0
   -4.7611   51.1205   28.3684 H   0  0  0  0  0  0
   -2.9406   49.5209   25.0887 H   0  0  0  0  0  0
   -5.4969   51.4383   23.3091 H   0  0  0  0  0  0
   -6.7196   50.5293   21.3793 H   0  0  0  0  0  0
   -6.0478   48.3614   20.3990 H   0  0  0  0  0  0
   -4.1498   47.0935   21.3490 H   0  0  0  0  0  0
   -2.9056   47.9965   23.2816 H   0  0  0  0  0  0
    0.3327   48.2712   25.6839 H   0  0  0  0  0  0
    0.4243   49.5605   26.8815 H   0  0  0  0  0  0
   -1.0970   49.2077   26.0818 H   0  0  0  0  0  0
  1  2  1  0  0  0
  1 40  1  0  0  0
  1 41  1  0  0  0
  1 42  1  0  0  0
  2  7  2  0  0  0
  2  3  1  0  0  0
  3  4  2  0  0  0
  3 43  1  0  0  0
  4  5  1  0  0  0
  4 44  1  0  0  0
  5  6  2  0  0  0
  5 39  1  0  0  0
  6  7  1  0  0  0
  6  8  1  0  0  0
  7 45  1  0  0  0
  8  9  1  0  0  0
  8 14  1  0  0  0
  8 10  1  0  0  0
 10 11  2  0  0  0
 10 30  1  0  0  0
 11 12  1  0  0  0
 11 29  1  0  0  0
 12 13  2  0  0  0
 13 17  1  0  0  0
 13 14  1  0  0  0
 14 15  1  0  0  0
 15 16  2  0  0  0
 15 18  1  0  0  0
 16 17  1  0  0  0
 16 46  1  0  0  0
 18 19  2  0  0  0
 18 47  1  0  0  0
 19 20  1  0  0  0
 19 21  1  0  0  0
 21 22  1  0  0  0
 21 48  1  0  0  0
 22 23  1  0  0  0
 22 49  1  0  0  0
 22 50  1  0  0  0
 23 24  1  0  0  0
 23 28  1  0  0  0
 23 25  1  0  0  0
 25 26  1  0  0  0
 25 51  1  0  0  0
 25 52  1  0  0  0
 26 27  1  0  0  0
 26 53  1  0  0  0
 26 54  1  0  0  0
 27 28  1  0  0  0
 27 55  1  0  0  0
 27 56  1  0  0  0
 29 57  1  0  0  0
 29 58  1  0  0  0
 29 59  1  0  0  0
 30 31  2  0  0  0
 30 32  1  0  0  0
 32 33  1  0  0  0
 32 60  1  0  0  0
 33 38  2  0  0  0
 33 34  1  0  0  0
 34 35  2  0  0  0
 34 61  1  0  0  0
 35 36  1  0  0  0
 35 62  1  0  0  0
 36 37  2  0  0  0
 36 63  1  0  0  0
 37 38  1  0  0  0
 37 64  1  0  0  0
 38 65  1  0  0  0
 39 66  1  0  0  0
 39 67  1  0  0  0
 39 68  1  0  0  0
M  CHG  1  20  -1
M  END
> <i_i_glide_confnum>
207

> <i_i_glide_lignum>
4640

> <i_i_glide_posenum>
104

> <i_i_glide_rotatable_bonds>
8

> <i_m_Source_File_Index>
663

> <b_m_subgroup_collapsed>
0

> <r_i_docking_score>
-3.53926

> <r_i_glide_ecoul>
-1.1873

> <r_i_glide_eff_state_penalty>
0

> <r_i_glide_einternal>
7.27126

> <r_i_glide_emodel>
-47.9488

> <r_i_glide_energy>
-40.9515

> <r_i_glide_erotb>
0.540231

> <r_i_glide_esite>
-0.0840376

> <r_i_glide_evdw>
-39.7642

> <r_i_glide_gscore>
-3.53926

> <r_i_glide_hbond>
0

> <r_i_glide_ligand_efficiency>
-0.0956558

> <r_i_glide_ligand_efficiency_ln>
-0.767583

> <r_i_glide_ligand_efficiency_sa>
-0.318746

> <r_i_glide_lipo>
-1.83311

> <r_i_glide_metal>
0

> <r_i_glide_rewards>
0.00395835

> <s_i_glide_gridfile>
wee1_glide-grid

> <s_m_Source_File>
wee1_decoys_glide_SP.sdf

> <s_m_Source_Path>
/Users/zhangxujun/Desktop

> <s_m_entry_id>
938

> <s_m_entry_name>
wee1_decoys_glide_SP.663

> <s_m_subgroup_title>
wee1_decoys_glide_SP

> <s_m_subgroupid>
wee1_decoys_glide_SP


$$$$
