ZINC02378802_4522
                    3D
 Schrodinger Suite 2024-2.
 64 68  0  0  1  0            999 V2000
    0.3166   48.4824   16.5932 C   0  0  0  0  0  0
    0.4372   49.9892   16.4859 C   0  0  0  0  0  0
   -0.5142   50.7306   15.7820 C   0  0  0  0  0  0
   -0.3951   52.1198   15.6885 C   0  0  0  0  0  0
    0.6853   52.7692   16.2931 C   0  0  0  0  0  0
    1.6526   52.0331   16.9992 C   0  0  0  0  0  0
    1.5046   50.6465   17.0991 C   0  0  0  0  0  0
    2.7754   52.5852   17.6482 N   0  0  0  0  0  0
    3.2256   53.8592   17.6496 C   0  0  0  0  0  0
    2.8145   54.7687   16.9292 O   0  0  0  0  0  0
    4.2727   54.1170   18.6085 C   0  0  0  0  0  0
    5.4471   54.9169   18.4621 C   0  0  0  0  0  0
    6.1185   54.9716   19.7056 C   0  0  0  0  0  0
    7.2827   55.6095   19.8742 N   0  0  0  0  0  0
    7.8406   56.2148   18.7875 C   0  0  0  0  0  0
    9.0996   56.8582   18.8811 C   0  0  0  0  0  0
    9.6533   57.4765   17.7622 C   0  0  0  0  0  0
    8.9846   57.4661   16.5418 C   0  0  0  0  0  0
    7.7470   56.8343   16.4130 C   0  0  0  0  0  0
    7.1642   56.1927   17.5301 C   0  0  0  0  0  0
    5.9721   55.5466   17.4050 N   0  0  0  0  0  0
    5.3619   54.3009   20.6523 N   0  0  0  0  0  0
    4.2843   53.7199   19.9551 C   0  0  0  0  0  0
    3.3861   52.8973   20.5984 N   0  0  0  0  0  0
    5.6511   54.1875   22.0138 N   0  0  0  0  0  0
    4.7212   54.4735   22.8416 C   0  0  0  0  0  0
    4.8340   54.3261   24.2947 C   0  0  0  0  0  0
    3.6636   54.3171   25.0601 C   0  0  0  0  0  0
    3.7204   54.1044   26.4356 C   0  0  0  0  0  0
    4.9501   53.9057   27.0651 C   0  0  0  0  0  0
    6.1277   53.9630   26.3134 C   0  0  0  0  0  0
    6.0700   54.1656   24.9369 C   0  0  0  0  0  0
    5.0288   53.6702   28.5737 C   0  0  0  0  0  0
    3.9958   52.6582   29.1175 C   0  0  0  0  0  0
    4.9375   55.0058   29.3108 C   0  0  0  0  0  0
   -1.4192   52.9207   14.9028 C   0  0  0  0  0  0
   -0.7172   48.1529   16.4672 H   0  0  0  0  0  0
    0.9427   47.9959   15.8419 H   0  0  0  0  0  0
    0.6406   48.1413   17.5782 H   0  0  0  0  0  0
   -1.3407   50.2267   15.3044 H   0  0  0  0  0  0
    0.7495   53.8420   16.2074 H   0  0  0  0  0  0
    2.2484   50.0663   17.6324 H   0  0  0  0  0  0
    3.3219   51.9301   18.1897 H   0  0  0  0  0  0
    9.6232   56.8685   19.8271 H   0  0  0  0  0  0
   10.6150   57.9638   17.8451 H   0  0  0  0  0  0
    9.4284   57.9501   15.6840 H   0  0  0  0  0  0
    7.2331   56.8226   15.4618 H   0  0  0  0  0  0
    2.5036   52.6567   20.1671 H   0  0  0  0  0  0
    3.5114   52.6207   21.5604 H   0  0  0  0  0  0
    3.7543   54.8391   22.5019 H   0  0  0  0  0  0
    2.6941   54.4559   24.5987 H   0  0  0  0  0  0
    2.8027   54.0897   27.0054 H   0  0  0  0  0  0
    7.0884   53.8253   26.7876 H   0  0  0  0  0  0
    6.9907   54.1830   24.3691 H   0  0  0  0  0  0
    6.0146   53.2531   28.7883 H   0  0  0  0  0  0
    4.0374   51.7088   28.5860 H   0  0  0  0  0  0
    2.9747   53.0327   29.0393 H   0  0  0  0  0  0
    4.1798   52.4443   30.1710 H   0  0  0  0  0  0
    5.7061   55.6873   28.9493 H   0  0  0  0  0  0
    3.9616   55.4757   29.1722 H   0  0  0  0  0  0
    5.0995   54.8930   30.3772 H   0  0  0  0  0  0
   -1.8479   52.3257   14.0949 H   0  0  0  0  0  0
   -2.2237   53.2627   15.5549 H   0  0  0  0  0  0
   -0.9529   53.7902   14.4356 H   0  0  0  0  0  0
  1  2  1  0  0  0
  1 37  1  0  0  0
  1 38  1  0  0  0
  1 39  1  0  0  0
  2  7  2  0  0  0
  2  3  1  0  0  0
  3  4  2  0  0  0
  3 40  1  0  0  0
  4  5  1  0  0  0
  4 36  1  0  0  0
  5  6  2  0  0  0
  5 41  1  0  0  0
  6  7  1  0  0  0
  6  8  1  0  0  0
  7 42  1  0  0  0
  8  9  1  0  0  0
  8 43  1  0  0  0
  9 10  2  0  0  0
  9 11  1  0  0  0
 11 23  2  0  0  0
 11 12  1  0  0  0
 12 21  2  0  0  0
 12 13  1  0  0  0
 13 14  2  0  0  0
 13 22  1  0  0  0
 14 15  1  0  0  0
 15 20  2  0  0  0
 15 16  1  0  0  0
 16 17  2  0  0  0
 16 44  1  0  0  0
 17 18  1  0  0  0
 17 45  1  0  0  0
 18 19  2  0  0  0
 18 46  1  0  0  0
 19 20  1  0  0  0
 19 47  1  0  0  0
 20 21  1  0  0  0
 22 23  1  0  0  0
 22 25  1  0  0  0
 23 24  1  0  0  0
 24 48  1  0  0  0
 24 49  1  0  0  0
 25 26  2  0  0  0
 26 27  1  0  0  0
 26 50  1  0  0  0
 27 32  2  0  0  0
 27 28  1  0  0  0
 28 29  2  0  0  0
 28 51  1  0  0  0
 29 30  1  0  0  0
 29 52  1  0  0  0
 30 31  2  0  0  0
 30 33  1  0  0  0
 31 32  1  0  0  0
 31 53  1  0  0  0
 32 54  1  0  0  0
 33 34  1  0  0  0
 33 35  1  0  0  0
 33 55  1  0  0  0
 34 56  1  0  0  0
 34 57  1  0  0  0
 34 58  1  0  0  0
 35 59  1  0  0  0
 35 60  1  0  0  0
 35 61  1  0  0  0
 36 62  1  0  0  0
 36 63  1  0  0  0
 36 64  1  0  0  0
M  END
> <i_i_glide_confnum>
15

> <i_i_glide_lignum>
4523

> <i_i_glide_posenum>
220

> <i_i_glide_rotatable_bonds>
6

> <i_m_Source_File_Index>
635

> <b_m_subgroup_collapsed>
0

> <r_i_docking_score>
-4.34641

> <r_i_glide_ecoul>
-1.17673

> <r_i_glide_eff_state_penalty>
0

> <r_i_glide_einternal>
12.7071

> <r_i_glide_emodel>
-42.9957

> <r_i_glide_energy>
-36.1733

> <r_i_glide_erotb>
0.445814

> <r_i_glide_esite>
-0.0524637

> <r_i_glide_evdw>
-34.9965

> <r_i_glide_gscore>
-4.34641

> <r_i_glide_hbond>
0

> <r_i_glide_ligand_efficiency>
-0.120734

> <r_i_glide_ligand_efficiency_ln>
-0.948269

> <r_i_glide_ligand_efficiency_sa>
-0.398653

> <r_i_glide_lipo>
-2.19867

> <r_i_glide_metal>
0

> <r_i_glide_rewards>
-0.614748

> <s_i_glide_gridfile>
wee1_glide-grid

> <s_m_Source_File>
wee1_decoys_glide_SP.sdf

> <s_m_Source_Path>
/Users/zhangxujun/Desktop

> <s_m_entry_id>
910

> <s_m_entry_name>
wee1_decoys_glide_SP.635

> <s_m_subgroup_title>
wee1_decoys_glide_SP

> <s_m_subgroupid>
wee1_decoys_glide_SP


$$$$
