ZINC46761431_39
                    3D
 Schrodinger Suite 2024-2.
 51 54  0  0  1  0            999 V2000
    0.2180   42.4699   17.3930 C   0  0  0  0  0  0
    0.1607   43.9497   17.0949 C   0  0  0  0  0  0
    0.2949   44.8830   17.9493 N   0  0  0  0  0  0
    0.1879   46.1502   17.3299 N   0  0  0  0  0  0
    0.2639   45.9530   15.8968 C   0  0  0  0  0  0
   -0.0523   44.4896   15.7013 C   0  0  0  0  0  0
    0.5692   47.3012   18.0443 C   0  0  0  0  0  0
    1.1327   48.3950   17.3788 C   0  0  0  0  0  0
    1.5805   49.5083   18.0844 C   0  0  0  0  0  0
    1.4667   49.5564   19.4789 C   0  0  0  0  0  0
    0.8392   48.4958   20.1406 C   0  0  0  0  0  0
    0.4010   47.3803   19.4322 C   0  0  0  0  0  0
    2.0121   50.7147   20.2804 C   0  0  0  0  0  0
    1.4788   51.0162   21.3524 O   0  0  0  0  0  0
    3.1045   51.3332   19.7698 N   0  0  0  0  0  0
    3.7906   52.3840   20.3681 C   0  0  0  0  0  0
    3.7713   52.7025   21.6397 N   0  0  0  0  0  0
    4.5998   53.6861   21.9482 C   0  0  0  0  0  0
    5.2895   54.2131   20.8536 C   0  0  0  0  0  0
    4.8471   53.3560   19.4024 S   0  0  0  0  0  0
    4.7360   54.0770   23.3807 C   0  0  0  0  0  0
    5.9938   54.3391   23.9328 C   0  0  0  0  0  0
    6.1226   54.5425   25.3061 C   0  0  0  0  0  0
    4.9960   54.4964   26.1299 C   0  0  0  0  0  0
    3.7269   54.3359   25.5606 C   0  0  0  0  0  0
    3.6018   54.1013   24.1977 C   0  0  0  0  0  0
    5.1947   54.6484   27.5127 N   0  0  0  0  0  0
    4.4925   54.1196   28.5360 C   0  0  0  0  0  0
    4.7030   54.4988   29.6816 O   0  0  0  0  0  0
    3.4516   53.0196   28.3277 C   0  0  0  0  0  0
    1.2474   42.1517   17.5627 H   0  0  0  0  0  0
   -0.3648   42.2340   18.2829 H   0  0  0  0  0  0
   -0.1819   41.8858   16.5636 H   0  0  0  0  0  0
   -0.3736   46.6469   15.3473 H   0  0  0  0  0  0
    1.2904   46.1259   15.5664 H   0  0  0  0  0  0
   -1.0601   44.3095   15.3266 H   0  0  0  0  0  0
    0.6599   44.0495   15.0026 H   0  0  0  0  0  0
    1.2772   48.3803   16.3091 H   0  0  0  0  0  0
    2.0535   50.3072   17.5298 H   0  0  0  0  0  0
    0.7177   48.5123   21.2150 H   0  0  0  0  0  0
   -0.0558   46.5635   19.9707 H   0  0  0  0  0  0
    3.4573   51.0209   18.8724 H   0  0  0  0  0  0
    6.0145   55.0123   20.8301 H   0  0  0  0  0  0
    6.8787   54.3249   23.3127 H   0  0  0  0  0  0
    7.1042   54.6896   25.7288 H   0  0  0  0  0  0
    2.8320   54.3610   26.1627 H   0  0  0  0  0  0
    2.6214   53.9220   23.7798 H   0  0  0  0  0  0
    6.0013   55.1874   27.7907 H   0  0  0  0  0  0
    3.6020   52.4932   27.3894 H   0  0  0  0  0  0
    2.4463   53.4399   28.3433 H   0  0  0  0  0  0
    3.5242   52.2842   29.1289 H   0  0  0  0  0  0
  1  2  1  0  0  0
  1 31  1  0  0  0
  1 32  1  0  0  0
  1 33  1  0  0  0
  2  6  1  0  0  0
  2  3  2  0  0  0
  3  4  1  0  0  0
  4  5  1  0  0  0
  4  7  1  0  0  0
  5  6  1  0  0  0
  5 34  1  0  0  0
  5 35  1  0  0  0
  6 36  1  0  0  0
  6 37  1  0  0  0
  7 12  2  0  0  0
  7  8  1  0  0  0
  8  9  2  0  0  0
  8 38  1  0  0  0
  9 10  1  0  0  0
  9 39  1  0  0  0
 10 11  2  0  0  0
 10 13  1  0  0  0
 11 12  1  0  0  0
 11 40  1  0  0  0
 12 41  1  0  0  0
 13 14  2  0  0  0
 13 15  1  0  0  0
 15 16  1  0  0  0
 15 42  1  0  0  0
 16 20  1  0  0  0
 16 17  2  0  0  0
 17 18  1  0  0  0
 18 19  2  0  0  0
 18 21  1  0  0  0
 19 20  1  0  0  0
 19 43  1  0  0  0
 21 26  2  0  0  0
 21 22  1  0  0  0
 22 23  2  0  0  0
 22 44  1  0  0  0
 23 24  1  0  0  0
 23 45  1  0  0  0
 24 25  2  0  0  0
 24 27  1  0  0  0
 25 26  1  0  0  0
 25 46  1  0  0  0
 26 47  1  0  0  0
 27 28  1  0  0  0
 27 48  1  0  0  0
 28 29  2  0  0  0
 28 30  1  0  0  0
 30 49  1  0  0  0
 30 50  1  0  0  0
 30 51  1  0  0  0
M  END
> <i_i_glide_confnum>
92

> <i_i_glide_lignum>
40

> <i_i_glide_posenum>
340

> <i_i_glide_rotatable_bonds>
7

> <i_m_Source_File_Index>
5323

> <b_m_subgroup_collapsed>
0

> <r_i_docking_score>
-3.43321

> <r_i_glide_ecoul>
-3.00093

> <r_i_glide_eff_state_penalty>
0

> <r_i_glide_einternal>
12.3608

> <r_i_glide_emodel>
-39.6615

> <r_i_glide_energy>
-42.1933

> <r_i_glide_erotb>
0.674526

> <r_i_glide_esite>
-0.0972727

> <r_i_glide_evdw>
-39.1923

> <r_i_glide_gscore>
-3.43321

> <r_i_glide_hbond>
-0.076895

> <r_i_glide_ligand_efficiency>
-0.11444

> <r_i_glide_ligand_efficiency_ln>
-0.780062

> <r_i_glide_ligand_efficiency_sa>
-0.355592

> <r_i_glide_lipo>
-2.0991

> <r_i_glide_metal>
0

> <r_i_glide_rewards>
0.575287

> <s_i_glide_gridfile>
wee1_glide-grid

> <s_m_Source_File>
wee1_decoys_glide_SP.sdf

> <s_m_Source_Path>
/Users/zhangxujun/Desktop

> <s_m_entry_id>
5598

> <s_m_entry_name>
wee1_decoys_glide_SP.5323

> <s_m_subgroup_title>
wee1_decoys_glide_SP

> <s_m_subgroupid>
wee1_decoys_glide_SP


$$$$
