ZINC63361858_5469
                    3D
 Schrodinger Suite 2024-2.
 75 79  0  0  1  0            999 V2000
    4.2628   54.1779   23.9062 C   0  0  0  0  0  0
    2.8800   53.8247   24.4769 C   0  0  2  0  0  0
    2.3183   54.7633   24.4892 H   0  0  0  0  0  0
    2.9668   53.2506   25.9172 C   0  0  0  0  0  0
    2.5274   54.1978   27.0397 C   0  0  0  0  0  0
    2.6328   53.5461   28.4343 C   0  0  0  0  0  0
    1.8797   54.2771   29.5708 C   0  0  0  0  0  0
    2.2590   55.7667   29.6795 C   0  0  0  0  0  0
    0.3533   54.0781   29.5022 C   0  0  0  0  0  0
    2.1913   52.8903   23.5814 N   0  0  0  0  0  0
    0.8535   52.7693   23.4959 C   0  0  0  0  0  0
    0.0985   53.5416   24.0816 O   0  0  0  0  0  0
    0.3243   51.6115   22.6659 C   0  0  0  0  0  0
    1.0236   51.2360   21.5051 C   0  0  0  0  0  0
    0.6108   50.1600   20.7244 C   0  0  0  0  0  0
   -0.5209   49.4358   21.0814 C   0  0  0  0  0  0
   -1.2469   49.7939   22.2135 C   0  0  0  0  0  0
   -0.8473   50.8761   23.0113 C   0  0  0  0  0  0
   -1.6653   51.1839   24.1271 N   0  0  0  0  0  0
   -1.6526   50.4931   25.2913 C   0  0  0  0  0  0
   -1.0350   49.4578   25.5436 O   0  0  0  0  0  0
   -2.5326   51.2682   26.2688 C   0  0  2  0  0  0
   -3.8266   50.5096   26.7539 C   0  0  2  0  0  0
   -4.2168   49.8491   25.9763 H   0  0  0  0  0  0
   -4.8915   51.4864   27.2316 C   0  0  0  0  0  0
   -5.2358   51.2086   28.5011 C   0  0  0  0  0  0
   -6.1441   51.8671   29.4504 C   0  0  0  0  0  0
   -6.2348   51.4617   30.7367 C   0  0  0  0  0  0
   -5.3957   50.3230   31.1316 C   0  0  0  0  0  0
   -4.5675   49.6947   30.2597 C   0  0  0  0  0  0
   -4.4704   50.1317   28.9371 C   0  0  0  0  0  0
   -3.6959   49.6930   27.9732 N   0  3  0  0  0  0
   -7.0348   52.1668   31.5824 O   0  0  0  0  0  0
   -7.0772   51.7827   32.9567 C   0  0  0  0  0  0
   -5.2418   52.6099   26.2735 C   0  0  0  0  0  0
   -3.9311   53.3422   25.8918 C   0  0  0  0  0  0
   -2.9474   52.3550   25.4073 N   0  0  0  0  0  0
   -2.5502   52.2152   24.1331 C   0  0  0  0  0  0
   -2.8949   52.9002   23.1749 O   0  0  0  0  0  0
   -1.6045   51.7189   27.4338 C   0  0  0  0  0  0
    4.7892   54.8619   24.5732 H   0  0  0  0  0  0
    4.8986   53.2981   23.8015 H   0  0  0  0  0  0
    4.1811   54.6731   22.9378 H   0  0  0  0  0  0
    2.3288   52.3700   25.9959 H   0  0  0  0  0  0
    3.9781   52.8971   26.1231 H   0  0  0  0  0  0
    3.1231   55.1110   27.0106 H   0  0  0  0  0  0
    1.4979   54.4944   26.8589 H   0  0  0  0  0  0
    2.2669   52.5184   28.3853 H   0  0  0  0  0  0
    3.6882   53.4607   28.6984 H   0  0  0  0  0  0
    2.2060   53.7992   30.4939 H   0  0  0  0  0  0
    1.8649   56.3485   28.8451 H   0  0  0  0  0  0
    1.8777   56.2144   30.5980 H   0  0  0  0  0  0
    3.3414   55.8862   29.6812 H   0  0  0  0  0  0
    0.0945   53.0187   29.5293 H   0  0  0  0  0  0
   -0.1397   54.5487   30.3534 H   0  0  0  0  0  0
   -0.0793   54.4953   28.5935 H   0  0  0  0  0  0
    2.7697   52.2906   23.0148 H   0  0  0  0  0  0
    1.9035   51.7775   21.1870 H   0  0  0  0  0  0
    1.1720   49.8883   19.8417 H   0  0  0  0  0  0
   -0.8419   48.6003   20.4770 H   0  0  0  0  0  0
   -2.1299   49.2258   22.4666 H   0  0  0  0  0  0
   -6.7504   52.7084   29.1490 H   0  0  0  0  0  0
   -5.4065   49.9678   32.1509 H   0  0  0  0  0  0
   -3.9555   48.8774   30.6161 H   0  0  0  0  0  0
   -7.4579   50.7664   33.0779 H   0  0  0  0  0  0
   -6.0960   51.8564   33.4322 H   0  0  0  0  0  0
   -7.7499   52.4493   33.4971 H   0  0  0  0  0  0
   -5.7305   52.2197   25.3783 H   0  0  0  0  0  0
   -5.9418   53.3175   26.7201 H   0  0  0  0  0  0
   -4.0703   54.1354   25.1553 H   0  0  0  0  0  0
   -3.4899   53.8219   26.7664 H   0  0  0  0  0  0
   -0.9009   52.4960   27.1282 H   0  0  0  0  0  0
   -2.1826   52.0967   28.2715 H   0  0  0  0  0  0
   -1.0185   50.8926   27.8431 H   0  0  0  0  0  0
   -2.9886   48.9513   28.0845 H   0  0  0  0  0  0
  1  2  1  0  0  0
  1 41  1  0  0  0
  1 42  1  0  0  0
  1 43  1  0  0  0
  2  3  1  0  0  0
  2  4  1  0  0  0
  2 10  1  0  0  0
  4  5  1  0  0  0
  4 44  1  0  0  0
  4 45  1  0  0  0
  5  6  1  0  0  0
  5 46  1  0  0  0
  5 47  1  0  0  0
  6  7  1  0  0  0
  6 48  1  0  0  0
  6 49  1  0  0  0
  7  8  1  0  0  0
  7  9  1  0  0  0
  7 50  1  0  0  0
  8 51  1  0  0  0
  8 52  1  0  0  0
  8 53  1  0  0  0
  9 54  1  0  0  0
  9 55  1  0  0  0
  9 56  1  0  0  0
 10 11  1  0  0  0
 10 57  1  0  0  0
 11 12  2  0  0  0
 11 13  1  0  0  0
 13 18  2  0  0  0
 13 14  1  0  0  0
 14 15  2  0  0  0
 14 58  1  0  0  0
 15 16  1  0  0  0
 15 59  1  0  0  0
 16 17  2  0  0  0
 16 60  1  0  0  0
 17 18  1  0  0  0
 17 61  1  0  0  0
 18 19  1  0  0  0
 19 38  1  0  0  0
 19 20  1  0  0  0
 20 21  2  0  0  0
 20 22  1  0  0  0
 22 37  1  0  0  0
 22 23  1  0  0  0
 22 40  1  0  0  0
 23 24  1  0  0  0
 23 32  1  0  0  0
 23 25  1  0  0  0
 25 26  2  0  0  0
 25 35  1  0  0  0
 26 31  1  0  0  0
 26 27  1  0  0  0
 27 28  2  0  0  0
 27 62  1  0  0  0
 28 29  1  0  0  0
 28 33  1  0  0  0
 29 30  2  0  0  0
 29 63  1  0  0  0
 30 31  1  0  0  0
 30 64  1  0  0  0
 31 32  2  0  0  0
 32 75  1  0  0  0
 33 34  1  0  0  0
 34 65  1  0  0  0
 34 66  1  0  0  0
 34 67  1  0  0  0
 35 36  1  0  0  0
 35 68  1  0  0  0
 35 69  1  0  0  0
 36 37  1  0  0  0
 36 70  1  0  0  0
 36 71  1  0  0  0
 37 38  1  0  0  0
 38 39  2  0  0  0
 40 72  1  0  0  0
 40 73  1  0  0  0
 40 74  1  0  0  0
M  CHG  1  32   1
M  END
> <i_i_glide_confnum>
205

> <i_i_glide_lignum>
5470

> <i_i_glide_posenum>
15

> <i_i_glide_rotatable_bonds>
9

> <i_m_Source_File_Index>
2381

> <b_m_subgroup_collapsed>
0

> <r_i_docking_score>
-4.54703

> <r_i_glide_ecoul>
-4.75474

> <r_i_glide_eff_state_penalty>
0

> <r_i_glide_einternal>
4.96042

> <r_i_glide_emodel>
-54.6794

> <r_i_glide_energy>
-43.7396

> <r_i_glide_erotb>
0.536417

> <r_i_glide_esite>
-0.13611

> <r_i_glide_evdw>
-38.9849

> <r_i_glide_gscore>
-4.54703

> <r_i_glide_hbond>
-0.318269

> <r_i_glide_ligand_efficiency>
-0.119659

> <r_i_glide_ligand_efficiency_ln>
-0.980474

> <r_i_glide_ligand_efficiency_sa>
-0.40229

> <r_i_glide_lipo>
-1.6624

> <r_i_glide_metal>
0

> <r_i_glide_rewards>
-0.304222

> <s_i_glide_gridfile>
wee1_glide-grid

> <s_m_Source_File>
wee1_decoys_glide_SP.sdf

> <s_m_Source_Path>
/Users/zhangxujun/Desktop

> <s_m_entry_id>
2656

> <s_m_entry_name>
wee1_decoys_glide_SP.2381

> <s_m_subgroup_title>
wee1_decoys_glide_SP

> <s_m_subgroupid>
wee1_decoys_glide_SP


$$$$
