ZINC43962371_850
                    3D
 Schrodinger Suite 2024-2.
 62 64  0  0  1  0            999 V2000
    6.9186   54.1893   27.6083 C   0  0  0  0  0  0
    6.1332   54.6222   26.3572 C   0  0  0  0  0  0
    6.9403   54.3599   25.0692 C   0  0  0  0  0  0
    4.7328   53.9749   26.3261 C   0  0  0  0  0  0
    4.0972   54.2645   25.0833 O   0  0  0  0  0  0
    2.8470   53.7488   24.8176 C   0  0  0  0  0  0
    2.3632   53.9569   23.5297 C   0  0  0  0  0  0
    1.0976   53.5083   23.1766 C   0  0  0  0  0  0
    0.2963   52.8607   24.1170 C   0  0  0  0  0  0
    0.7865   52.6084   25.3981 C   0  0  0  0  0  0
    2.0577   53.0582   25.7511 C   0  0  0  0  0  0
   -1.3929   52.4204   23.7073 S   0  0  0  0  0  0
   -1.7988   51.3287   24.5979 O   0  0  0  0  0  0
   -2.1430   53.6819   23.6816 O   0  0  0  0  0  0
   -1.3903   51.8078   22.0563 N   0  0  0  0  0  0
   -1.1287   50.3952   21.7065 C   0  0  0  0  0  0
    0.2854   50.1489   21.1401 C   0  0  0  0  0  0
    0.6935   51.0867   19.9711 C   0  0  0  0  0  0
    2.1557   50.9110   19.5202 C   0  0  0  0  0  0
    2.9873   51.0685   20.7299 N   0  0  0  0  0  0
    2.8337   49.9745   21.7036 C   0  0  0  0  0  0
    1.3797   49.9894   22.2200 C   0  0  0  0  0  0
    3.9979   51.9715   20.8528 C   0  0  0  0  0  0
    4.9008   51.8359   21.6814 O   0  0  0  0  0  0
    3.9088   53.0456   20.0345 N   0  0  0  0  0  0
    4.7357   54.1825   19.9965 C   0  0  0  0  0  0
    4.7425   54.9075   18.8026 C   0  0  0  0  0  0
    5.5335   56.0468   18.6805 C   0  0  0  0  0  0
    6.3192   56.4600   19.7523 C   0  0  0  0  0  0
    6.3059   55.7562   20.9521 C   0  0  0  0  0  0
    5.5058   54.6256   21.0829 C   0  0  0  0  0  0
    7.0996   57.5538   19.6334 F   0  0  0  0  0  0
    7.1306   53.1189   27.6010 H   0  0  0  0  0  0
    6.3636   54.4099   28.5210 H   0  0  0  0  0  0
    7.8705   54.7117   27.6813 H   0  0  0  0  0  0
    5.9813   55.6971   26.4228 H   0  0  0  0  0  0
    7.1249   53.2968   24.9210 H   0  0  0  0  0  0
    6.4121   54.7238   24.1879 H   0  0  0  0  0  0
    7.9005   54.8721   25.0872 H   0  0  0  0  0  0
    4.8164   52.8964   26.4667 H   0  0  0  0  0  0
    4.1316   54.3697   27.1481 H   0  0  0  0  0  0
    2.9688   54.4787   22.8030 H   0  0  0  0  0  0
    0.7131   53.6830   22.1808 H   0  0  0  0  0  0
    0.1775   52.1005   26.1317 H   0  0  0  0  0  0
    2.4096   52.8721   26.7544 H   0  0  0  0  0  0
   -1.5636   52.4696   21.2985 H   0  0  0  0  0  0
   -1.3215   49.7767   22.5847 H   0  0  0  0  0  0
   -1.8694   50.1041   20.9608 H   0  0  0  0  0  0
    0.2734   49.1598   20.6780 H   0  0  0  0  0  0
    0.0112   50.9649   19.1280 H   0  0  0  0  0  0
    0.5746   52.1292   20.2794 H   0  0  0  0  0  0
    2.3200   49.8963   19.1502 H   0  0  0  0  0  0
    2.4396   51.5647   18.6952 H   0  0  0  0  0  0
    3.0552   49.0292   21.2089 H   0  0  0  0  0  0
    3.5040   50.0953   22.5529 H   0  0  0  0  0  0
    1.3227   50.8366   22.8941 H   0  0  0  0  0  0
    1.1814   49.1280   22.8590 H   0  0  0  0  0  0
    3.1805   53.0190   19.3380 H   0  0  0  0  0  0
    4.1395   54.5889   17.9641 H   0  0  0  0  0  0
    5.5442   56.6047   17.7560 H   0  0  0  0  0  0
    6.9099   56.0927   21.7804 H   0  0  0  0  0  0
    5.4967   54.1127   22.0320 H   0  0  0  0  0  0
  1  2  1  0  0  0
  1 33  1  0  0  0
  1 34  1  0  0  0
  1 35  1  0  0  0
  2  3  1  0  0  0
  2  4  1  0  0  0
  2 36  1  0  0  0
  3 37  1  0  0  0
  3 38  1  0  0  0
  3 39  1  0  0  0
  4  5  1  0  0  0
  4 40  1  0  0  0
  4 41  1  0  0  0
  5  6  1  0  0  0
  6 11  2  0  0  0
  6  7  1  0  0  0
  7  8  2  0  0  0
  7 42  1  0  0  0
  8  9  1  0  0  0
  8 43  1  0  0  0
  9 10  2  0  0  0
  9 12  1  0  0  0
 10 11  1  0  0  0
 10 44  1  0  0  0
 11 45  1  0  0  0
 12 13  2  0  0  0
 12 14  2  0  0  0
 12 15  1  0  0  0
 15 16  1  0  0  0
 15 46  1  0  0  0
 16 17  1  0  0  0
 16 47  1  0  0  0
 16 48  1  0  0  0
 17 22  1  0  0  0
 17 18  1  0  0  0
 17 49  1  0  0  0
 18 19  1  0  0  0
 18 50  1  0  0  0
 18 51  1  0  0  0
 19 20  1  0  0  0
 19 52  1  0  0  0
 19 53  1  0  0  0
 20 21  1  0  0  0
 20 23  1  0  0  0
 21 22  1  0  0  0
 21 54  1  0  0  0
 21 55  1  0  0  0
 22 56  1  0  0  0
 22 57  1  0  0  0
 23 24  2  0  0  0
 23 25  1  0  0  0
 25 26  1  0  0  0
 25 58  1  0  0  0
 26 31  2  0  0  0
 26 27  1  0  0  0
 27 28  2  0  0  0
 27 59  1  0  0  0
 28 29  1  0  0  0
 28 60  1  0  0  0
 29 30  2  0  0  0
 29 32  1  0  0  0
 30 31  1  0  0  0
 30 61  1  0  0  0
 31 62  1  0  0  0
M  END
> <i_i_glide_confnum>
59

> <i_i_glide_lignum>
851

> <i_i_glide_posenum>
78

> <i_i_glide_rotatable_bonds>
10

> <i_m_Source_File_Index>
5005

> <b_m_subgroup_collapsed>
0

> <r_i_docking_score>
-4.52104

> <r_i_glide_ecoul>
-4.43692

> <r_i_glide_eff_state_penalty>
0

> <r_i_glide_einternal>
11.3472

> <r_i_glide_emodel>
-49.6559

> <r_i_glide_energy>
-43.8142

> <r_i_glide_erotb>
0.844018

> <r_i_glide_esite>
-0.0867798

> <r_i_glide_evdw>
-39.3773

> <r_i_glide_gscore>
-4.52104

> <r_i_glide_hbond>
0

> <r_i_glide_ligand_efficiency>
-0.141283

> <r_i_glide_ligand_efficiency_ln>
-1.01238

> <r_i_glide_ligand_efficiency_sa>
-0.448544

> <r_i_glide_lipo>
-2.79214

> <r_i_glide_metal>
0

> <r_i_glide_rewards>
0.148263

> <s_i_glide_gridfile>
wee1_glide-grid

> <s_m_Source_File>
wee1_decoys_glide_SP.sdf

> <s_m_Source_Path>
/Users/zhangxujun/Desktop

> <s_m_entry_id>
5280

> <s_m_entry_name>
wee1_decoys_glide_SP.5005

> <s_m_subgroup_title>
wee1_decoys_glide_SP

> <s_m_subgroupid>
wee1_decoys_glide_SP


$$$$
