ZINC22635342_5529
                    3D
 Schrodinger Suite 2024-2.
 74 77  0  0  1  0            999 V2000
    6.2620   55.9036   17.1212 C   0  0  0  0  0  0
    6.6799   54.4909   17.6041 C   0  0  0  0  0  0
    6.2401   53.4566   16.5342 C   0  0  0  0  0  0
    8.2292   54.4422   17.6714 C   0  0  0  0  0  0
    6.0498   54.1247   19.0027 C   0  0  2  0  0  0
    6.3211   53.0809   19.1810 H   0  0  0  0  0  0
    4.5043   54.2178   19.0486 C   0  0  0  0  0  0
    3.9212   53.5106   20.2885 C   0  0  0  0  0  0
    4.6513   53.9594   21.5689 C   0  0  0  0  0  0
    5.9043   54.5865   21.4689 C   0  0  0  0  0  0
    6.6296   54.8965   22.9983 S   0  0  0  0  0  0
    5.2186   54.3010   23.8224 C   0  0  0  0  0  0
    4.2015   53.8765   22.9286 C   0  0  0  0  0  0
    2.8699   53.4569   23.3962 C   0  0  0  0  0  0
    2.5193   53.6687   24.5601 O   0  0  0  0  0  0
    2.0975   52.8275   22.4873 N   0  0  0  0  0  0
    0.7678   52.3754   22.5766 C   0  0  0  0  0  0
   -0.0623   52.5348   23.6989 C   0  0  0  0  0  0
   -1.3736   52.0685   23.6666 C   0  0  0  0  0  0
   -1.8602   51.4446   22.5207 C   0  0  0  0  0  0
   -1.0432   51.2787   21.4049 C   0  0  0  0  0  0
    0.2689   51.7442   21.4339 C   0  0  0  0  0  0
   -3.4865   50.8680   22.4851 Cl  0  0  0  0  0  0
    5.1417   54.2456   25.2141 N   0  0  0  0  0  0
    6.0241   54.6297   26.1642 C   0  0  0  0  0  0
    7.0996   55.1767   25.9350 O   0  0  0  0  0  0
    5.6595   54.3746   27.6451 C   0  0  0  0  0  0
    4.3177   53.6055   27.8362 N   0  3  0  0  0  0
    4.2517   52.9461   29.2333 C   0  0  0  0  0  0
    2.9378   52.1426   29.3498 C   0  0  0  0  0  0
    1.7620   52.9849   29.0968 N   0  0  0  0  0  0
    1.8141   53.6772   27.8029 C   0  0  0  0  0  0
    3.0882   54.5391   27.7000 C   0  0  0  0  0  0
    0.5378   52.1803   29.2420 C   0  0  0  0  0  0
   -0.3115   52.6189   30.4448 C   0  0  0  0  0  0
    0.3045   52.3289   31.6817 O   0  0  0  0  0  0
    6.6001   54.9879   20.1735 C   0  0  0  0  0  0
    6.5687   56.6832   17.8188 H   0  0  0  0  0  0
    6.7165   56.1455   16.1595 H   0  0  0  0  0  0
    5.1838   55.9887   16.9880 H   0  0  0  0  0  0
    6.4410   52.4344   16.8596 H   0  0  0  0  0  0
    5.1773   53.5200   16.3022 H   0  0  0  0  0  0
    6.7668   53.6034   15.5899 H   0  0  0  0  0  0
    8.5849   53.4952   18.0793 H   0  0  0  0  0  0
    8.6796   54.5563   16.6844 H   0  0  0  0  0  0
    8.6435   55.2417   18.2857 H   0  0  0  0  0  0
    4.1612   55.2501   18.9569 H   0  0  0  0  0  0
    4.0736   53.7151   18.1839 H   0  0  0  0  0  0
    4.0357   52.4311   20.1698 H   0  0  0  0  0  0
    2.8519   53.6965   20.2983 H   0  0  0  0  0  0
    2.5185   52.6910   21.5804 H   0  0  0  0  0  0
    0.2714   53.0184   24.6017 H   0  0  0  0  0  0
   -2.0113   52.1915   24.5304 H   0  0  0  0  0  0
   -1.4239   50.7889   20.5204 H   0  0  0  0  0  0
    0.8896   51.6104   20.5592 H   0  0  0  0  0  0
    4.2596   53.8699   25.5305 H   0  0  0  0  0  0
    6.4397   53.7518   28.0868 H   0  0  0  0  0  0
    5.6058   55.2957   28.2281 H   0  0  0  0  0  0
    5.1044   52.2692   29.2979 H   0  0  0  0  0  0
    4.3238   53.7342   29.9857 H   0  0  0  0  0  0
    2.9469   51.3549   28.5937 H   0  0  0  0  0  0
    2.8740   51.6974   30.3432 H   0  0  0  0  0  0
    0.9394   54.3186   27.6823 H   0  0  0  0  0  0
    1.8232   52.9285   27.0073 H   0  0  0  0  0  0
    3.1469   55.3032   28.4788 H   0  0  0  0  0  0
    3.1305   55.0209   26.7246 H   0  0  0  0  0  0
   -0.0968   52.3450   28.3691 H   0  0  0  0  0  0
    0.6659   51.0965   29.2158 H   0  0  0  0  0  0
   -0.5349   53.6839   30.3888 H   0  0  0  0  0  0
   -1.2657   52.0931   30.4137 H   0  0  0  0  0  0
   -0.4024   52.0967   32.3245 H   0  0  0  0  0  0
    6.4083   56.0459   19.9912 H   0  0  0  0  0  0
    7.6807   54.8948   20.2813 H   0  0  0  0  0  0
    4.2708   52.8641   27.1463 H   0  0  0  0  0  0
  1  2  1  0  0  0
  1 38  1  0  0  0
  1 39  1  0  0  0
  1 40  1  0  0  0
  2  3  1  0  0  0
  2  4  1  0  0  0
  2  5  1  0  0  0
  3 41  1  0  0  0
  3 42  1  0  0  0
  3 43  1  0  0  0
  4 44  1  0  0  0
  4 45  1  0  0  0
  4 46  1  0  0  0
  5  6  1  0  0  0
  5 37  1  0  0  0
  5  7  1  0  0  0
  7  8  1  0  0  0
  7 47  1  0  0  0
  7 48  1  0  0  0
  8  9  1  0  0  0
  8 49  1  0  0  0
  8 50  1  0  0  0
  9 13  1  0  0  0
  9 10  2  0  0  0
 10 11  1  0  0  0
 10 37  1  0  0  0
 11 12  1  0  0  0
 12 13  2  0  0  0
 12 24  1  0  0  0
 13 14  1  0  0  0
 14 15  2  0  0  0
 14 16  1  0  0  0
 16 17  1  0  0  0
 16 51  1  0  0  0
 17 22  2  0  0  0
 17 18  1  0  0  0
 18 19  2  0  0  0
 18 52  1  0  0  0
 19 20  1  0  0  0
 19 53  1  0  0  0
 20 21  2  0  0  0
 20 23  1  0  0  0
 21 22  1  0  0  0
 21 54  1  0  0  0
 22 55  1  0  0  0
 24 25  1  0  0  0
 24 56  1  0  0  0
 25 26  2  0  0  0
 25 27  1  0  0  0
 27 28  1  0  0  0
 27 57  1  0  0  0
 27 58  1  0  0  0
 28 33  1  0  0  0
 28 29  1  0  0  0
 28 74  1  0  0  0
 29 30  1  0  0  0
 29 59  1  0  0  0
 29 60  1  0  0  0
 30 31  1  0  0  0
 30 61  1  0  0  0
 30 62  1  0  0  0
 31 32  1  0  0  0
 31 34  1  0  0  0
 32 33  1  0  0  0
 32 63  1  0  0  0
 32 64  1  0  0  0
 33 65  1  0  0  0
 33 66  1  0  0  0
 34 35  1  0  0  0
 34 67  1  0  0  0
 34 68  1  0  0  0
 35 36  1  0  0  0
 35 69  1  0  0  0
 35 70  1  0  0  0
 36 71  1  0  0  0
 37 72  1  0  0  0
 37 73  1  0  0  0
M  CHG  1  28   1
M  END
> <i_i_glide_confnum>
90

> <i_i_glide_lignum>
5530

> <i_i_glide_posenum>
313

> <i_i_glide_rotatable_bonds>
11

> <i_m_Source_File_Index>
3439

> <b_m_subgroup_collapsed>
0

> <r_i_docking_score>
-7.20735

> <r_i_glide_ecoul>
-11.4529

> <r_i_glide_eff_state_penalty>
0

> <r_i_glide_einternal>
9.08041

> <r_i_glide_emodel>
-77.6376

> <r_i_glide_energy>
-56.8403

> <r_i_glide_erotb>
0.650994

> <r_i_glide_esite>
0

> <r_i_glide_evdw>
-45.3874

> <r_i_glide_gscore>
-7.20735

> <r_i_glide_hbond>
-0.446489

> <r_i_glide_ligand_efficiency>
-0.200204

> <r_i_glide_ligand_efficiency_ln>
-1.57245

> <r_i_glide_ligand_efficiency_sa>
-0.661059

> <r_i_glide_lipo>
-2.72211

> <r_i_glide_metal>
0

> <r_i_glide_rewards>
-0.702437

> <s_i_glide_gridfile>
wee1_glide-grid

> <s_m_Source_File>
wee1_decoys_glide_SP.sdf

> <s_m_Source_Path>
/Users/zhangxujun/Desktop

> <s_m_entry_id>
3714

> <s_m_entry_name>
wee1_decoys_glide_SP.3439

> <s_m_subgroup_title>
wee1_decoys_glide_SP

> <s_m_subgroupid>
wee1_decoys_glide_SP


$$$$
