ZINC16021446_4444
                    3D
 Schrodinger Suite 2024-2.
 64 67  0  0  1  0            999 V2000
    6.2085   54.8174   20.4640 C   0  0  0  0  0  0
    5.7858   54.5948   21.9048 C   0  0  0  0  0  0
    6.7042   54.7356   22.9457 C   0  0  0  0  0  0
    6.2990   54.5790   24.2717 C   0  0  0  0  0  0
    4.9583   54.2892   24.5718 C   0  0  0  0  0  0
    4.0398   54.1054   23.5188 C   0  0  0  0  0  0
    4.4656   54.2487   22.1942 C   0  0  0  0  0  0
    2.5697   53.7912   23.7790 C   0  0  0  0  0  0
    4.4596   54.2967   25.8866 N   0  0  0  0  0  0
    5.0807   54.1202   27.0733 C   0  0  0  0  0  0
    6.2370   53.7120   27.1874 O   0  0  0  0  0  0
    4.2671   54.5147   28.3445 C   0  0  2  0  0  0
    4.3382   53.4781   29.4818 C   0  0  0  0  0  0
    3.4634   52.2496   29.2937 C   0  0  0  0  0  0
    2.0240   52.4996   28.7883 C   0  0  1  0  0  0
    1.9003   53.6427   27.7472 C   0  0  0  0  0  0
    2.7788   54.8682   28.0762 C   0  0  0  0  0  0
    1.4015   51.1539   28.3698 C   0  0  0  0  0  0
    0.1478   51.1805   27.6291 N   0  0  0  0  0  0
   -1.0267   51.5729   28.1394 C   0  0  0  0  0  0
   -1.1191   52.0960   29.2518 O   0  0  0  0  0  0
   -2.2683   51.2984   27.2570 C   0  0  1  0  0  0
   -2.0174   50.4651   26.5953 H   0  0  0  0  0  0
   -3.5215   50.9640   28.1105 C   0  0  0  0  0  0
   -4.8069   50.9858   27.2840 C   0  0  0  0  0  0
   -5.9747   50.3780   27.7561 C   0  0  0  0  0  0
   -7.1620   50.4454   27.0318 C   0  0  0  0  0  0
   -7.1949   51.1274   25.8200 C   0  0  0  0  0  0
   -6.0365   51.7268   25.3315 C   0  0  0  0  0  0
   -4.8348   51.6616   26.0456 C   0  0  0  0  0  0
   -3.5504   52.2536   25.4666 C   0  0  0  0  0  0
   -2.5169   52.5065   26.4687 N   0  0  0  0  0  0
    7.2902   54.9197   20.3628 H   0  0  0  0  0  0
    5.7271   55.7098   20.0623 H   0  0  0  0  0  0
    5.8951   53.9736   19.8473 H   0  0  0  0  0  0
    7.7275   54.9943   22.7243 H   0  0  0  0  0  0
    7.0249   54.7384   25.0539 H   0  0  0  0  0  0
    3.7585   54.1298   21.3838 H   0  0  0  0  0  0
    2.1229   54.5531   24.4207 H   0  0  0  0  0  0
    1.9850   53.7479   22.8571 H   0  0  0  0  0  0
    2.4761   52.8313   24.2896 H   0  0  0  0  0  0
    3.4639   54.4377   25.9433 H   0  0  0  0  0  0
    4.8683   55.3421   28.6978 H   0  0  0  0  0  0
    5.3546   53.1514   29.6500 H   0  0  0  0  0  0
    4.1418   53.9802   30.4289 H   0  0  0  0  0  0
    3.4794   51.6037   30.1716 H   0  0  0  0  0  0
    3.9869   51.7036   28.5191 H   0  0  0  0  0  0
    1.4886   52.8782   29.6616 H   0  0  0  0  0  0
    0.8562   53.9180   27.5952 H   0  0  0  0  0  0
    2.2314   53.2449   26.7891 H   0  0  0  0  0  0
    2.3889   55.3833   28.9561 H   0  0  0  0  0  0
    2.7042   55.6597   27.3305 H   0  0  0  0  0  0
    2.0871   50.6541   27.6912 H   0  0  0  0  0  0
    1.3442   50.4983   29.2377 H   0  0  0  0  0  0
    0.1421   50.7162   26.7344 H   0  0  0  0  0  0
   -3.3925   49.9960   28.5986 H   0  0  0  0  0  0
   -3.6509   51.7011   28.9014 H   0  0  0  0  0  0
   -5.9623   49.8577   28.7027 H   0  0  0  0  0  0
   -8.0559   49.9746   27.4135 H   0  0  0  0  0  0
   -8.1133   51.1840   25.2546 H   0  0  0  0  0  0
   -6.0707   52.2354   24.3787 H   0  0  0  0  0  0
   -3.7695   53.2067   24.9838 H   0  0  0  0  0  0
   -3.1674   51.5876   24.6919 H   0  0  0  0  0  0
   -1.6694   52.7847   25.9957 H   0  0  0  0  0  0
  1  2  1  0  0  0
  1 33  1  0  0  0
  1 34  1  0  0  0
  1 35  1  0  0  0
  2  7  2  0  0  0
  2  3  1  0  0  0
  3  4  2  0  0  0
  3 36  1  0  0  0
  4  5  1  0  0  0
  4 37  1  0  0  0
  5  6  2  0  0  0
  5  9  1  0  0  0
  6  7  1  0  0  0
  6  8  1  0  0  0
  7 38  1  0  0  0
  8 39  1  0  0  0
  8 40  1  0  0  0
  8 41  1  0  0  0
  9 10  1  0  0  0
  9 42  1  0  0  0
 10 11  2  0  0  0
 10 12  1  0  0  0
 12 17  1  0  0  0
 12 13  1  0  0  0
 12 43  1  0  0  0
 13 14  1  0  0  0
 13 44  1  0  0  0
 13 45  1  0  0  0
 14 15  1  0  0  0
 14 46  1  0  0  0
 14 47  1  0  0  0
 15 16  1  0  0  0
 15 18  1  0  0  0
 15 48  1  0  0  0
 16 17  1  0  0  0
 16 49  1  0  0  0
 16 50  1  0  0  0
 17 51  1  0  0  0
 17 52  1  0  0  0
 18 19  1  0  0  0
 18 53  1  0  0  0
 18 54  1  0  0  0
 19 20  1  0  0  0
 19 55  1  0  0  0
 20 21  2  0  0  0
 20 22  1  0  0  0
 22 23  1  0  0  0
 22 32  1  0  0  0
 22 24  1  0  0  0
 24 25  1  0  0  0
 24 56  1  0  0  0
 24 57  1  0  0  0
 25 30  2  0  0  0
 25 26  1  0  0  0
 26 27  2  0  0  0
 26 58  1  0  0  0
 27 28  1  0  0  0
 27 59  1  0  0  0
 28 29  2  0  0  0
 28 60  1  0  0  0
 29 30  1  0  0  0
 29 61  1  0  0  0
 30 31  1  0  0  0
 31 32  1  0  0  0
 31 62  1  0  0  0
 31 63  1  0  0  0
 32 64  1  0  0  0
M  END
> <i_i_glide_confnum>
139

> <i_i_glide_lignum>
4445

> <i_i_glide_posenum>
202

> <i_i_glide_rotatable_bonds>
7

> <i_m_Source_File_Index>
279

> <b_m_subgroup_collapsed>
0

> <r_i_docking_score>
-5.35908

> <r_i_glide_ecoul>
-0.92346

> <r_i_glide_eff_state_penalty>
0

> <r_i_glide_einternal>
11.7741

> <r_i_glide_emodel>
-41.6148

> <r_i_glide_energy>
-34.596

> <r_i_glide_erotb>
0.674356

> <r_i_glide_esite>
-0.125099

> <r_i_glide_evdw>
-33.6726

> <r_i_glide_gscore>
-5.35908

> <r_i_glide_hbond>
0

> <r_i_glide_ligand_efficiency>
-0.172873

> <r_i_glide_ligand_efficiency_ln>
-1.20864

> <r_i_glide_ligand_efficiency_sa>
-0.543061

> <r_i_glide_lipo>
-3.1022

> <r_i_glide_metal>
0

> <r_i_glide_rewards>
-0.983982

> <s_i_glide_gridfile>
wee1_glide-grid

> <s_m_Source_File>
wee1_decoys_glide_SP.sdf

> <s_m_Source_Path>
/Users/zhangxujun/Desktop

> <s_m_entry_id>
554

> <s_m_entry_name>
wee1_decoys_glide_SP.279

> <s_m_subgroup_title>
wee1_decoys_glide_SP

> <s_m_subgroupid>
wee1_decoys_glide_SP


$$$$
