ZINC40455824_6155
                    3D
 Schrodinger Suite 2024-2.
 37 39  0  0  1  0            999 V2000
    0.6065   52.7693   30.6885 C   0  0  0  0  0  0
   -0.2263   51.9659   29.9122 C   0  0  0  0  0  0
    0.0996   51.8002   28.5695 C   0  0  0  0  0  0
    1.1941   52.3840   28.0247 N   0  0  0  0  0  0
    1.9739   53.1329   28.8570 C   0  0  0  0  0  0
    1.7231   53.3458   30.1798 N   0  0  0  0  0  0
    3.1571   53.6222   28.3218 N   0  0  0  0  0  0
    4.2222   54.2371   29.1363 C   0  0  0  0  0  0
    5.6001   54.0145   28.4817 C   0  0  0  0  0  0
    5.6571   54.5395   27.0400 C   0  0  1  0  0  0
    5.5561   55.6249   27.0465 H   0  0  0  0  0  0
    6.9651   54.1388   26.3472 C   0  0  0  0  0  0
    7.0173   54.6197   24.8819 C   0  0  0  0  0  0
    5.7820   54.1907   24.0646 C   0  0  0  0  0  0
    4.4713   54.4967   24.8093 C   0  0  0  0  0  0
    4.4771   53.9539   26.2463 C   0  0  2  0  0  0
    4.6321   52.8828   26.2345 H   0  0  0  0  0  0
    3.1606   54.2340   26.9842 C   0  0  0  0  0  0
   -1.2956   51.2967   30.4817 N   0  0  0  0  0  0
    0.4120   52.9183   31.7414 H   0  0  0  0  0  0
   -0.4953   51.1713   27.9220 H   0  0  0  0  0  0
    4.0101   55.2973   29.2787 H   0  0  0  0  0  0
    4.2515   53.7757   30.1238 H   0  0  0  0  0  0
    6.3995   54.4590   29.0738 H   0  0  0  0  0  0
    5.8085   52.9428   28.5041 H   0  0  0  0  0  0
    7.8166   54.4967   26.9246 H   0  0  0  0  0  0
    7.0699   53.0532   26.3715 H   0  0  0  0  0  0
    7.9044   54.2029   24.4092 H   0  0  0  0  0  0
    7.1191   55.7056   24.8522 H   0  0  0  0  0  0
    5.8375   53.1252   23.8474 H   0  0  0  0  0  0
    5.7859   54.6908   23.0953 H   0  0  0  0  0  0
    3.6135   54.1134   24.2549 H   0  0  0  0  0  0
    4.3224   55.5697   24.8700 H   0  0  0  0  0  0
    2.3655   53.8052   26.3735 H   0  0  0  0  0  0
    2.9387   55.2968   27.0366 H   0  0  0  0  0  0
   -1.6047   50.4153   30.0727 H   0  0  0  0  0  0
   -1.4234   51.3942   31.4982 H   0  0  0  0  0  0
  1  6  2  0  0  0
  1  2  1  0  0  0
  1 20  1  0  0  0
  2  3  2  0  0  0
  2 19  1  0  0  0
  3  4  1  0  0  0
  3 21  1  0  0  0
  4  5  2  0  0  0
  5  6  1  0  0  0
  5  7  1  0  0  0
  7 18  1  0  0  0
  7  8  1  0  0  0
  8  9  1  0  0  0
  8 22  1  0  0  0
  8 23  1  0  0  0
  9 10  1  0  0  0
  9 24  1  0  0  0
  9 25  1  0  0  0
 10 11  1  0  0  0
 10 16  1  0  0  0
 10 12  1  0  0  0
 12 13  1  0  0  0
 12 26  1  0  0  0
 12 27  1  0  0  0
 13 14  1  0  0  0
 13 28  1  0  0  0
 13 29  1  0  0  0
 14 15  1  0  0  0
 14 30  1  0  0  0
 14 31  1  0  0  0
 15 16  1  0  0  0
 15 32  1  0  0  0
 15 33  1  0  0  0
 16 17  1  0  0  0
 16 18  1  0  0  0
 18 34  1  0  0  0
 18 35  1  0  0  0
 19 36  1  0  0  0
 19 37  1  0  0  0
M  END
> <i_i_glide_confnum>
1

> <i_i_glide_lignum>
6156

> <i_i_glide_posenum>
158

> <i_i_glide_rotatable_bonds>
1

> <i_m_Source_File_Index>
5262

> <b_m_subgroup_collapsed>
0

> <r_i_docking_score>
-6.8042

> <r_i_glide_ecoul>
-7.24836

> <r_i_glide_eff_state_penalty>
0

> <r_i_glide_einternal>
1.07694

> <r_i_glide_emodel>
-42.4894

> <r_i_glide_energy>
-30.4786

> <r_i_glide_erotb>
0.317328

> <r_i_glide_esite>
-0.1

> <r_i_glide_evdw>
-23.2302

> <r_i_glide_gscore>
-6.8042

> <r_i_glide_hbond>
-0.309655

> <r_i_glide_ligand_efficiency>
-0.400247

> <r_i_glide_ligand_efficiency_ln>
-1.77506

> <r_i_glide_ligand_efficiency_sa>
-1.02915

> <r_i_glide_lipo>
-2.07363

> <r_i_glide_metal>
0

> <r_i_glide_rewards>
-2.38947

> <s_i_glide_gridfile>
wee1_glide-grid

> <s_m_Source_File>
wee1_decoys_glide_SP.sdf

> <s_m_Source_Path>
/Users/zhangxujun/Desktop

> <s_m_entry_id>
5537

> <s_m_entry_name>
wee1_decoys_glide_SP.5262

> <s_m_subgroup_title>
wee1_decoys_glide_SP

> <s_m_subgroupid>
wee1_decoys_glide_SP


$$$$
