ZINC64735021_149
                    3D
 Schrodinger Suite 2024-2.
 53 56  0  0  1  0            999 V2000
    0.9094   53.7697   29.2403 C   0  0  0  0  0  0
    2.4164   53.9624   29.0722 C   0  0  0  0  0  0
    3.1048   54.0952   30.0816 O   0  0  0  0  0  0
    2.9733   54.0428   27.6891 C   0  0  0  0  0  0
    2.2125   53.6632   26.5781 C   0  0  0  0  0  0
    2.7633   53.6969   25.3024 C   0  0  0  0  0  0
    4.0893   54.1130   25.1227 C   0  0  0  0  0  0
    4.8524   54.4928   26.2267 C   0  0  0  0  0  0
    4.2980   54.4609   27.5026 C   0  0  0  0  0  0
    4.7499   54.0974   23.8850 N   0  0  0  0  0  0
    4.2063   54.0745   22.6502 C   0  0  0  0  0  0
    3.0116   54.2270   22.3977 O   0  0  0  0  0  0
    5.1848   53.7260   21.5075 C   0  0  1  0  0  0
    6.1819   53.7120   21.9494 H   0  0  0  0  0  0
    4.9677   52.2925   20.9296 C   0  0  0  0  0  0
    3.6026   52.0515   20.2860 C   0  0  0  0  0  0
    2.5607   51.2972   20.6887 C   0  0  0  0  0  0
    2.3573   50.4970   21.9062 C   0  0  0  0  0  0
    1.2213   49.7982   22.0992 C   0  0  0  0  0  0
    0.2014   49.8568   21.0625 C   0  0  0  0  0  0
    0.3721   50.5862   19.9285 C   0  0  0  0  0  0
    1.5527   51.3103   19.7199 C   0  0  0  0  0  0
    1.9103   52.0444   18.6948 N   0  3  0  0  0  0
    3.2479   52.6089   18.9207 C   0  0  0  0  0  0
    5.1630   54.7552   20.4671 N   0  0  0  0  0  0
    6.1707   55.5950   20.1648 C   0  0  0  0  0  0
    7.2472   55.6178   20.7657 O   0  0  0  0  0  0
    5.9120   56.5054   19.0761 C   0  0  0  0  0  0
    6.6762   57.6240   18.7318 C   0  0  0  0  0  0
    6.1866   58.3090   17.6165 C   0  0  0  0  0  0
    5.0762   57.6946   17.0582 C   0  0  0  0  0  0
    4.6285   56.2537   17.9115 S   0  0  0  0  0  0
    0.3670   54.4970   28.6353 H   0  0  0  0  0  0
    0.6154   53.9054   30.2803 H   0  0  0  0  0  0
    0.6151   52.7710   28.9149 H   0  0  0  0  0  0
    1.1934   53.3159   26.6797 H   0  0  0  0  0  0
    2.1525   53.3658   24.4767 H   0  0  0  0  0  0
    5.8799   54.8021   26.1092 H   0  0  0  0  0  0
    4.9153   54.7496   28.3432 H   0  0  0  0  0  0
    5.7576   54.0834   23.9400 H   0  0  0  0  0  0
    5.7224   52.0837   20.1684 H   0  0  0  0  0  0
    5.1196   51.5493   21.7124 H   0  0  0  0  0  0
    3.1044   50.4377   22.6792 H   0  0  0  0  0  0
    1.0767   49.2109   22.9951 H   0  0  0  0  0  0
   -0.7168   49.3025   21.2009 H   0  0  0  0  0  0
   -0.4164   50.5888   19.1904 H   0  0  0  0  0  0
    3.1542   53.6951   18.8864 H   0  0  0  0  0  0
    3.9035   52.2604   18.1224 H   0  0  0  0  0  0
    4.2737   54.8889   20.0119 H   0  0  0  0  0  0
    7.5492   57.9478   19.2787 H   0  0  0  0  0  0
    6.6212   59.2232   17.2327 H   0  0  0  0  0  0
    4.5108   58.0194   16.1953 H   0  0  0  0  0  0
    1.3582   52.2021   17.8563 H   0  0  0  0  0  0
  1  2  1  0  0  0
  1 33  1  0  0  0
  1 34  1  0  0  0
  1 35  1  0  0  0
  2  3  2  0  0  0
  2  4  1  0  0  0
  4  9  2  0  0  0
  4  5  1  0  0  0
  5  6  2  0  0  0
  5 36  1  0  0  0
  6  7  1  0  0  0
  6 37  1  0  0  0
  7  8  2  0  0  0
  7 10  1  0  0  0
  8  9  1  0  0  0
  8 38  1  0  0  0
  9 39  1  0  0  0
 10 11  1  0  0  0
 10 40  1  0  0  0
 11 12  2  0  0  0
 11 13  1  0  0  0
 13 14  1  0  0  0
 13 15  1  0  0  0
 13 25  1  0  0  0
 15 16  1  0  0  0
 15 41  1  0  0  0
 15 42  1  0  0  0
 16 24  1  0  0  0
 16 17  2  0  0  0
 17 22  1  0  0  0
 17 18  1  0  0  0
 18 19  2  0  0  0
 18 43  1  0  0  0
 19 20  1  0  0  0
 19 44  1  0  0  0
 20 21  2  0  0  0
 20 45  1  0  0  0
 21 22  1  0  0  0
 21 46  1  0  0  0
 22 23  2  0  0  0
 23 24  1  0  0  0
 23 53  1  0  0  0
 24 47  1  0  0  0
 24 48  1  0  0  0
 25 26  1  0  0  0
 25 49  1  0  0  0
 26 27  2  0  0  0
 26 28  1  0  0  0
 28 32  1  0  0  0
 28 29  2  0  0  0
 29 30  1  0  0  0
 29 50  1  0  0  0
 30 31  2  0  0  0
 30 51  1  0  0  0
 31 32  1  0  0  0
 31 52  1  0  0  0
M  CHG  1  23   1
M  END
> <i_i_glide_confnum>
145

> <i_i_glide_lignum>
150

> <i_i_glide_posenum>
198

> <i_i_glide_rotatable_bonds>
9

> <i_m_Source_File_Index>
228

> <b_m_subgroup_collapsed>
0

> <r_i_docking_score>
-5.60398

> <r_i_glide_ecoul>
-3.21652

> <r_i_glide_eff_state_penalty>
0

> <r_i_glide_einternal>
8.94279

> <r_i_glide_emodel>
-60.6575

> <r_i_glide_energy>
-45.7183

> <r_i_glide_erotb>
0.638238

> <r_i_glide_esite>
-0.0291065

> <r_i_glide_evdw>
-42.5018

> <r_i_glide_gscore>
-5.60398

> <r_i_glide_hbond>
-0.32

> <r_i_glide_ligand_efficiency>
-0.180774

> <r_i_glide_ligand_efficiency_ln>
-1.26387

> <r_i_glide_ligand_efficiency_sa>
-0.567879

> <r_i_glide_lipo>
-2.18102

> <r_i_glide_metal>
0

> <r_i_glide_rewards>
-1.10452

> <s_i_glide_gridfile>
wee1_glide-grid

> <s_m_Source_File>
wee1_decoys_glide_SP.sdf

> <s_m_Source_Path>
/Users/zhangxujun/Desktop

> <s_m_entry_id>
503

> <s_m_entry_name>
wee1_decoys_glide_SP.228

> <s_m_subgroup_title>
wee1_decoys_glide_SP

> <s_m_subgroupid>
wee1_decoys_glide_SP


$$$$
