ZINC06575758_2554
                    3D
 Schrodinger Suite 2024-2.
 50 53  0  0  1  0            999 V2000
    0.7885   53.9733   29.6831 C   0  0  0  0  0  0
    1.8129   54.8120   29.2491 C   0  0  0  0  0  0
    2.3493   54.6404   27.9750 C   0  0  0  0  0  0
    1.8468   53.6503   27.1213 C   0  0  0  0  0  0
    0.8233   52.8098   27.5749 C   0  0  0  0  0  0
    0.2984   52.9672   28.8541 C   0  0  0  0  0  0
    2.4196   53.4326   25.7164 C   0  0  1  0  0  0
    2.7046   52.3863   25.7081 H   0  0  0  0  0  0
    1.4221   53.6977   24.5590 C   0  0  0  0  0  0
    2.0048   53.2037   23.2191 C   0  0  1  0  0  0
    1.4391   53.6462   22.3966 H   0  0  0  0  0  0
    3.4418   53.7004   23.0907 C   0  0  0  0  0  0
    4.0937   53.7348   21.8531 C   0  0  0  0  0  0
    5.4266   54.1319   21.7527 C   0  0  0  0  0  0
    6.1384   54.4965   22.8953 C   0  0  0  0  0  0
    5.5053   54.4873   24.1368 C   0  0  0  0  0  0
    4.1695   54.0965   24.2340 C   0  0  0  0  0  0
    3.6159   54.1900   25.4985 O   0  0  0  0  0  0
    1.9043   51.7414   23.0903 N   0  0  0  0  0  0
    0.8166   51.0355   22.6639 C   0  0  0  0  0  0
   -0.5682   51.6972   21.9721 S   0  0  0  0  0  0
    0.9757   49.7005   22.9095 N   0  0  0  0  0  0
   -0.0981   48.8175   23.0378 N   0  0  0  0  0  0
   -0.5119   48.4947   24.2830 C   0  0  0  0  0  0
    0.0495   48.8969   25.3068 O   0  0  0  0  0  0
   -1.7402   47.6096   24.3754 C   0  0  0  0  0  0
   -2.0957   47.0598   25.6136 C   0  0  0  0  0  0
   -3.2573   46.3094   25.7581 C   0  0  0  0  0  0
   -4.0781   46.0971   24.6542 C   0  0  0  0  0  0
   -3.7346   46.6147   23.4074 C   0  0  0  0  0  0
   -2.5710   47.3697   23.2666 C   0  0  0  0  0  0
    0.3728   54.0994   30.6733 H   0  0  0  0  0  0
    2.1909   55.5901   29.8955 H   0  0  0  0  0  0
    3.1534   55.2830   27.6497 H   0  0  0  0  0  0
    0.4390   52.0222   26.9415 H   0  0  0  0  0  0
   -0.4876   52.3105   29.2003 H   0  0  0  0  0  0
    1.2704   54.7742   24.4815 H   0  0  0  0  0  0
    0.4412   53.2687   24.7686 H   0  0  0  0  0  0
    3.5606   53.4450   20.9571 H   0  0  0  0  0  0
    5.9047   54.1511   20.7842 H   0  0  0  0  0  0
    7.1728   54.8001   22.8194 H   0  0  0  0  0  0
    6.0439   54.7902   25.0223 H   0  0  0  0  0  0
    2.6731   51.2175   23.4817 H   0  0  0  0  0  0
    1.8693   49.2349   22.8280 H   0  0  0  0  0  0
   -0.2437   48.2446   22.2222 H   0  0  0  0  0  0
   -1.4785   47.2478   26.4817 H   0  0  0  0  0  0
   -3.5249   45.9174   26.7295 H   0  0  0  0  0  0
   -4.9953   45.5379   24.7674 H   0  0  0  0  0  0
   -4.3802   46.4530   22.5573 H   0  0  0  0  0  0
   -2.3504   47.7861   22.2949 H   0  0  0  0  0  0
  1  6  2  0  0  0
  1  2  1  0  0  0
  1 32  1  0  0  0
  2  3  2  0  0  0
  2 33  1  0  0  0
  3  4  1  0  0  0
  3 34  1  0  0  0
  4  5  2  0  0  0
  4  7  1  0  0  0
  5  6  1  0  0  0
  5 35  1  0  0  0
  6 36  1  0  0  0
  7  8  1  0  0  0
  7 18  1  0  0  0
  7  9  1  0  0  0
  9 10  1  0  0  0
  9 37  1  0  0  0
  9 38  1  0  0  0
 10 11  1  0  0  0
 10 12  1  0  0  0
 10 19  1  0  0  0
 12 17  2  0  0  0
 12 13  1  0  0  0
 13 14  2  0  0  0
 13 39  1  0  0  0
 14 15  1  0  0  0
 14 40  1  0  0  0
 15 16  2  0  0  0
 15 41  1  0  0  0
 16 17  1  0  0  0
 16 42  1  0  0  0
 17 18  1  0  0  0
 19 20  1  0  0  0
 19 43  1  0  0  0
 20 21  2  0  0  0
 20 22  1  0  0  0
 22 23  1  0  0  0
 22 44  1  0  0  0
 23 24  1  0  0  0
 23 45  1  0  0  0
 24 25  2  0  0  0
 24 26  1  0  0  0
 26 31  2  0  0  0
 26 27  1  0  0  0
 27 28  2  0  0  0
 27 46  1  0  0  0
 28 29  1  0  0  0
 28 47  1  0  0  0
 29 30  2  0  0  0
 29 48  1  0  0  0
 30 31  1  0  0  0
 30 49  1  0  0  0
 31 50  1  0  0  0
M  END
> <i_i_glide_confnum>
112

> <i_i_glide_lignum>
2555

> <i_i_glide_posenum>
161

> <i_i_glide_rotatable_bonds>
7

> <i_m_Source_File_Index>
5340

> <b_m_subgroup_collapsed>
0

> <r_i_docking_score>
-5.42368

> <r_i_glide_ecoul>
-1.48034

> <r_i_glide_eff_state_penalty>
0

> <r_i_glide_einternal>
7.00516

> <r_i_glide_emodel>
-52.4116

> <r_i_glide_energy>
-41.6214

> <r_i_glide_erotb>
0.723567

> <r_i_glide_esite>
-0.0359601

> <r_i_glide_evdw>
-40.1411

> <r_i_glide_gscore>
-5.42368

> <r_i_glide_hbond>
0

> <r_i_glide_ligand_efficiency>
-0.187023

> <r_i_glide_ligand_efficiency_ln>
-1.24188

> <r_i_glide_ligand_efficiency_sa>
-0.574595

> <r_i_glide_lipo>
-3.07888

> <r_i_glide_metal>
0

> <r_i_glide_rewards>
-0.8033

> <s_i_glide_gridfile>
wee1_glide-grid

> <s_m_Source_File>
wee1_decoys_glide_SP.sdf

> <s_m_Source_Path>
/Users/zhangxujun/Desktop

> <s_m_entry_id>
5615

> <s_m_entry_name>
wee1_decoys_glide_SP.5340

> <s_m_subgroup_title>
wee1_decoys_glide_SP

> <s_m_subgroupid>
wee1_decoys_glide_SP


$$$$
