ZINC22068045_3821
                    3D
 Schrodinger Suite 2024-2.
 44 46  0  0  1  0            999 V2000
    3.2233   52.8710   29.1898 C   0  0  0  0  0  0
    2.9737   53.9835   28.1515 C   0  0  0  0  0  0
    2.5399   55.2991   28.8229 C   0  0  0  0  0  0
    4.1711   54.1888   27.2193 C   0  0  0  0  0  0
    5.4424   54.4609   27.7369 C   0  0  0  0  0  0
    6.5310   54.6225   26.8837 C   0  0  0  0  0  0
    6.3645   54.5217   25.5031 C   0  0  0  0  0  0
    5.0943   54.2601   24.9636 C   0  0  0  0  0  0
    4.0083   54.0969   25.8313 C   0  0  0  0  0  0
    4.8268   54.0966   23.5906 N   0  0  0  0  0  0
    5.6067   54.3682   22.5207 C   0  0  0  0  0  0
    6.7042   54.9251   22.5747 O   0  0  0  0  0  0
    5.0129   53.9987   21.1802 C   0  0  0  0  0  0
    5.3245   54.7604   20.0495 C   0  0  0  0  0  0
    4.7752   54.4456   18.8105 C   0  0  0  0  0  0
    3.9125   53.3597   18.6620 C   0  0  0  0  0  0
    3.6159   52.5440   19.7836 C   0  0  0  0  0  0
    4.1648   52.8898   21.0249 C   0  0  0  0  0  0
    2.7956   51.4038   19.6790 N   0  0  0  0  0  0
    1.6070   51.2263   19.0684 C   0  0  0  0  0  0
    1.1057   50.1217   18.8799 O   0  0  0  0  0  0
    0.9466   52.5203   18.5665 C   0  0  0  0  0  0
    1.4798   52.9935   17.2013 C   0  0  0  0  0  0
    3.2972   53.0063   17.0283 S   0  0  0  0  0  0
    3.5192   51.9403   28.7051 H   0  0  0  0  0  0
    2.3211   52.6625   29.7661 H   0  0  0  0  0  0
    4.0083   53.1406   29.8970 H   0  0  0  0  0  0
    2.1334   53.6446   27.5423 H   0  0  0  0  0  0
    2.3032   56.0632   28.0824 H   0  0  0  0  0  0
    1.6491   55.1556   29.4356 H   0  0  0  0  0  0
    3.3233   55.6962   29.4680 H   0  0  0  0  0  0
    5.5953   54.5451   28.8031 H   0  0  0  0  0  0
    7.5045   54.8189   27.3056 H   0  0  0  0  0  0
    7.2368   54.6282   24.8772 H   0  0  0  0  0  0
    3.0286   53.8829   25.4286 H   0  0  0  0  0  0
    3.9121   53.7301   23.3802 H   0  0  0  0  0  0
    5.9867   55.6122   20.1233 H   0  0  0  0  0  0
    5.0248   55.0509   17.9512 H   0  0  0  0  0  0
    3.9319   52.2625   21.8736 H   0  0  0  0  0  0
    3.2357   50.5240   19.9005 H   0  0  0  0  0  0
    1.2016   53.2963   19.2839 H   0  0  0  0  0  0
   -0.1347   52.3865   18.5509 H   0  0  0  0  0  0
    1.0968   53.9920   16.9889 H   0  0  0  0  0  0
    1.0830   52.3591   16.4073 H   0  0  0  0  0  0
  1  2  1  0  0  0
  1 25  1  0  0  0
  1 26  1  0  0  0
  1 27  1  0  0  0
  2  3  1  0  0  0
  2  4  1  0  0  0
  2 28  1  0  0  0
  3 29  1  0  0  0
  3 30  1  0  0  0
  3 31  1  0  0  0
  4  9  2  0  0  0
  4  5  1  0  0  0
  5  6  2  0  0  0
  5 32  1  0  0  0
  6  7  1  0  0  0
  6 33  1  0  0  0
  7  8  2  0  0  0
  7 34  1  0  0  0
  8  9  1  0  0  0
  8 10  1  0  0  0
  9 35  1  0  0  0
 10 11  1  0  0  0
 10 36  1  0  0  0
 11 12  2  0  0  0
 11 13  1  0  0  0
 13 18  2  0  0  0
 13 14  1  0  0  0
 14 15  2  0  0  0
 14 37  1  0  0  0
 15 16  1  0  0  0
 15 38  1  0  0  0
 16 24  1  0  0  0
 16 17  2  0  0  0
 17 18  1  0  0  0
 17 19  1  0  0  0
 18 39  1  0  0  0
 19 20  1  0  0  0
 19 40  1  0  0  0
 20 21  2  0  0  0
 20 22  1  0  0  0
 22 23  1  0  0  0
 22 41  1  0  0  0
 22 42  1  0  0  0
 23 24  1  0  0  0
 23 43  1  0  0  0
 23 44  1  0  0  0
M  END
> <i_i_glide_confnum>
9

> <i_i_glide_lignum>
3822

> <i_i_glide_posenum>
172

> <i_i_glide_rotatable_bonds>
4

> <i_m_Source_File_Index>
4280

> <b_m_subgroup_collapsed>
0

> <r_i_docking_score>
-5.27172

> <r_i_glide_ecoul>
1.61513

> <r_i_glide_eff_state_penalty>
0

> <r_i_glide_einternal>
5.35215

> <r_i_glide_emodel>
-43.7533

> <r_i_glide_energy>
-34.8249

> <r_i_glide_erotb>
0.490184

> <r_i_glide_esite>
-0.086911

> <r_i_glide_evdw>
-36.4401

> <r_i_glide_gscore>
-5.27172

> <r_i_glide_hbond>
0

> <r_i_glide_ligand_efficiency>
-0.219655

> <r_i_glide_ligand_efficiency_ln>
-1.26176

> <r_i_glide_ligand_efficiency_sa>
-0.633594

> <r_i_glide_lipo>
-2.68022

> <r_i_glide_metal>
0

> <r_i_glide_rewards>
-1.41503

> <s_i_glide_gridfile>
wee1_glide-grid

> <s_m_Source_File>
wee1_decoys_glide_SP.sdf

> <s_m_Source_Path>
/Users/zhangxujun/Desktop

> <s_m_entry_id>
4555

> <s_m_entry_name>
wee1_decoys_glide_SP.4280

> <s_m_subgroup_title>
wee1_decoys_glide_SP

> <s_m_subgroupid>
wee1_decoys_glide_SP


$$$$
