ZINC02595210_2280
                    3D
 Schrodinger Suite 2024-2.
 57 59  0  0  1  0            999 V2000
    2.4102   52.7364   28.7664 C   0  0  0  0  0  0
    0.9001   52.5125   28.9201 C   0  0  0  0  0  0
    0.3047   53.3971   30.0300 C   0  0  0  0  0  0
    0.3060   52.8319   27.6601 O   0  0  0  0  0  0
   -0.8943   52.2580   27.2817 C   0  0  0  0  0  0
   -1.6965   51.4676   28.1149 C   0  0  0  0  0  0
   -2.8641   50.8965   27.6227 C   0  0  0  0  0  0
   -3.2150   51.0709   26.2826 C   0  0  0  0  0  0
   -2.4766   51.9289   25.4724 C   0  0  0  0  0  0
   -1.3148   52.4967   25.9729 C   0  0  0  0  0  0
   -4.2940   50.2229   25.6866 C   0  0  0  0  0  0
   -5.4719   50.5557   25.7795 O   0  0  0  0  0  0
   -3.9307   49.0388   25.1467 N   0  0  0  0  0  0
   -2.6071   48.5009   24.7193 C   0  0  1  0  0  0
   -1.9774   49.3061   23.5806 C   0  0  0  0  0  0
   -2.5505   49.6625   22.5487 O   0  0  0  0  0  0
   -0.6914   49.5354   23.9435 N   0  0  0  0  0  0
   -0.3879   49.0617   25.1818 C   0  0  0  0  0  0
    0.7230   48.8968   25.6714 O   0  0  0  0  0  0
   -1.5413   48.6081   25.6817 N   0  0  0  0  0  0
    0.2512   50.2959   23.0752 C   0  0  0  0  0  0
    1.1863   51.2982   23.8085 C   0  0  0  0  0  0
    1.4906   52.5817   23.0116 C   0  0  0  0  0  0
    2.4242   52.4211   21.7970 C   0  0  0  0  0  0
    2.0281   51.3423   20.7703 C   0  0  0  0  0  0
    2.1814   49.9011   21.2910 C   0  0  0  0  0  0
    1.0084   49.3376   22.1218 C   0  0  0  0  0  0
   -2.7942   47.0191   24.2502 C   0  0  0  0  0  0
   -1.6959   46.4901   23.7050 F   0  0  0  0  0  0
   -3.1142   46.2307   25.2794 F   0  0  0  0  0  0
   -3.7772   46.8855   23.3561 F   0  0  0  0  0  0
    2.9430   52.5042   29.6888 H   0  0  0  0  0  0
    2.6330   53.7703   28.5008 H   0  0  0  0  0  0
    2.8189   52.0996   27.9808 H   0  0  0  0  0  0
    0.7613   51.4570   29.1640 H   0  0  0  0  0  0
    0.7559   53.1739   30.9972 H   0  0  0  0  0  0
    0.4637   54.4552   29.8212 H   0  0  0  0  0  0
   -0.7683   53.2423   30.1321 H   0  0  0  0  0  0
   -1.4225   51.2484   29.1354 H   0  0  0  0  0  0
   -3.4230   50.2267   28.2629 H   0  0  0  0  0  0
   -2.7443   52.0883   24.4371 H   0  0  0  0  0  0
   -0.7187   53.1151   25.3193 H   0  0  0  0  0  0
   -4.7028   48.4023   25.0196 H   0  0  0  0  0  0
   -1.6840   48.4863   26.6878 H   0  0  0  0  0  0
   -0.3782   50.9127   22.4304 H   0  0  0  0  0  0
    0.7874   51.5660   24.7820 H   0  0  0  0  0  0
    2.1248   50.7993   24.0522 H   0  0  0  0  0  0
    0.5515   53.0303   22.6863 H   0  0  0  0  0  0
    1.9371   53.3128   23.6877 H   0  0  0  0  0  0
    2.4851   53.3810   21.2834 H   0  0  0  0  0  0
    3.4381   52.2224   22.1469 H   0  0  0  0  0  0
    1.0147   51.5128   20.4041 H   0  0  0  0  0  0
    2.6756   51.4584   19.8991 H   0  0  0  0  0  0
    2.3454   49.2357   20.4412 H   0  0  0  0  0  0
    3.1007   49.8302   21.8746 H   0  0  0  0  0  0
    1.3835   48.4967   22.7035 H   0  0  0  0  0  0
    0.2806   48.9154   21.4268 H   0  0  0  0  0  0
  1  2  1  0  0  0
  1 32  1  0  0  0
  1 33  1  0  0  0
  1 34  1  0  0  0
  2  3  1  0  0  0
  2  4  1  0  0  0
  2 35  1  0  0  0
  3 36  1  0  0  0
  3 37  1  0  0  0
  3 38  1  0  0  0
  4  5  1  0  0  0
  5 10  2  0  0  0
  5  6  1  0  0  0
  6  7  2  0  0  0
  6 39  1  0  0  0
  7  8  1  0  0  0
  7 40  1  0  0  0
  8  9  2  0  0  0
  8 11  1  0  0  0
  9 10  1  0  0  0
  9 41  1  0  0  0
 10 42  1  0  0  0
 11 12  2  0  0  0
 11 13  1  0  0  0
 13 14  1  0  0  0
 13 43  1  0  0  0
 14 20  1  0  0  0
 14 15  1  0  0  0
 14 28  1  0  0  0
 15 16  2  0  0  0
 15 17  1  0  0  0
 17 18  1  0  0  0
 17 21  1  0  0  0
 18 19  2  0  0  0
 18 20  1  0  0  0
 20 44  1  0  0  0
 21 27  1  0  0  0
 21 22  1  0  0  0
 21 45  1  0  0  0
 22 23  1  0  0  0
 22 46  1  0  0  0
 22 47  1  0  0  0
 23 24  1  0  0  0
 23 48  1  0  0  0
 23 49  1  0  0  0
 24 25  1  0  0  0
 24 50  1  0  0  0
 24 51  1  0  0  0
 25 26  1  0  0  0
 25 52  1  0  0  0
 25 53  1  0  0  0
 26 27  1  0  0  0
 26 54  1  0  0  0
 26 55  1  0  0  0
 27 56  1  0  0  0
 27 57  1  0  0  0
 28 29  1  0  0  0
 28 30  1  0  0  0
 28 31  1  0  0  0
M  END
> <i_i_glide_confnum>
237

> <i_i_glide_lignum>
2281

> <i_i_glide_posenum>
177

> <i_i_glide_rotatable_bonds>
7

> <i_m_Source_File_Index>
3768

> <b_m_subgroup_collapsed>
0

> <r_i_docking_score>
-1.92941

> <r_i_glide_ecoul>
-3.36744

> <r_i_glide_eff_state_penalty>
0

> <r_i_glide_einternal>
11.1873

> <r_i_glide_emodel>
-28.5544

> <r_i_glide_energy>
-34.6619

> <r_i_glide_erotb>
0.512515

> <r_i_glide_esite>
-0.387486

> <r_i_glide_evdw>
-31.2945

> <r_i_glide_gscore>
-1.92941

> <r_i_glide_hbond>
-0.16

> <r_i_glide_ligand_efficiency>
-0.062239

> <r_i_glide_ligand_efficiency_ln>
-0.435141

> <r_i_glide_ligand_efficiency_sa>
-0.195516

> <r_i_glide_lipo>
-0.983696

> <r_i_glide_metal>
0

> <r_i_glide_rewards>
1.1591

> <s_i_glide_gridfile>
wee1_glide-grid

> <s_m_Source_File>
wee1_decoys_glide_SP.sdf

> <s_m_Source_Path>
/Users/zhangxujun/Desktop

> <s_m_entry_id>
4043

> <s_m_entry_name>
wee1_decoys_glide_SP.3768

> <s_m_subgroup_title>
wee1_decoys_glide_SP

> <s_m_subgroupid>
wee1_decoys_glide_SP


$$$$
