ZINC13075499_4825
                    3D
 Schrodinger Suite 2024-2.
 67 70  0  0  1  0            999 V2000
   -0.6790   51.9631   29.3322 C   0  0  0  0  0  0
    0.4185   52.5333   28.4394 C   0  0  0  0  0  0
    1.4418   53.2622   29.0556 C   0  0  0  0  0  0
    2.4830   53.8027   28.3049 C   0  0  0  0  0  0
    2.5110   53.6164   26.9267 C   0  0  0  0  0  0
    1.4957   52.8959   26.3010 C   0  0  0  0  0  0
    0.4299   52.3510   27.0371 C   0  0  0  0  0  0
   -0.6887   51.5601   26.3251 C   0  0  1  0  0  0
   -1.0367   50.8044   27.0320 H   0  0  0  0  0  0
   -1.9081   52.4516   25.9915 C   0  0  0  0  0  0
   -0.2769   50.6988   25.2023 N   0  0  0  0  0  0
   -0.1156   51.0301   23.9066 C   0  0  0  0  0  0
   -0.2288   52.1749   23.4698 O   0  0  0  0  0  0
    0.1540   49.8833   22.9326 C   0  0  0  0  0  0
    1.9048   49.6954   22.4872 S   0  0  0  0  0  0
    1.9552   50.7457   21.0818 C   0  0  0  0  0  0
    2.3831   51.9797   21.1380 N   0  0  0  0  0  0
    2.3483   52.4837   19.8478 N   0  0  0  0  0  0
    1.8992   51.5382   19.0570 C   0  0  0  0  0  0
    1.6241   50.3976   19.7859 N   0  0  0  0  0  0
    1.1323   49.1697   19.3082 C   0  0  0  0  0  0
   -0.2201   48.8524   19.4550 C   0  0  0  0  0  0
   -0.6991   47.6412   18.9607 C   0  0  0  0  0  0
    0.1696   46.7653   18.3147 C   0  0  0  0  0  0
    1.5131   47.0915   18.1524 C   0  0  0  0  0  0
    2.0006   48.2926   18.6573 C   0  0  0  0  0  0
   -0.2969   45.5909   17.8349 F   0  0  0  0  0  0
    1.7228   51.6589   17.5384 C   0  0  1  0  0  0
    2.1622   50.7997   17.0218 H   0  0  0  0  0  0
    0.2259   51.7841   17.1783 C   0  0  0  0  0  0
    2.1604   53.3508   15.5856 C   0  0  0  0  0  0
    2.9967   54.5895   15.2162 C   0  0  0  0  0  0
    4.5070   54.3262   15.3194 C   0  0  0  0  0  0
    4.8821   53.7881   16.7078 C   0  0  0  0  0  0
    4.0627   52.5414   17.0735 C   0  0  0  0  0  0
   -1.6679   52.0917   28.8968 H   0  0  0  0  0  0
   -0.5225   50.8965   29.4835 H   0  0  0  0  0  0
   -0.7105   52.4488   30.3085 H   0  0  0  0  0  0
    1.4337   53.4088   30.1259 H   0  0  0  0  0  0
    3.2697   54.3612   28.7900 H   0  0  0  0  0  0
    3.3191   54.0272   26.3396 H   0  0  0  0  0  0
    1.5456   52.7780   25.2304 H   0  0  0  0  0  0
   -2.3508   52.8889   26.8828 H   0  0  0  0  0  0
   -1.6395   53.2755   25.3310 H   0  0  0  0  0  0
   -2.6896   51.8755   25.4954 H   0  0  0  0  0  0
   -0.0442   49.7524   25.4669 H   0  0  0  0  0  0
   -0.1827   48.9436   23.3714 H   0  0  0  0  0  0
   -0.4520   50.0383   22.0438 H   0  0  0  0  0  0
   -0.9032   49.5407   19.9274 H   0  0  0  0  0  0
   -1.7425   47.3859   19.0653 H   0  0  0  0  0  0
    2.1788   46.4188   17.6341 H   0  0  0  0  0  0
    3.0467   48.5432   18.5242 H   0  0  0  0  0  0
   -0.3545   50.9740   17.6175 H   0  0  0  0  0  0
   -0.1960   52.7207   17.5445 H   0  0  0  0  0  0
    0.0547   51.7232   16.1040 H   0  0  0  0  0  0
    2.3087   52.5084   14.9066 H   0  0  0  0  0  0
    1.1111   53.6430   15.6024 H   0  0  0  0  0  0
    2.7478   54.9103   14.2035 H   0  0  0  0  0  0
    2.7220   55.4209   15.8686 H   0  0  0  0  0  0
    5.0624   55.2420   15.1098 H   0  0  0  0  0  0
    4.8092   53.6083   14.5546 H   0  0  0  0  0  0
    4.7295   54.5601   17.4634 H   0  0  0  0  0  0
    5.9440   53.5421   16.7366 H   0  0  0  0  0  0
    4.3006   52.2468   18.0957 H   0  0  0  0  0  0
    4.2473   51.6989   16.4036 H   0  0  0  0  0  0
    2.5475   52.8794   17.0128 N   0  3  0  0  0  0
    2.3752   53.6403   17.6563 H   0  0  0  0  0  0
  1  2  1  0  0  0
  1 36  1  0  0  0
  1 37  1  0  0  0
  1 38  1  0  0  0
  2  7  2  0  0  0
  2  3  1  0  0  0
  3  4  2  0  0  0
  3 39  1  0  0  0
  4  5  1  0  0  0
  4 40  1  0  0  0
  5  6  2  0  0  0
  5 41  1  0  0  0
  6  7  1  0  0  0
  6 42  1  0  0  0
  7  8  1  0  0  0
  8  9  1  0  0  0
  8 10  1  0  0  0
  8 11  1  0  0  0
 10 43  1  0  0  0
 10 44  1  0  0  0
 10 45  1  0  0  0
 11 12  1  0  0  0
 11 46  1  0  0  0
 12 13  2  0  0  0
 12 14  1  0  0  0
 14 15  1  0  0  0
 14 47  1  0  0  0
 14 48  1  0  0  0
 15 16  1  0  0  0
 16 20  1  0  0  0
 16 17  2  0  0  0
 17 18  1  0  0  0
 18 19  2  0  0  0
 19 20  1  0  0  0
 19 28  1  0  0  0
 20 21  1  0  0  0
 21 26  2  0  0  0
 21 22  1  0  0  0
 22 23  2  0  0  0
 22 49  1  0  0  0
 23 24  1  0  0  0
 23 50  1  0  0  0
 24 25  2  0  0  0
 24 27  1  0  0  0
 25 26  1  0  0  0
 25 51  1  0  0  0
 26 52  1  0  0  0
 28 29  1  0  0  0
 28 30  1  0  0  0
 28 66  1  0  0  0
 30 53  1  0  0  0
 30 54  1  0  0  0
 30 55  1  0  0  0
 31 32  1  0  0  0
 31 56  1  0  0  0
 31 57  1  0  0  0
 31 66  1  0  0  0
 32 33  1  0  0  0
 32 58  1  0  0  0
 32 59  1  0  0  0
 33 34  1  0  0  0
 33 60  1  0  0  0
 33 61  1  0  0  0
 34 35  1  0  0  0
 34 62  1  0  0  0
 34 63  1  0  0  0
 35 64  1  0  0  0
 35 65  1  0  0  0
 35 66  1  0  0  0
 66 67  1  0  0  0
M  CHG  1  66   1
M  END
> <i_i_glide_confnum>
179

> <i_i_glide_lignum>
4826

> <i_i_glide_posenum>
209

> <i_i_glide_rotatable_bonds>
9

> <i_m_Source_File_Index>
1436

> <b_m_subgroup_collapsed>
0

> <r_i_docking_score>
-2.71112

> <r_i_glide_ecoul>
-3.48345

> <r_i_glide_eff_state_penalty>
0

> <r_i_glide_einternal>
1.71202

> <r_i_glide_emodel>
-42.5954

> <r_i_glide_energy>
-35.3456

> <r_i_glide_erotb>
0.784132

> <r_i_glide_esite>
-0.126856

> <r_i_glide_evdw>
-31.8622

> <r_i_glide_gscore>
-2.71112

> <r_i_glide_hbond>
0

> <r_i_glide_ligand_efficiency>
-0.0797388

> <r_i_glide_ligand_efficiency_ln>
-0.598963

> <r_i_glide_ligand_efficiency_sa>
-0.258323

> <r_i_glide_lipo>
-1.06143

> <r_i_glide_metal>
0

> <r_i_glide_rewards>
-0.191342

> <s_i_glide_gridfile>
wee1_glide-grid

> <s_m_Source_File>
wee1_decoys_glide_SP.sdf

> <s_m_Source_Path>
/Users/zhangxujun/Desktop

> <s_m_entry_id>
1711

> <s_m_entry_name>
wee1_decoys_glide_SP.1436

> <s_m_subgroup_title>
wee1_decoys_glide_SP

> <s_m_subgroupid>
wee1_decoys_glide_SP


$$$$
