ZINC40701864_4448
                    3D
 Schrodinger Suite 2024-2.
 51 54  0  0  1  0            999 V2000
   -4.8961   45.1483   23.3054 C   0  0  0  0  0  0
   -3.8446   45.6155   22.5278 C   0  0  0  0  0  0
   -2.9173   46.4992   23.0726 C   0  0  0  0  0  0
   -3.0221   46.9478   24.4013 C   0  0  0  0  0  0
   -4.0917   46.4589   25.1912 C   0  0  0  0  0  0
   -5.0160   45.5652   24.6270 C   0  0  0  0  0  0
   -4.2936   46.8971   26.6498 C   0  0  0  0  0  0
   -4.3141   48.2270   26.7451 F   0  0  0  0  0  0
   -5.4334   46.4389   27.1740 F   0  0  0  0  0  0
   -3.2946   46.4192   27.3835 F   0  0  0  0  0  0
   -2.1249   47.8925   24.9541 N   0  0  0  0  0  0
   -1.1159   48.7387   24.4362 C   0  0  0  0  0  0
   -0.6641   49.8587   25.1813 C   0  0  0  0  0  0
    0.2323   50.7542   24.5312 C   0  0  0  0  0  0
    0.6798   50.4902   23.2704 N   0  0  0  0  0  0
    0.2313   49.3738   22.6627 C   0  0  0  0  0  0
   -0.6506   48.4967   23.1836 N   0  0  0  0  0  0
    0.7616   51.9332   25.0817 N   0  0  0  0  0  0
    1.1081   53.1074   24.2669 C   0  0  0  0  0  0
    2.4324   53.7968   24.6673 C   0  0  0  0  0  0
    2.9663   53.5340   26.0169 N   0  0  0  0  0  0
    1.8509   53.3138   26.9563 C   0  0  0  0  0  0
    0.7702   52.3004   26.5041 C   0  0  0  0  0  0
    4.2630   53.9063   26.4177 C   0  0  0  0  0  0
    4.6431   53.8043   27.7712 C   0  0  0  0  0  0
    5.9349   54.0961   28.1967 C   0  0  0  0  0  0
    6.8951   54.4967   27.2809 C   0  0  0  0  0  0
    6.5568   54.6248   25.9394 C   0  0  0  0  0  0
    5.2615   54.3407   25.5082 C   0  0  0  0  0  0
    5.0253   54.4967   24.1850 F   0  0  0  0  0  0
   -1.1432   50.0967   26.4817 N   0  0  0  0  0  0
   -5.6235   44.4693   22.8840 H   0  0  0  0  0  0
   -3.7505   45.3004   21.4985 H   0  0  0  0  0  0
   -2.1305   46.8228   22.4155 H   0  0  0  0  0  0
   -5.8471   45.1885   25.2070 H   0  0  0  0  0  0
   -2.3411   48.1257   25.9154 H   0  0  0  0  0  0
    0.6007   49.1753   21.6667 H   0  0  0  0  0  0
    1.0618   52.9459   23.1894 H   0  0  0  0  0  0
    0.2904   53.8007   24.4676 H   0  0  0  0  0  0
    3.1411   53.2941   24.0111 H   0  0  0  0  0  0
    2.3935   54.8592   24.4252 H   0  0  0  0  0  0
    1.3756   54.2952   26.9653 H   0  0  0  0  0  0
    2.1068   53.1321   27.9956 H   0  0  0  0  0  0
   -0.2067   52.6287   26.8610 H   0  0  0  0  0  0
    1.0441   51.3715   27.0070 H   0  0  0  0  0  0
    3.9657   53.4734   28.5379 H   0  0  0  0  0  0
    6.1953   54.0151   29.2407 H   0  0  0  0  0  0
    7.8967   54.7151   27.6241 H   0  0  0  0  0  0
    7.2973   54.9368   25.2174 H   0  0  0  0  0  0
   -0.8137   50.9396   26.9240 H   0  0  0  0  0  0
   -1.2956   49.2889   27.1050 H   0  0  0  0  0  0
  1  6  2  0  0  0
  1  2  1  0  0  0
  1 32  1  0  0  0
  2  3  2  0  0  0
  2 33  1  0  0  0
  3  4  1  0  0  0
  3 34  1  0  0  0
  4  5  2  0  0  0
  4 11  1  0  0  0
  5  6  1  0  0  0
  5  7  1  0  0  0
  6 35  1  0  0  0
  7  8  1  0  0  0
  7  9  1  0  0  0
  7 10  1  0  0  0
 11 12  1  0  0  0
 11 36  1  0  0  0
 12 17  2  0  0  0
 12 13  1  0  0  0
 13 14  2  0  0  0
 13 31  1  0  0  0
 14 15  1  0  0  0
 14 18  1  0  0  0
 15 16  2  0  0  0
 16 17  1  0  0  0
 16 37  1  0  0  0
 18 23  1  0  0  0
 18 19  1  0  0  0
 19 20  1  0  0  0
 19 38  1  0  0  0
 19 39  1  0  0  0
 20 21  1  0  0  0
 20 40  1  0  0  0
 20 41  1  0  0  0
 21 22  1  0  0  0
 21 24  1  0  0  0
 22 23  1  0  0  0
 22 42  1  0  0  0
 22 43  1  0  0  0
 23 44  1  0  0  0
 23 45  1  0  0  0
 24 29  2  0  0  0
 24 25  1  0  0  0
 25 26  2  0  0  0
 25 46  1  0  0  0
 26 27  1  0  0  0
 26 47  1  0  0  0
 27 28  2  0  0  0
 27 48  1  0  0  0
 28 29  1  0  0  0
 28 49  1  0  0  0
 29 30  1  0  0  0
 31 50  1  0  0  0
 31 51  1  0  0  0
M  END
> <i_i_glide_confnum>
225

> <i_i_glide_lignum>
4449

> <i_i_glide_posenum>
307

> <i_i_glide_rotatable_bonds>
5

> <i_m_Source_File_Index>
4656

> <b_m_subgroup_collapsed>
0

> <r_i_docking_score>
-5.83929

> <r_i_glide_ecoul>
-3.95833

> <r_i_glide_eff_state_penalty>
0

> <r_i_glide_einternal>
6.81753

> <r_i_glide_emodel>
-48.5092

> <r_i_glide_energy>
-38.0115

> <r_i_glide_erotb>
0.425668

> <r_i_glide_esite>
-0.340003

> <r_i_glide_evdw>
-34.0532

> <r_i_glide_gscore>
-5.83929

> <r_i_glide_hbond>
-0.16

> <r_i_glide_ligand_efficiency>
-0.188364

> <r_i_glide_ligand_efficiency_ln>
-1.31694

> <r_i_glide_ligand_efficiency_sa>
-0.591723

> <r_i_glide_lipo>
-2.28631

> <r_i_glide_metal>
0

> <r_i_glide_rewards>
-1.18223

> <s_i_glide_gridfile>
wee1_glide-grid

> <s_m_Source_File>
wee1_decoys_glide_SP.sdf

> <s_m_Source_Path>
/Users/zhangxujun/Desktop

> <s_m_entry_id>
4931

> <s_m_entry_name>
wee1_decoys_glide_SP.4656

> <s_m_subgroup_title>
wee1_decoys_glide_SP

> <s_m_subgroupid>
wee1_decoys_glide_SP


$$$$
