ZINC33009242_2365
                    3D
 Schrodinger Suite 2024-2.
 57 60  0  0  1  0            999 V2000
    5.3180   58.7936   15.8432 C   0  0  0  0  0  0
    5.3641   57.4220   16.4910 C   0  0  0  0  0  0
    5.0899   56.2747   15.7438 C   0  0  0  0  0  0
    5.1342   55.0188   16.3497 C   0  0  0  0  0  0
    5.4453   54.9032   17.7056 C   0  0  0  0  0  0
    5.7238   56.0480   18.4726 C   0  0  0  0  0  0
    5.6921   57.3024   17.8432 C   0  0  0  0  0  0
    6.0480   55.9653   19.9445 C   0  0  0  0  0  0
    6.7051   56.8645   20.4842 O   0  0  0  0  0  0
    5.5078   54.9112   20.6047 N   0  0  0  0  0  0
    5.5534   54.6894   21.9895 C   0  0  0  0  0  0
    6.7041   54.9233   22.7402 C   0  0  0  0  0  0
    6.6871   54.7572   24.1180 C   0  0  0  0  0  0
    5.5341   54.3594   24.8036 C   0  0  0  0  0  0
    4.3665   54.0964   24.0391 C   0  0  0  0  0  0
    4.3969   54.2466   22.6365 C   0  0  0  0  0  0
    3.2077   53.6470   24.7045 N   0  0  0  0  0  0
    1.9267   53.5824   24.3048 C   0  0  0  0  0  0
    1.4787   54.0957   23.2820 O   0  0  0  0  0  0
    1.2282   52.8412   25.1871 N   0  0  0  0  0  0
   -0.1100   52.4094   25.1601 C   0  0  0  0  0  0
   -0.5174   51.6260   26.2450 C   0  0  0  0  0  0
   -1.8256   51.1513   26.3180 C   0  0  0  0  0  0
   -2.7290   51.4632   25.3058 C   0  0  0  0  0  0
   -2.3346   52.2365   24.2171 C   0  0  0  0  0  0
   -1.0254   52.7065   24.1382 C   0  0  0  0  0  0
   -3.9994   51.0057   25.3771 F   0  0  0  0  0  0
    5.6276   54.2348   26.2121 N   0  0  0  0  0  0
    6.8787   54.0561   26.9604 C   0  0  0  0  0  0
    6.5147   53.5861   28.3609 C   0  0  0  0  0  0
    5.1853   54.2590   28.5925 C   0  0  0  0  0  0
    4.5518   54.1637   27.2100 C   0  0  0  0  0  0
    6.1318   59.4206   16.2097 H   0  0  0  0  0  0
    5.4255   58.7349   14.7610 H   0  0  0  0  0  0
    4.3804   59.2966   16.0797 H   0  0  0  0  0  0
    4.8448   56.3522   14.6947 H   0  0  0  0  0  0
    4.9261   54.1330   15.7695 H   0  0  0  0  0  0
    5.4715   53.9118   18.1403 H   0  0  0  0  0  0
    5.9058   58.2021   18.4048 H   0  0  0  0  0  0
    4.8807   54.3201   20.0793 H   0  0  0  0  0  0
    7.6189   55.2523   22.2667 H   0  0  0  0  0  0
    7.5936   54.9684   24.6574 H   0  0  0  0  0  0
    3.5219   54.0433   22.0371 H   0  0  0  0  0  0
    3.3858   53.3885   25.6622 H   0  0  0  0  0  0
    1.7404   52.5061   25.9873 H   0  0  0  0  0  0
    0.1717   51.3734   27.0390 H   0  0  0  0  0  0
   -2.1346   50.5357   27.1527 H   0  0  0  0  0  0
   -3.0449   52.4669   23.4377 H   0  0  0  0  0  0
   -0.7472   53.2961   23.2834 H   0  0  0  0  0  0
    7.4527   53.2603   26.4839 H   0  0  0  0  0  0
    7.4869   54.9621   26.9962 H   0  0  0  0  0  0
    6.4116   52.5000   28.3671 H   0  0  0  0  0  0
    7.2681   53.8593   29.0986 H   0  0  0  0  0  0
    5.3046   55.2957   28.9067 H   0  0  0  0  0  0
    4.5907   53.7530   29.3537 H   0  0  0  0  0  0
    3.8748   55.0053   27.0583 H   0  0  0  0  0  0
    3.9888   53.2340   27.1260 H   0  0  0  0  0  0
  1  2  1  0  0  0
  1 33  1  0  0  0
  1 34  1  0  0  0
  1 35  1  0  0  0
  2  7  2  0  0  0
  2  3  1  0  0  0
  3  4  2  0  0  0
  3 36  1  0  0  0
  4  5  1  0  0  0
  4 37  1  0  0  0
  5  6  2  0  0  0
  5 38  1  0  0  0
  6  7  1  0  0  0
  6  8  1  0  0  0
  7 39  1  0  0  0
  8  9  2  0  0  0
  8 10  1  0  0  0
 10 11  1  0  0  0
 10 40  1  0  0  0
 11 16  2  0  0  0
 11 12  1  0  0  0
 12 13  2  0  0  0
 12 41  1  0  0  0
 13 14  1  0  0  0
 13 42  1  0  0  0
 14 15  2  0  0  0
 14 28  1  0  0  0
 15 16  1  0  0  0
 15 17  1  0  0  0
 16 43  1  0  0  0
 17 18  1  0  0  0
 17 44  1  0  0  0
 18 19  2  0  0  0
 18 20  1  0  0  0
 20 21  1  0  0  0
 20 45  1  0  0  0
 21 26  2  0  0  0
 21 22  1  0  0  0
 22 23  2  0  0  0
 22 46  1  0  0  0
 23 24  1  0  0  0
 23 47  1  0  0  0
 24 25  2  0  0  0
 24 27  1  0  0  0
 25 26  1  0  0  0
 25 48  1  0  0  0
 26 49  1  0  0  0
 28 32  1  0  0  0
 28 29  1  0  0  0
 29 30  1  0  0  0
 29 50  1  0  0  0
 29 51  1  0  0  0
 30 31  1  0  0  0
 30 52  1  0  0  0
 30 53  1  0  0  0
 31 32  1  0  0  0
 31 54  1  0  0  0
 31 55  1  0  0  0
 32 56  1  0  0  0
 32 57  1  0  0  0
M  END
> <i_i_glide_confnum>
258

> <i_i_glide_lignum>
2366

> <i_i_glide_posenum>
398

> <i_i_glide_rotatable_bonds>
8

> <i_m_Source_File_Index>
4522

> <b_m_subgroup_collapsed>
0

> <r_i_docking_score>
-6.06027

> <r_i_glide_ecoul>
-4.49488

> <r_i_glide_eff_state_penalty>
0

> <r_i_glide_einternal>
2.92028

> <r_i_glide_emodel>
-62.983

> <r_i_glide_energy>
-47.1044

> <r_i_glide_erotb>
0.744692

> <r_i_glide_esite>
-0.005418

> <r_i_glide_evdw>
-42.6095

> <r_i_glide_gscore>
-6.06027

> <r_i_glide_hbond>
-0.32

> <r_i_glide_ligand_efficiency>
-0.189384

> <r_i_glide_ligand_efficiency_ln>
-1.35706

> <r_i_glide_ligand_efficiency_sa>
-0.601255

> <r_i_glide_lipo>
-2.5879

> <r_i_glide_metal>
0

> <r_i_glide_rewards>
-1.08694

> <s_i_glide_gridfile>
wee1_glide-grid

> <s_m_Source_File>
wee1_decoys_glide_SP.sdf

> <s_m_Source_Path>
/Users/zhangxujun/Desktop

> <s_m_entry_id>
4797

> <s_m_entry_name>
wee1_decoys_glide_SP.4522

> <s_m_subgroup_title>
wee1_decoys_glide_SP

> <s_m_subgroupid>
wee1_decoys_glide_SP


$$$$
