ZINC18195454_5867
                    3D
 Schrodinger Suite 2024-2.
 61 65  0  0  1  0            999 V2000
   -2.5470   50.6381   26.7906 C   0  0  0  0  0  0
   -2.1768   49.6697   25.6488 C   0  0  0  0  0  0
   -3.4065   48.8964   25.1351 C   0  0  0  0  0  0
   -1.4327   50.3718   24.5124 C   0  0  0  0  0  0
   -2.0239   51.4401   23.8290 C   0  0  0  0  0  0
   -1.3393   52.0774   22.7983 C   0  0  0  0  0  0
   -0.0551   51.6544   22.4438 C   0  0  0  0  0  0
    0.5312   50.5797   23.1218 C   0  0  0  0  0  0
   -0.1530   49.9428   24.1520 C   0  0  0  0  0  0
    0.7207   52.3743   21.3324 C   0  0  1  0  0  0
    0.1991   53.2942   21.0863 H   0  0  0  0  0  0
    2.0935   52.7998   21.8157 C   0  0  0  0  0  0
    3.3059   52.3939   21.2411 C   0  0  0  0  0  0
    4.3556   52.8625   21.8839 N   0  0  0  0  0  0
    3.8509   53.5459   22.9372 N   0  0  0  0  0  0
    2.4734   53.5461   22.9010 C   0  0  0  0  0  0
    1.7098   54.1800   23.8469 O   0  0  0  0  0  0
    4.7010   54.0985   23.9277 C   0  0  0  0  0  0
    5.9190   54.6811   23.5661 C   0  0  0  0  0  0
    6.7038   55.2969   24.5359 C   0  0  0  0  0  0
    6.3050   55.2867   25.8695 C   0  0  0  0  0  0
    5.1143   54.6758   26.2449 C   0  0  0  0  0  0
    4.3077   54.0964   25.2745 C   0  0  0  0  0  0
    3.3090   51.5710   20.1328 N   0  0  0  0  0  0
    2.1069   51.2139   19.5331 C   0  0  0  0  0  0
    0.8836   51.5629   20.0324 C   0  0  0  0  0  0
   -0.3670   51.1823   19.3358 C   0  0  0  0  0  0
   -1.4419   51.7387   19.5742 O   0  0  0  0  0  0
   -0.2361   50.2314   18.1342 C   0  0  0  0  0  0
    1.0306   49.3363   18.1756 C   0  0  0  0  0  0
    2.2576   50.2830   18.3281 C   0  0  0  0  0  0
    0.9513   48.3312   19.3593 C   0  0  0  0  0  0
    1.1403   48.6185   16.8139 C   0  0  0  0  0  0
   -1.6667   51.1697   27.1535 H   0  0  0  0  0  0
   -2.9676   50.0965   27.6387 H   0  0  0  0  0  0
   -3.2825   51.3802   26.4743 H   0  0  0  0  0  0
   -1.5005   48.9278   26.0818 H   0  0  0  0  0  0
   -3.1259   48.1875   24.3543 H   0  0  0  0  0  0
   -3.8727   48.3269   25.9401 H   0  0  0  0  0  0
   -4.1620   49.5669   24.7208 H   0  0  0  0  0  0
   -3.0160   51.7747   24.0948 H   0  0  0  0  0  0
   -1.8117   52.8957   22.2766 H   0  0  0  0  0  0
    1.5220   50.2384   22.8531 H   0  0  0  0  0  0
    0.3176   49.1167   24.6675 H   0  0  0  0  0  0
    0.8427   53.7695   23.8829 H   0  0  0  0  0  0
    6.2371   54.7027   22.5325 H   0  0  0  0  0  0
    7.6136   55.7965   24.2489 H   0  0  0  0  0  0
    6.9176   55.7463   26.6287 H   0  0  0  0  0  0
    4.8148   54.6608   27.2829 H   0  0  0  0  0  0
    3.3876   53.6268   25.5875 H   0  0  0  0  0  0
    4.1709   51.3049   19.6685 H   0  0  0  0  0  0
   -1.1575   49.6581   18.0276 H   0  0  0  0  0  0
   -0.1657   50.8836   17.2625 H   0  0  0  0  0  0
    3.1044   49.6145   18.4820 H   0  0  0  0  0  0
    2.4607   50.8956   17.4482 H   0  0  0  0  0  0
    1.8249   47.6784   19.3735 H   0  0  0  0  0  0
    0.9028   48.8137   20.3356 H   0  0  0  0  0  0
    0.0727   47.6907   19.2714 H   0  0  0  0  0  0
    2.0208   47.9762   16.7784 H   0  0  0  0  0  0
    0.2712   47.9894   16.6187 H   0  0  0  0  0  0
    1.2277   49.3239   15.9869 H   0  0  0  0  0  0
  1  2  1  0  0  0
  1 34  1  0  0  0
  1 35  1  0  0  0
  1 36  1  0  0  0
  2  3  1  0  0  0
  2  4  1  0  0  0
  2 37  1  0  0  0
  3 38  1  0  0  0
  3 39  1  0  0  0
  3 40  1  0  0  0
  4  9  2  0  0  0
  4  5  1  0  0  0
  5  6  2  0  0  0
  5 41  1  0  0  0
  6  7  1  0  0  0
  6 42  1  0  0  0
  7  8  2  0  0  0
  7 10  1  0  0  0
  8  9  1  0  0  0
  8 43  1  0  0  0
  9 44  1  0  0  0
 10 11  1  0  0  0
 10 26  1  0  0  0
 10 12  1  0  0  0
 12 16  2  0  0  0
 12 13  1  0  0  0
 13 14  2  0  0  0
 13 24  1  0  0  0
 14 15  1  0  0  0
 15 16  1  0  0  0
 15 18  1  0  0  0
 16 17  1  0  0  0
 17 45  1  0  0  0
 18 23  2  0  0  0
 18 19  1  0  0  0
 19 20  2  0  0  0
 19 46  1  0  0  0
 20 21  1  0  0  0
 20 47  1  0  0  0
 21 22  2  0  0  0
 21 48  1  0  0  0
 22 23  1  0  0  0
 22 49  1  0  0  0
 23 50  1  0  0  0
 24 25  1  0  0  0
 24 51  1  0  0  0
 25 31  1  0  0  0
 25 26  2  0  0  0
 26 27  1  0  0  0
 27 28  2  0  0  0
 27 29  1  0  0  0
 29 30  1  0  0  0
 29 52  1  0  0  0
 29 53  1  0  0  0
 30 31  1  0  0  0
 30 32  1  0  0  0
 30 33  1  0  0  0
 31 54  1  0  0  0
 31 55  1  0  0  0
 32 56  1  0  0  0
 32 57  1  0  0  0
 32 58  1  0  0  0
 33 59  1  0  0  0
 33 60  1  0  0  0
 33 61  1  0  0  0
M  END
> <i_i_glide_confnum>
9

> <i_i_glide_lignum>
5868

> <i_i_glide_posenum>
348

> <i_i_glide_rotatable_bonds>
4

> <i_m_Source_File_Index>
5231

> <b_m_subgroup_collapsed>
0

> <r_i_docking_score>
-4.6717

> <r_i_glide_ecoul>
-3.09217

> <r_i_glide_eff_state_penalty>
0

> <r_i_glide_einternal>
0.415381

> <r_i_glide_emodel>
-50.0187

> <r_i_glide_energy>
-38.0278

> <r_i_glide_erotb>
0.217254

> <r_i_glide_esite>
-0.0595923

> <r_i_glide_evdw>
-34.9357

> <r_i_glide_gscore>
-4.6717

> <r_i_glide_hbond>
-0.1095

> <r_i_glide_ligand_efficiency>
-0.145991

> <r_i_glide_ligand_efficiency_ln>
-1.04612

> <r_i_glide_ligand_efficiency_sa>
-0.463491

> <r_i_glide_lipo>
-1.80254

> <r_i_glide_metal>
0

> <r_i_glide_rewards>
-0.706714

> <s_i_glide_gridfile>
wee1_glide-grid

> <s_m_Source_File>
wee1_decoys_glide_SP.sdf

> <s_m_Source_Path>
/Users/zhangxujun/Desktop

> <s_m_entry_id>
5506

> <s_m_entry_name>
wee1_decoys_glide_SP.5231

> <s_m_subgroup_title>
wee1_decoys_glide_SP

> <s_m_subgroupid>
wee1_decoys_glide_SP


$$$$
