ZINC57531382_2570
                    3D
 Schrodinger Suite 2024-2.
 49 51  0  0  1  0            999 V2000
    0.5560   51.3864   27.3937 C   0  0  0  0  0  0
    1.0431   52.5082   26.5831 N   0  0  0  0  0  0
    1.8891   53.4860   27.2634 C   0  0  0  0  0  0
    1.1038   52.4080   25.1653 C   0  0  0  0  0  0
    0.7107   51.2305   24.5186 C   0  0  0  0  0  0
    0.8137   51.1040   23.1420 C   0  0  0  0  0  0
    1.2816   52.1613   22.3507 C   0  0  0  0  0  0
    1.6404   53.3569   22.9797 C   0  0  0  0  0  0
    1.5619   53.4731   24.3694 C   0  0  0  0  0  0
    1.3676   52.0042   20.8161 C   0  0  1  0  0  0
    0.4983   52.5704   20.4816 H   0  0  0  0  0  0
    2.6267   52.6123   20.0531 C   0  0  2  0  0  0
    2.5604   53.6951   20.0598 H   0  0  0  0  0  0
    2.6655   52.1756   18.5246 C   0  0  1  0  0  0
    2.4875   50.7177   18.4815 N   0  0  0  0  0  0
    1.7058   49.9752   19.3009 C   0  0  0  0  0  0
    1.4634   48.3565   19.0613 S   0  0  0  0  0  0
    1.1278   50.6260   20.3382 N   0  0  0  0  0  0
    1.6025   52.9343   17.6594 C   0  0  0  0  0  0
    0.3529   52.7572   18.0957 F   0  0  0  0  0  0
    1.8204   54.2499   17.6298 F   0  0  0  0  0  0
    1.6126   52.5163   16.3902 F   0  0  0  0  0  0
    3.9089   52.4967   17.9331 O   0  0  0  0  0  0
    3.9606   52.3549   20.8159 C   0  0  0  0  0  0
    4.1772   51.2397   21.2818 O   0  0  0  0  0  0
    4.8311   53.5325   21.1440 C   0  0  0  0  0  0
    5.1383   54.4963   20.1742 C   0  0  0  0  0  0
    6.0749   55.4920   20.4422 C   0  0  0  0  0  0
    6.7039   55.5369   21.6840 C   0  0  0  0  0  0
    6.3811   54.6106   22.6712 C   0  0  0  0  0  0
    5.4511   53.6117   22.3999 C   0  0  0  0  0  0
   -0.4094   51.0274   27.0328 H   0  0  0  0  0  0
    1.2520   50.5474   27.3443 H   0  0  0  0  0  0
    0.4307   51.6610   28.4417 H   0  0  0  0  0  0
    2.9319   53.3609   26.9643 H   0  0  0  0  0  0
    1.5831   54.4970   27.0051 H   0  0  0  0  0  0
    1.8455   53.3862   28.3489 H   0  0  0  0  0  0
    0.3497   50.3772   25.0709 H   0  0  0  0  0  0
    0.5168   50.1606   22.7116 H   0  0  0  0  0  0
    1.9892   54.1959   22.3961 H   0  0  0  0  0  0
    1.8578   54.4104   24.8127 H   0  0  0  0  0  0
    2.9084   50.1942   17.7169 H   0  0  0  0  0  0
    0.4344   50.0674   20.8118 H   0  0  0  0  0  0
    4.5170   51.7476   18.0814 H   0  0  0  0  0  0
    4.6872   54.4774   19.1927 H   0  0  0  0  0  0
    6.3222   56.2193   19.6823 H   0  0  0  0  0  0
    7.4453   56.2937   21.8884 H   0  0  0  0  0  0
    6.8709   54.6530   23.6331 H   0  0  0  0  0  0
    5.2302   52.8967   23.1745 H   0  0  0  0  0  0
  1  2  1  0  0  0
  1 32  1  0  0  0
  1 33  1  0  0  0
  1 34  1  0  0  0
  2  3  1  0  0  0
  2  4  1  0  0  0
  3 35  1  0  0  0
  3 36  1  0  0  0
  3 37  1  0  0  0
  4  9  2  0  0  0
  4  5  1  0  0  0
  5  6  2  0  0  0
  5 38  1  0  0  0
  6  7  1  0  0  0
  6 39  1  0  0  0
  7  8  2  0  0  0
  7 10  1  0  0  0
  8  9  1  0  0  0
  8 40  1  0  0  0
  9 41  1  0  0  0
 10 11  1  0  0  0
 10 18  1  0  0  0
 10 12  1  0  0  0
 12 13  1  0  0  0
 12 14  1  0  0  0
 12 24  1  0  0  0
 14 15  1  0  0  0
 14 19  1  0  0  0
 14 23  1  0  0  0
 15 16  1  0  0  0
 15 42  1  0  0  0
 16 17  2  0  0  0
 16 18  1  0  0  0
 18 43  1  0  0  0
 19 20  1  0  0  0
 19 21  1  0  0  0
 19 22  1  0  0  0
 23 44  1  0  0  0
 24 25  2  0  0  0
 24 26  1  0  0  0
 26 31  2  0  0  0
 26 27  1  0  0  0
 27 28  2  0  0  0
 27 45  1  0  0  0
 28 29  1  0  0  0
 28 46  1  0  0  0
 29 30  2  0  0  0
 29 47  1  0  0  0
 30 31  1  0  0  0
 30 48  1  0  0  0
 31 49  1  0  0  0
M  END
> <i_i_glide_confnum>
7

> <i_i_glide_lignum>
2571

> <i_i_glide_posenum>
388

> <i_i_glide_rotatable_bonds>
6

> <i_m_Source_File_Index>
880

> <b_m_subgroup_collapsed>
0

> <r_i_docking_score>
-5.61078

> <r_i_glide_ecoul>
-8.78504

> <r_i_glide_eff_state_penalty>
0

> <r_i_glide_einternal>
8.42573

> <r_i_glide_emodel>
-49.6612

> <r_i_glide_energy>
-39.0718

> <r_i_glide_erotb>
0.331592

> <r_i_glide_esite>
-0.290173

> <r_i_glide_evdw>
-30.2868

> <r_i_glide_gscore>
-5.61078

> <r_i_glide_hbond>
-0.304

> <r_i_glide_ligand_efficiency>
-0.193475

> <r_i_glide_ligand_efficiency_ln>
-1.28473

> <r_i_glide_ligand_efficiency_sa>
-0.594417

> <r_i_glide_lipo>
-1.86594

> <r_i_glide_metal>
0

> <r_i_glide_rewards>
-0.650157

> <s_i_glide_gridfile>
wee1_glide-grid

> <s_m_Source_File>
wee1_decoys_glide_SP.sdf

> <s_m_Source_Path>
/Users/zhangxujun/Desktop

> <s_m_entry_id>
1155

> <s_m_entry_name>
wee1_decoys_glide_SP.880

> <s_m_subgroup_title>
wee1_decoys_glide_SP

> <s_m_subgroupid>
wee1_decoys_glide_SP


$$$$
