ZINC36072034_5964
                    3D
 Schrodinger Suite 2024-2.
 59 62  0  0  1  0            999 V2000
    3.4183   54.2605   27.4620 C   0  0  0  0  0  0
    2.4914   53.5265   26.4949 C   0  0  0  0  0  0
    1.6013   52.5374   26.8096 C   0  0  0  0  0  0
    0.8173   51.7830   25.6840 C   0  0  2  0  0  0
    1.1030   50.7305   25.7232 H   0  0  0  0  0  0
    1.2781   52.2602   24.3410 N   0  0  0  0  0  0
    0.8803   51.7411   23.1151 C   0  0  0  0  0  0
    1.4187   52.4135   22.0827 C   0  0  0  0  0  0
    2.5161   53.6965   22.5670 S   0  0  0  0  0  0
    2.1865   53.3168   24.2602 C   0  0  0  0  0  0
    2.7331   53.9473   25.2225 N   0  0  0  0  0  0
   -0.0438   50.6332   22.9203 C   0  0  0  0  0  0
   -1.0992   50.6278   22.0824 C   0  0  0  0  0  0
   -1.5567   51.5614   21.3203 O   0  5  0  0  0  0
   -1.8598   49.4865   21.9545 N   0  0  0  0  0  0
   -3.3146   49.3618   21.9013 C   0  0  0  0  0  0
   -4.0019   49.4636   23.2751 C   0  0  0  0  0  0
   -3.7351   48.2869   24.2076 C   0  0  0  0  0  0
   -4.7244   47.3340   24.4750 C   0  0  0  0  0  0
   -4.4454   46.3169   25.3922 C   0  0  0  0  0  0
   -3.1965   46.2763   26.0149 C   0  0  0  0  0  0
   -2.2579   47.2545   25.6815 C   0  0  0  0  0  0
   -2.5078   48.2470   24.7898 N   0  0  0  0  0  0
   -0.7140   51.7821   25.8660 C   0  0  0  0  0  0
   -1.5519   52.6238   25.1247 C   0  0  0  0  0  0
   -2.9277   52.6180   25.3346 C   0  0  0  0  0  0
   -3.4764   51.7601   26.2825 C   0  0  0  0  0  0
   -2.6592   50.8966   27.0053 C   0  0  0  0  0  0
   -1.2854   50.8973   26.7847 C   0  0  0  0  0  0
   -5.1807   51.7576   26.5484 Cl  0  0  0  0  0  0
    1.4433   52.0678   28.1714 C   0  0  0  0  0  0
    1.9045   50.9723   28.4816 O   0  0  0  0  0  0
    0.7929   52.8715   29.0566 N   0  0  0  0  0  0
    0.0863   54.0964   28.6879 C   0  0  0  0  0  0
    0.5147   52.4372   30.4281 C   0  0  0  0  0  0
    4.4482   54.2448   27.1025 H   0  0  0  0  0  0
    3.1038   55.2969   27.5568 H   0  0  0  0  0  0
    3.4277   53.8273   28.4605 H   0  0  0  0  0  0
    1.2418   52.2161   21.0352 H   0  0  0  0  0  0
    0.1502   49.7397   23.4960 H   0  0  0  0  0  0
   -1.4640   48.6808   22.4130 H   0  0  0  0  0  0
   -3.6943   50.1605   21.2624 H   0  0  0  0  0  0
   -3.5950   48.4366   21.3975 H   0  0  0  0  0  0
   -3.6984   50.3848   23.7716 H   0  0  0  0  0  0
   -5.0779   49.5616   23.1276 H   0  0  0  0  0  0
   -5.6945   47.3937   24.0048 H   0  0  0  0  0  0
   -5.2005   45.5849   25.6375 H   0  0  0  0  0  0
   -2.9672   45.5272   26.7603 H   0  0  0  0  0  0
   -1.2949   47.2831   26.1710 H   0  0  0  0  0  0
   -1.1405   53.2994   24.3902 H   0  0  0  0  0  0
   -3.5634   53.2774   24.7630 H   0  0  0  0  0  0
   -3.0797   50.2071   27.7243 H   0  0  0  0  0  0
   -0.6658   50.2048   27.3360 H   0  0  0  0  0  0
    0.6269   54.6802   27.9439 H   0  0  0  0  0  0
   -0.8954   53.8573   28.2821 H   0  0  0  0  0  0
   -0.0409   54.7375   29.5609 H   0  0  0  0  0  0
    1.2317   51.6966   30.7763 H   0  0  0  0  0  0
    0.5826   53.2763   31.1212 H   0  0  0  0  0  0
   -0.4881   52.0151   30.5058 H   0  0  0  0  0  0
  1  2  1  0  0  0
  1 36  1  0  0  0
  1 37  1  0  0  0
  1 38  1  0  0  0
  2 11  1  0  0  0
  2  3  2  0  0  0
  3  4  1  0  0  0
  3 31  1  0  0  0
  4  5  1  0  0  0
  4  6  1  0  0  0
  4 24  1  0  0  0
  6 10  1  0  0  0
  6  7  1  0  0  0
  7  8  2  0  0  0
  7 12  1  0  0  0
  8  9  1  0  0  0
  8 39  1  0  0  0
  9 10  1  0  0  0
 10 11  2  0  0  0
 12 13  2  0  0  0
 12 40  1  0  0  0
 13 14  1  0  0  0
 13 15  1  0  0  0
 15 16  1  0  0  0
 15 41  1  0  0  0
 16 17  1  0  0  0
 16 42  1  0  0  0
 16 43  1  0  0  0
 17 18  1  0  0  0
 17 44  1  0  0  0
 17 45  1  0  0  0
 18 23  2  0  0  0
 18 19  1  0  0  0
 19 20  2  0  0  0
 19 46  1  0  0  0
 20 21  1  0  0  0
 20 47  1  0  0  0
 21 22  2  0  0  0
 21 48  1  0  0  0
 22 23  1  0  0  0
 22 49  1  0  0  0
 24 29  2  0  0  0
 24 25  1  0  0  0
 25 26  2  0  0  0
 25 50  1  0  0  0
 26 27  1  0  0  0
 26 51  1  0  0  0
 27 28  2  0  0  0
 27 30  1  0  0  0
 28 29  1  0  0  0
 28 52  1  0  0  0
 29 53  1  0  0  0
 31 32  2  0  0  0
 31 33  1  0  0  0
 33 34  1  0  0  0
 33 35  1  0  0  0
 34 54  1  0  0  0
 34 55  1  0  0  0
 34 56  1  0  0  0
 35 57  1  0  0  0
 35 58  1  0  0  0
 35 59  1  0  0  0
M  CHG  1  14  -1
M  END
> <i_i_glide_confnum>
64

> <i_i_glide_lignum>
5965

> <i_i_glide_posenum>
77

> <i_i_glide_rotatable_bonds>
8

> <i_m_Source_File_Index>
713

> <b_m_subgroup_collapsed>
0

> <r_i_docking_score>
-3.43771

> <r_i_glide_ecoul>
-2.91348

> <r_i_glide_eff_state_penalty>
0

> <r_i_glide_einternal>
4.55269

> <r_i_glide_emodel>
-45.1605

> <r_i_glide_energy>
-37.7023

> <r_i_glide_erotb>
0.499077

> <r_i_glide_esite>
0

> <r_i_glide_evdw>
-34.7888

> <r_i_glide_gscore>
-3.43771

> <r_i_glide_hbond>
0

> <r_i_glide_ligand_efficiency>
-0.101109

> <r_i_glide_ligand_efficiency_ln>
-0.759487

> <r_i_glide_ligand_efficiency_sa>
-0.327554

> <r_i_glide_lipo>
-0.971148

> <r_i_glide_metal>
0

> <r_i_glide_rewards>
-0.789176

> <s_i_glide_gridfile>
wee1_glide-grid

> <s_m_Source_File>
wee1_decoys_glide_SP.sdf

> <s_m_Source_Path>
/Users/zhangxujun/Desktop

> <s_m_entry_id>
988

> <s_m_entry_name>
wee1_decoys_glide_SP.713

> <s_m_subgroup_title>
wee1_decoys_glide_SP

> <s_m_subgroupid>
wee1_decoys_glide_SP


$$$$
