ZINC37558255_1578
                    3D
 Schrodinger Suite 2024-2.
 29 30  0  0  1  0            999 V2000
    3.6223   54.0968   25.7870 C   0  0  0  0  0  0
    2.7063   53.8107   24.7775 C   0  0  0  0  0  0
    1.5036   53.1690   25.0764 C   0  0  0  0  0  0
    1.2251   52.8145   26.4007 C   0  0  0  0  0  0
    2.1429   53.0945   27.4099 C   0  0  0  0  0  0
    3.3504   53.7314   27.1108 C   0  0  0  0  0  0
    4.3515   54.0045   28.2310 C   0  0  0  0  0  0
    5.5031   54.5013   27.7773 F   0  0  0  0  0  0
    4.6210   52.8740   28.8849 F   0  0  0  0  0  0
    3.8269   54.8778   29.0921 F   0  0  0  0  0  0
    0.6297   52.9066   24.0103 N   0  0  0  0  0  0
   -0.9817   52.1687   24.1371 S   0  0  0  0  0  0
   -1.6689   52.7064   25.3161 O   0  0  0  0  0  0
   -1.5777   52.2526   22.7988 O   0  0  0  0  0  0
   -0.6210   50.4302   24.4544 C   0  0  0  0  0  0
   -0.6092   49.7889   25.6818 C   0  0  0  0  0  0
   -0.2760   48.4969   25.4017 N   0  0  0  0  0  0
   -0.1677   47.7636   26.0996 H   0  0  0  0  0  0
   -0.0950   48.2743   24.0964 N   0  0  0  0  0  0
   -0.2835   49.4418   23.5207 C   0  0  0  0  0  0
   -0.1530   49.5744   22.1730 N   0  0  0  0  0  0
    4.5474   54.5909   25.5295 H   0  0  0  0  0  0
    2.9373   54.0925   23.7617 H   0  0  0  0  0  0
    0.3109   52.3156   26.6702 H   0  0  0  0  0  0
    1.9155   52.8061   28.4260 H   0  0  0  0  0  0
    0.9916   53.0219   23.0744 H   0  0  0  0  0  0
   -0.8038   50.1089   26.6968 H   0  0  0  0  0  0
   -0.3631   50.4502   21.7174 H   0  0  0  0  0  0
    0.1426   48.8064   21.5867 H   0  0  0  0  0  0
  1  6  2  0  0  0
  1  2  1  0  0  0
  1 22  1  0  0  0
  2  3  2  0  0  0
  2 23  1  0  0  0
  3  4  1  0  0  0
  3 11  1  0  0  0
  4  5  2  0  0  0
  4 24  1  0  0  0
  5  6  1  0  0  0
  5 25  1  0  0  0
  6  7  1  0  0  0
  7  8  1  0  0  0
  7  9  1  0  0  0
  7 10  1  0  0  0
 11 12  1  0  0  0
 11 26  1  0  0  0
 12 13  2  0  0  0
 12 14  2  0  0  0
 12 15  1  0  0  0
 15 20  1  0  0  0
 15 16  2  0  0  0
 16 17  1  0  0  0
 16 27  1  0  0  0
 17 18  1  0  0  0
 17 19  1  0  0  0
 19 20  2  0  0  0
 20 21  1  0  0  0
 21 28  1  0  0  0
 21 29  1  0  0  0
M  END
> <i_i_glide_confnum>
3

> <i_i_glide_lignum>
1579

> <i_i_glide_posenum>
239

> <i_i_glide_rotatable_bonds>
4

> <i_m_Source_File_Index>
2665

> <b_m_subgroup_collapsed>
0

> <r_i_docking_score>
-6.24415

> <r_i_glide_ecoul>
-7.04257

> <r_i_glide_eff_state_penalty>
0

> <r_i_glide_einternal>
0.670044

> <r_i_glide_emodel>
-48.0861

> <r_i_glide_energy>
-33.491

> <r_i_glide_erotb>
0.590718

> <r_i_glide_esite>
-0.0823297

> <r_i_glide_evdw>
-26.4484

> <r_i_glide_gscore>
-6.24415

> <r_i_glide_hbond>
-0.32

> <r_i_glide_ligand_efficiency>
-0.312207

> <r_i_glide_ligand_efficiency_ln>
-1.5627

> <r_i_glide_ligand_efficiency_sa>
-0.847462

> <r_i_glide_lipo>
-1.45815

> <r_i_glide_metal>
0

> <r_i_glide_rewards>
-2.59558

> <s_i_glide_gridfile>
wee1_glide-grid

> <s_m_Source_File>
wee1_decoys_glide_SP.sdf

> <s_m_Source_Path>
/Users/zhangxujun/Desktop

> <s_m_entry_id>
2940

> <s_m_entry_name>
wee1_decoys_glide_SP.2665

> <s_m_subgroup_title>
wee1_decoys_glide_SP

> <s_m_subgroupid>
wee1_decoys_glide_SP


$$$$
