ZINC33899976_3395
                    3D
 Schrodinger Suite 2024-2.
 66 70  0  0  1  0            999 V2000
    6.6973   54.4186   22.9475 C   0  0  0  0  0  0
    5.7488   53.7965   22.0860 O   0  0  0  0  0  0
    5.4371   54.3792   20.8696 C   0  0  0  0  0  0
    6.0739   55.5353   20.3847 C   0  0  0  0  0  0
    5.7179   56.0776   19.1520 C   0  0  0  0  0  0
    4.7151   55.4820   18.3959 C   0  0  0  0  0  0
    4.0775   54.3348   18.8608 C   0  0  0  0  0  0
    4.4387   53.7640   20.0909 C   0  0  0  0  0  0
    3.7697   52.4787   20.6010 C   0  0  1  0  0  0
    4.5385   51.8190   21.0120 H   0  0  0  0  0  0
    2.5658   52.6151   21.5320 C   0  0  1  0  0  0
    1.8771   53.3184   21.0736 H   0  0  0  0  0  0
    2.0791   51.2383   21.5405 C   0  0  1  0  0  0
    2.8306   50.5039   21.8536 H   0  0  0  0  0  0
    1.1057   51.2521   22.7028 C   0  0  0  0  0  0
    0.1846   50.4470   22.8376 O   0  0  0  0  0  0
    1.5615   52.2243   23.5765 N   0  0  0  0  0  0
    2.5518   52.9927   22.9941 C   0  0  0  0  0  0
    3.2208   53.9027   23.4799 O   0  0  0  0  0  0
    1.0915   52.3896   24.9277 C   0  0  0  0  0  0
   -0.2146   52.0184   25.3026 C   0  0  0  0  0  0
   -0.6399   52.0969   26.6267 C   0  0  0  0  0  0
    0.2170   52.5752   27.6133 C   0  0  0  0  0  0
    1.5118   52.9948   27.2843 C   0  0  0  0  0  0
    1.9278   52.8967   25.9465 C   0  0  0  0  0  0
    2.4300   53.5128   28.3317 N   0  3  0  0  0  0
    2.0271   53.5775   29.4917 O   0  0  0  0  0  0
    3.5603   53.8630   28.0021 O   0  5  0  0  0  0
    1.7827   50.9772   20.0361 C   0  0  1  0  0  0
    3.1044   51.6200   19.4707 N   0  3  0  0  0  0
    1.6342   49.4491   19.7342 C   0  0  0  0  0  0
    1.6044   48.9896   18.2358 C   0  0  0  0  0  0
    2.1082   47.5388   18.0536 C   0  0  0  0  0  0
    1.1361   46.5336   18.7130 C   0  0  0  0  0  0
   -0.2891   46.6569   18.1284 C   0  0  0  0  0  0
   -0.8046   48.1126   18.1107 C   0  0  0  0  0  0
    0.2367   49.0749   17.4993 C   0  0  0  0  0  0
    0.5815   51.7683   19.3838 C   0  0  0  0  0  0
   -0.5506   51.6373   19.9025 O   0  0  0  0  0  0
    0.7963   52.4973   18.3844 O   0  5  0  0  0  0
    6.8121   53.8144   23.8483 H   0  0  0  0  0  0
    7.6799   54.4957   22.4796 H   0  0  0  0  0  0
    6.3658   55.4119   23.2551 H   0  0  0  0  0  0
    6.8478   56.0283   20.9519 H   0  0  0  0  0  0
    6.2119   56.9666   18.7861 H   0  0  0  0  0  0
    4.4286   55.9081   17.4450 H   0  0  0  0  0  0
    3.2965   53.9082   18.2522 H   0  0  0  0  0  0
   -0.9268   51.6510   24.5787 H   0  0  0  0  0  0
   -1.6391   51.7799   26.8927 H   0  0  0  0  0  0
   -0.1358   52.6222   28.6335 H   0  0  0  0  0  0
    2.9452   53.1769   25.7198 H   0  0  0  0  0  0
    3.7495   50.9424   19.0692 H   0  0  0  0  0  0
    0.7636   49.0659   20.2652 H   0  0  0  0  0  0
    2.4749   48.9439   20.2104 H   0  0  0  0  0  0
    2.3030   49.6176   17.6821 H   0  0  0  0  0  0
    3.1048   47.4322   18.4815 H   0  0  0  0  0  0
    2.2125   47.3054   16.9923 H   0  0  0  0  0  0
    1.1067   46.6987   19.7891 H   0  0  0  0  0  0
    1.5043   45.5195   18.5738 H   0  0  0  0  0  0
   -0.9802   46.0237   18.6859 H   0  0  0  0  0  0
   -0.2829   46.2724   17.1070 H   0  0  0  0  0  0
   -1.0582   48.4316   19.1227 H   0  0  0  0  0  0
   -1.7337   48.1676   17.5426 H   0  0  0  0  0  0
    0.3728   48.8307   16.4437 H   0  0  0  0  0  0
   -0.1768   50.0790   17.5142 H   0  0  0  0  0  0
    2.8150   52.2105   18.6999 H   0  0  0  0  0  0
  1  2  1  0  0  0
  1 41  1  0  0  0
  1 42  1  0  0  0
  1 43  1  0  0  0
  2  3  1  0  0  0
  3  8  2  0  0  0
  3  4  1  0  0  0
  4  5  2  0  0  0
  4 44  1  0  0  0
  5  6  1  0  0  0
  5 45  1  0  0  0
  6  7  2  0  0  0
  6 46  1  0  0  0
  7  8  1  0  0  0
  7 47  1  0  0  0
  8  9  1  0  0  0
  9 10  1  0  0  0
  9 30  1  0  0  0
  9 11  1  0  0  0
 11 12  1  0  0  0
 11 18  1  0  0  0
 11 13  1  0  0  0
 13 14  1  0  0  0
 13 15  1  0  0  0
 13 29  1  0  0  0
 15 16  2  0  0  0
 15 17  1  0  0  0
 17 18  1  0  0  0
 17 20  1  0  0  0
 18 19  2  0  0  0
 20 25  2  0  0  0
 20 21  1  0  0  0
 21 22  2  0  0  0
 21 48  1  0  0  0
 22 23  1  0  0  0
 22 49  1  0  0  0
 23 24  2  0  0  0
 23 50  1  0  0  0
 24 25  1  0  0  0
 24 26  1  0  0  0
 25 51  1  0  0  0
 26 27  2  0  0  0
 26 28  1  0  0  0
 29 30  1  0  0  0
 29 31  1  0  0  0
 29 38  1  0  0  0
 30 52  1  0  0  0
 30 66  1  0  0  0
 31 32  1  0  0  0
 31 53  1  0  0  0
 31 54  1  0  0  0
 32 37  1  0  0  0
 32 33  1  0  0  0
 32 55  1  0  0  0
 33 34  1  0  0  0
 33 56  1  0  0  0
 33 57  1  0  0  0
 34 35  1  0  0  0
 34 58  1  0  0  0
 34 59  1  0  0  0
 35 36  1  0  0  0
 35 60  1  0  0  0
 35 61  1  0  0  0
 36 37  1  0  0  0
 36 62  1  0  0  0
 36 63  1  0  0  0
 37 64  1  0  0  0
 37 65  1  0  0  0
 38 39  2  0  0  0
 38 40  1  0  0  0
M  CHG  4  26   1  28  -1  30   1  40  -1
M  END
> <i_i_glide_confnum>
110

> <i_i_glide_lignum>
3396

> <i_i_glide_posenum>
363

> <i_i_glide_rotatable_bonds>
7

> <i_m_Source_File_Index>
850

> <b_m_subgroup_collapsed>
0

> <r_i_docking_score>
-4.53894

> <r_i_glide_ecoul>
-4.73537

> <r_i_glide_eff_state_penalty>
0

> <r_i_glide_einternal>
3.86572

> <r_i_glide_emodel>
-53.6169

> <r_i_glide_energy>
-41.5946

> <r_i_glide_erotb>
0.317825

> <r_i_glide_esite>
-0.0887306

> <r_i_glide_evdw>
-36.8593

> <r_i_glide_gscore>
-4.53894

> <r_i_glide_hbond>
-0.2

> <r_i_glide_ligand_efficiency>
-0.122674

> <r_i_glide_ligand_efficiency_ln>
-0.984391

> <r_i_glide_ligand_efficiency_sa>
-0.408778

> <r_i_glide_lipo>
-1.25349

> <r_i_glide_metal>
0

> <r_i_glide_rewards>
-0.761276

> <s_i_glide_gridfile>
wee1_glide-grid

> <s_m_Source_File>
wee1_decoys_glide_SP.sdf

> <s_m_Source_Path>
/Users/zhangxujun/Desktop

> <s_m_entry_id>
1125

> <s_m_entry_name>
wee1_decoys_glide_SP.850

> <s_m_subgroup_title>
wee1_decoys_glide_SP

> <s_m_subgroupid>
wee1_decoys_glide_SP


$$$$
