ZINC12715061_3131
                    3D
 Schrodinger Suite 2024-2.
 59 62  0  0  1  0            999 V2000
   -5.8779   53.1772   24.4842 C   0  0  0  0  0  0
   -4.5437   52.8741   25.1113 C   0  0  0  0  0  0
   -4.1450   52.6340   26.4091 C   0  0  0  0  0  0
   -2.7720   52.4166   26.3716 C   0  0  0  0  0  0
   -2.3732   52.4876   25.0371 C   0  0  0  0  0  0
   -3.4681   52.7869   24.2825 O   0  0  0  0  0  0
   -1.0965   52.2542   24.2678 C   0  0  1  0  0  0
   -1.0273   53.0948   23.5764 H   0  0  0  0  0  0
    0.1694   52.4384   25.1483 C   0  0  0  0  0  0
    1.0580   53.1864   24.7392 O   0  0  0  0  0  0
    0.2405   51.7892   26.3243 N   0  0  0  0  0  0
    1.2969   51.9880   27.3220 C   0  0  0  0  0  0
    1.3912   53.4251   27.8940 C   0  0  1  0  0  0
    1.4192   54.1633   27.0914 H   0  0  0  0  0  0
    0.4782   53.7583   29.0727 C   0  0  0  0  0  0
    1.2419   54.7836   29.8853 C   0  0  0  0  0  0
    2.6873   54.6258   29.4133 C   0  0  0  0  0  0
    2.6674   53.5132   28.5239 O   0  0  0  0  0  0
   -1.0378   51.0493   23.3703 N   0  0  0  0  0  0
    0.0803   50.9718   22.4946 C   0  0  0  0  0  0
    0.1531   51.8164   21.3808 C   0  0  0  0  0  0
    1.2749   51.7862   20.5505 C   0  0  0  0  0  0
    2.3349   50.9229   20.8317 C   0  0  0  0  0  0
    2.2783   50.0893   21.9489 C   0  0  0  0  0  0
    1.1561   50.1120   22.7790 C   0  0  0  0  0  0
    1.1048   49.2980   23.8582 F   0  0  0  0  0  0
   -1.8346   49.9362   23.5536 C   0  0  0  0  0  0
   -2.5447   49.7555   24.5432 O   0  0  0  0  0  0
   -1.8672   48.9083   22.5273 C   0  0  0  0  0  0
   -1.8617   47.5186   22.6539 C   0  0  0  0  0  0
   -2.0313   46.8762   21.3991 C   0  0  0  0  0  0
   -2.1847   47.6835   20.3586 N   0  0  0  0  0  0
   -2.1506   49.3100   20.8644 S   0  0  0  0  0  0
   -2.0948   45.4271   21.1669 C   0  0  0  0  0  0
   -2.0966   44.6032   22.0807 O   0  0  0  0  0  0
   -2.1472   45.0115   19.8949 N   0  0  0  0  0  0
   -1.6958   46.8784   23.8556 N   0  0  0  0  0  0
   -6.6874   53.1025   25.2098 H   0  0  0  0  0  0
   -5.9080   54.1884   24.0816 H   0  0  0  0  0  0
   -6.1100   52.4776   23.6819 H   0  0  0  0  0  0
   -4.7810   52.6101   27.2807 H   0  0  0  0  0  0
   -2.1561   52.1809   27.2262 H   0  0  0  0  0  0
   -0.4922   51.1320   26.5582 H   0  0  0  0  0  0
    2.2548   51.7105   26.8900 H   0  0  0  0  0  0
    1.1132   51.2788   28.1302 H   0  0  0  0  0  0
    0.2833   52.8636   29.6667 H   0  0  0  0  0  0
   -0.4967   54.0961   28.7302 H   0  0  0  0  0  0
    1.1245   54.6048   30.9543 H   0  0  0  0  0  0
    0.8863   55.7942   29.6798 H   0  0  0  0  0  0
    3.3901   54.4370   30.2240 H   0  0  0  0  0  0
    3.0426   55.5102   28.8814 H   0  0  0  0  0  0
   -0.6546   52.4967   21.1576 H   0  0  0  0  0  0
    1.3293   52.4405   19.6920 H   0  0  0  0  0  0
    3.2012   50.9027   20.1844 H   0  0  0  0  0  0
    3.1040   49.4276   22.1716 H   0  0  0  0  0  0
   -2.1435   45.6899   19.1470 H   0  0  0  0  0  0
   -2.2048   44.0276   19.6888 H   0  0  0  0  0  0
   -1.6025   45.8754   23.8957 H   0  0  0  0  0  0
   -1.6214   47.3915   24.7271 H   0  0  0  0  0  0
  1  2  1  0  0  0
  1 38  1  0  0  0
  1 39  1  0  0  0
  1 40  1  0  0  0
  2  6  1  0  0  0
  2  3  2  0  0  0
  3  4  1  0  0  0
  3 41  1  0  0  0
  4  5  2  0  0  0
  4 42  1  0  0  0
  5  6  1  0  0  0
  5  7  1  0  0  0
  7  8  1  0  0  0
  7  9  1  0  0  0
  7 19  1  0  0  0
  9 10  2  0  0  0
  9 11  1  0  0  0
 11 12  1  0  0  0
 11 43  1  0  0  0
 12 13  1  0  0  0
 12 44  1  0  0  0
 12 45  1  0  0  0
 13 14  1  0  0  0
 13 18  1  0  0  0
 13 15  1  0  0  0
 15 16  1  0  0  0
 15 46  1  0  0  0
 15 47  1  0  0  0
 16 17  1  0  0  0
 16 48  1  0  0  0
 16 49  1  0  0  0
 17 18  1  0  0  0
 17 50  1  0  0  0
 17 51  1  0  0  0
 19 20  1  0  0  0
 19 27  1  0  0  0
 20 25  2  0  0  0
 20 21  1  0  0  0
 21 22  2  0  0  0
 21 52  1  0  0  0
 22 23  1  0  0  0
 22 53  1  0  0  0
 23 24  2  0  0  0
 23 54  1  0  0  0
 24 25  1  0  0  0
 24 55  1  0  0  0
 25 26  1  0  0  0
 27 28  2  0  0  0
 27 29  1  0  0  0
 29 33  1  0  0  0
 29 30  2  0  0  0
 30 31  1  0  0  0
 30 37  1  0  0  0
 31 32  2  0  0  0
 31 34  1  0  0  0
 32 33  1  0  0  0
 34 35  2  0  0  0
 34 36  1  0  0  0
 36 56  1  0  0  0
 36 57  1  0  0  0
 37 58  1  0  0  0
 37 59  1  0  0  0
M  END
> <i_i_glide_confnum>
75

> <i_i_glide_lignum>
3132

> <i_i_glide_posenum>
140

> <i_i_glide_rotatable_bonds>
10

> <i_m_Source_File_Index>
84

> <b_m_subgroup_collapsed>
0

> <r_i_docking_score>
-2.97918

> <r_i_glide_ecoul>
-1.50783

> <r_i_glide_eff_state_penalty>
0

> <r_i_glide_einternal>
13.4245

> <r_i_glide_emodel>
-36.1965

> <r_i_glide_energy>
-34.7679

> <r_i_glide_erotb>
0.64968

> <r_i_glide_esite>
-0.0771895

> <r_i_glide_evdw>
-33.2601

> <r_i_glide_gscore>
-2.97918

> <r_i_glide_hbond>
-0.16

> <r_i_glide_ligand_efficiency>
-0.0851194

> <r_i_glide_ligand_efficiency_ln>
-0.653996

> <r_i_glide_ligand_efficiency_sa>
-0.278431

> <r_i_glide_lipo>
-1.48033

> <r_i_glide_metal>
0

> <r_i_glide_rewards>
-0.0221616

> <s_i_glide_gridfile>
wee1_glide-grid

> <s_m_Source_File>
wee1_decoys_glide_SP.sdf

> <s_m_Source_Path>
/Users/zhangxujun/Desktop

> <s_m_entry_id>
359

> <s_m_entry_name>
wee1_decoys_glide_SP.84

> <s_m_subgroup_title>
wee1_decoys_glide_SP

> <s_m_subgroupid>
wee1_decoys_glide_SP


$$$$
