ZINC00729089_313
                    3D
 Schrodinger Suite 2024-2.
 73 76  0  0  1  0            999 V2000
   -3.4568   46.6697   23.1290 C   0  0  0  0  0  0
   -2.3807   47.7306   23.2611 C   0  0  0  0  0  0
   -2.2092   48.4191   24.4630 C   0  0  0  0  0  0
   -1.2287   49.4024   24.5699 C   0  0  0  0  0  0
   -0.4124   49.7156   23.4794 C   0  0  0  0  0  0
   -0.5511   48.9942   22.2731 C   0  0  0  0  0  0
   -1.5489   48.0174   22.1766 C   0  0  0  0  0  0
    0.3924   49.1663   21.0886 C   0  0  0  0  0  0
    0.5565   50.7015   23.7118 N   0  0  0  0  0  0
    0.8131   51.7988   22.9686 C   0  0  0  0  0  0
    0.2444   52.0926   21.9147 O   0  0  0  0  0  0
    1.9047   52.6005   23.4895 C   0  0  0  0  0  0
    2.1143   52.9009   24.8664 C   0  0  0  0  0  0
    3.2483   53.7046   25.0644 C   0  0  0  0  0  0
    4.0557   54.0967   23.5920 S   0  0  0  0  0  0
    2.8650   53.2296   22.6755 C   0  0  0  0  0  0
    2.9116   53.2637   21.2899 N   0  0  0  0  0  0
    4.0006   53.0764   20.5191 C   0  0  0  0  0  0
    5.1025   52.7296   20.9475 O   0  0  0  0  0  0
    3.7549   53.3368   19.0211 C   0  0  0  0  0  0
    6.2129   53.7030   18.2240 C   0  0  0  0  0  0
    6.0810   55.2079   18.0393 C   0  0  0  0  0  0
    5.7442   55.7599   16.7973 C   0  0  0  0  0  0
    5.6754   57.1480   16.6543 C   0  0  0  0  0  0
    5.9656   57.9486   17.7600 C   0  0  0  0  0  0
    6.3047   57.4340   18.9709 N   0  0  0  0  0  0
    6.3505   56.0827   19.0981 C   0  0  0  0  0  0
    3.7313   54.2484   26.3984 C   0  0  0  0  0  0
    3.0672   53.4639   27.5627 C   0  0  2  0  0  0
    3.4603   52.4468   27.5613 H   0  0  0  0  0  0
    1.5454   53.3544   27.2838 C   0  0  0  0  0  0
    1.2161   52.4971   26.0463 C   0  0  0  0  0  0
    3.3852   54.0585   28.9900 C   0  0  0  0  0  0
    2.4938   55.2871   29.3275 C   0  0  0  0  0  0
    4.8694   54.4967   29.0961 C   0  0  0  0  0  0
    3.1545   52.9619   30.0617 C   0  0  0  0  0  0
   -4.0777   46.5983   24.0243 H   0  0  0  0  0  0
   -3.0030   45.6976   22.9323 H   0  0  0  0  0  0
   -4.1079   46.9033   22.2849 H   0  0  0  0  0  0
   -2.8280   48.1980   25.3213 H   0  0  0  0  0  0
   -1.1127   49.9185   25.5130 H   0  0  0  0  0  0
   -1.6681   47.4634   21.2565 H   0  0  0  0  0  0
    1.3957   49.4391   21.4169 H   0  0  0  0  0  0
    0.5026   48.2342   20.5353 H   0  0  0  0  0  0
    0.0206   49.9282   20.4035 H   0  0  0  0  0  0
    1.0439   50.6211   24.5900 H   0  0  0  0  0  0
    2.0293   53.4385   20.8247 H   0  0  0  0  0  0
    2.9038   52.7563   18.6616 H   0  0  0  0  0  0
    3.5876   54.3947   18.8127 H   0  0  0  0  0  0
    6.6750   53.4449   19.1761 H   0  0  0  0  0  0
    6.8289   53.2655   17.4362 H   0  0  0  0  0  0
    5.5392   55.1268   15.9463 H   0  0  0  0  0  0
    5.4111   57.5957   15.7065 H   0  0  0  0  0  0
    5.9216   59.0285   17.6870 H   0  0  0  0  0  0
    6.6228   55.7073   20.0749 H   0  0  0  0  0  0
    4.8169   54.1597   26.4464 H   0  0  0  0  0  0
    3.4876   55.3053   26.4699 H   0  0  0  0  0  0
    1.0459   52.8898   28.1353 H   0  0  0  0  0  0
    1.1045   54.3482   27.2195 H   0  0  0  0  0  0
    0.1606   52.6146   25.7976 H   0  0  0  0  0  0
    1.3472   51.4464   26.2984 H   0  0  0  0  0  0
    1.4333   55.0369   29.3481 H   0  0  0  0  0  0
    2.7042   55.6962   30.3126 H   0  0  0  0  0  0
    2.6230   56.0957   28.6074 H   0  0  0  0  0  0
    5.5490   53.6691   28.8872 H   0  0  0  0  0  0
    5.1181   55.2967   28.4006 H   0  0  0  0  0  0
    5.1084   54.8873   30.0841 H   0  0  0  0  0  0
    3.6685   52.0340   29.8058 H   0  0  0  0  0  0
    3.5415   53.2609   31.0342 H   0  0  0  0  0  0
    2.0977   52.7248   30.1891 H   0  0  0  0  0  0
    4.8970   52.8967   18.1518 N   0  3  0  0  0  0
    5.1043   51.8968   18.2916 H   0  0  0  0  0  0
    4.5944   52.9491   17.1899 H   0  0  0  0  0  0
  1  2  1  0  0  0
  1 37  1  0  0  0
  1 38  1  0  0  0
  1 39  1  0  0  0
  2  7  2  0  0  0
  2  3  1  0  0  0
  3  4  2  0  0  0
  3 40  1  0  0  0
  4  5  1  0  0  0
  4 41  1  0  0  0
  5  6  2  0  0  0
  5  9  1  0  0  0
  6  7  1  0  0  0
  6  8  1  0  0  0
  7 42  1  0  0  0
  8 43  1  0  0  0
  8 44  1  0  0  0
  8 45  1  0  0  0
  9 10  1  0  0  0
  9 46  1  0  0  0
 10 11  2  0  0  0
 10 12  1  0  0  0
 12 16  2  0  0  0
 12 13  1  0  0  0
 13 32  1  0  0  0
 13 14  2  0  0  0
 14 15  1  0  0  0
 14 28  1  0  0  0
 15 16  1  0  0  0
 16 17  1  0  0  0
 17 18  1  0  0  0
 17 47  1  0  0  0
 18 19  2  0  0  0
 18 20  1  0  0  0
 20 48  1  0  0  0
 20 49  1  0  0  0
 20 71  1  0  0  0
 21 22  1  0  0  0
 21 50  1  0  0  0
 21 51  1  0  0  0
 21 71  1  0  0  0
 22 27  2  0  0  0
 22 23  1  0  0  0
 23 24  2  0  0  0
 23 52  1  0  0  0
 24 25  1  0  0  0
 24 53  1  0  0  0
 25 26  2  0  0  0
 25 54  1  0  0  0
 26 27  1  0  0  0
 27 55  1  0  0  0
 28 29  1  0  0  0
 28 56  1  0  0  0
 28 57  1  0  0  0
 29 30  1  0  0  0
 29 31  1  0  0  0
 29 33  1  0  0  0
 31 32  1  0  0  0
 31 58  1  0  0  0
 31 59  1  0  0  0
 32 60  1  0  0  0
 32 61  1  0  0  0
 33 34  1  0  0  0
 33 35  1  0  0  0
 33 36  1  0  0  0
 34 62  1  0  0  0
 34 63  1  0  0  0
 34 64  1  0  0  0
 35 65  1  0  0  0
 35 66  1  0  0  0
 35 67  1  0  0  0
 36 68  1  0  0  0
 36 69  1  0  0  0
 36 70  1  0  0  0
 71 72  1  0  0  0
 71 73  1  0  0  0
M  CHG  1  71   1
M  END
> <i_i_glide_confnum>
246

> <i_i_glide_lignum>
314

> <i_i_glide_posenum>
145

> <i_i_glide_rotatable_bonds>
10

> <i_m_Source_File_Index>
4523

> <b_m_subgroup_collapsed>
0

> <r_i_docking_score>
-5.76684

> <r_i_glide_ecoul>
-9.48679

> <r_i_glide_eff_state_penalty>
0

> <r_i_glide_einternal>
8.92621

> <r_i_glide_emodel>
-64.9167

> <r_i_glide_energy>
-48.2927

> <r_i_glide_erotb>
0.6399

> <r_i_glide_esite>
-0.1071

> <r_i_glide_evdw>
-38.806

> <r_i_glide_gscore>
-5.76684

> <r_i_glide_hbond>
-0.365938

> <r_i_glide_ligand_efficiency>
-0.16019

> <r_i_glide_ligand_efficiency_ln>
-1.25817

> <r_i_glide_ligand_efficiency_sa>
-0.528935

> <r_i_glide_lipo>
-2.44815

> <r_i_glide_metal>
0

> <r_i_glide_rewards>
-0.122226

> <s_i_glide_gridfile>
wee1_glide-grid

> <s_m_Source_File>
wee1_decoys_glide_SP.sdf

> <s_m_Source_Path>
/Users/zhangxujun/Desktop

> <s_m_entry_id>
4798

> <s_m_entry_name>
wee1_decoys_glide_SP.4523

> <s_m_subgroup_title>
wee1_decoys_glide_SP

> <s_m_subgroupid>
wee1_decoys_glide_SP


$$$$
