ZINC36772532_5207
                    3D
 Schrodinger Suite 2024-2.
 48 50  0  0  1  0            999 V2000
   -0.0954   48.8361   23.8448 C   0  0  0  0  0  0
    0.6914   49.9283   23.1318 C   0  0  0  0  0  0
    1.8387   49.5688   22.4181 C   0  0  0  0  0  0
    2.6035   50.5281   21.7616 C   0  0  0  0  0  0
    2.2374   51.8784   21.8140 C   0  0  0  0  0  0
    1.0760   52.2416   22.5006 C   0  0  0  0  0  0
    0.3057   51.2800   23.1742 C   0  0  0  0  0  0
   -1.1453   51.8288   24.0921 S   0  0  0  0  0  0
   -1.1655   53.2957   24.0816 O   0  0  0  0  0  0
   -2.2934   51.0698   23.5832 O   0  0  0  0  0  0
   -0.9022   51.3194   25.7752 N   0  0  0  0  0  0
    0.0341   51.8807   26.6529 C   0  0  0  0  0  0
    1.1051   52.6653   26.2140 C   0  0  0  0  0  0
    2.0301   53.1648   27.1247 C   0  0  0  0  0  0
    1.8918   52.8812   28.4856 C   0  0  0  0  0  0
    0.8226   52.1009   28.9285 C   0  0  0  0  0  0
   -0.0998   51.5993   28.0145 C   0  0  0  0  0  0
    3.0508   53.4873   29.6816 S   0  0  0  0  0  0
    4.4390   54.2767   28.8193 C   0  0  0  0  0  0
    5.2407   54.8968   29.6824 F   0  0  0  0  0  0
    5.1480   53.3903   28.1256 F   0  0  0  0  0  0
    2.9724   52.8957   21.1774 N   0  0  0  0  0  0
    4.3122   52.9345   21.0097 C   0  0  0  0  0  0
    5.1036   52.1136   21.4763 O   0  0  0  0  0  0
    4.8270   54.1048   20.2134 C   0  0  0  0  0  0
    5.8697   54.8966   20.7202 C   0  0  0  0  0  0
    6.3776   55.9600   19.9719 C   0  0  0  0  0  0
    5.8447   56.2589   18.7195 C   0  0  0  0  0  0
    4.8081   55.4802   18.2075 C   0  0  0  0  0  0
    4.3041   54.4049   18.9425 C   0  0  0  0  0  0
    3.3064   53.6665   18.4000 F   0  0  0  0  0  0
    6.4038   54.6565   21.9422 F   0  0  0  0  0  0
   -0.1158   49.0081   24.9221 H   0  0  0  0  0  0
   -1.1256   48.8003   23.4875 H   0  0  0  0  0  0
    0.3398   47.8489   23.6937 H   0  0  0  0  0  0
    2.1513   48.5357   22.3754 H   0  0  0  0  0  0
    3.4765   50.2090   21.2097 H   0  0  0  0  0  0
    0.7855   53.2839   22.5293 H   0  0  0  0  0  0
   -1.3596   50.4663   26.0638 H   0  0  0  0  0  0
    1.2388   52.8934   25.1688 H   0  0  0  0  0  0
    2.8495   53.7570   26.7502 H   0  0  0  0  0  0
    0.7096   51.8741   29.9794 H   0  0  0  0  0  0
   -0.9111   50.9760   28.3689 H   0  0  0  0  0  0
    4.0851   55.0389   28.1275 H   0  0  0  0  0  0
    2.4398   53.6835   20.8264 H   0  0  0  0  0  0
    7.1899   56.5480   20.3666 H   0  0  0  0  0  0
    6.2347   57.0854   18.1443 H   0  0  0  0  0  0
    4.3960   55.7053   17.2350 H   0  0  0  0  0  0
  1  2  1  0  0  0
  1 33  1  0  0  0
  1 34  1  0  0  0
  1 35  1  0  0  0
  2  7  2  0  0  0
  2  3  1  0  0  0
  3  4  2  0  0  0
  3 36  1  0  0  0
  4  5  1  0  0  0
  4 37  1  0  0  0
  5  6  2  0  0  0
  5 22  1  0  0  0
  6  7  1  0  0  0
  6 38  1  0  0  0
  7  8  1  0  0  0
  8  9  2  0  0  0
  8 10  2  0  0  0
  8 11  1  0  0  0
 11 12  1  0  0  0
 11 39  1  0  0  0
 12 17  2  0  0  0
 12 13  1  0  0  0
 13 14  2  0  0  0
 13 40  1  0  0  0
 14 15  1  0  0  0
 14 41  1  0  0  0
 15 16  2  0  0  0
 15 18  1  0  0  0
 16 17  1  0  0  0
 16 42  1  0  0  0
 17 43  1  0  0  0
 18 19  1  0  0  0
 19 20  1  0  0  0
 19 21  1  0  0  0
 19 44  1  0  0  0
 22 23  1  0  0  0
 22 45  1  0  0  0
 23 24  2  0  0  0
 23 25  1  0  0  0
 25 30  2  0  0  0
 25 26  1  0  0  0
 26 27  2  0  0  0
 26 32  1  0  0  0
 27 28  1  0  0  0
 27 46  1  0  0  0
 28 29  2  0  0  0
 28 47  1  0  0  0
 29 30  1  0  0  0
 29 48  1  0  0  0
 30 31  1  0  0  0
M  END
> <i_i_glide_confnum>
54

> <i_i_glide_lignum>
5208

> <i_i_glide_posenum>
224

> <i_i_glide_rotatable_bonds>
8

> <i_m_Source_File_Index>
4142

> <b_m_subgroup_collapsed>
0

> <r_i_docking_score>
-4.80023

> <r_i_glide_ecoul>
-5.96938

> <r_i_glide_eff_state_penalty>
0

> <r_i_glide_einternal>
4.84332

> <r_i_glide_emodel>
-58.6628

> <r_i_glide_energy>
-48.8407

> <r_i_glide_erotb>
0.605625

> <r_i_glide_esite>
-0.0630134

> <r_i_glide_evdw>
-42.8713

> <r_i_glide_gscore>
-4.80023

> <r_i_glide_hbond>
-0.32

> <r_i_glide_ligand_efficiency>
-0.150007

> <r_i_glide_ligand_efficiency_ln>
-1.0749

> <r_i_glide_ligand_efficiency_sa>
-0.476243

> <r_i_glide_lipo>
-1.89554

> <r_i_glide_metal>
0

> <r_i_glide_rewards>
-0.088321

> <s_i_glide_gridfile>
wee1_glide-grid

> <s_m_Source_File>
wee1_decoys_glide_SP.sdf

> <s_m_Source_Path>
/Users/zhangxujun/Desktop

> <s_m_entry_id>
4417

> <s_m_entry_name>
wee1_decoys_glide_SP.4142

> <s_m_subgroup_title>
wee1_decoys_glide_SP

> <s_m_subgroupid>
wee1_decoys_glide_SP


$$$$
