ZINC13033126_5778
                    3D
 Schrodinger Suite 2024-2.
 44 46  0  0  1  0            999 V2000
    6.4817   55.2966   20.7372 C   0  0  0  0  0  0
    6.3045   54.8723   22.2016 C   0  0  0  0  0  0
    4.9576   54.4969   22.4895 O   0  0  0  0  0  0
    4.4489   53.2731   22.2154 C   0  0  0  0  0  0
    5.1043   52.4058   21.6378 O   0  0  0  0  0  0
    3.0667   53.0640   22.7498 C   0  0  0  0  0  0
    2.2978   51.9500   22.5256 C   0  0  0  0  0  0
    1.0297   51.8380   23.1151 N   0  0  0  0  0  0
    0.3650   52.9057   23.6760 C   0  0  0  0  0  0
   -0.7784   52.9078   24.1361 O   0  0  0  0  0  0
    1.0772   54.0600   23.7220 N   0  0  0  0  0  0
    2.5496   54.1235   23.7520 C   0  0  1  0  0  0
    2.8020   55.1179   23.3878 H   0  0  0  0  0  0
    3.1562   53.9895   25.1542 C   0  0  0  0  0  0
    4.4279   54.3823   25.5819 C   0  0  0  0  0  0
    4.7269   54.0984   26.9137 C   0  0  0  0  0  0
    3.6606   53.5235   27.5746 C   0  0  0  0  0  0
    2.3059   53.2968   26.5226 S   0  0  0  0  0  0
    6.4177   54.4656   27.7031 Br  0  0  0  0  0  0
    0.3515   50.5904   23.1860 C   0  0  0  0  0  0
    0.4802   49.7812   24.3191 C   0  0  0  0  0  0
   -0.2348   48.5883   24.4146 C   0  0  0  0  0  0
   -1.0939   48.1851   23.3800 C   0  0  0  0  0  0
   -1.2208   49.0090   22.2504 C   0  0  0  0  0  0
   -0.5118   50.2036   22.1554 C   0  0  0  0  0  0
   -1.8657   46.8964   23.4757 C   0  0  0  0  0  0
   -2.6122   46.5833   22.5178 O   0  0  0  0  0  0
    2.6753   50.8027   21.5676 C   0  0  0  0  0  0
    7.5065   55.6136   20.5471 H   0  0  0  0  0  0
    6.2616   54.4752   20.0558 H   0  0  0  0  0  0
    5.8216   56.1242   20.4847 H   0  0  0  0  0  0
    6.5567   55.7148   22.8459 H   0  0  0  0  0  0
    6.9953   54.0737   22.4807 H   0  0  0  0  0  0
    0.5877   54.8195   24.1713 H   0  0  0  0  0  0
    5.1485   54.8519   24.9302 H   0  0  0  0  0  0
    3.6163   53.2027   28.6048 H   0  0  0  0  0  0
    1.1042   50.0837   25.1445 H   0  0  0  0  0  0
   -0.1226   47.9824   25.3051 H   0  0  0  0  0  0
   -1.8794   48.7282   21.4405 H   0  0  0  0  0  0
   -0.6411   50.8296   21.2833 H   0  0  0  0  0  0
    3.3827   51.0832   20.7920 H   0  0  0  0  0  0
    3.0971   49.9696   22.1313 H   0  0  0  0  0  0
    1.8207   50.4381   21.0006 H   0  0  0  0  0  0
   -1.6992   46.1650   24.4813 O   0  5  0  0  0  0
  1  2  1  0  0  0
  1 29  1  0  0  0
  1 30  1  0  0  0
  1 31  1  0  0  0
  2  3  1  0  0  0
  2 32  1  0  0  0
  2 33  1  0  0  0
  3  4  1  0  0  0
  4  5  2  0  0  0
  4  6  1  0  0  0
  6 12  1  0  0  0
  6  7  2  0  0  0
  7  8  1  0  0  0
  7 28  1  0  0  0
  8  9  1  0  0  0
  8 20  1  0  0  0
  9 10  2  0  0  0
  9 11  1  0  0  0
 11 12  1  0  0  0
 11 34  1  0  0  0
 12 13  1  0  0  0
 12 14  1  0  0  0
 14 18  1  0  0  0
 14 15  2  0  0  0
 15 16  1  0  0  0
 15 35  1  0  0  0
 16 17  2  0  0  0
 16 19  1  0  0  0
 17 18  1  0  0  0
 17 36  1  0  0  0
 20 25  2  0  0  0
 20 21  1  0  0  0
 21 22  2  0  0  0
 21 37  1  0  0  0
 22 23  1  0  0  0
 22 38  1  0  0  0
 23 24  2  0  0  0
 23 26  1  0  0  0
 24 25  1  0  0  0
 24 39  1  0  0  0
 25 40  1  0  0  0
 26 27  2  0  0  0
 26 44  1  0  0  0
 28 41  1  0  0  0
 28 42  1  0  0  0
 28 43  1  0  0  0
M  CHG  1  44  -1
M  END
> <i_i_glide_confnum>
2

> <i_i_glide_lignum>
5779

> <i_i_glide_posenum>
300

> <i_i_glide_rotatable_bonds>
6

> <i_m_Source_File_Index>
3293

> <b_m_subgroup_collapsed>
0

> <r_i_docking_score>
-5.15673

> <r_i_glide_ecoul>
-2.45683

> <r_i_glide_eff_state_penalty>
0

> <r_i_glide_einternal>
2.545

> <r_i_glide_emodel>
-57.4955

> <r_i_glide_energy>
-42.7648

> <r_i_glide_erotb>
0.374024

> <r_i_glide_esite>
-0.0241089

> <r_i_glide_evdw>
-40.3079

> <r_i_glide_gscore>
-5.15673

> <r_i_glide_hbond>
-0.00132331

> <r_i_glide_ligand_efficiency>
-0.184169

> <r_i_glide_ligand_efficiency_ln>
-1.19033

> <r_i_glide_ligand_efficiency_sa>
-0.559246

> <r_i_glide_lipo>
-2.32658

> <r_i_glide_metal>
0

> <r_i_glide_rewards>
-0.794822

> <s_i_glide_gridfile>
wee1_glide-grid

> <s_m_Source_File>
wee1_decoys_glide_SP.sdf

> <s_m_Source_Path>
/Users/zhangxujun/Desktop

> <s_m_entry_id>
3568

> <s_m_entry_name>
wee1_decoys_glide_SP.3293

> <s_m_subgroup_title>
wee1_decoys_glide_SP

> <s_m_subgroupid>
wee1_decoys_glide_SP


$$$$
