ZINC62361553_1870
                    3D
 Schrodinger Suite 2024-2.
 37 38  0  0  1  0            999 V2000
    3.5138   53.7143   24.0756 C   0  0  0  0  0  0
    2.2944   53.0791   24.3601 C   0  0  0  0  0  0
    1.6287   52.6673   23.2910 N   0  0  0  0  0  0
    2.2847   52.8961   22.1820 C   0  0  0  0  0  0
    3.8045   53.6990   22.3637 S   0  0  0  0  0  0
    1.6580   52.9546   25.6544 C   0  0  0  0  0  0
    0.4358   52.8967   25.7708 O   0  0  0  0  0  0
    2.5116   52.9684   26.7018 N   0  0  0  0  0  0
    2.2334   53.1205   28.1564 C   0  0  0  0  0  0
    1.5855   54.5377   28.3798 C   0  0  0  0  0  0
    1.5531   55.1413   29.8037 C   0  0  0  0  0  0
    0.5230   54.5391   30.7741 C   0  0  0  0  0  0
    0.5171   53.0097   30.9225 C   0  0  0  0  0  0
    0.1463   52.2447   29.6389 C   0  0  0  0  0  0
    1.2811   51.9414   28.6304 C   0  0  0  0  0  0
    3.6578   53.0729   28.8870 C   0  0  0  0  0  0
    4.7310   53.6563   28.4958 N   0  0  0  0  0  0
    4.6373   54.5000   27.3732 O   0  0  0  0  0  0
    3.6873   52.3539   30.0600 N   0  0  0  0  0  0
    4.2269   54.1707   24.7455 H   0  0  0  0  0  0
    1.9089   52.6353   21.2037 H   0  0  0  0  0  0
    3.4568   52.6778   26.4845 H   0  0  0  0  0  0
    2.0998   55.2687   27.7547 H   0  0  0  0  0  0
    0.5652   54.5311   27.9993 H   0  0  0  0  0  0
    2.5451   55.1175   30.2509 H   0  0  0  0  0  0
    1.3283   56.2059   29.7139 H   0  0  0  0  0  0
    0.6856   54.9813   31.7577 H   0  0  0  0  0  0
   -0.4753   54.8650   30.4819 H   0  0  0  0  0  0
    1.4513   52.6510   31.3478 H   0  0  0  0  0  0
   -0.2299   52.7730   31.6797 H   0  0  0  0  0  0
   -0.3105   51.2967   29.9250 H   0  0  0  0  0  0
   -0.6547   52.7783   29.1257 H   0  0  0  0  0  0
    0.7612   51.5069   27.7776 H   0  0  0  0  0  0
    1.8486   51.0761   28.9726 H   0  0  0  0  0  0
    3.7077   54.4256   27.1298 H   0  0  0  0  0  0
    4.5515   52.3135   30.5793 H   0  0  0  0  0  0
    2.8235   52.0992   30.5133 H   0  0  0  0  0  0
  1  5  1  0  0  0
  1  2  2  0  0  0
  1 20  1  0  0  0
  2  3  1  0  0  0
  2  6  1  0  0  0
  3  4  2  0  0  0
  4  5  1  0  0  0
  4 21  1  0  0  0
  6  7  2  0  0  0
  6  8  1  0  0  0
  8  9  1  0  0  0
  8 22  1  0  0  0
  9 15  1  0  0  0
  9 10  1  0  0  0
  9 16  1  0  0  0
 10 11  1  0  0  0
 10 23  1  0  0  0
 10 24  1  0  0  0
 11 12  1  0  0  0
 11 25  1  0  0  0
 11 26  1  0  0  0
 12 13  1  0  0  0
 12 27  1  0  0  0
 12 28  1  0  0  0
 13 14  1  0  0  0
 13 29  1  0  0  0
 13 30  1  0  0  0
 14 15  1  0  0  0
 14 31  1  0  0  0
 14 32  1  0  0  0
 15 33  1  0  0  0
 15 34  1  0  0  0
 16 17  2  0  0  0
 16 19  1  0  0  0
 17 18  1  0  0  0
 18 35  1  0  0  0
 19 36  1  0  0  0
 19 37  1  0  0  0
M  END
> <i_i_glide_confnum>
493

> <i_i_glide_lignum>
1871

> <i_i_glide_posenum>
238

> <i_i_glide_rotatable_bonds>
5

> <i_m_Source_File_Index>
1951

> <b_m_subgroup_collapsed>
0

> <r_i_docking_score>
-4.50556

> <r_i_glide_ecoul>
1.0121

> <r_i_glide_eff_state_penalty>
0

> <r_i_glide_einternal>
7.75092

> <r_i_glide_emodel>
-40.5007

> <r_i_glide_energy>
-33.9865

> <r_i_glide_erotb>
1.13463

> <r_i_glide_esite>
0

> <r_i_glide_evdw>
-34.9986

> <r_i_glide_gscore>
-4.50556

> <r_i_glide_hbond>
0

> <r_i_glide_ligand_efficiency>
-0.237135

> <r_i_glide_ligand_efficiency_ln>
-1.14226

> <r_i_glide_ligand_efficiency_sa>
-0.632771

> <r_i_glide_lipo>
-1.996

> <r_i_glide_metal>
0

> <r_i_glide_rewards>
-2.04608

> <s_i_glide_gridfile>
wee1_glide-grid

> <s_m_Source_File>
wee1_decoys_glide_SP.sdf

> <s_m_Source_Path>
/Users/zhangxujun/Desktop

> <s_m_entry_id>
2226

> <s_m_entry_name>
wee1_decoys_glide_SP.1951

> <s_m_subgroup_title>
wee1_decoys_glide_SP

> <s_m_subgroupid>
wee1_decoys_glide_SP


$$$$
