ZINC35664237_2918
                    3D
 Schrodinger Suite 2024-2.
 75 77  0  0  1  0            999 V2000
   -0.4010   52.4038   21.5790 C   0  0  0  0  0  0
    1.0087   52.4980   22.1883 C   0  0  0  0  0  0
    1.1474   51.9120   23.5458 N   0  0  0  0  0  0
    1.4666   52.6193   24.7091 C   0  0  0  0  0  0
    1.1036   52.0953   25.9244 C   0  0  0  0  0  0
    0.2225   50.8227   25.9192 C   0  0  2  0  0  0
    0.3436   50.2209   26.8251 H   0  0  0  0  0  0
    0.7039   50.0065   24.7815 N   0  0  0  0  0  0
    1.0212   50.5352   23.5681 C   0  0  0  0  0  0
    1.2073   49.7735   22.6193 O   0  0  0  0  0  0
   -1.2904   51.1108   25.9494 C   0  0  0  0  0  0
   -1.9619   51.1779   27.1786 C   0  0  0  0  0  0
   -3.3334   51.4275   27.2347 C   0  0  0  0  0  0
   -4.0497   51.6408   26.0602 C   0  0  0  0  0  0
   -3.3982   51.5881   24.8315 C   0  0  0  0  0  0
   -2.0304   51.3242   24.7779 C   0  0  0  0  0  0
   -4.0916   51.7877   23.6879 F   0  0  0  0  0  0
    1.5171   52.5504   27.2824 C   0  0  0  0  0  0
    0.9239   52.1896   28.3041 O   0  0  0  0  0  0
    2.6270   53.3294   27.3268 O   0  0  0  0  0  0
    3.1134   53.8774   28.5498 C   0  0  0  0  0  0
    2.2955   55.1106   28.9753 C   0  0  0  0  0  0
    2.2944   53.9129   24.5106 C   0  0  0  0  0  0
    3.8078   53.6970   24.2024 N   0  3  2  0  0  0
    4.7405   54.7211   24.9052 C   0  0  0  0  0  0
    6.2369   54.3682   24.8408 C   0  0  0  0  0  0
    6.9837   54.7825   23.5490 C   0  0  0  0  0  0
    6.2881   54.5100   22.2798 N   0  0  0  0  0  0
    5.5038   53.2655   22.2779 C   0  0  0  0  0  0
    4.0425   53.4637   22.6853 C   0  0  0  0  0  0
    6.3634   55.3886   21.2321 C   0  0  0  0  0  0
    6.9960   56.4465   21.2823 O   0  0  0  0  0  0
    5.7322   55.0054   20.0970 N   0  0  0  0  0  0
    5.9558   55.4776   18.7218 C   0  0  0  0  0  0
    5.7022   56.9992   18.5569 C   0  0  0  0  0  0
    4.9639   54.7224   17.8153 C   0  0  0  0  0  0
    7.3965   55.1434   18.2652 C   0  0  0  0  0  0
   -0.4014   52.8953   20.6072 H   0  0  0  0  0  0
   -0.7097   51.3714   21.4082 H   0  0  0  0  0  0
   -1.1477   52.8963   22.2053 H   0  0  0  0  0  0
    1.2885   53.5474   22.1678 H   0  0  0  0  0  0
    1.7062   52.0125   21.5031 H   0  0  0  0  0  0
    0.4264   49.0367   24.7605 H   0  0  0  0  0  0
   -1.4292   51.0013   28.1020 H   0  0  0  0  0  0
   -3.8333   51.4515   28.1913 H   0  0  0  0  0  0
   -5.1112   51.8345   26.0987 H   0  0  0  0  0  0
   -1.5655   51.2744   23.8106 H   0  0  0  0  0  0
    3.1214   53.1226   29.3393 H   0  0  0  0  0  0
    4.1518   54.1721   28.3948 H   0  0  0  0  0  0
    2.7053   55.5602   29.8804 H   0  0  0  0  0  0
    2.2943   55.8736   28.1943 H   0  0  0  0  0  0
    1.2563   54.8437   29.1822 H   0  0  0  0  0  0
    2.2591   54.4968   25.4154 H   0  0  0  0  0  0
    1.8926   54.6065   23.7706 H   0  0  0  0  0  0
    4.4193   54.7188   25.9475 H   0  0  0  0  0  0
    4.5534   55.6958   24.4821 H   0  0  0  0  0  0
    6.3546   53.2976   24.9998 H   0  0  0  0  0  0
    6.7479   54.8193   25.6906 H   0  0  0  0  0  0
    7.8790   54.1581   23.5259 H   0  0  0  0  0  0
    7.2872   55.8299   23.6194 H   0  0  0  0  0  0
    5.4969   52.8578   21.2650 H   0  0  0  0  0  0
    5.9973   52.4696   22.8360 H   0  0  0  0  0  0
    3.5598   54.2805   22.1421 H   0  0  0  0  0  0
    3.5207   52.5360   22.4758 H   0  0  0  0  0  0
    5.1505   54.1849   20.1556 H   0  0  0  0  0  0
    5.7956   57.3051   17.5125 H   0  0  0  0  0  0
    6.4149   57.6020   19.1175 H   0  0  0  0  0  0
    4.7048   57.2952   18.8810 H   0  0  0  0  0  0
    5.1077   53.6415   17.8649 H   0  0  0  0  0  0
    3.9300   54.9260   18.0969 H   0  0  0  0  0  0
    5.0752   55.0117   16.7692 H   0  0  0  0  0  0
    7.6050   54.0754   18.3370 H   0  0  0  0  0  0
    7.5689   55.4389   17.2286 H   0  0  0  0  0  0
    8.1426   55.6590   18.8709 H   0  0  0  0  0  0
    4.0425   52.8324   24.6774 H   0  0  0  0  0  0
  1  2  1  0  0  0
  1 38  1  0  0  0
  1 39  1  0  0  0
  1 40  1  0  0  0
  2  3  1  0  0  0
  2 41  1  0  0  0
  2 42  1  0  0  0
  3  9  1  0  0  0
  3  4  1  0  0  0
  4  5  2  0  0  0
  4 23  1  0  0  0
  5  6  1  0  0  0
  5 18  1  0  0  0
  6  7  1  0  0  0
  6  8  1  0  0  0
  6 11  1  0  0  0
  8  9  1  0  0  0
  8 43  1  0  0  0
  9 10  2  0  0  0
 11 16  2  0  0  0
 11 12  1  0  0  0
 12 13  2  0  0  0
 12 44  1  0  0  0
 13 14  1  0  0  0
 13 45  1  0  0  0
 14 15  2  0  0  0
 14 46  1  0  0  0
 15 16  1  0  0  0
 15 17  1  0  0  0
 16 47  1  0  0  0
 18 19  2  0  0  0
 18 20  1  0  0  0
 20 21  1  0  0  0
 21 22  1  0  0  0
 21 48  1  0  0  0
 21 49  1  0  0  0
 22 50  1  0  0  0
 22 51  1  0  0  0
 22 52  1  0  0  0
 23 24  1  0  0  0
 23 53  1  0  0  0
 23 54  1  0  0  0
 24 30  1  0  0  0
 24 25  1  0  0  0
 24 75  1  0  0  0
 25 26  1  0  0  0
 25 55  1  0  0  0
 25 56  1  0  0  0
 26 27  1  0  0  0
 26 57  1  0  0  0
 26 58  1  0  0  0
 27 28  1  0  0  0
 27 59  1  0  0  0
 27 60  1  0  0  0
 28 29  1  0  0  0
 28 31  1  0  0  0
 29 30  1  0  0  0
 29 61  1  0  0  0
 29 62  1  0  0  0
 30 63  1  0  0  0
 30 64  1  0  0  0
 31 32  2  0  0  0
 31 33  1  0  0  0
 33 34  1  0  0  0
 33 65  1  0  0  0
 34 35  1  0  0  0
 34 36  1  0  0  0
 34 37  1  0  0  0
 35 66  1  0  0  0
 35 67  1  0  0  0
 35 68  1  0  0  0
 36 69  1  0  0  0
 36 70  1  0  0  0
 36 71  1  0  0  0
 37 72  1  0  0  0
 37 73  1  0  0  0
 37 74  1  0  0  0
M  CHG  1  24   1
M  END
> <i_i_glide_confnum>
131

> <i_i_glide_lignum>
2919

> <i_i_glide_posenum>
254

> <i_i_glide_rotatable_bonds>
10

> <i_m_Source_File_Index>
1401

> <b_m_subgroup_collapsed>
0

> <r_i_docking_score>
-5.32889

> <r_i_glide_ecoul>
-2.94033

> <r_i_glide_eff_state_penalty>
0

> <r_i_glide_einternal>
9.70594

> <r_i_glide_emodel>
-52.9488

> <r_i_glide_energy>
-40.8835

> <r_i_glide_erotb>
0.56211

> <r_i_glide_esite>
-0.00892707

> <r_i_glide_evdw>
-37.9432

> <r_i_glide_gscore>
-5.32889

> <r_i_glide_hbond>
-0.24727

> <r_i_glide_ligand_efficiency>
-0.148025

> <r_i_glide_ligand_efficiency_ln>
-1.16262

> <r_i_glide_ligand_efficiency_sa>
-0.488767

> <r_i_glide_lipo>
-2.21097

> <r_i_glide_metal>
0

> <r_i_glide_rewards>
-1.08562

> <s_i_glide_gridfile>
wee1_glide-grid

> <s_m_Source_File>
wee1_decoys_glide_SP.sdf

> <s_m_Source_Path>
/Users/zhangxujun/Desktop

> <s_m_entry_id>
1676

> <s_m_entry_name>
wee1_decoys_glide_SP.1401

> <s_m_subgroup_title>
wee1_decoys_glide_SP

> <s_m_subgroupid>
wee1_decoys_glide_SP


$$$$
