ZINC50323987_1798
                    3D
 Schrodinger Suite 2024-2.
 38 40  0  0  1  0            999 V2000
    2.7846   53.5326   25.4681 C   0  0  0  0  0  0
    3.1180   53.4727   26.9729 C   0  0  0  0  0  0
    4.6478   53.5511   27.2277 C   0  0  1  0  0  0
    5.1036   52.6607   26.7898 H   0  0  0  0  0  0
    5.2699   54.7560   26.4895 C   0  0  0  0  0  0
    4.9306   54.6277   25.0616 N   0  0  0  0  0  0
    3.4848   54.7230   24.7861 C   0  0  0  0  0  0
    5.9247   54.4181   24.1551 C   0  0  0  0  0  0
    7.1043   54.3125   24.4888 O   0  0  0  0  0  0
    5.6013   54.3753   22.7472 C   0  0  0  0  0  0
    6.3050   54.8974   21.6609 C   0  0  0  0  0  0
    5.5519   54.5208   20.5267 C   0  0  0  0  0  0
    4.5113   53.7872   20.8523 N   0  0  0  0  0  0
    4.5686   53.6774   22.1751 N   0  0  0  0  0  0
    3.8845   53.1467   22.6930 H   0  0  0  0  0  0
    5.8135   54.8214   19.0647 C   0  0  0  0  0  0
    7.1670   54.5459   18.4507 C   0  0  0  0  0  0
    5.9706   53.6964   18.0685 C   0  0  0  0  0  0
    7.4784   55.6071   21.6810 N   0  0  0  0  0  0
    5.0266   53.5607   28.7166 C   0  0  0  0  0  0
    4.4388   54.5591   29.3760 F   0  0  0  0  0  0
    4.6725   52.4208   29.3082 F   0  0  0  0  0  0
    6.3452   53.6981   28.8630 F   0  0  0  0  0  0
    1.7054   53.6197   25.3352 H   0  0  0  0  0  0
    3.0673   52.6053   24.9719 H   0  0  0  0  0  0
    2.6266   54.3077   27.4758 H   0  0  0  0  0  0
    2.6982   52.5762   27.4326 H   0  0  0  0  0  0
    6.3423   54.8623   26.6695 H   0  0  0  0  0  0
    4.8419   55.6865   26.8604 H   0  0  0  0  0  0
    3.1579   55.6329   25.2813 H   0  0  0  0  0  0
    3.2063   54.9076   23.7489 H   0  0  0  0  0  0
    5.2918   55.7080   18.7072 H   0  0  0  0  0  0
    7.9516   54.1052   19.0678 H   0  0  0  0  0  0
    7.5631   55.2583   17.7258 H   0  0  0  0  0  0
    5.5219   53.8113   17.0815 H   0  0  0  0  0  0
    5.9143   52.6669   18.4258 H   0  0  0  0  0  0
    8.0177   55.6916   22.5383 H   0  0  0  0  0  0
    7.9552   55.8432   20.8225 H   0  0  0  0  0  0
  1  7  1  0  0  0
  1  2  1  0  0  0
  1 24  1  0  0  0
  1 25  1  0  0  0
  2  3  1  0  0  0
  2 26  1  0  0  0
  2 27  1  0  0  0
  3  4  1  0  0  0
  3  5  1  0  0  0
  3 20  1  0  0  0
  5  6  1  0  0  0
  5 28  1  0  0  0
  5 29  1  0  0  0
  6  7  1  0  0  0
  6  8  1  0  0  0
  7 30  1  0  0  0
  7 31  1  0  0  0
  8  9  2  0  0  0
  8 10  1  0  0  0
 10 14  1  0  0  0
 10 11  2  0  0  0
 11 12  1  0  0  0
 11 19  1  0  0  0
 12 13  2  0  0  0
 12 16  1  0  0  0
 13 14  1  0  0  0
 14 15  1  0  0  0
 16 18  1  0  0  0
 16 17  1  0  0  0
 16 32  1  0  0  0
 17 18  1  0  0  0
 17 33  1  0  0  0
 17 34  1  0  0  0
 18 35  1  0  0  0
 18 36  1  0  0  0
 19 37  1  0  0  0
 19 38  1  0  0  0
 20 21  1  0  0  0
 20 22  1  0  0  0
 20 23  1  0  0  0
M  END
> <i_i_glide_confnum>
3

> <i_i_glide_lignum>
1799

> <i_i_glide_posenum>
38

> <i_i_glide_rotatable_bonds>
4

> <i_m_Source_File_Index>
789

> <b_m_subgroup_collapsed>
0

> <r_i_docking_score>
-6.1445

> <r_i_glide_ecoul>
-2.60526

> <r_i_glide_eff_state_penalty>
0

> <r_i_glide_einternal>
1.33041

> <r_i_glide_emodel>
-43.9368

> <r_i_glide_energy>
-31.825

> <r_i_glide_erotb>
0.604381

> <r_i_glide_esite>
0

> <r_i_glide_evdw>
-29.2197

> <r_i_glide_gscore>
-6.1445

> <r_i_glide_hbond>
-0.282007

> <r_i_glide_ligand_efficiency>
-0.292595

> <r_i_glide_ligand_efficiency_ln>
-1.51922

> <r_i_glide_ligand_efficiency_sa>
-0.807248

> <r_i_glide_lipo>
-1.86725

> <r_i_glide_metal>
0

> <r_i_glide_rewards>
-2.74785

> <s_i_glide_gridfile>
wee1_glide-grid

> <s_m_Source_File>
wee1_decoys_glide_SP.sdf

> <s_m_Source_Path>
/Users/zhangxujun/Desktop

> <s_m_entry_id>
1064

> <s_m_entry_name>
wee1_decoys_glide_SP.789

> <s_m_subgroup_title>
wee1_decoys_glide_SP

> <s_m_subgroupid>
wee1_decoys_glide_SP


$$$$
