ZINC09381924_2394
                    3D
 Schrodinger Suite 2024-2.
 48 51  0  0  1  0            999 V2000
    5.3243   56.2243   18.6561 C   0  0  0  0  0  0
    4.5828   55.9842   17.5050 C   0  0  0  0  0  0
    4.0822   54.7097   17.2568 C   0  0  0  0  0  0
    4.3289   53.6730   18.1596 C   0  0  0  0  0  0
    5.0673   53.9191   19.3173 C   0  0  0  0  0  0
    5.5661   55.2025   19.5851 C   0  0  0  0  0  0
    6.3645   55.5125   20.8355 C   0  0  0  0  0  0
    7.1051   56.4968   20.8642 O   0  0  0  0  0  0
    6.1988   54.6833   21.8864 N   0  0  0  0  0  0
    6.7014   55.0399   23.1554 N   0  0  0  0  0  0
    6.0134   54.6356   24.2779 C   0  0  0  0  0  0
    6.5848   54.5155   25.4391 N   0  0  0  0  0  0
    5.6736   54.2069   26.4032 C   0  0  0  0  0  0
    5.9655   54.0133   27.7613 C   0  0  0  0  0  0
    4.9096   53.7365   28.6317 C   0  0  0  0  0  0
    3.5937   53.6404   28.1871 C   0  0  0  0  0  0
    3.2787   53.8121   26.8416 C   0  0  0  0  0  0
    4.3272   54.0949   25.9526 C   0  0  0  0  0  0
    4.2776   54.3608   24.2226 S   0  0  0  0  0  0
    2.6096   53.3725   29.0750 F   0  0  0  0  0  0
    7.2338   54.0969   28.2255 F   0  0  0  0  0  0
    3.1370   54.4197   15.7565 S   0  0  0  0  0  0
    3.1621   52.9767   15.4933 O   0  0  0  0  0  0
    3.6368   55.3666   14.7519 O   0  0  0  0  0  0
    1.4668   54.8778   16.1483 N   0  0  0  0  0  0
    1.2614   56.3167   16.4547 C   0  0  0  0  0  0
   -0.2367   56.6755   16.3984 C   0  0  0  0  0  0
   -1.0922   55.7353   17.2739 C   0  0  0  0  0  0
   -0.7718   54.2468   17.0164 C   0  0  0  0  0  0
    0.7439   53.9571   17.0600 C   0  0  0  0  0  0
    5.6945   57.2244   18.8280 H   0  0  0  0  0  0
    4.4038   56.7906   16.8093 H   0  0  0  0  0  0
    3.9661   52.6731   17.9631 H   0  0  0  0  0  0
    5.2467   53.0931   19.9887 H   0  0  0  0  0  0
    5.4242   54.0364   21.9326 H   0  0  0  0  0  0
    7.7066   54.9024   23.1692 H   0  0  0  0  0  0
    5.1044   53.5932   29.6803 H   0  0  0  0  0  0
    2.2557   53.7260   26.5010 H   0  0  0  0  0  0
    1.8202   56.9330   15.7504 H   0  0  0  0  0  0
    1.5709   56.4979   17.4838 H   0  0  0  0  0  0
   -0.5796   56.6318   15.3636 H   0  0  0  0  0  0
   -0.3804   57.7107   16.7166 H   0  0  0  0  0  0
   -0.9169   55.9709   18.3243 H   0  0  0  0  0  0
   -2.1522   55.9261   17.0995 H   0  0  0  0  0  0
   -1.2856   53.6208   17.7464 H   0  0  0  0  0  0
   -1.1634   53.9522   16.0402 H   0  0  0  0  0  0
    0.9363   52.9207   16.7748 H   0  0  0  0  0  0
    1.0623   54.1613   18.0822 H   0  0  0  0  0  0
  1  6  2  0  0  0
  1  2  1  0  0  0
  1 31  1  0  0  0
  2  3  2  0  0  0
  2 32  1  0  0  0
  3  4  1  0  0  0
  3 22  1  0  0  0
  4  5  2  0  0  0
  4 33  1  0  0  0
  5  6  1  0  0  0
  5 34  1  0  0  0
  6  7  1  0  0  0
  7  8  2  0  0  0
  7  9  1  0  0  0
  9 10  1  0  0  0
  9 35  1  0  0  0
 10 11  1  0  0  0
 10 36  1  0  0  0
 11 19  1  0  0  0
 11 12  2  0  0  0
 12 13  1  0  0  0
 13 18  2  0  0  0
 13 14  1  0  0  0
 14 15  2  0  0  0
 14 21  1  0  0  0
 15 16  1  0  0  0
 15 37  1  0  0  0
 16 17  2  0  0  0
 16 20  1  0  0  0
 17 18  1  0  0  0
 17 38  1  0  0  0
 18 19  1  0  0  0
 22 23  2  0  0  0
 22 24  2  0  0  0
 22 25  1  0  0  0
 25 30  1  0  0  0
 25 26  1  0  0  0
 26 27  1  0  0  0
 26 39  1  0  0  0
 26 40  1  0  0  0
 27 28  1  0  0  0
 27 41  1  0  0  0
 27 42  1  0  0  0
 28 29  1  0  0  0
 28 43  1  0  0  0
 28 44  1  0  0  0
 29 30  1  0  0  0
 29 45  1  0  0  0
 29 46  1  0  0  0
 30 47  1  0  0  0
 30 48  1  0  0  0
M  END
> <i_i_glide_confnum>
159

> <i_i_glide_lignum>
2395

> <i_i_glide_posenum>
341

> <i_i_glide_rotatable_bonds>
6

> <i_m_Source_File_Index>
3174

> <b_m_subgroup_collapsed>
0

> <r_i_docking_score>
-7.02334

> <r_i_glide_ecoul>
-5.24122

> <r_i_glide_eff_state_penalty>
0

> <r_i_glide_einternal>
3.61252

> <r_i_glide_emodel>
-66.1963

> <r_i_glide_energy>
-45.8268

> <r_i_glide_erotb>
0.489988

> <r_i_glide_esite>
-0.016932

> <r_i_glide_evdw>
-40.5856

> <r_i_glide_gscore>
-7.02334

> <r_i_glide_hbond>
-0.555771

> <r_i_glide_ligand_efficiency>
-0.234111

> <r_i_glide_ligand_efficiency_ln>
-1.59578

> <r_i_glide_ligand_efficiency_sa>
-0.727438

> <r_i_glide_lipo>
-2.35378

> <r_i_glide_metal>
0

> <r_i_glide_rewards>
-1.77139

> <s_i_glide_gridfile>
wee1_glide-grid

> <s_m_Source_File>
wee1_decoys_glide_SP.sdf

> <s_m_Source_Path>
/Users/zhangxujun/Desktop

> <s_m_entry_id>
3449

> <s_m_entry_name>
wee1_decoys_glide_SP.3174

> <s_m_subgroup_title>
wee1_decoys_glide_SP

> <s_m_subgroupid>
wee1_decoys_glide_SP


$$$$
