ZINC25781939_2406
                    3D
 Schrodinger Suite 2024-2.
 50 53  0  0  1  0            999 V2000
    4.1344   57.7663   16.9983 C   0  0  0  0  0  0
    4.2946   56.5525   17.6643 C   0  0  0  0  0  0
    5.5693   56.0114   17.8657 C   0  0  0  0  0  0
    6.6817   56.7260   17.3998 C   0  0  0  0  0  0
    6.5402   57.9647   16.7576 C   0  0  0  0  0  0
    5.2506   58.4755   16.5600 C   0  0  0  0  0  0
    7.7313   58.7183   16.2977 N   0  3  0  0  0  0
    8.8308   58.4002   16.7432 O   0  0  0  0  0  0
    7.5757   59.6248   15.4837 O   0  5  0  0  0  0
    5.7340   54.6377   18.5519 C   0  0  2  0  0  0
    6.6955   54.2810   18.1721 H   0  0  0  0  0  0
    4.6967   53.6164   18.0913 C   0  0  0  0  0  0
    3.8859   52.9576   18.9445 C   0  0  0  0  0  0
    3.9916   53.1044   20.3406 N   0  0  0  0  0  0
    4.9636   53.9655   20.9057 C   0  0  0  0  0  0
    5.8233   54.6751   20.1032 C   0  0  0  0  0  0
    6.9518   55.4543   20.6676 C   0  0  0  0  0  0
    7.9058   55.8377   19.9952 O   0  0  0  0  0  0
    6.9810   55.6648   22.1769 C   0  0  0  0  0  0
    6.4937   54.4334   22.9435 C   0  0  0  0  0  0
    5.1094   53.9802   22.4519 C   0  0  0  0  0  0
    3.1645   52.3236   21.1977 C   0  0  0  0  0  0
    3.2512   50.9247   21.1900 C   0  0  0  0  0  0
    2.4749   50.1524   22.0544 C   0  0  0  0  0  0
    1.6258   50.7734   22.9679 C   0  0  0  0  0  0
    1.5290   52.1692   23.0036 C   0  0  0  0  0  0
    2.2670   52.9289   22.0847 C   0  0  0  0  0  0
    0.6766   52.8521   24.0722 C   0  0  0  0  0  0
    1.1048   54.0966   24.2879 F   0  0  0  0  0  0
   -0.5964   52.8969   23.6806 F   0  0  0  0  0  0
    0.7421   52.1900   25.2285 F   0  0  0  0  0  0
    2.9145   52.0967   18.4708 N   0  0  0  0  0  0
    4.5731   53.4193   16.6788 C   0  0  0  0  0  0
    4.4508   53.2853   15.5360 N   0  0  0  0  0  0
    3.1473   58.1773   16.8486 H   0  0  0  0  0  0
    3.4181   56.0262   18.0125 H   0  0  0  0  0  0
    7.6716   56.3116   17.5342 H   0  0  0  0  0  0
    5.1062   59.4352   16.0805 H   0  0  0  0  0  0
    6.3049   56.4914   22.3597 H   0  0  0  0  0  0
    7.9735   55.9931   22.4817 H   0  0  0  0  0  0
    6.4378   54.6728   24.0067 H   0  0  0  0  0  0
    7.2253   53.6261   22.8816 H   0  0  0  0  0  0
    4.3045   54.5585   22.9067 H   0  0  0  0  0  0
    5.0202   52.9706   22.8508 H   0  0  0  0  0  0
    3.9284   50.4382   20.5036 H   0  0  0  0  0  0
    2.5581   49.0755   22.0368 H   0  0  0  0  0  0
    1.0628   50.1646   23.6638 H   0  0  0  0  0  0
    2.1841   54.0068   22.0841 H   0  0  0  0  0  0
    2.8594   51.9297   17.4762 H   0  0  0  0  0  0
    2.5955   51.3397   19.0552 H   0  0  0  0  0  0
  1  6  2  0  0  0
  1  2  1  0  0  0
  1 35  1  0  0  0
  2  3  2  0  0  0
  2 36  1  0  0  0
  3  4  1  0  0  0
  3 10  1  0  0  0
  4  5  2  0  0  0
  4 37  1  0  0  0
  5  6  1  0  0  0
  5  7  1  0  0  0
  6 38  1  0  0  0
  7  8  2  0  0  0
  7  9  1  0  0  0
 10 11  1  0  0  0
 10 16  1  0  0  0
 10 12  1  0  0  0
 12 13  2  0  0  0
 12 33  1  0  0  0
 13 14  1  0  0  0
 13 32  1  0  0  0
 14 15  1  0  0  0
 14 22  1  0  0  0
 15 21  1  0  0  0
 15 16  2  0  0  0
 16 17  1  0  0  0
 17 18  2  0  0  0
 17 19  1  0  0  0
 19 20  1  0  0  0
 19 39  1  0  0  0
 19 40  1  0  0  0
 20 21  1  0  0  0
 20 41  1  0  0  0
 20 42  1  0  0  0
 21 43  1  0  0  0
 21 44  1  0  0  0
 22 27  2  0  0  0
 22 23  1  0  0  0
 23 24  2  0  0  0
 23 45  1  0  0  0
 24 25  1  0  0  0
 24 46  1  0  0  0
 25 26  2  0  0  0
 25 47  1  0  0  0
 26 27  1  0  0  0
 26 28  1  0  0  0
 27 48  1  0  0  0
 28 29  1  0  0  0
 28 30  1  0  0  0
 28 31  1  0  0  0
 32 49  1  0  0  0
 32 50  1  0  0  0
 33 34  3  0  0  0
M  CHG  2   7   1   9  -1
M  END
> <i_i_glide_confnum>
4

> <i_i_glide_lignum>
2407

> <i_i_glide_posenum>
265

> <i_i_glide_rotatable_bonds>
5

> <i_m_Source_File_Index>
1154

> <b_m_subgroup_collapsed>
0

> <r_i_docking_score>
-4.85207

> <r_i_glide_ecoul>
-1.51938

> <r_i_glide_eff_state_penalty>
0

> <r_i_glide_einternal>
4.99295

> <r_i_glide_emodel>
-46.4165

> <r_i_glide_energy>
-36.6565

> <r_i_glide_erotb>
0.194506

> <r_i_glide_esite>
-0.200231

> <r_i_glide_evdw>
-35.1372

> <r_i_glide_gscore>
-4.85207

> <r_i_glide_hbond>
0

> <r_i_glide_ligand_efficiency>
-0.147032

> <r_i_glide_ligand_efficiency_ln>
-1.07907

> <r_i_glide_ligand_efficiency_sa>
-0.471611

> <r_i_glide_lipo>
-1.82943

> <r_i_glide_metal>
0

> <r_i_glide_rewards>
-1.03215

> <s_i_glide_gridfile>
wee1_glide-grid

> <s_m_Source_File>
wee1_decoys_glide_SP.sdf

> <s_m_Source_Path>
/Users/zhangxujun/Desktop

> <s_m_entry_id>
1429

> <s_m_entry_name>
wee1_decoys_glide_SP.1154

> <s_m_subgroup_title>
wee1_decoys_glide_SP

> <s_m_subgroupid>
wee1_decoys_glide_SP


$$$$
