ZINC00106530_3756
                    3D
 Schrodinger Suite 2024-2.
 43 45  0  0  1  0            999 V2000
   -2.4806   48.6373   24.9850 C   0  0  0  0  0  0
   -2.8454   50.1415   24.9440 C   0  0  0  0  0  0
   -3.3896   50.4539   23.5242 C   0  0  0  0  0  0
   -3.9905   50.4098   25.9499 C   0  0  0  0  0  0
   -1.6101   50.9919   25.3251 C   0  0  0  0  0  0
   -1.0509   51.9354   24.4556 C   0  0  0  0  0  0
    0.0613   52.6783   24.8373 C   0  0  0  0  0  0
    0.6524   52.4970   26.0964 C   0  0  0  0  0  0
    0.0981   51.5506   26.9637 C   0  0  0  0  0  0
   -1.0201   50.8203   26.5821 C   0  0  0  0  0  0
    1.8806   53.3487   26.4948 C   0  0  2  0  0  0
    1.5040   54.3597   26.6511 H   0  0  0  0  0  0
    2.8853   53.4798   25.3143 C   0  0  0  0  0  0
    4.2244   54.0813   25.6971 C   0  0  0  0  0  0
    4.6419   54.1674   27.0404 C   0  0  0  0  0  0
    5.8911   54.7628   27.2569 C   0  0  0  0  0  0
    6.7054   55.1490   26.2452 N   0  0  0  0  0  0
    6.2417   54.9615   24.9912 C   0  0  0  0  0  0
    5.0180   54.4964   24.6725 N   0  0  0  0  0  0
    7.0980   55.2143   23.9304 N   0  0  0  0  0  0
    3.7697   53.7756   28.1827 C   0  0  0  0  0  0
    4.0164   54.1103   29.3418 O   0  0  0  0  0  0
    2.5784   52.8915   27.8041 C   0  0  0  0  0  0
   -3.3294   48.0111   24.7040 H   0  0  0  0  0  0
   -2.1719   48.3152   25.9807 H   0  0  0  0  0  0
   -1.6652   48.4061   24.3010 H   0  0  0  0  0  0
   -3.7037   51.4946   23.4318 H   0  0  0  0  0  0
   -2.6431   50.2580   22.7531 H   0  0  0  0  0  0
   -4.2592   49.8404   23.2827 H   0  0  0  0  0  0
   -4.2654   51.4657   25.9648 H   0  0  0  0  0  0
   -4.8879   49.8427   25.6982 H   0  0  0  0  0  0
   -3.7183   50.1276   26.9673 H   0  0  0  0  0  0
   -1.4664   52.1164   23.4764 H   0  0  0  0  0  0
    0.4432   53.4057   24.1359 H   0  0  0  0  0  0
    0.5118   51.3678   27.9459 H   0  0  0  0  0  0
   -1.4218   50.1020   27.2803 H   0  0  0  0  0  0
    3.1037   52.4966   24.9142 H   0  0  0  0  0  0
    2.4717   54.0728   24.4977 H   0  0  0  0  0  0
    6.2855   54.9108   28.2548 H   0  0  0  0  0  0
    8.1039   55.3180   24.0764 H   0  0  0  0  0  0
    6.7525   55.0017   23.0068 H   0  0  0  0  0  0
    1.8604   52.9710   28.6203 H   0  0  0  0  0  0
    2.9225   51.8666   27.6814 H   0  0  0  0  0  0
  1  2  1  0  0  0
  1 24  1  0  0  0
  1 25  1  0  0  0
  1 26  1  0  0  0
  2  3  1  0  0  0
  2  4  1  0  0  0
  2  5  1  0  0  0
  3 27  1  0  0  0
  3 28  1  0  0  0
  3 29  1  0  0  0
  4 30  1  0  0  0
  4 31  1  0  0  0
  4 32  1  0  0  0
  5 10  2  0  0  0
  5  6  1  0  0  0
  6  7  2  0  0  0
  6 33  1  0  0  0
  7  8  1  0  0  0
  7 34  1  0  0  0
  8  9  2  0  0  0
  8 11  1  0  0  0
  9 10  1  0  0  0
  9 35  1  0  0  0
 10 36  1  0  0  0
 11 12  1  0  0  0
 11 23  1  0  0  0
 11 13  1  0  0  0
 13 14  1  0  0  0
 13 37  1  0  0  0
 13 38  1  0  0  0
 14 19  2  0  0  0
 14 15  1  0  0  0
 15 16  2  0  0  0
 15 21  1  0  0  0
 16 17  1  0  0  0
 16 39  1  0  0  0
 17 18  2  0  0  0
 18 19  1  0  0  0
 18 20  1  0  0  0
 20 40  1  0  0  0
 20 41  1  0  0  0
 21 22  2  0  0  0
 21 23  1  0  0  0
 23 42  1  0  0  0
 23 43  1  0  0  0
M  END
> <i_i_glide_confnum>
2

> <i_i_glide_lignum>
3757

> <i_i_glide_posenum>
372

> <i_i_glide_rotatable_bonds>
2

> <i_m_Source_File_Index>
437

> <b_m_subgroup_collapsed>
0

> <r_i_docking_score>
-7.60772

> <r_i_glide_ecoul>
-8.67607

> <r_i_glide_eff_state_penalty>
0

> <r_i_glide_einternal>
1.31182

> <r_i_glide_emodel>
-51.1963

> <r_i_glide_energy>
-35.129

> <r_i_glide_erotb>
0.146849

> <r_i_glide_esite>
-0.00182143

> <r_i_glide_evdw>
-26.453

> <r_i_glide_gscore>
-7.60772

> <r_i_glide_hbond>
-0.608

> <r_i_glide_ligand_efficiency>
-0.345805

> <r_i_glide_ligand_efficiency_ln>
-1.8596

> <r_i_glide_ligand_efficiency_sa>
-0.96896

> <r_i_glide_lipo>
-1.46019

> <r_i_glide_metal>
0

> <r_i_glide_rewards>
-3.0605

> <s_i_glide_gridfile>
wee1_glide-grid

> <s_m_Source_File>
wee1_decoys_glide_SP.sdf

> <s_m_Source_Path>
/Users/zhangxujun/Desktop

> <s_m_entry_id>
712

> <s_m_entry_name>
wee1_decoys_glide_SP.437

> <s_m_subgroup_title>
wee1_decoys_glide_SP

> <s_m_subgroupid>
wee1_decoys_glide_SP


$$$$
