ZINC45471253_3283
                    3D
 Schrodinger Suite 2024-2.
 62 65  0  0  1  0            999 V2000
   -3.3583   49.7726   23.8139 C   0  0  0  0  0  0
   -3.4408   49.9420   22.2881 C   0  0  0  0  0  0
   -2.1473   49.9293   21.6896 O   0  0  0  0  0  0
   -1.3577   51.0296   21.6850 C   0  0  0  0  0  0
   -1.6947   52.1219   22.1484 O   0  0  0  0  0  0
   -0.0361   50.7795   21.0755 C   0  0  0  0  0  0
    0.3104   49.7394   20.1608 C   0  0  0  0  0  0
    1.6486   49.8142   19.7282 C   0  0  0  0  0  0
    2.5187   51.1091   20.4599 S   0  0  0  0  0  0
    1.1046   51.5673   21.3359 C   0  0  0  0  0  0
    1.2366   52.6345   22.2037 N   0  0  0  0  0  0
    1.3808   52.4476   23.5307 C   0  0  0  0  0  0
    1.5044   51.3385   24.0575 O   0  0  0  0  0  0
    1.3149   53.7092   24.4055 C   0  0  0  0  0  0
    2.3429   53.6876   25.4611 N   0  0  0  0  0  0
    1.7808   53.5204   26.8088 C   0  0  0  0  0  0
    2.8557   53.1440   27.8612 C   0  0  1  0  0  0
    3.1401   52.0976   27.7368 H   0  0  0  0  0  0
    3.9984   54.0042   27.7568 O   0  0  0  0  0  0
    4.5050   54.0970   26.4757 C   0  0  0  0  0  0
    3.7082   53.9560   25.3199 C   0  0  0  0  0  0
    4.3190   54.0987   24.0657 C   0  0  0  0  0  0
    5.6816   54.3826   23.9658 C   0  0  0  0  0  0
    6.4523   54.5311   25.1170 C   0  0  0  0  0  0
    5.8648   54.3943   26.3742 C   0  0  0  0  0  0
    2.2807   53.2828   29.2922 C   0  0  0  0  0  0
    2.7400   54.1116   30.0816 O   0  0  0  0  0  0
    1.2696   52.4617   29.6272 N   0  0  0  0  0  0
    0.5844   52.4939   30.9169 C   0  0  0  0  0  0
    2.2800   48.9351   18.6584 C   0  0  0  0  0  0
    1.4301   47.6595   18.4789 C   0  0  1  0  0  0
    1.5572   47.0216   19.3555 H   0  0  0  0  0  0
   -0.0478   48.0552   18.2996 C   0  0  0  0  0  0
   -0.6382   48.6733   19.5846 C   0  0  0  0  0  0
    1.9442   46.8619   17.2652 C   0  0  0  0  0  0
   -4.3539   49.7329   24.2551 H   0  0  0  0  0  0
   -2.8384   48.8523   24.0815 H   0  0  0  0  0  0
   -2.8246   50.6029   24.2779 H   0  0  0  0  0  0
   -3.9796   50.8561   22.0297 H   0  0  0  0  0  0
   -4.0122   49.1149   21.8670 H   0  0  0  0  0  0
    1.1668   53.5673   21.8217 H   0  0  0  0  0  0
    1.3937   54.6291   23.8237 H   0  0  0  0  0  0
    0.3042   53.6965   24.8136 H   0  0  0  0  0  0
    1.5095   54.5317   27.1105 H   0  0  0  0  0  0
    0.8300   52.9884   26.8671 H   0  0  0  0  0  0
    3.7483   53.9948   23.1556 H   0  0  0  0  0  0
    6.1375   54.4908   22.9921 H   0  0  0  0  0  0
    7.5045   54.7539   25.0256 H   0  0  0  0  0  0
    6.4567   54.5148   27.2699 H   0  0  0  0  0  0
    0.9370   51.7852   28.9550 H   0  0  0  0  0  0
   -0.3248   51.8931   30.8766 H   0  0  0  0  0  0
    1.2221   52.0928   31.7059 H   0  0  0  0  0  0
    0.2997   53.5113   31.1892 H   0  0  0  0  0  0
    3.3142   48.6830   18.8964 H   0  0  0  0  0  0
    2.3028   49.4993   17.7242 H   0  0  0  0  0  0
   -0.6322   47.1725   18.0336 H   0  0  0  0  0  0
   -0.1604   48.7199   17.4400 H   0  0  0  0  0  0
   -1.6176   49.0935   19.3537 H   0  0  0  0  0  0
   -0.8097   47.8933   20.3278 H   0  0  0  0  0  0
    1.8307   47.4292   16.3398 H   0  0  0  0  0  0
    3.0039   46.6246   17.3678 H   0  0  0  0  0  0
    1.4063   45.9207   17.1497 H   0  0  0  0  0  0
  1  2  1  0  0  0
  1 36  1  0  0  0
  1 37  1  0  0  0
  1 38  1  0  0  0
  2  3  1  0  0  0
  2 39  1  0  0  0
  2 40  1  0  0  0
  3  4  1  0  0  0
  4  5  2  0  0  0
  4  6  1  0  0  0
  6 10  2  0  0  0
  6  7  1  0  0  0
  7 34  1  0  0  0
  7  8  2  0  0  0
  8  9  1  0  0  0
  8 30  1  0  0  0
  9 10  1  0  0  0
 10 11  1  0  0  0
 11 12  1  0  0  0
 11 41  1  0  0  0
 12 13  2  0  0  0
 12 14  1  0  0  0
 14 15  1  0  0  0
 14 42  1  0  0  0
 14 43  1  0  0  0
 15 21  1  0  0  0
 15 16  1  0  0  0
 16 17  1  0  0  0
 16 44  1  0  0  0
 16 45  1  0  0  0
 17 18  1  0  0  0
 17 19  1  0  0  0
 17 26  1  0  0  0
 19 20  1  0  0  0
 20 25  2  0  0  0
 20 21  1  0  0  0
 21 22  2  0  0  0
 22 23  1  0  0  0
 22 46  1  0  0  0
 23 24  2  0  0  0
 23 47  1  0  0  0
 24 25  1  0  0  0
 24 48  1  0  0  0
 25 49  1  0  0  0
 26 27  2  0  0  0
 26 28  1  0  0  0
 28 29  1  0  0  0
 28 50  1  0  0  0
 29 51  1  0  0  0
 29 52  1  0  0  0
 29 53  1  0  0  0
 30 31  1  0  0  0
 30 54  1  0  0  0
 30 55  1  0  0  0
 31 32  1  0  0  0
 31 33  1  0  0  0
 31 35  1  0  0  0
 33 34  1  0  0  0
 33 56  1  0  0  0
 33 57  1  0  0  0
 34 58  1  0  0  0
 34 59  1  0  0  0
 35 60  1  0  0  0
 35 61  1  0  0  0
 35 62  1  0  0  0
M  END
> <i_i_glide_confnum>
32

> <i_i_glide_lignum>
3284

> <i_i_glide_posenum>
253

> <i_i_glide_rotatable_bonds>
9

> <i_m_Source_File_Index>
3183

> <b_m_subgroup_collapsed>
0

> <r_i_docking_score>
-5.9949

> <r_i_glide_ecoul>
-6.25497

> <r_i_glide_eff_state_penalty>
0

> <r_i_glide_einternal>
10.5403

> <r_i_glide_emodel>
-61.5858

> <r_i_glide_energy>
-49.2989

> <r_i_glide_erotb>
0.63628

> <r_i_glide_esite>
-0.00204286

> <r_i_glide_evdw>
-43.0439

> <r_i_glide_gscore>
-5.9949

> <r_i_glide_hbond>
-0.362341

> <r_i_glide_ligand_efficiency>
-0.181664

> <r_i_glide_ligand_efficiency_ln>
-1.33323

> <r_i_glide_ligand_efficiency_sa>
-0.582692

> <r_i_glide_lipo>
-2.23048

> <r_i_glide_metal>
0

> <r_i_glide_rewards>
-0.945872

> <s_i_glide_gridfile>
wee1_glide-grid

> <s_m_Source_File>
wee1_decoys_glide_SP.sdf

> <s_m_Source_Path>
/Users/zhangxujun/Desktop

> <s_m_entry_id>
3458

> <s_m_entry_name>
wee1_decoys_glide_SP.3183

> <s_m_subgroup_title>
wee1_decoys_glide_SP

> <s_m_subgroupid>
wee1_decoys_glide_SP


$$$$
