ZINC12941110_1951
                    3D
 Schrodinger Suite 2024-2.
 44 46  0  0  1  0            999 V2000
    3.1044   54.0967   26.2473 C   0  0  0  0  0  0
    3.5821   54.0675   24.9363 C   0  0  0  0  0  0
    4.9663   54.0967   24.7040 C   0  0  0  0  0  0
    5.8392   54.2133   25.7482 N   0  0  0  0  0  0
    5.3625   54.2525   27.0178 C   0  0  0  0  0  0
    3.9984   54.1894   27.3176 C   0  0  0  0  0  0
    3.4806   54.2424   28.7526 C   0  0  0  0  0  0
    2.5569   55.1974   28.8691 F   0  0  0  0  0  0
    2.9277   53.0716   29.0693 F   0  0  0  0  0  0
    4.4505   54.4967   29.6310 F   0  0  0  0  0  0
    5.5101   54.0606   23.4142 N   0  0  0  0  0  0
    6.9522   54.0127   23.1163 C   0  0  0  0  0  0
    7.3430   55.0138   22.0009 C   0  0  0  0  0  0
    6.4769   54.8967   20.7121 C   0  0  0  0  0  0
    4.9920   54.8227   21.1222 C   0  0  0  0  0  0
    4.7753   53.7183   22.1793 C   0  0  0  0  0  0
    6.8318   56.1138   19.8362 C   0  0  0  0  0  0
    6.7044   57.2618   20.2735 O   0  0  0  0  0  0
    7.3778   55.8161   18.6380 N   0  0  0  0  0  0
    8.2288   56.6569   17.9561 C   0  0  0  0  0  0
    9.3040   57.1908   18.4817 N   0  0  0  0  0  0
   10.0055   57.8710   17.5954 C   0  0  0  0  0  0
    9.4828   57.8641   16.3002 C   0  0  0  0  0  0
    8.0065   56.9404   16.2653 S   0  0  0  0  0  0
   11.2623   58.5572   18.1133 C   0  0  0  0  0  0
   10.9454   59.8865   18.8126 C   0  0  0  0  0  0
   11.7490   60.2921   19.6816 O   0  0  0  0  0  0
    9.9044   60.4967   18.4817 O   0  5  0  0  0  0
    2.0395   54.0578   26.4279 H   0  0  0  0  0  0
    2.8672   54.0136   24.1319 H   0  0  0  0  0  0
    6.1064   54.3372   27.7980 H   0  0  0  0  0  0
    7.2420   52.9893   22.8817 H   0  0  0  0  0  0
    7.5199   54.2863   24.0026 H   0  0  0  0  0  0
    8.3910   54.8488   21.7549 H   0  0  0  0  0  0
    7.2350   55.9867   22.4868 H   0  0  0  0  0  0
    6.7042   54.0414   20.0817 H   0  0  0  0  0  0
    4.7043   55.6967   21.6802 H   0  0  0  0  0  0
    4.3340   54.6236   20.2747 H   0  0  0  0  0  0
    5.1610   52.7660   21.8095 H   0  0  0  0  0  0
    3.7095   53.5610   22.3289 H   0  0  0  0  0  0
    7.2506   54.8910   18.2566 H   0  0  0  0  0  0
    9.8657   58.3508   15.4164 H   0  0  0  0  0  0
   11.9617   58.7573   17.3024 H   0  0  0  0  0  0
   11.7898   57.9098   18.8160 H   0  0  0  0  0  0
  1  6  2  0  0  0
  1  2  1  0  0  0
  1 29  1  0  0  0
  2  3  2  0  0  0
  2 30  1  0  0  0
  3  4  1  0  0  0
  3 11  1  0  0  0
  4  5  2  0  0  0
  5  6  1  0  0  0
  5 31  1  0  0  0
  6  7  1  0  0  0
  7  8  1  0  0  0
  7  9  1  0  0  0
  7 10  1  0  0  0
 11 16  1  0  0  0
 11 12  1  0  0  0
 12 13  1  0  0  0
 12 32  1  0  0  0
 12 33  1  0  0  0
 13 14  1  0  0  0
 13 34  1  0  0  0
 13 35  1  0  0  0
 14 15  1  0  0  0
 14 17  1  0  0  0
 14 36  1  0  0  0
 15 16  1  0  0  0
 15 37  1  0  0  0
 15 38  1  0  0  0
 16 39  1  0  0  0
 16 40  1  0  0  0
 17 18  2  0  0  0
 17 19  1  0  0  0
 19 20  1  0  0  0
 19 41  1  0  0  0
 20 24  1  0  0  0
 20 21  2  0  0  0
 21 22  1  0  0  0
 22 23  2  0  0  0
 22 25  1  0  0  0
 23 24  1  0  0  0
 23 42  1  0  0  0
 25 26  1  0  0  0
 25 43  1  0  0  0
 25 44  1  0  0  0
 26 27  2  0  0  0
 26 28  1  0  0  0
M  CHG  1  28  -1
M  END
> <i_i_glide_confnum>
30

> <i_i_glide_lignum>
1952

> <i_i_glide_posenum>
126

> <i_i_glide_rotatable_bonds>
7

> <i_m_Source_File_Index>
193

> <b_m_subgroup_collapsed>
0

> <r_i_docking_score>
-6.81543

> <r_i_glide_ecoul>
-9.33956

> <r_i_glide_eff_state_penalty>
0

> <r_i_glide_einternal>
9.76659

> <r_i_glide_emodel>
-53.1156

> <r_i_glide_energy>
-39.1873

> <r_i_glide_erotb>
0.57719

> <r_i_glide_esite>
-0.05079

> <r_i_glide_evdw>
-29.8477

> <r_i_glide_gscore>
-6.81543

> <r_i_glide_hbond>
-0.52

> <r_i_glide_ligand_efficiency>
-0.243408

> <r_i_glide_ligand_efficiency_ln>
-1.5732

> <r_i_glide_ligand_efficiency_sa>
-0.739131

> <r_i_glide_lipo>
-2.07864

> <r_i_glide_metal>
0

> <r_i_glide_rewards>
-1.84987

> <s_i_glide_gridfile>
wee1_glide-grid

> <s_m_Source_File>
wee1_decoys_glide_SP.sdf

> <s_m_Source_Path>
/Users/zhangxujun/Desktop

> <s_m_entry_id>
468

> <s_m_entry_name>
wee1_decoys_glide_SP.193

> <s_m_subgroup_title>
wee1_decoys_glide_SP

> <s_m_subgroupid>
wee1_decoys_glide_SP


$$$$
