ZINC20426679_3465
                    3D
 Schrodinger Suite 2024-2.
 40 41  0  0  1  0            999 V2000
   -1.8969   47.7593   21.5129 C   0  0  0  0  0  0
   -1.6671   47.9490   23.0002 C   0  0  0  0  0  0
   -2.0956   46.9847   23.9178 C   0  0  0  0  0  0
   -1.8774   47.1945   25.2813 C   0  0  0  0  0  0
   -1.2660   48.3251   25.6817 N   0  3  0  0  0  0
   -0.8433   49.2952   24.8464 C   0  0  0  0  0  0
   -1.0460   49.1095   23.4718 C   0  0  0  0  0  0
   -0.2442   50.4480   25.4385 N   0  0  0  0  0  0
   -0.0021   51.7826   24.8270 C   0  0  0  0  0  0
   -1.3887   52.4803   24.5154 C   0  0  0  0  0  0
   -1.2349   53.6964   23.9890 F   0  0  0  0  0  0
   -2.1634   51.7953   23.6741 F   0  0  0  0  0  0
   -2.1242   52.6407   25.6172 F   0  0  0  0  0  0
    0.7628   52.6627   25.8759 C   0  0  0  0  0  0
    0.0625   52.8967   26.9872 F   0  0  0  0  0  0
    1.9038   52.0967   26.2714 F   0  0  0  0  0  0
    1.1065   53.8435   25.3596 F   0  0  0  0  0  0
    0.9400   51.6436   23.6816 N   0  0  0  0  0  0
    0.8053   51.9755   22.3799 C   0  0  0  0  0  0
   -0.2729   52.0967   21.8011 O   0  0  0  0  0  0
    2.0896   52.2614   21.6463 C   0  0  0  0  0  0
    3.0357   53.1283   22.2204 C   0  0  0  0  0  0
    4.1891   53.4882   21.5241 C   0  0  0  0  0  0
    4.4153   52.9833   20.2460 C   0  0  0  0  0  0
    3.5030   52.0966   19.6813 C   0  0  0  0  0  0
    2.3493   51.7213   20.3704 C   0  0  0  0  0  0
    1.2856   50.5894   19.5983 Cl  0  0  0  0  0  0
    5.8132   53.4616   19.3530 Cl  0  0  0  0  0  0
   -2.7705   47.1351   21.3221 H   0  0  0  0  0  0
   -1.0235   47.3035   21.0449 H   0  0  0  0  0  0
   -2.0868   48.7177   21.0270 H   0  0  0  0  0  0
   -2.6000   46.0958   23.5739 H   0  0  0  0  0  0
   -2.1734   46.5232   26.0767 H   0  0  0  0  0  0
   -0.7370   49.8496   22.7588 H   0  0  0  0  0  0
   -0.1167   50.4128   26.4416 H   0  0  0  0  0  0
    1.8750   51.3753   23.9514 H   0  0  0  0  0  0
    2.8665   53.5660   23.1945 H   0  0  0  0  0  0
    4.8938   54.1771   21.9661 H   0  0  0  0  0  0
    3.6947   51.6967   18.6952 H   0  0  0  0  0  0
   -1.1778   48.4677   26.6915 H   0  0  0  0  0  0
  1  2  1  0  0  0
  1 29  1  0  0  0
  1 30  1  0  0  0
  1 31  1  0  0  0
  2  7  2  0  0  0
  2  3  1  0  0  0
  3  4  2  0  0  0
  3 32  1  0  0  0
  4  5  1  0  0  0
  4 33  1  0  0  0
  5  6  2  0  0  0
  5 40  1  0  0  0
  6  7  1  0  0  0
  6  8  1  0  0  0
  7 34  1  0  0  0
  8  9  1  0  0  0
  8 35  1  0  0  0
  9 10  1  0  0  0
  9 14  1  0  0  0
  9 18  1  0  0  0
 10 11  1  0  0  0
 10 12  1  0  0  0
 10 13  1  0  0  0
 14 15  1  0  0  0
 14 16  1  0  0  0
 14 17  1  0  0  0
 18 19  1  0  0  0
 18 36  1  0  0  0
 19 20  2  0  0  0
 19 21  1  0  0  0
 21 26  2  0  0  0
 21 22  1  0  0  0
 22 23  2  0  0  0
 22 37  1  0  0  0
 23 24  1  0  0  0
 23 38  1  0  0  0
 24 25  2  0  0  0
 24 28  1  0  0  0
 25 26  1  0  0  0
 25 39  1  0  0  0
 26 27  1  0  0  0
M  CHG  1   5   1
M  END
> <i_i_glide_confnum>
5

> <i_i_glide_lignum>
3466

> <i_i_glide_posenum>
302

> <i_i_glide_rotatable_bonds>
7

> <i_m_Source_File_Index>
2828

> <b_m_subgroup_collapsed>
0

> <r_i_docking_score>
-2.92987

> <r_i_glide_ecoul>
-5.84961

> <r_i_glide_eff_state_penalty>
0

> <r_i_glide_einternal>
3.56974

> <r_i_glide_emodel>
-34.3545

> <r_i_glide_energy>
-27.7353

> <r_i_glide_erotb>
0.400507

> <r_i_glide_esite>
-0.130296

> <r_i_glide_evdw>
-21.8857

> <r_i_glide_gscore>
-2.92987

> <r_i_glide_hbond>
-0.2

> <r_i_glide_ligand_efficiency>
-0.104638

> <r_i_glide_ligand_efficiency_ln>
-0.676301

> <r_i_glide_ligand_efficiency_sa>
-0.317744

> <r_i_glide_lipo>
-0.335086

> <r_i_glide_metal>
0

> <r_i_glide_rewards>
-0.69327

> <s_i_glide_gridfile>
wee1_glide-grid

> <s_m_Source_File>
wee1_decoys_glide_SP.sdf

> <s_m_Source_Path>
/Users/zhangxujun/Desktop

> <s_m_entry_id>
3103

> <s_m_entry_name>
wee1_decoys_glide_SP.2828

> <s_m_subgroup_title>
wee1_decoys_glide_SP

> <s_m_subgroupid>
wee1_decoys_glide_SP


$$$$
