ZINC11979692_843
                    3D
 Schrodinger Suite 2024-2.
 59 62  0  0  1  0            999 V2000
    2.4022   50.0794   19.2463 C   0  0  0  0  0  0
    2.4145   51.1628   20.3398 C   0  0  2  0  0  0
    1.5961   51.8562   20.1321 H   0  0  0  0  0  0
    3.7280   51.9705   20.2998 C   0  0  0  0  0  0
    4.7052   51.5499   20.9223 O   0  0  0  0  0  0
    3.7061   53.1173   19.5812 N   0  0  0  0  0  0
    4.7348   53.9554   19.3216 C   0  0  0  0  0  0
    5.9036   53.7899   19.6805 O   0  0  0  0  0  0
    4.2989   55.0111   18.6067 N   0  0  0  0  0  0
    5.0014   56.1542   18.1757 C   0  0  0  0  0  0
    4.3169   56.9818   17.2809 C   0  0  0  0  0  0
    4.9123   58.1494   16.8117 C   0  0  0  0  0  0
    6.1927   58.4920   17.2365 C   0  0  0  0  0  0
    6.8824   57.6809   18.1327 C   0  0  0  0  0  0
    6.2905   56.5130   18.6063 C   0  0  0  0  0  0
    2.1217   50.4446   21.9976 S   0  0  0  0  0  0
    0.4808   51.0293   22.2659 C   0  0  0  0  0  0
   -0.5482   50.4600   21.6872 N   0  0  0  0  0  0
   -1.6858   51.1403   22.0808 N   0  0  0  0  0  0
   -1.3029   52.0986   22.8849 C   0  0  0  0  0  0
    0.0747   52.1003   23.0547 N   0  0  0  0  0  0
    0.8741   53.0579   23.8599 C   0  0  0  0  0  0
    1.7228   52.3163   24.9176 C   0  0  0  0  0  0
    2.6467   53.2892   25.6753 C   0  0  0  0  0  0
    3.5914   54.0157   24.7043 C   0  0  0  0  0  0
    2.8039   54.7710   23.6226 C   0  0  0  0  0  0
    1.7573   53.8995   22.9076 C   0  0  0  0  0  0
   -2.2952   53.0258   23.5703 C   0  0  0  0  0  0
   -2.8010   52.4626   24.8915 C   0  0  0  0  0  0
   -4.0956   52.5000   25.4113 C   0  0  0  0  0  0
   -4.2551   51.8387   26.6343 C   0  0  0  0  0  0
   -3.0705   51.2971   27.1003 C   0  0  0  0  0  0
   -1.7593   51.6321   26.0257 S   0  0  0  0  0  0
    2.6063   50.4936   18.2569 H   0  0  0  0  0  0
    3.1494   49.3063   19.4304 H   0  0  0  0  0  0
    1.4312   49.5865   19.1975 H   0  0  0  0  0  0
    2.8145   53.3729   19.1861 H   0  0  0  0  0  0
    3.3323   54.9950   18.3201 H   0  0  0  0  0  0
    3.3200   56.7327   16.9453 H   0  0  0  0  0  0
    4.3798   58.7990   16.1300 H   0  0  0  0  0  0
    6.6465   59.4045   16.8764 H   0  0  0  0  0  0
    7.8721   57.9616   18.4598 H   0  0  0  0  0  0
    6.8510   55.9155   19.3079 H   0  0  0  0  0  0
    0.1578   53.6918   24.3794 H   0  0  0  0  0  0
    1.0660   51.8629   25.6592 H   0  0  0  0  0  0
    2.2968   51.5032   24.4816 H   0  0  0  0  0  0
    2.0462   54.0208   26.2182 H   0  0  0  0  0  0
    3.2250   52.7595   26.4326 H   0  0  0  0  0  0
    4.2315   54.7087   25.2517 H   0  0  0  0  0  0
    4.2609   53.2968   24.2299 H   0  0  0  0  0  0
    2.3030   55.6187   24.0818 H   0  0  0  0  0  0
    3.4943   55.1800   22.8845 H   0  0  0  0  0  0
    2.2155   53.3003   22.1300 H   0  0  0  0  0  0
    1.1058   54.5934   22.3870 H   0  0  0  0  0  0
   -1.8770   54.0222   23.6976 H   0  0  0  0  0  0
   -3.1439   53.1989   22.9084 H   0  0  0  0  0  0
   -4.9174   52.9745   24.8957 H   0  0  0  0  0  0
   -5.1982   51.7516   27.1531 H   0  0  0  0  0  0
   -2.8972   50.7179   27.9992 H   0  0  0  0  0  0
  1  2  1  0  0  0
  1 34  1  0  0  0
  1 35  1  0  0  0
  1 36  1  0  0  0
  2  3  1  0  0  0
  2  4  1  0  0  0
  2 16  1  0  0  0
  4  5  2  0  0  0
  4  6  1  0  0  0
  6  7  1  0  0  0
  6 37  1  0  0  0
  7  8  2  0  0  0
  7  9  1  0  0  0
  9 10  1  0  0  0
  9 38  1  0  0  0
 10 15  2  0  0  0
 10 11  1  0  0  0
 11 12  2  0  0  0
 11 39  1  0  0  0
 12 13  1  0  0  0
 12 40  1  0  0  0
 13 14  2  0  0  0
 13 41  1  0  0  0
 14 15  1  0  0  0
 14 42  1  0  0  0
 15 43  1  0  0  0
 16 17  1  0  0  0
 17 21  1  0  0  0
 17 18  2  0  0  0
 18 19  1  0  0  0
 19 20  2  0  0  0
 20 21  1  0  0  0
 20 28  1  0  0  0
 21 22  1  0  0  0
 22 27  1  0  0  0
 22 23  1  0  0  0
 22 44  1  0  0  0
 23 24  1  0  0  0
 23 45  1  0  0  0
 23 46  1  0  0  0
 24 25  1  0  0  0
 24 47  1  0  0  0
 24 48  1  0  0  0
 25 26  1  0  0  0
 25 49  1  0  0  0
 25 50  1  0  0  0
 26 27  1  0  0  0
 26 51  1  0  0  0
 26 52  1  0  0  0
 27 53  1  0  0  0
 27 54  1  0  0  0
 28 29  1  0  0  0
 28 55  1  0  0  0
 28 56  1  0  0  0
 29 33  1  0  0  0
 29 30  2  0  0  0
 30 31  1  0  0  0
 30 57  1  0  0  0
 31 32  2  0  0  0
 31 58  1  0  0  0
 32 33  1  0  0  0
 32 59  1  0  0  0
M  END
> <i_i_glide_confnum>
87

> <i_i_glide_lignum>
844

> <i_i_glide_posenum>
182

> <i_i_glide_rotatable_bonds>
10

> <i_m_Source_File_Index>
3207

> <b_m_subgroup_collapsed>
0

> <r_i_docking_score>
-3.82522

> <r_i_glide_ecoul>
-5.93575

> <r_i_glide_eff_state_penalty>
0

> <r_i_glide_einternal>
10.3765

> <r_i_glide_emodel>
-47.2843

> <r_i_glide_energy>
-41.4424

> <r_i_glide_erotb>
0.824269

> <r_i_glide_esite>
-0.0771791

> <r_i_glide_evdw>
-35.5067

> <r_i_glide_gscore>
-3.82522

> <r_i_glide_hbond>
0

> <r_i_glide_ligand_efficiency>
-0.119538

> <r_i_glide_ligand_efficiency_ln>
-0.85657

> <r_i_glide_ligand_efficiency_sa>
-0.37951

> <r_i_glide_lipo>
-1.58179

> <r_i_glide_metal>
0

> <r_i_glide_rewards>
-0.32482

> <s_i_glide_gridfile>
wee1_glide-grid

> <s_m_Source_File>
wee1_decoys_glide_SP.sdf

> <s_m_Source_Path>
/Users/zhangxujun/Desktop

> <s_m_entry_id>
3482

> <s_m_entry_name>
wee1_decoys_glide_SP.3207

> <s_m_subgroup_title>
wee1_decoys_glide_SP

> <s_m_subgroupid>
wee1_decoys_glide_SP


$$$$
