ZINC20153726_213
                    3D
 Schrodinger Suite 2024-2.
 58 61  0  0  1  0            999 V2000
    3.8368   54.3723   24.1582 C   0  0  0  0  0  0
    2.8898   53.4308   23.4261 C   0  0  0  0  0  0
    3.0564   53.2022   22.0655 C   0  0  0  0  0  0
    2.2059   52.3198   21.3889 C   0  0  0  0  0  0
    1.1948   51.6730   22.0387 N   0  0  0  0  0  0
    1.0103   51.8737   23.3745 C   0  0  0  0  0  0
    1.8470   52.7531   24.1207 C   0  0  0  0  0  0
    1.6142   52.8968   25.5080 C   0  0  0  0  0  0
    0.5779   52.2167   26.1581 C   0  0  0  0  0  0
   -0.2310   51.3564   25.4136 C   0  0  0  0  0  0
   -0.0298   51.1808   24.0423 C   0  0  0  0  0  0
    0.3144   52.3183   27.5461 N   0  0  0  0  0  0
    0.7125   53.2191   28.4982 C   0  0  0  0  0  0
    0.3056   52.8946   30.0781 S   0  0  0  0  0  0
    1.4030   54.3203   28.0764 N   0  0  0  0  0  0
    2.1440   55.2787   28.9046 C   0  0  0  0  0  0
    3.6155   54.8897   29.1908 C   0  0  2  0  0  0
    4.1405   55.6968   29.6816 H   0  0  0  0  0  0
    4.4955   54.4113   28.0263 C   0  0  0  0  0  0
    5.3369   53.3348   28.6672 C   0  0  0  0  0  0
    4.3009   52.6619   29.5518 C   0  0  0  0  0  0
    3.5806   53.7698   30.0823 O   0  0  0  0  0  0
    2.3272   52.0968   20.0144 N   0  0  0  0  0  0
    3.2429   52.8976   19.1700 C   0  0  0  0  0  0
    2.8726   52.9797   17.6786 C   0  0  0  0  0  0
    2.7044   51.5563   17.1354 N   0  3  0  0  0  0
    1.6057   50.8210   17.9189 C   0  0  0  0  0  0
    1.9870   50.7878   19.4135 C   0  0  0  0  0  0
    2.3992   51.5567   15.6243 C   0  0  0  0  0  0
    4.5201   54.8789   23.4759 H   0  0  0  0  0  0
    3.2779   55.1405   24.6937 H   0  0  0  0  0  0
    4.4383   53.8168   24.8781 H   0  0  0  0  0  0
    3.8619   53.7059   21.5571 H   0  0  0  0  0  0
    2.2976   53.5239   26.0369 H   0  0  0  0  0  0
   -1.0255   50.8064   25.9006 H   0  0  0  0  0  0
   -0.6628   50.5064   23.4836 H   0  0  0  0  0  0
   -0.2453   51.5572   27.9060 H   0  0  0  0  0  0
    1.4538   54.4670   27.0803 H   0  0  0  0  0  0
    1.6157   55.4907   29.8346 H   0  0  0  0  0  0
    2.1362   56.2255   28.3664 H   0  0  0  0  0  0
    5.0825   55.2159   27.5810 H   0  0  0  0  0  0
    3.9116   53.9631   27.2306 H   0  0  0  0  0  0
    6.1290   53.7783   29.2757 H   0  0  0  0  0  0
    5.7883   52.6525   27.9448 H   0  0  0  0  0  0
    4.7162   52.0492   30.3524 H   0  0  0  0  0  0
    3.6257   52.0221   28.9792 H   0  0  0  0  0  0
    3.3604   53.9144   19.5441 H   0  0  0  0  0  0
    4.2087   52.3912   19.2449 H   0  0  0  0  0  0
    3.6982   53.4179   17.1141 H   0  0  0  0  0  0
    1.9477   53.5320   17.4983 H   0  0  0  0  0  0
    1.5999   49.8056   17.5145 H   0  0  0  0  0  0
    0.6533   51.3199   17.7288 H   0  0  0  0  0  0
    2.9114   50.2101   19.4919 H   0  0  0  0  0  0
    1.2271   50.2490   19.9808 H   0  0  0  0  0  0
    1.4568   52.0836   15.4593 H   0  0  0  0  0  0
    3.2334   52.0549   15.1264 H   0  0  0  0  0  0
    2.3411   50.5119   15.3100 H   0  0  0  0  0  0
    3.5739   51.0391   17.2800 H   0  0  0  0  0  0
  1  2  1  0  0  0
  1 30  1  0  0  0
  1 31  1  0  0  0
  1 32  1  0  0  0
  2  7  2  0  0  0
  2  3  1  0  0  0
  3  4  2  0  0  0
  3 33  1  0  0  0
  4  5  1  0  0  0
  4 23  1  0  0  0
  5  6  2  0  0  0
  6 11  1  0  0  0
  6  7  1  0  0  0
  7  8  1  0  0  0
  8  9  2  0  0  0
  8 34  1  0  0  0
  9 10  1  0  0  0
  9 12  1  0  0  0
 10 11  2  0  0  0
 10 35  1  0  0  0
 11 36  1  0  0  0
 12 13  1  0  0  0
 12 37  1  0  0  0
 13 14  2  0  0  0
 13 15  1  0  0  0
 15 16  1  0  0  0
 15 38  1  0  0  0
 16 17  1  0  0  0
 16 39  1  0  0  0
 16 40  1  0  0  0
 17 18  1  0  0  0
 17 22  1  0  0  0
 17 19  1  0  0  0
 19 20  1  0  0  0
 19 41  1  0  0  0
 19 42  1  0  0  0
 20 21  1  0  0  0
 20 43  1  0  0  0
 20 44  1  0  0  0
 21 22  1  0  0  0
 21 45  1  0  0  0
 21 46  1  0  0  0
 23 28  1  0  0  0
 23 24  1  0  0  0
 24 25  1  0  0  0
 24 47  1  0  0  0
 24 48  1  0  0  0
 25 26  1  0  0  0
 25 49  1  0  0  0
 25 50  1  0  0  0
 26 27  1  0  0  0
 26 29  1  0  0  0
 26 58  1  0  0  0
 27 28  1  0  0  0
 27 51  1  0  0  0
 27 52  1  0  0  0
 28 53  1  0  0  0
 28 54  1  0  0  0
 29 55  1  0  0  0
 29 56  1  0  0  0
 29 57  1  0  0  0
M  CHG  1  26   1
M  END
> <i_i_glide_confnum>
68

> <i_i_glide_lignum>
214

> <i_i_glide_posenum>
117

> <i_i_glide_rotatable_bonds>
6

> <i_m_Source_File_Index>
2498

> <b_m_subgroup_collapsed>
0

> <r_i_docking_score>
-5.958

> <r_i_glide_ecoul>
-5.06591

> <r_i_glide_eff_state_penalty>
0

> <r_i_glide_einternal>
9.77395

> <r_i_glide_emodel>
-55.8324

> <r_i_glide_energy>
-41.9397

> <r_i_glide_erotb>
0.610954

> <r_i_glide_esite>
-0.118287

> <r_i_glide_evdw>
-36.8738

> <r_i_glide_gscore>
-5.958

> <r_i_glide_hbond>
-0.620682

> <r_i_glide_ligand_efficiency>
-0.212786

> <r_i_glide_ligand_efficiency_ln>
-1.37528

> <r_i_glide_ligand_efficiency_sa>
-0.646143

> <r_i_glide_lipo>
-2.20629

> <r_i_glide_metal>
0

> <r_i_glide_rewards>
-1.02012

> <s_i_glide_gridfile>
wee1_glide-grid

> <s_m_Source_File>
wee1_decoys_glide_SP.sdf

> <s_m_Source_Path>
/Users/zhangxujun/Desktop

> <s_m_entry_id>
2773

> <s_m_entry_name>
wee1_decoys_glide_SP.2498

> <s_m_subgroup_title>
wee1_decoys_glide_SP

> <s_m_subgroupid>
wee1_decoys_glide_SP


$$$$
