ZINC35729437_4950
                    3D
 Schrodinger Suite 2024-2.
 55 58  0  0  1  0            999 V2000
    2.8348   50.3407   20.6896 C   0  0  0  0  0  0
    2.4219   50.9572   19.3484 C   0  0  0  0  0  0
    2.2949   52.5032   19.3255 C   0  0  2  0  0  0
    1.5668   52.7753   20.0908 H   0  0  0  0  0  0
    1.6487   52.9189   17.9899 C   0  0  0  0  0  0
    3.6144   53.3246   19.5593 C   0  0  1  0  0  0
    3.4276   54.3754   19.3233 H   0  0  0  0  0  0
    4.0376   53.2845   21.0557 C   0  0  0  0  0  0
    5.0888   52.7267   21.3904 O   0  0  0  0  0  0
    3.1785   53.8748   21.9176 N   0  0  0  0  0  0
    3.3641   53.9400   23.2871 C   0  0  0  0  0  0
    4.5017   54.1386   23.9144 N   0  0  0  0  0  0
    4.3562   54.0976   25.2924 N   0  0  0  0  0  0
    3.1274   53.8212   25.6764 C   0  0  0  0  0  0
    2.0067   53.6890   24.3390 S   0  0  0  0  0  0
    2.7254   53.5879   27.1048 C   0  0  0  0  0  0
    3.6738   53.7927   28.1335 C   0  0  0  0  0  0
    3.3673   53.5358   29.4753 C   0  0  0  0  0  0
    2.0852   53.0912   29.7651 C   0  0  0  0  0  0
    1.1517   52.8972   28.7883 C   0  0  0  0  0  0
    1.4401   53.1205   27.4445 C   0  0  0  0  0  0
    0.0054   52.4318   29.3524 O   0  0  0  0  0  0
    0.1858   52.5715   30.7390 C   0  0  0  0  0  0
    1.5581   52.7453   30.9687 O   0  0  0  0  0  0
    4.6924   52.8968   18.6577 N   0  0  0  0  0  0
    5.6999   53.6672   18.2256 C   0  0  0  0  0  0
    5.7018   54.8989   18.2815 O   0  0  0  0  0  0
    6.7018   52.9010   17.7593 N   0  0  0  0  0  0
    7.9564   53.3252   17.2939 C   0  0  0  0  0  0
    8.4743   52.6552   16.1833 C   0  0  0  0  0  0
    9.7619   52.9411   15.7255 C   0  0  0  0  0  0
   10.5441   53.8882   16.3867 C   0  0  0  0  0  0
   10.0415   54.5459   17.5059 C   0  0  0  0  0  0
    8.7566   54.2686   17.9689 C   0  0  0  0  0  0
    8.3328   54.8951   19.0934 F   0  0  0  0  0  0
   11.7913   54.1626   15.9435 F   0  0  0  0  0  0
    2.5798   49.2815   20.7223 H   0  0  0  0  0  0
    3.9108   50.4194   20.8371 H   0  0  0  0  0  0
    2.3360   50.8261   21.5286 H   0  0  0  0  0  0
    1.4588   50.5207   19.0840 H   0  0  0  0  0  0
    3.1038   50.6233   18.5671 H   0  0  0  0  0  0
    2.2841   52.6617   17.1429 H   0  0  0  0  0  0
    0.6888   52.4241   17.8472 H   0  0  0  0  0  0
    1.4689   53.9929   17.9568 H   0  0  0  0  0  0
    2.3220   54.2556   21.5369 H   0  0  0  0  0  0
    4.6701   54.1350   27.8942 H   0  0  0  0  0  0
    4.1123   53.6749   30.2425 H   0  0  0  0  0  0
    0.6902   52.9195   26.6932 H   0  0  0  0  0  0
   -0.2010   51.7045   31.2817 H   0  0  0  0  0  0
   -0.3518   53.4550   31.0900 H   0  0  0  0  0  0
    4.7535   51.8931   18.4814 H   0  0  0  0  0  0
    6.4970   51.9112   17.6780 H   0  0  0  0  0  0
    7.8851   51.9035   15.6762 H   0  0  0  0  0  0
   10.1592   52.4217   14.8668 H   0  0  0  0  0  0
   10.6524   55.2605   18.0390 H   0  0  0  0  0  0
  1  2  1  0  0  0
  1 37  1  0  0  0
  1 38  1  0  0  0
  1 39  1  0  0  0
  2  3  1  0  0  0
  2 40  1  0  0  0
  2 41  1  0  0  0
  3  4  1  0  0  0
  3  5  1  0  0  0
  3  6  1  0  0  0
  5 42  1  0  0  0
  5 43  1  0  0  0
  5 44  1  0  0  0
  6  7  1  0  0  0
  6  8  1  0  0  0
  6 25  1  0  0  0
  8  9  2  0  0  0
  8 10  1  0  0  0
 10 11  1  0  0  0
 10 45  1  0  0  0
 11 15  1  0  0  0
 11 12  2  0  0  0
 12 13  1  0  0  0
 13 14  2  0  0  0
 14 15  1  0  0  0
 14 16  1  0  0  0
 16 21  2  0  0  0
 16 17  1  0  0  0
 17 18  2  0  0  0
 17 46  1  0  0  0
 18 19  1  0  0  0
 18 47  1  0  0  0
 19 24  1  0  0  0
 19 20  2  0  0  0
 20 21  1  0  0  0
 20 22  1  0  0  0
 21 48  1  0  0  0
 22 23  1  0  0  0
 23 24  1  0  0  0
 23 49  1  0  0  0
 23 50  1  0  0  0
 25 26  1  0  0  0
 25 51  1  0  0  0
 26 27  2  0  0  0
 26 28  1  0  0  0
 28 29  1  0  0  0
 28 52  1  0  0  0
 29 34  2  0  0  0
 29 30  1  0  0  0
 30 31  2  0  0  0
 30 53  1  0  0  0
 31 32  1  0  0  0
 31 54  1  0  0  0
 32 33  2  0  0  0
 32 36  1  0  0  0
 33 34  1  0  0  0
 33 55  1  0  0  0
 34 35  1  0  0  0
M  END
> <i_i_glide_confnum>
126

> <i_i_glide_lignum>
4951

> <i_i_glide_posenum>
308

> <i_i_glide_rotatable_bonds>
10

> <i_m_Source_File_Index>
1320

> <b_m_subgroup_collapsed>
0

> <r_i_docking_score>
-6.26023

> <r_i_glide_ecoul>
-10.8138

> <r_i_glide_eff_state_penalty>
0

> <r_i_glide_einternal>
11.5892

> <r_i_glide_emodel>
-69.2147

> <r_i_glide_energy>
-53.6972

> <r_i_glide_erotb>
0.679244

> <r_i_glide_esite>
-0.286579

> <r_i_glide_evdw>
-42.8834

> <r_i_glide_gscore>
-6.26023

> <r_i_glide_hbond>
-0.58646

> <r_i_glide_ligand_efficiency>
-0.184124

> <r_i_glide_ligand_efficiency_ln>
-1.38306

> <r_i_glide_ligand_efficiency_sa>
-0.596491

> <r_i_glide_lipo>
-1.91851

> <r_i_glide_metal>
0

> <r_i_glide_rewards>
-0.381684

> <s_i_glide_gridfile>
wee1_glide-grid

> <s_m_Source_File>
wee1_decoys_glide_SP.sdf

> <s_m_Source_Path>
/Users/zhangxujun/Desktop

> <s_m_entry_id>
1595

> <s_m_entry_name>
wee1_decoys_glide_SP.1320

> <s_m_subgroup_title>
wee1_decoys_glide_SP

> <s_m_subgroupid>
wee1_decoys_glide_SP


$$$$
