ZINC03166611_460
                    3D
 Schrodinger Suite 2024-2.
 55 58  0  0  1  0            999 V2000
    1.2505   55.7813   30.0763 C   0  0  0  0  0  0
    2.3234   54.7429   29.7707 C   0  0  2  0  0  0
    3.1705   54.9462   30.4217 H   0  0  0  0  0  0
    2.8338   54.7604   28.3279 C   0  0  0  0  0  0
    3.8368   53.7009   28.2174 N   0  0  0  0  0  0
    3.3303   52.3617   28.5036 C   0  0  0  0  0  0
    2.6202   52.3023   29.8738 C   0  0  2  0  0  0
    1.9934   51.4124   29.9367 H   0  0  0  0  0  0
    1.7970   53.4536   30.1077 O   0  0  0  0  0  0
    3.6373   52.1808   31.0239 C   0  0  0  0  0  0
    5.4711   53.9846   27.5771 S   0  0  0  0  0  0
    6.3374   52.8584   27.8916 O   0  0  0  0  0  0
    5.9044   55.2970   28.0059 O   0  0  0  0  0  0
    5.3728   54.0967   25.7931 C   0  0  0  0  0  0
    6.5618   54.2619   25.0832 C   0  0  0  0  0  0
    6.5405   54.3560   23.6958 C   0  0  0  0  0  0
    5.3216   54.2892   23.0051 C   0  0  0  0  0  0
    4.1346   54.0967   23.7261 C   0  0  0  0  0  0
    4.1547   54.0226   25.1162 C   0  0  0  0  0  0
    5.2472   54.4950   21.5115 C   0  0  0  0  0  0
    4.4058   53.8903   20.8484 O   0  0  0  0  0  0
    6.1238   55.4000   21.0242 N   0  0  0  0  0  0
    6.1802   55.9446   19.7524 C   0  0  0  0  0  0
    7.1039   56.8215   19.4840 N   0  0  0  0  0  0
    6.9160   57.3803   18.2576 C   0  0  0  0  0  0
    7.7347   58.3720   17.7021 C   0  0  0  0  0  0
    7.3847   58.9009   16.4584 C   0  0  0  0  0  0
    6.2485   58.4618   15.7763 C   0  0  0  0  0  0
    5.4383   57.4486   16.2964 C   0  0  0  0  0  0
    5.7832   56.9108   17.5423 C   0  0  0  0  0  0
    4.9923   55.6563   18.4817 S   0  0  0  0  0  0
    5.8170   59.2216   14.2166 S   0  0  0  0  0  0
    6.8748   58.8788   13.2617 O   0  0  0  0  0  0
    4.4169   58.8948   13.9288 O   0  0  0  0  0  0
    5.9043   60.9416   14.4817 N   0  0  0  0  0  0
    1.4786   56.7563   29.6433 H   0  0  0  0  0  0
    0.3047   55.4215   29.6816 H   0  0  0  0  0  0
    1.1195   55.9116   31.1512 H   0  0  0  0  0  0
    3.3101   55.6968   28.0810 H   0  0  0  0  0  0
    2.0347   54.5696   27.6112 H   0  0  0  0  0  0
    2.6382   52.0971   27.7033 H   0  0  0  0  0  0
    4.1826   51.6967   28.4817 H   0  0  0  0  0  0
    4.2671   51.2994   30.9092 H   0  0  0  0  0  0
    4.3043   53.0403   31.0727 H   0  0  0  0  0  0
    3.1312   52.0961   31.9865 H   0  0  0  0  0  0
    7.5041   54.3178   25.6070 H   0  0  0  0  0  0
    7.4787   54.4914   23.1752 H   0  0  0  0  0  0
    3.1832   54.0430   23.2138 H   0  0  0  0  0  0
    3.2254   53.8878   25.6476 H   0  0  0  0  0  0
    6.8361   55.7267   21.6564 H   0  0  0  0  0  0
    8.6014   58.7363   18.2313 H   0  0  0  0  0  0
    7.9887   59.6881   16.0284 H   0  0  0  0  0  0
    4.5627   57.1027   15.7646 H   0  0  0  0  0  0
    5.7122   61.4670   13.6282 H   0  0  0  0  0  0
    5.2221   61.2443   15.2004 H   0  0  0  0  0  0
  1  2  1  0  0  0
  1 36  1  0  0  0
  1 37  1  0  0  0
  1 38  1  0  0  0
  2  3  1  0  0  0
  2  9  1  0  0  0
  2  4  1  0  0  0
  4  5  1  0  0  0
  4 39  1  0  0  0
  4 40  1  0  0  0
  5  6  1  0  0  0
  5 11  1  0  0  0
  6  7  1  0  0  0
  6 41  1  0  0  0
  6 42  1  0  0  0
  7  8  1  0  0  0
  7  9  1  0  0  0
  7 10  1  0  0  0
 10 43  1  0  0  0
 10 44  1  0  0  0
 10 45  1  0  0  0
 11 12  2  0  0  0
 11 13  2  0  0  0
 11 14  1  0  0  0
 14 19  2  0  0  0
 14 15  1  0  0  0
 15 16  2  0  0  0
 15 46  1  0  0  0
 16 17  1  0  0  0
 16 47  1  0  0  0
 17 18  2  0  0  0
 17 20  1  0  0  0
 18 19  1  0  0  0
 18 48  1  0  0  0
 19 49  1  0  0  0
 20 21  2  0  0  0
 20 22  1  0  0  0
 22 23  1  0  0  0
 22 50  1  0  0  0
 23 31  1  0  0  0
 23 24  2  0  0  0
 24 25  1  0  0  0
 25 30  2  0  0  0
 25 26  1  0  0  0
 26 27  2  0  0  0
 26 51  1  0  0  0
 27 28  1  0  0  0
 27 52  1  0  0  0
 28 29  2  0  0  0
 28 32  1  0  0  0
 29 30  1  0  0  0
 29 53  1  0  0  0
 30 31  1  0  0  0
 32 33  2  0  0  0
 32 34  2  0  0  0
 32 35  1  0  0  0
 35 54  1  0  0  0
 35 55  1  0  0  0
M  END
> <i_i_glide_confnum>
153

> <i_i_glide_lignum>
461

> <i_i_glide_posenum>
180

> <i_i_glide_rotatable_bonds>
6

> <i_m_Source_File_Index>
1095

> <b_m_subgroup_collapsed>
0

> <r_i_docking_score>
-2.70895

> <r_i_glide_ecoul>
-0.0880273

> <r_i_glide_eff_state_penalty>
0

> <r_i_glide_einternal>
8.13544

> <r_i_glide_emodel>
-33.2098

> <r_i_glide_energy>
-41.2883

> <r_i_glide_erotb>
0.392901

> <r_i_glide_esite>
-0.154529

> <r_i_glide_evdw>
-41.2002

> <r_i_glide_gscore>
-2.70895

> <r_i_glide_hbond>
-0.320139

> <r_i_glide_ligand_efficiency>
-0.0820893

> <r_i_glide_ligand_efficiency_ln>
-0.602455

> <r_i_glide_ligand_efficiency_sa>
-0.263304

> <r_i_glide_lipo>
-2.66783

> <r_i_glide_metal>
0

> <r_i_glide_rewards>
2.11386

> <s_i_glide_gridfile>
wee1_glide-grid

> <s_m_Source_File>
wee1_decoys_glide_SP.sdf

> <s_m_Source_Path>
/Users/zhangxujun/Desktop

> <s_m_entry_id>
1370

> <s_m_entry_name>
wee1_decoys_glide_SP.1095

> <s_m_subgroup_title>
wee1_decoys_glide_SP

> <s_m_subgroupid>
wee1_decoys_glide_SP


$$$$
