ZINC65265874_2181
                    3D
 Schrodinger Suite 2024-2.
 62 66  0  0  1  0            999 V2000
    4.8329   54.1090   21.1944 C   0  0  0  0  0  0
    5.4504   54.2495   22.4708 O   0  0  0  0  0  0
    4.6725   54.1453   23.6065 C   0  0  0  0  0  0
    3.2723   54.0965   23.6052 C   0  0  0  0  0  0
    2.5748   53.9268   24.7979 C   0  0  0  0  0  0
    3.2559   53.7630   26.0153 C   0  0  0  0  0  0
    4.6500   53.9262   26.0136 C   0  0  0  0  0  0
    5.3473   54.1067   24.8227 C   0  0  0  0  0  0
    2.5747   53.3901   27.3292 C   0  0  0  0  0  0
    3.1273   53.7194   28.3832 O   0  0  0  0  0  0
    1.4525   52.6127   27.3541 N   0  0  0  0  0  0
    1.0069   51.9831   28.5991 C   0  0  0  0  0  0
   -0.3227   51.3441   28.2217 C   0  0  0  0  0  0
   -0.2715   51.0143   26.7219 C   0  0  2  0  0  0
    0.6640   52.1390   26.2109 C   0  0  0  0  0  0
   -1.6563   51.0610   26.0808 C   0  0  0  0  0  0
   -1.7561   51.1884   24.7470 N   0  0  0  0  0  0
   -0.7402   51.0387   23.7632 C   0  0  0  0  0  0
   -0.7670   51.8499   22.6259 C   0  0  0  0  0  0
    0.2420   51.7493   21.6683 C   0  0  0  0  0  0
    1.2703   50.8244   21.8357 C   0  0  0  0  0  0
    1.2783   49.9880   22.9506 C   0  0  0  0  0  0
    0.2713   50.0684   23.9194 C   0  0  0  0  0  0
    0.2588   49.1361   25.1339 C   0  0  0  0  0  0
    0.3044   49.6967   26.4816 N   0  0  0  0  0  0
   -2.7631   50.9292   26.8306 N   0  3  0  0  0  0
   -4.1825   51.0662   26.4553 C   0  0  0  0  0  0
   -4.4497   52.4390   25.8023 C   0  0  0  0  0  0
   -4.9982   52.1363   24.4030 C   0  0  0  0  0  0
   -5.5572   50.7139   24.4905 C   0  0  0  0  0  0
   -4.6060   49.9849   25.4430 C   0  0  0  0  0  0
    5.5944   54.1775   20.4160 H   0  0  0  0  0  0
    4.1027   54.8966   21.0082 H   0  0  0  0  0  0
    4.3418   53.1399   21.0928 H   0  0  0  0  0  0
    2.7098   54.1777   22.6878 H   0  0  0  0  0  0
    1.5010   53.9212   24.7328 H   0  0  0  0  0  0
    5.2182   53.8424   26.9303 H   0  0  0  0  0  0
    6.4252   54.1720   24.8368 H   0  0  0  0  0  0
    1.7198   51.2070   28.8811 H   0  0  0  0  0  0
    0.8989   52.6975   29.4162 H   0  0  0  0  0  0
   -0.5687   50.4968   28.8573 H   0  0  0  0  0  0
   -1.0908   52.0957   28.4024 H   0  0  0  0  0  0
    0.0177   52.9338   25.8464 H   0  0  0  0  0  0
    1.3155   51.7540   25.4283 H   0  0  0  0  0  0
   -1.5544   52.5771   22.4912 H   0  0  0  0  0  0
    0.2344   52.3908   20.7978 H   0  0  0  0  0  0
    2.0565   50.7507   21.0983 H   0  0  0  0  0  0
    2.0814   49.2755   23.0658 H   0  0  0  0  0  0
   -0.6316   48.5103   25.0521 H   0  0  0  0  0  0
    1.0976   48.4444   25.0602 H   0  0  0  0  0  0
   -0.1784   49.0343   27.0971 H   0  0  0  0  0  0
   -2.5891   50.6958   27.8003 H   0  0  0  0  0  0
   -4.8067   50.9749   27.3465 H   0  0  0  0  0  0
   -5.2010   52.9743   26.3840 H   0  0  0  0  0  0
   -3.5741   53.0905   25.7598 H   0  0  0  0  0  0
   -5.7565   52.8549   24.0887 H   0  0  0  0  0  0
   -4.1928   52.1780   23.6710 H   0  0  0  0  0  0
   -6.5643   50.7332   24.9103 H   0  0  0  0  0  0
   -5.6215   50.2302   23.5150 H   0  0  0  0  0  0
   -3.7659   49.5716   24.8843 H   0  0  0  0  0  0
   -5.0919   49.1413   25.9362 H   0  0  0  0  0  0
   -2.6660   51.4249   24.3789 H   0  0  0  0  0  0
  1  2  1  0  0  0
  1 32  1  0  0  0
  1 33  1  0  0  0
  1 34  1  0  0  0
  2  3  1  0  0  0
  3  8  2  0  0  0
  3  4  1  0  0  0
  4  5  2  0  0  0
  4 35  1  0  0  0
  5  6  1  0  0  0
  5 36  1  0  0  0
  6  7  2  0  0  0
  6  9  1  0  0  0
  7  8  1  0  0  0
  7 37  1  0  0  0
  8 38  1  0  0  0
  9 10  2  0  0  0
  9 11  1  0  0  0
 11 15  1  0  0  0
 11 12  1  0  0  0
 12 13  1  0  0  0
 12 39  1  0  0  0
 12 40  1  0  0  0
 13 14  1  0  0  0
 13 41  1  0  0  0
 13 42  1  0  0  0
 14 25  1  0  0  0
 14 15  1  0  0  0
 14 16  1  0  0  0
 15 43  1  0  0  0
 15 44  1  0  0  0
 16 17  1  0  0  0
 16 26  2  0  0  0
 17 18  1  0  0  0
 17 62  1  0  0  0
 18 23  2  0  0  0
 18 19  1  0  0  0
 19 20  2  0  0  0
 19 45  1  0  0  0
 20 21  1  0  0  0
 20 46  1  0  0  0
 21 22  2  0  0  0
 21 47  1  0  0  0
 22 23  1  0  0  0
 22 48  1  0  0  0
 23 24  1  0  0  0
 24 25  1  0  0  0
 24 49  1  0  0  0
 24 50  1  0  0  0
 25 51  1  0  0  0
 26 27  1  0  0  0
 26 52  1  0  0  0
 27 31  1  0  0  0
 27 28  1  0  0  0
 27 53  1  0  0  0
 28 29  1  0  0  0
 28 54  1  0  0  0
 28 55  1  0  0  0
 29 30  1  0  0  0
 29 56  1  0  0  0
 29 57  1  0  0  0
 30 31  1  0  0  0
 30 58  1  0  0  0
 30 59  1  0  0  0
 31 60  1  0  0  0
 31 61  1  0  0  0
M  CHG  1  26   1
M  END
> <i_i_glide_confnum>
48

> <i_i_glide_lignum>
2182

> <i_i_glide_posenum>
84

> <i_i_glide_rotatable_bonds>
4

> <i_m_Source_File_Index>
5569

> <b_m_subgroup_collapsed>
0

> <r_i_docking_score>
-5.45817

> <r_i_glide_ecoul>
-4.9908

> <r_i_glide_eff_state_penalty>
0

> <r_i_glide_einternal>
5.51528

> <r_i_glide_emodel>
-49.7997

> <r_i_glide_energy>
-37.1983

> <r_i_glide_erotb>
0.224805

> <r_i_glide_esite>
-0.116767

> <r_i_glide_evdw>
-32.2075

> <r_i_glide_gscore>
-5.45817

> <r_i_glide_hbond>
-0.16

> <r_i_glide_ligand_efficiency>
-0.17607

> <r_i_glide_ligand_efficiency_ln>
-1.23098

> <r_i_glide_ligand_efficiency_sa>
-0.553103

> <r_i_glide_lipo>
-1.98109

> <r_i_glide_metal>
0

> <r_i_glide_rewards>
-1.06613

> <s_i_glide_gridfile>
wee1_glide-grid

> <s_m_Source_File>
wee1_decoys_glide_SP.sdf

> <s_m_Source_Path>
/Users/zhangxujun/Desktop

> <s_m_entry_id>
5844

> <s_m_entry_name>
wee1_decoys_glide_SP.5569

> <s_m_subgroup_title>
wee1_decoys_glide_SP

> <s_m_subgroupid>
wee1_decoys_glide_SP


$$$$
