ZINC20058100_3819
                    3D
 Schrodinger Suite 2024-2.
 39 41  0  0  1  0            999 V2000
    0.9789   50.3221   21.3233 C   0  0  0  0  0  0
    1.0805   50.8325   22.6150 C   0  0  0  0  0  0
    0.1303   51.7428   23.1098 C   0  0  0  0  0  0
   -0.9467   52.0959   22.2869 C   0  0  0  0  0  0
   -1.0472   51.5876   20.9887 C   0  0  0  0  0  0
   -0.0836   50.7031   20.5073 C   0  0  0  0  0  0
   -2.4961   52.0962   19.8690 Br  0  0  0  0  0  0
    0.2476   52.3293   24.5362 C   0  0  2  0  0  0
   -0.3115   53.2681   24.5135 H   0  0  0  0  0  0
    1.7058   52.7383   24.8993 C   0  0  1  0  0  0
    2.3123   51.8435   24.8258 H   0  0  0  0  0  0
    2.3155   53.7992   23.9464 C   0  0  0  0  0  0
    3.7597   54.1475   24.3407 C   0  0  0  0  0  0
    3.9015   54.6178   25.7997 C   0  0  0  0  0  0
    2.8591   54.0048   26.7284 C   0  0  0  0  0  0
    1.8492   53.1724   26.3675 C   0  0  0  0  0  0
    0.9214   52.6397   27.3683 C   0  0  0  0  0  0
   -0.1250   51.8438   27.0449 C   0  0  0  0  0  0
   -0.4427   51.4104   25.6015 C   0  0  0  0  0  0
   -0.0244   50.0041   25.4366 C   0  0  0  0  0  0
    0.3048   48.9044   25.2980 N   0  0  0  0  0  0
   -1.9011   51.4734   25.3657 C   0  0  0  0  0  0
   -3.0409   51.5290   25.1798 N   0  0  0  0  0  0
   -0.9491   51.2966   28.0080 N   0  0  0  0  0  0
    1.1424   52.9453   28.7547 C   0  0  0  0  0  0
    1.3443   53.1848   29.8695 N   0  0  0  0  0  0
    1.7228   49.6303   20.9537 H   0  0  0  0  0  0
    1.9081   50.5015   23.2229 H   0  0  0  0  0  0
   -1.7075   52.7743   22.6469 H   0  0  0  0  0  0
   -0.1622   50.3124   19.5030 H   0  0  0  0  0  0
    1.6974   54.6990   23.9428 H   0  0  0  0  0  0
    2.3124   53.4381   22.9170 H   0  0  0  0  0  0
    4.4047   53.2886   24.1877 H   0  0  0  0  0  0
    4.1550   54.8966   23.6588 H   0  0  0  0  0  0
    4.9130   54.4365   26.1660 H   0  0  0  0  0  0
    3.7654   55.6962   25.8396 H   0  0  0  0  0  0
    2.9515   54.2850   27.7688 H   0  0  0  0  0  0
   -1.4955   50.4595   27.8158 H   0  0  0  0  0  0
   -0.8200   51.5140   28.9867 H   0  0  0  0  0  0
  1  6  2  0  0  0
  1  2  1  0  0  0
  1 27  1  0  0  0
  2  3  2  0  0  0
  2 28  1  0  0  0
  3  4  1  0  0  0
  3  8  1  0  0  0
  4  5  2  0  0  0
  4 29  1  0  0  0
  5  6  1  0  0  0
  5  7  1  0  0  0
  6 30  1  0  0  0
  8  9  1  0  0  0
  8 19  1  0  0  0
  8 10  1  0  0  0
 10 11  1  0  0  0
 10 16  1  0  0  0
 10 12  1  0  0  0
 12 13  1  0  0  0
 12 31  1  0  0  0
 12 32  1  0  0  0
 13 14  1  0  0  0
 13 33  1  0  0  0
 13 34  1  0  0  0
 14 15  1  0  0  0
 14 35  1  0  0  0
 14 36  1  0  0  0
 15 16  2  0  0  0
 15 37  1  0  0  0
 16 17  1  0  0  0
 17 18  2  0  0  0
 17 25  1  0  0  0
 18 19  1  0  0  0
 18 24  1  0  0  0
 19 20  1  0  0  0
 19 22  1  0  0  0
 20 21  3  0  0  0
 22 23  3  0  0  0
 24 38  1  0  0  0
 24 39  1  0  0  0
 25 26  3  0  0  0
M  END
> <i_i_glide_confnum>
2

> <i_i_glide_lignum>
3820

> <i_i_glide_posenum>
397

> <i_i_glide_rotatable_bonds>
4

> <i_m_Source_File_Index>
2441

> <b_m_subgroup_collapsed>
0

> <r_i_docking_score>
-4.52943

> <r_i_glide_ecoul>
-1.69843

> <r_i_glide_eff_state_penalty>
0

> <r_i_glide_einternal>
6.37537

> <r_i_glide_emodel>
-36.9586

> <r_i_glide_energy>
-31.3294

> <r_i_glide_erotb>
0.134794

> <r_i_glide_esite>
-0.152445

> <r_i_glide_evdw>
-29.6309

> <r_i_glide_gscore>
-4.52943

> <r_i_glide_hbond>
-0.078684

> <r_i_glide_ligand_efficiency>
-0.188726

> <r_i_glide_ligand_efficiency_ln>
-1.0841

> <r_i_glide_ligand_efficiency_sa>
-0.544381

> <r_i_glide_lipo>
-1.62529

> <r_i_glide_metal>
0

> <r_i_glide_rewards>
-1.0715

> <s_i_glide_gridfile>
wee1_glide-grid

> <s_m_Source_File>
wee1_decoys_glide_SP.sdf

> <s_m_Source_Path>
/Users/zhangxujun/Desktop

> <s_m_entry_id>
2716

> <s_m_entry_name>
wee1_decoys_glide_SP.2441

> <s_m_subgroup_title>
wee1_decoys_glide_SP

> <s_m_subgroupid>
wee1_decoys_glide_SP


$$$$
