ZINC33727842_1227
                    3D
 Schrodinger Suite 2024-2.
 65 69  0  0  1  0            999 V2000
    0.6216   52.4992   30.8576 C   0  0  0  0  0  0
   -0.0383   52.0942   29.5369 C   0  0  0  0  0  0
    0.4621   52.2421   28.2850 C   0  0  0  0  0  0
   -0.4491   52.0226   27.0463 C   0  0  2  0  0  0
   -0.6095   53.0153   26.6382 H   0  0  0  0  0  0
   -1.8312   51.6302   27.4469 N   0  0  0  0  0  0
   -2.7893   51.6897   26.3172 C   0  0  0  0  0  0
   -4.2477   51.4552   26.7573 C   0  0  0  0  0  0
   -4.4447   50.2120   27.6347 C   0  0  0  0  0  0
   -3.6553   50.5017   29.2259 S   0  0  0  0  0  0
   -2.1857   51.3263   28.7095 C   0  0  0  0  0  0
   -1.3016   51.5812   29.6877 N   0  3  0  0  0  0
    0.1288   51.2037   25.8911 C   0  0  0  0  0  0
    0.2120   49.8124   25.9873 C   0  0  0  0  0  0
    0.6605   49.0637   24.9073 C   0  0  0  0  0  0
    1.0659   49.6958   23.7339 C   0  0  0  0  0  0
    1.0026   51.0901   23.6251 C   0  0  0  0  0  0
    0.5034   51.8340   24.6965 C   0  0  0  0  0  0
    1.3694   51.7790   22.4595 N   0  0  0  0  0  0
    2.3207   51.4260   21.5678 C   0  0  0  0  0  0
    3.1041   50.4955   21.7347 O   0  0  0  0  0  0
    2.4819   52.3520   20.3515 C   0  0  0  0  0  0
    3.9458   52.6191   19.9633 C   0  0  0  0  0  0
    3.8313   53.0810   18.5097 C   0  0  0  0  0  0
    2.7036   52.2305   17.9089 C   0  0  0  0  0  0
    1.8137   51.7877   19.0827 C   0  0  0  0  0  0
    1.8668   52.5945   28.0917 C   0  0  0  0  0  0
    2.7433   52.1260   28.8219 O   0  0  0  0  0  0
    2.1250   53.4322   27.0640 N   0  0  0  0  0  0
    3.3865   53.8725   26.6192 C   0  0  0  0  0  0
    3.5303   54.0969   25.2469 C   0  0  0  0  0  0
    4.7602   54.4965   24.7305 C   0  0  0  0  0  0
    5.8407   54.6981   25.5871 C   0  0  0  0  0  0
    5.7023   54.4990   26.9593 C   0  0  0  0  0  0
    4.4763   54.0910   27.4778 C   0  0  0  0  0  0
    1.1905   51.6964   31.3103 H   0  0  0  0  0  0
    1.3067   53.3314   30.7119 H   0  0  0  0  0  0
   -0.1093   52.8385   31.5916 H   0  0  0  0  0  0
   -2.6907   52.6535   25.8135 H   0  0  0  0  0  0
   -2.4956   50.9152   25.6063 H   0  0  0  0  0  0
   -4.6211   52.3381   27.2790 H   0  0  0  0  0  0
   -4.8713   51.3651   25.8654 H   0  0  0  0  0  0
   -5.4969   49.9933   27.8124 H   0  0  0  0  0  0
   -3.9779   49.3263   27.1986 H   0  0  0  0  0  0
   -0.0970   49.2959   26.8823 H   0  0  0  0  0  0
    0.7048   47.9875   24.9910 H   0  0  0  0  0  0
    1.4232   49.0846   22.9184 H   0  0  0  0  0  0
    0.4172   52.9072   24.6046 H   0  0  0  0  0  0
    0.9123   52.6641   22.3091 H   0  0  0  0  0  0
    2.0384   53.2952   20.6455 H   0  0  0  0  0  0
    4.5590   51.7158   20.0155 H   0  0  0  0  0  0
    4.4125   53.3774   20.5937 H   0  0  0  0  0  0
    4.7695   52.9575   17.9659 H   0  0  0  0  0  0
    3.5628   54.1386   18.4744 H   0  0  0  0  0  0
    3.1186   51.3514   17.4103 H   0  0  0  0  0  0
    2.1406   52.7848   17.1580 H   0  0  0  0  0  0
    0.7988   52.1694   18.9727 H   0  0  0  0  0  0
    1.7614   50.6962   19.0882 H   0  0  0  0  0  0
    1.3496   53.6725   26.4692 H   0  0  0  0  0  0
    2.7055   53.9348   24.5689 H   0  0  0  0  0  0
    4.8754   54.6488   23.6667 H   0  0  0  0  0  0
    6.7921   55.0077   25.1796 H   0  0  0  0  0  0
    6.5414   54.6607   27.6224 H   0  0  0  0  0  0
    4.3887   53.9485   28.5438 H   0  0  0  0  0  0
   -1.5976   51.3170   30.6210 H   0  0  0  0  0  0
  1  2  1  0  0  0
  1 36  1  0  0  0
  1 37  1  0  0  0
  1 38  1  0  0  0
  2 12  1  0  0  0
  2  3  2  0  0  0
  3  4  1  0  0  0
  3 27  1  0  0  0
  4  5  1  0  0  0
  4  6  1  0  0  0
  4 13  1  0  0  0
  6 11  1  0  0  0
  6  7  1  0  0  0
  7  8  1  0  0  0
  7 39  1  0  0  0
  7 40  1  0  0  0
  8  9  1  0  0  0
  8 41  1  0  0  0
  8 42  1  0  0  0
  9 10  1  0  0  0
  9 43  1  0  0  0
  9 44  1  0  0  0
 10 11  1  0  0  0
 11 12  2  0  0  0
 12 65  1  0  0  0
 13 18  2  0  0  0
 13 14  1  0  0  0
 14 15  2  0  0  0
 14 45  1  0  0  0
 15 16  1  0  0  0
 15 46  1  0  0  0
 16 17  2  0  0  0
 16 47  1  0  0  0
 17 18  1  0  0  0
 17 19  1  0  0  0
 18 48  1  0  0  0
 19 20  1  0  0  0
 19 49  1  0  0  0
 20 21  2  0  0  0
 20 22  1  0  0  0
 22 26  1  0  0  0
 22 23  1  0  0  0
 22 50  1  0  0  0
 23 24  1  0  0  0
 23 51  1  0  0  0
 23 52  1  0  0  0
 24 25  1  0  0  0
 24 53  1  0  0  0
 24 54  1  0  0  0
 25 26  1  0  0  0
 25 55  1  0  0  0
 25 56  1  0  0  0
 26 57  1  0  0  0
 26 58  1  0  0  0
 27 28  2  0  0  0
 27 29  1  0  0  0
 29 30  1  0  0  0
 29 59  1  0  0  0
 30 35  2  0  0  0
 30 31  1  0  0  0
 31 32  2  0  0  0
 31 60  1  0  0  0
 32 33  1  0  0  0
 32 61  1  0  0  0
 33 34  2  0  0  0
 33 62  1  0  0  0
 34 35  1  0  0  0
 34 63  1  0  0  0
 35 64  1  0  0  0
M  CHG  1  12   1
M  END
> <i_i_glide_confnum>
612

> <i_i_glide_lignum>
1228

> <i_i_glide_posenum>
250

> <i_i_glide_rotatable_bonds>
7

> <i_m_Source_File_Index>
5422

> <b_m_subgroup_collapsed>
0

> <r_i_docking_score>
-4.73674

> <r_i_glide_ecoul>
-4.15383

> <r_i_glide_eff_state_penalty>
0

> <r_i_glide_einternal>
7.18965

> <r_i_glide_emodel>
-60.4641

> <r_i_glide_energy>
-49.3486

> <r_i_glide_erotb>
0.626408

> <r_i_glide_esite>
-0.23697

> <r_i_glide_evdw>
-45.1947

> <r_i_glide_gscore>
-4.73674

> <r_i_glide_hbond>
0

> <r_i_glide_ligand_efficiency>
-0.139316

> <r_i_glide_ligand_efficiency_ln>
-1.04648

> <r_i_glide_ligand_efficiency_sa>
-0.451329

> <r_i_glide_lipo>
-1.83636

> <r_i_glide_metal>
0

> <r_i_glide_rewards>
-0.407009

> <s_i_glide_gridfile>
wee1_glide-grid

> <s_m_Source_File>
wee1_decoys_glide_SP.sdf

> <s_m_Source_Path>
/Users/zhangxujun/Desktop

> <s_m_entry_id>
5697

> <s_m_entry_name>
wee1_decoys_glide_SP.5422

> <s_m_subgroup_title>
wee1_decoys_glide_SP

> <s_m_subgroupid>
wee1_decoys_glide_SP


$$$$
