ZINC09490179_3707
                    3D
 Schrodinger Suite 2024-2.
 62 66  0  0  1  0            999 V2000
    0.8975   52.8440   24.7439 C   0  0  0  0  0  0
    2.2373   53.3163   24.7627 O   0  0  0  0  0  0
    2.8423   53.6880   25.9550 C   0  0  0  0  0  0
    2.2055   53.6482   27.2064 C   0  0  0  0  0  0
    2.8853   54.0143   28.3809 C   0  0  0  0  0  0
    4.2195   54.4252   28.2796 C   0  0  0  0  0  0
    4.8633   54.4756   27.0467 C   0  0  0  0  0  0
    4.1775   54.1144   25.8822 C   0  0  0  0  0  0
    4.7288   54.1697   24.5932 N   0  0  0  0  0  0
    5.9562   54.4969   24.1432 C   0  0  0  0  0  0
    6.9161   54.7799   24.8627 O   0  0  0  0  0  0
    6.0482   54.5667   22.6304 C   0  0  0  0  0  0
    5.0890   53.9491   21.8099 C   0  0  0  0  0  0
    5.1215   54.1066   20.4306 C   0  0  0  0  0  0
    6.1115   54.8748   19.8110 C   0  0  0  0  0  0
    7.1276   55.4355   20.6186 C   0  0  0  0  0  0
    7.0734   55.2967   22.0096 C   0  0  0  0  0  0
    8.2356   56.0967   20.0805 N   0  0  0  0  0  0
    6.0392   54.9649   18.4250 N   0  0  0  0  0  0
    6.4527   56.1370   17.6386 C   0  0  0  0  0  0
    5.6735   56.2643   16.2992 C   0  0  1  0  0  0
    6.0235   57.1199   15.7206 H   0  0  0  0  0  0
    5.9834   55.0250   15.4491 C   0  0  0  0  0  0
    5.5471   53.7946   16.2539 C   0  0  1  0  0  0
    5.8387   52.9057   15.6920 H   0  0  0  0  0  0
    6.2641   53.7471   17.6276 C   0  0  0  0  0  0
    4.0245   53.8082   16.4449 C   0  0  0  0  0  0
    3.3257   52.6507   16.4720 C   0  0  0  0  0  0
    1.9004   52.7014   16.7066 C   0  0  0  0  0  0
    1.3115   53.9010   16.8824 C   0  0  0  0  0  0
    2.0367   55.1629   16.8040 C   0  0  0  0  0  0
    1.4122   56.2231   16.8814 O   0  0  0  0  0  0
    3.4027   55.0609   16.6063 N   0  0  0  0  0  0
    4.1335   56.3591   16.5048 C   0  0  0  0  0  0
    5.1041   54.8965   29.6815 Cl  0  0  0  0  0  0
    2.3173   53.9941   29.6439 O   0  0  0  0  0  0
    0.9694   53.5620   29.8018 C   0  0  0  0  0  0
    0.6916   52.4137   23.7640 H   0  0  0  0  0  0
    0.7116   52.0638   25.4835 H   0  0  0  0  0  0
    0.2016   53.6687   24.8815 H   0  0  0  0  0  0
    1.1779   53.3309   27.2664 H   0  0  0  0  0  0
    5.8891   54.8077   27.0209 H   0  0  0  0  0  0
    4.0492   53.9535   23.8798 H   0  0  0  0  0  0
    4.2859   53.3526   22.2169 H   0  0  0  0  0  0
    4.3503   53.6385   19.8334 H   0  0  0  0  0  0
    7.8429   55.7604   22.6115 H   0  0  0  0  0  0
    8.3412   56.1113   19.0760 H   0  0  0  0  0  0
    8.9970   56.3814   20.6809 H   0  0  0  0  0  0
    6.2309   57.0292   18.2260 H   0  0  0  0  0  0
    7.5301   56.1587   17.4685 H   0  0  0  0  0  0
    5.4714   55.0668   14.4855 H   0  0  0  0  0  0
    7.0506   54.9722   15.2264 H   0  0  0  0  0  0
    7.3415   53.6462   17.4875 H   0  0  0  0  0  0
    5.9371   52.8548   18.1641 H   0  0  0  0  0  0
    3.8271   51.6968   16.3738 H   0  0  0  0  0  0
    1.3276   51.7863   16.7694 H   0  0  0  0  0  0
    0.2520   53.9529   17.0790 H   0  0  0  0  0  0
    3.9210   56.9591   17.3915 H   0  0  0  0  0  0
    3.6951   56.9494   15.6976 H   0  0  0  0  0  0
    0.6986   53.6062   30.8572 H   0  0  0  0  0  0
    0.8363   52.5304   29.4724 H   0  0  0  0  0  0
    0.2764   54.2052   29.2579 H   0  0  0  0  0  0
  1  2  1  0  0  0
  1 38  1  0  0  0
  1 39  1  0  0  0
  1 40  1  0  0  0
  2  3  1  0  0  0
  3  8  2  0  0  0
  3  4  1  0  0  0
  4  5  2  0  0  0
  4 41  1  0  0  0
  5  6  1  0  0  0
  5 36  1  0  0  0
  6  7  2  0  0  0
  6 35  1  0  0  0
  7  8  1  0  0  0
  7 42  1  0  0  0
  8  9  1  0  0  0
  9 10  1  0  0  0
  9 43  1  0  0  0
 10 11  2  0  0  0
 10 12  1  0  0  0
 12 17  2  0  0  0
 12 13  1  0  0  0
 13 14  2  0  0  0
 13 44  1  0  0  0
 14 15  1  0  0  0
 14 45  1  0  0  0
 15 16  2  0  0  0
 15 19  1  0  0  0
 16 17  1  0  0  0
 16 18  1  0  0  0
 17 46  1  0  0  0
 18 47  1  0  0  0
 18 48  1  0  0  0
 19 26  1  0  0  0
 19 20  1  0  0  0
 20 21  1  0  0  0
 20 49  1  0  0  0
 20 50  1  0  0  0
 21 22  1  0  0  0
 21 34  1  0  0  0
 21 23  1  0  0  0
 23 24  1  0  0  0
 23 51  1  0  0  0
 23 52  1  0  0  0
 24 25  1  0  0  0
 24 26  1  0  0  0
 24 27  1  0  0  0
 26 53  1  0  0  0
 26 54  1  0  0  0
 27 33  1  0  0  0
 27 28  2  0  0  0
 28 29  1  0  0  0
 28 55  1  0  0  0
 29 30  2  0  0  0
 29 56  1  0  0  0
 30 31  1  0  0  0
 30 57  1  0  0  0
 31 32  2  0  0  0
 31 33  1  0  0  0
 33 34  1  0  0  0
 34 58  1  0  0  0
 34 59  1  0  0  0
 36 37  1  0  0  0
 37 60  1  0  0  0
 37 61  1  0  0  0
 37 62  1  0  0  0
M  END
> <i_i_glide_confnum>
25

> <i_i_glide_lignum>
3708

> <i_i_glide_posenum>
333

> <i_i_glide_rotatable_bonds>
6

> <i_m_Source_File_Index>
964

> <b_m_subgroup_collapsed>
0

> <r_i_docking_score>
-5.76369

> <r_i_glide_ecoul>
-4.66762

> <r_i_glide_eff_state_penalty>
0

> <r_i_glide_einternal>
0.781542

> <r_i_glide_emodel>
-62.4851

> <r_i_glide_energy>
-47.8121

> <r_i_glide_erotb>
0.332776

> <r_i_glide_esite>
0

> <r_i_glide_evdw>
-43.1444

> <r_i_glide_gscore>
-5.76369

> <r_i_glide_hbond>
-0.161696

> <r_i_glide_ligand_efficiency>
-0.164677

> <r_i_glide_ligand_efficiency_ln>
-1.26526

> <r_i_glide_ligand_efficiency_sa>
-0.538669

> <r_i_glide_lipo>
-2.54934

> <r_i_glide_metal>
0

> <r_i_glide_rewards>
-0.528067

> <s_i_glide_gridfile>
wee1_glide-grid

> <s_m_Source_File>
wee1_decoys_glide_SP.sdf

> <s_m_Source_Path>
/Users/zhangxujun/Desktop

> <s_m_entry_id>
1239

> <s_m_entry_name>
wee1_decoys_glide_SP.964

> <s_m_subgroup_title>
wee1_decoys_glide_SP

> <s_m_subgroupid>
wee1_decoys_glide_SP


$$$$
