ZINC13274921_3305
                    3D
 Schrodinger Suite 2024-2.
 51 53  0  0  1  0            999 V2000
   -2.1454   46.0348   21.7656 C   0  0  0  0  0  0
   -2.6240   46.6873   23.4638 S   0  0  0  0  0  0
   -1.7141   46.0964   24.4482 O   0  0  0  0  0  0
   -4.0711   46.5118   23.6182 O   0  0  0  0  0  0
   -2.2711   48.4169   23.3551 N   0  0  0  0  0  0
   -3.0911   49.3578   24.1359 C   0  0  0  0  0  0
   -2.4958   49.5394   25.5514 C   0  0  0  0  0  0
   -1.0572   49.8983   25.5297 N   0  0  0  0  0  0
   -0.2478   49.0021   24.6750 C   0  0  0  0  0  0
   -0.8697   48.8679   23.2678 C   0  0  0  0  0  0
   -0.4995   50.8164   26.4178 C   0  0  0  0  0  0
    0.7027   50.4971   27.0539 C   0  0  0  0  0  0
    1.3263   51.3543   27.9480 C   0  0  0  0  0  0
    0.7506   52.5852   28.2116 C   0  0  0  0  0  0
   -0.4962   52.8948   27.6730 C   0  0  0  0  0  0
   -1.1034   52.0542   26.7222 C   0  0  0  0  0  0
   -2.2338   52.5717   25.9169 N   0  3  0  0  0  0
   -2.1941   52.4398   24.6973 O   0  0  0  0  0  0
   -3.1313   53.1829   26.4810 O   0  5  0  0  0  0
    1.7489   53.8597   28.9628 S   0  0  0  0  0  0
    1.9695   53.4779   30.3611 O   0  0  0  0  0  0
    1.1678   55.1579   28.6050 O   0  0  0  0  0  0
    3.3267   53.7392   28.1550 N   0  0  0  0  0  0
    3.5906   53.9699   26.7887 C   0  0  0  0  0  0
    2.5569   53.9188   25.8415 C   0  0  0  0  0  0
    2.8033   54.0909   24.4835 C   0  0  0  0  0  0
    4.0972   54.3262   24.0425 C   0  0  0  0  0  0
    5.1384   54.3947   24.9617 C   0  0  0  0  0  0
    4.9156   54.2055   26.3393 C   0  0  0  0  0  0
    6.0975   54.2658   27.2691 C   0  0  0  0  0  0
    7.1037   54.8893   26.8651 O   0  0  0  0  0  0
   -2.3551   44.9713   21.7282 H   0  0  0  0  0  0
   -2.7344   46.5550   21.0158 H   0  0  0  0  0  0
   -1.0852   46.2094   21.6038 H   0  0  0  0  0  0
   -3.1389   50.3120   23.6103 H   0  0  0  0  0  0
   -4.1116   48.9753   24.1745 H   0  0  0  0  0  0
   -2.4818   48.5709   26.0581 H   0  0  0  0  0  0
   -3.1026   50.1944   26.1757 H   0  0  0  0  0  0
    0.7918   49.3279   24.6094 H   0  0  0  0  0  0
   -0.2660   48.0447   25.2001 H   0  0  0  0  0  0
   -0.8452   49.8347   22.7643 H   0  0  0  0  0  0
   -0.3165   48.1864   22.6247 H   0  0  0  0  0  0
    1.1660   49.5399   26.8701 H   0  0  0  0  0  0
    2.2892   51.0923   28.3631 H   0  0  0  0  0  0
   -0.8935   53.8763   27.8782 H   0  0  0  0  0  0
    4.1412   53.5104   28.7172 H   0  0  0  0  0  0
    1.5346   53.7558   26.1289 H   0  0  0  0  0  0
    1.9893   54.0476   23.7747 H   0  0  0  0  0  0
    4.2945   54.4650   22.9890 H   0  0  0  0  0  0
    6.1362   54.5789   24.5862 H   0  0  0  0  0  0
    6.0177   53.6985   28.3842 O   0  5  0  0  0  0
  1  2  1  0  0  0
  1 32  1  0  0  0
  1 33  1  0  0  0
  1 34  1  0  0  0
  2  3  2  0  0  0
  2  4  2  0  0  0
  2  5  1  0  0  0
  5 10  1  0  0  0
  5  6  1  0  0  0
  6  7  1  0  0  0
  6 35  1  0  0  0
  6 36  1  0  0  0
  7  8  1  0  0  0
  7 37  1  0  0  0
  7 38  1  0  0  0
  8  9  1  0  0  0
  8 11  1  0  0  0
  9 10  1  0  0  0
  9 39  1  0  0  0
  9 40  1  0  0  0
 10 41  1  0  0  0
 10 42  1  0  0  0
 11 16  2  0  0  0
 11 12  1  0  0  0
 12 13  2  0  0  0
 12 43  1  0  0  0
 13 14  1  0  0  0
 13 44  1  0  0  0
 14 15  2  0  0  0
 14 20  1  0  0  0
 15 16  1  0  0  0
 15 45  1  0  0  0
 16 17  1  0  0  0
 17 18  2  0  0  0
 17 19  1  0  0  0
 20 21  2  0  0  0
 20 22  2  0  0  0
 20 23  1  0  0  0
 23 24  1  0  0  0
 23 46  1  0  0  0
 24 29  2  0  0  0
 24 25  1  0  0  0
 25 26  2  0  0  0
 25 47  1  0  0  0
 26 27  1  0  0  0
 26 48  1  0  0  0
 27 28  2  0  0  0
 27 49  1  0  0  0
 28 29  1  0  0  0
 28 50  1  0  0  0
 29 30  1  0  0  0
 30 31  2  0  0  0
 30 51  1  0  0  0
M  CHG  3  17   1  19  -1  51  -1
M  END
> <i_i_glide_confnum>
87

> <i_i_glide_lignum>
3306

> <i_i_glide_posenum>
327

> <i_i_glide_rotatable_bonds>
7

> <i_m_Source_File_Index>
5797

> <b_m_subgroup_collapsed>
0

> <r_i_docking_score>
-4.54265

> <r_i_glide_ecoul>
-6.55479

> <r_i_glide_eff_state_penalty>
0

> <r_i_glide_einternal>
17.2115

> <r_i_glide_emodel>
-41.5549

> <r_i_glide_energy>
-42.3996

> <r_i_glide_erotb>
0.34737

> <r_i_glide_esite>
-0.209033

> <r_i_glide_evdw>
-35.8448

> <r_i_glide_gscore>
-4.54265

> <r_i_glide_hbond>
-0.136952

> <r_i_glide_ligand_efficiency>
-0.141958

> <r_i_glide_ligand_efficiency_ln>
-1.01722

> <r_i_glide_ligand_efficiency_sa>
-0.450688

> <r_i_glide_lipo>
-1.64274

> <r_i_glide_metal>
0

> <r_i_glide_rewards>
-0.125841

> <s_i_glide_gridfile>
wee1_glide-grid

> <s_m_Source_File>
wee1_decoys_glide_SP.sdf

> <s_m_Source_Path>
/Users/zhangxujun/Desktop

> <s_m_entry_id>
6072

> <s_m_entry_name>
wee1_decoys_glide_SP.5797

> <s_m_subgroup_title>
wee1_decoys_glide_SP

> <s_m_subgroupid>
wee1_decoys_glide_SP


$$$$
