ZINC42026690_4732
                    3D
 Schrodinger Suite 2024-2.
 34 36  0  0  1  0            999 V2000
    6.6318   54.0141   25.3638 C   0  0  0  0  0  0
    5.2173   54.0967   24.7960 C   0  0  0  0  0  0
    5.1089   54.0912   23.3988 C   0  0  0  0  0  0
    3.8647   54.1167   22.7777 C   0  0  0  0  0  0
    2.7151   54.2087   23.5495 C   0  0  0  0  0  0
    2.8095   54.2507   24.9361 C   0  0  0  0  0  0
    4.0402   54.1384   25.5970 C   0  0  0  0  0  0
    4.0557   54.0969   27.0327 N   0  0  0  0  0  0
    3.1926   53.5521   28.0013 C   0  0  0  0  0  0
    3.6900   53.7909   29.1979 N   0  0  0  0  0  0
    4.8599   54.4973   29.0219 N   0  0  0  0  0  0
    5.0655   54.7021   27.6826 N   0  0  0  0  0  0
    1.8885   52.7883   27.8711 C   0  0  0  0  0  0
    1.0420   52.6733   28.9920 C   0  0  0  0  0  0
   -0.1237   51.9073   28.9433 C   0  0  0  0  0  0
   -0.5032   51.2969   27.7552 C   0  0  0  0  0  0
    0.3161   51.3872   26.6391 C   0  0  0  0  0  0
    1.5038   52.1124   26.7080 C   0  0  0  0  0  0
   -0.0284   50.7078   25.4745 N   0  0  0  0  0  0
   -0.8955   51.6969   30.0816 N   0  0  0  0  0  0
    1.5044   54.2652   22.9559 F   0  0  0  0  0  0
    6.6829   53.2961   26.1810 H   0  0  0  0  0  0
    7.3552   53.6820   24.6178 H   0  0  0  0  0  0
    6.9480   54.9855   25.7425 H   0  0  0  0  0  0
    5.9952   54.0456   22.7822 H   0  0  0  0  0  0
    3.7876   54.0944   21.7002 H   0  0  0  0  0  0
    1.8922   54.3517   25.4939 H   0  0  0  0  0  0
    1.3061   53.1462   29.9260 H   0  0  0  0  0  0
   -1.4018   50.6966   27.7170 H   0  0  0  0  0  0
    2.1496   52.0968   25.8493 H   0  0  0  0  0  0
    0.6804   50.6074   24.7638 H   0  0  0  0  0  0
   -0.7316   49.9875   25.5679 H   0  0  0  0  0  0
   -1.4814   50.8670   30.0895 H   0  0  0  0  0  0
   -0.5650   52.0297   30.9792 H   0  0  0  0  0  0
  1  2  1  0  0  0
  1 22  1  0  0  0
  1 23  1  0  0  0
  1 24  1  0  0  0
  2  7  2  0  0  0
  2  3  1  0  0  0
  3  4  2  0  0  0
  3 25  1  0  0  0
  4  5  1  0  0  0
  4 26  1  0  0  0
  5  6  2  0  0  0
  5 21  1  0  0  0
  6  7  1  0  0  0
  6 27  1  0  0  0
  7  8  1  0  0  0
  8 12  1  0  0  0
  8  9  1  0  0  0
  9 10  2  0  0  0
  9 13  1  0  0  0
 10 11  1  0  0  0
 11 12  2  0  0  0
 13 18  2  0  0  0
 13 14  1  0  0  0
 14 15  2  0  0  0
 14 28  1  0  0  0
 15 16  1  0  0  0
 15 20  1  0  0  0
 16 17  2  0  0  0
 16 29  1  0  0  0
 17 18  1  0  0  0
 17 19  1  0  0  0
 18 30  1  0  0  0
 19 31  1  0  0  0
 19 32  1  0  0  0
 20 33  1  0  0  0
 20 34  1  0  0  0
M  END
> <i_i_glide_confnum>
1

> <i_i_glide_lignum>
4733

> <i_i_glide_posenum>
209

> <i_i_glide_rotatable_bonds>
2

> <i_m_Source_File_Index>
1613

> <b_m_subgroup_collapsed>
0

> <r_i_docking_score>
-5.93189

> <r_i_glide_ecoul>
-3.15704

> <r_i_glide_eff_state_penalty>
0

> <r_i_glide_einternal>
5.06198

> <r_i_glide_emodel>
-45.157

> <r_i_glide_energy>
-33.9315

> <r_i_glide_erotb>
0.448509

> <r_i_glide_esite>
-0.0853318

> <r_i_glide_evdw>
-30.7744

> <r_i_glide_gscore>
-5.93189

> <r_i_glide_hbond>
-0.0150073

> <r_i_glide_ligand_efficiency>
-0.282471

> <r_i_glide_ligand_efficiency_ln>
-1.46665

> <r_i_glide_ligand_efficiency_sa>
-0.779316

> <r_i_glide_lipo>
-2.0276

> <r_i_glide_metal>
0

> <r_i_glide_rewards>
-2.24018

> <s_i_glide_gridfile>
wee1_glide-grid

> <s_m_Source_File>
wee1_decoys_glide_SP.sdf

> <s_m_Source_Path>
/Users/zhangxujun/Desktop

> <s_m_entry_id>
1888

> <s_m_entry_name>
wee1_decoys_glide_SP.1613

> <s_m_subgroup_title>
wee1_decoys_glide_SP

> <s_m_subgroupid>
wee1_decoys_glide_SP


$$$$
