ZINC13265990_1991
                    3D
 Schrodinger Suite 2024-2.
 53 55  0  0  1  0            999 V2000
    0.9866   51.4052   18.5216 C   0  0  0  0  0  0
    2.4430   51.1689   18.9622 C   0  0  0  0  0  0
    2.8234   51.8380   20.3080 C   0  0  2  0  0  0
    2.7031   52.9159   20.1761 H   0  0  0  0  0  0
    4.3067   51.6163   20.6538 C   0  0  0  0  0  0
    1.9300   51.4782   21.4177 N   0  0  0  0  0  0
    1.8412   50.2902   22.0561 C   0  0  0  0  0  0
    2.3044   49.2496   21.5971 O   0  0  0  0  0  0
    1.2676   50.2700   23.2820 N   0  0  0  0  0  0
    0.5321   51.2192   23.9106 C   0  0  0  0  0  0
    0.0222   52.1992   23.3591 O   0  0  0  0  0  0
    0.3262   50.9959   25.4131 C   0  0  0  0  0  0
    0.2443   52.4967   26.4538 S   0  0  0  0  0  0
    1.9243   53.2142   26.3492 C   0  0  0  0  0  0
    2.4469   53.3424   25.1811 N   0  0  0  0  0  0
    3.7280   53.8846   25.0130 C   0  0  0  0  0  0
    4.2178   54.0669   23.7210 C   0  0  0  0  0  0
    5.5212   54.5583   23.5077 C   0  0  0  0  0  0
    6.3206   54.8341   24.6308 C   0  0  0  0  0  0
    5.8303   54.6710   25.9263 C   0  0  0  0  0  0
    4.5240   54.2075   26.1085 C   0  0  0  0  0  0
    3.9296   54.0834   27.4931 C   0  0  0  0  0  0
    4.5489   54.4134   28.5115 O   0  0  0  0  0  0
    2.6285   53.6042   27.4888 N   0  0  0  0  0  0
    1.9950   53.5461   28.7505 C   0  0  0  0  0  0
    2.2737   52.4930   29.6310 C   0  0  0  0  0  0
    1.6720   52.4717   30.8867 C   0  0  0  0  0  0
    0.7914   53.4819   31.2535 C   0  0  0  0  0  0
    0.5072   54.5203   30.3793 C   0  0  0  0  0  0
    1.1045   54.5593   29.1245 C   0  0  0  0  0  0
    0.3035   53.5188   32.5099 F   0  0  0  0  0  0
    6.0159   54.8957   22.1231 C   0  0  0  0  0  0
    7.1052   55.5088   22.0182 O   0  0  0  0  0  0
    0.8013   50.9490   17.5450 H   0  0  0  0  0  0
    0.7665   52.4723   18.4379 H   0  0  0  0  0  0
    0.2812   50.9666   19.2286 H   0  0  0  0  0  0
    2.6259   50.0933   19.0152 H   0  0  0  0  0  0
    3.1057   51.5412   18.1765 H   0  0  0  0  0  0
    4.9463   52.0480   19.8813 H   0  0  0  0  0  0
    4.5812   52.0792   21.6013 H   0  0  0  0  0  0
    4.5486   50.5548   20.7070 H   0  0  0  0  0  0
    1.3477   52.2254   21.7729 H   0  0  0  0  0  0
    1.4637   49.4310   23.8071 H   0  0  0  0  0  0
   -0.6151   50.4597   25.5406 H   0  0  0  0  0  0
    1.1042   50.3485   25.8125 H   0  0  0  0  0  0
    3.5746   53.8492   22.8804 H   0  0  0  0  0  0
    7.3248   55.2141   24.4907 H   0  0  0  0  0  0
    6.4638   54.9213   26.7677 H   0  0  0  0  0  0
    2.9673   51.7152   29.3473 H   0  0  0  0  0  0
    1.9034   51.6958   31.5991 H   0  0  0  0  0  0
   -0.1499   55.3057   30.7040 H   0  0  0  0  0  0
    0.8931   55.3802   28.4546 H   0  0  0  0  0  0
    5.2893   54.5878   21.1516 O   0  5  0  0  0  0
  1  2  1  0  0  0
  1 34  1  0  0  0
  1 35  1  0  0  0
  1 36  1  0  0  0
  2  3  1  0  0  0
  2 37  1  0  0  0
  2 38  1  0  0  0
  3  4  1  0  0  0
  3  5  1  0  0  0
  3  6  1  0  0  0
  5 39  1  0  0  0
  5 40  1  0  0  0
  5 41  1  0  0  0
  6  7  1  0  0  0
  6 42  1  0  0  0
  7  8  2  0  0  0
  7  9  1  0  0  0
  9 10  1  0  0  0
  9 43  1  0  0  0
 10 11  2  0  0  0
 10 12  1  0  0  0
 12 13  1  0  0  0
 12 44  1  0  0  0
 12 45  1  0  0  0
 13 14  1  0  0  0
 14 24  1  0  0  0
 14 15  2  0  0  0
 15 16  1  0  0  0
 16 21  2  0  0  0
 16 17  1  0  0  0
 17 18  2  0  0  0
 17 46  1  0  0  0
 18 19  1  0  0  0
 18 32  1  0  0  0
 19 20  2  0  0  0
 19 47  1  0  0  0
 20 21  1  0  0  0
 20 48  1  0  0  0
 21 22  1  0  0  0
 22 23  2  0  0  0
 22 24  1  0  0  0
 24 25  1  0  0  0
 25 30  2  0  0  0
 25 26  1  0  0  0
 26 27  2  0  0  0
 26 49  1  0  0  0
 27 28  1  0  0  0
 27 50  1  0  0  0
 28 29  2  0  0  0
 28 31  1  0  0  0
 29 30  1  0  0  0
 29 51  1  0  0  0
 30 52  1  0  0  0
 32 33  2  0  0  0
 32 53  1  0  0  0
M  CHG  1  53  -1
M  END
> <i_i_glide_confnum>
256

> <i_i_glide_lignum>
1992

> <i_i_glide_posenum>
217

> <i_i_glide_rotatable_bonds>
10

> <i_m_Source_File_Index>
5438

> <b_m_subgroup_collapsed>
0

> <r_i_docking_score>
-4.89846

> <r_i_glide_ecoul>
-0.353873

> <r_i_glide_eff_state_penalty>
0

> <r_i_glide_einternal>
9.59067

> <r_i_glide_emodel>
-57.726

> <r_i_glide_energy>
-47.5845

> <r_i_glide_erotb>
0.727424

> <r_i_glide_esite>
-0.1

> <r_i_glide_evdw>
-47.2306

> <r_i_glide_gscore>
-4.89846

> <r_i_glide_hbond>
0

> <r_i_glide_ligand_efficiency>
-0.148438

> <r_i_glide_ligand_efficiency_ln>
-1.08939

> <r_i_glide_ligand_efficiency_sa>
-0.476121

> <r_i_glide_lipo>
-2.59099

> <r_i_glide_metal>
0

> <r_i_glide_rewards>
-0.520282

> <s_i_glide_gridfile>
wee1_glide-grid

> <s_m_Source_File>
wee1_decoys_glide_SP.sdf

> <s_m_Source_Path>
/Users/zhangxujun/Desktop

> <s_m_entry_id>
5713

> <s_m_entry_name>
wee1_decoys_glide_SP.5438

> <s_m_subgroup_title>
wee1_decoys_glide_SP

> <s_m_subgroupid>
wee1_decoys_glide_SP


$$$$
