ZINC15053817_4300
                    3D
 Schrodinger Suite 2024-2.
 49 53  0  0  1  0            999 V2000
    0.8565   52.3907   31.1587 C   0  0  0  0  0  0
   -0.0956   52.4752   30.1547 C   0  0  0  0  0  0
    0.2756   52.7729   28.8484 C   0  0  0  0  0  0
    1.6397   53.0042   28.5059 C   0  0  0  0  0  0
    2.6028   52.9504   29.5580 C   0  0  0  0  0  0
    2.2001   52.5863   30.8678 C   0  0  0  0  0  0
    3.9396   53.2755   29.2739 C   0  0  0  0  0  0
    4.3733   53.6904   28.0028 C   0  0  0  0  0  0
    5.7176   54.0849   27.7825 C   0  0  0  0  0  0
    6.1340   54.4860   26.5184 C   0  0  0  0  0  0
    5.2430   54.4943   25.4545 C   0  0  0  0  0  0
    3.9207   54.0983   25.6374 C   0  0  0  0  0  0
    3.4402   53.6967   26.9222 C   0  0  0  0  0  0
    2.0859   53.2887   27.1726 C   0  0  0  0  0  0
    1.1705   53.1504   26.0087 C   0  0  0  0  0  0
    0.4445   52.0589   25.6589 C   0  0  0  0  0  0
   -0.3318   52.0458   24.4438 C   0  0  0  0  0  0
   -0.4570   53.0138   23.6844 O   0  0  0  0  0  0
   -0.8922   50.8200   24.2322 N   0  0  0  0  0  0
   -0.7322   49.8530   25.1817 C   0  0  0  0  0  0
   -1.1688   48.6703   25.2817 N   0  0  0  0  0  0
    0.3044   50.4993   26.4631 S   0  0  0  0  0  0
   -1.6596   50.5960   23.0574 C   0  0  0  0  0  0
   -3.0132   50.2420   23.1502 C   0  0  0  0  0  0
   -3.7827   50.1140   21.9969 C   0  0  0  0  0  0
   -3.2038   50.3583   20.7495 C   0  0  0  0  0  0
   -1.8482   50.6674   20.6444 C   0  0  0  0  0  0
   -1.0750   50.7744   21.7941 C   0  0  0  0  0  0
   -4.2012   50.3475   19.2695 S   0  0  0  0  0  0
   -5.4964   49.7466   19.6015 O   0  0  0  0  0  0
   -4.1006   51.6956   18.7027 O   0  0  0  0  0  0
   -3.3833   49.2644   18.1785 N   0  0  0  0  0  0
    0.5465   52.1398   32.1640 H   0  0  0  0  0  0
   -1.1312   52.2792   30.3915 H   0  0  0  0  0  0
   -0.4918   52.8259   28.0913 H   0  0  0  0  0  0
    2.9362   52.4988   31.6546 H   0  0  0  0  0  0
    4.6607   53.2380   30.0750 H   0  0  0  0  0  0
    6.4200   54.0778   28.6045 H   0  0  0  0  0  0
    7.1581   54.7833   26.3602 H   0  0  0  0  0  0
    5.5821   54.7985   24.4750 H   0  0  0  0  0  0
    3.2613   54.1062   24.7830 H   0  0  0  0  0  0
    1.1095   54.0322   25.3847 H   0  0  0  0  0  0
   -0.8952   48.2421   26.1641 H   0  0  0  0  0  0
   -3.4752   50.0914   24.1159 H   0  0  0  0  0  0
   -4.8325   49.8704   22.0807 H   0  0  0  0  0  0
   -1.3990   50.8487   19.6781 H   0  0  0  0  0  0
   -0.0305   51.0385   21.7044 H   0  0  0  0  0  0
   -3.8964   48.4034   17.9869 H   0  0  0  0  0  0
   -2.9876   49.7126   17.3493 H   0  0  0  0  0  0
  1  6  2  0  0  0
  1  2  1  0  0  0
  1 33  1  0  0  0
  2  3  2  0  0  0
  2 34  1  0  0  0
  3  4  1  0  0  0
  3 35  1  0  0  0
  4 14  2  0  0  0
  4  5  1  0  0  0
  5  6  1  0  0  0
  5  7  2  0  0  0
  6 36  1  0  0  0
  7  8  1  0  0  0
  7 37  1  0  0  0
  8 13  2  0  0  0
  8  9  1  0  0  0
  9 10  2  0  0  0
  9 38  1  0  0  0
 10 11  1  0  0  0
 10 39  1  0  0  0
 11 12  2  0  0  0
 11 40  1  0  0  0
 12 13  1  0  0  0
 12 41  1  0  0  0
 13 14  1  0  0  0
 14 15  1  0  0  0
 15 16  2  0  0  0
 15 42  1  0  0  0
 16 22  1  0  0  0
 16 17  1  0  0  0
 17 18  2  0  0  0
 17 19  1  0  0  0
 19 20  1  0  0  0
 19 23  1  0  0  0
 20 21  2  0  0  0
 20 22  1  0  0  0
 21 43  1  0  0  0
 23 28  2  0  0  0
 23 24  1  0  0  0
 24 25  2  0  0  0
 24 44  1  0  0  0
 25 26  1  0  0  0
 25 45  1  0  0  0
 26 27  2  0  0  0
 26 29  1  0  0  0
 27 28  1  0  0  0
 27 46  1  0  0  0
 28 47  1  0  0  0
 29 30  2  0  0  0
 29 31  2  0  0  0
 29 32  1  0  0  0
 32 48  1  0  0  0
 32 49  1  0  0  0
M  END
> <i_i_glide_confnum>
1

> <i_i_glide_lignum>
4301

> <i_i_glide_posenum>
175

> <i_i_glide_rotatable_bonds>
3

> <i_m_Source_File_Index>
5365

> <b_m_subgroup_collapsed>
0

> <r_i_docking_score>
-4.83645

> <r_i_glide_ecoul>
-3.58264

> <r_i_glide_eff_state_penalty>
0

> <r_i_glide_einternal>
2.40966

> <r_i_glide_emodel>
-54.8124

> <r_i_glide_energy>
-44.4485

> <r_i_glide_erotb>
0.0952814

> <r_i_glide_esite>
-0.059697

> <r_i_glide_evdw>
-40.8659

> <r_i_glide_gscore>
-4.83645

> <r_i_glide_hbond>
-0.0490906

> <r_i_glide_ligand_efficiency>
-0.151139

> <r_i_glide_ligand_efficiency_ln>
-1.08301

> <r_i_glide_ligand_efficiency_sa>
-0.479837

> <r_i_glide_lipo>
-2.59426

> <r_i_glide_metal>
0

> <r_i_glide_rewards>
0.352005

> <s_i_glide_gridfile>
wee1_glide-grid

> <s_m_Source_File>
wee1_decoys_glide_SP.sdf

> <s_m_Source_Path>
/Users/zhangxujun/Desktop

> <s_m_entry_id>
5640

> <s_m_entry_name>
wee1_decoys_glide_SP.5365

> <s_m_subgroup_title>
wee1_decoys_glide_SP

> <s_m_subgroupid>
wee1_decoys_glide_SP


$$$$
