ZINC15947410_2217
                    3D
 Schrodinger Suite 2024-2.
 58 62  0  0  1  0            999 V2000
   12.5067   49.6608   14.0817 C   0  0  0  0  0  0
   11.0456   49.5861   14.5543 C   0  0  0  0  0  0
   10.5327   50.9587   15.0555 N   0  3  2  0  0  0
   11.1990   51.3557   16.3964 C   0  0  0  0  0  0
   10.8451   52.8263   16.6956 C   0  0  0  0  0  0
    9.3346   53.0144   16.6341 C   0  0  0  0  0  0
    8.5118   52.1250   15.9293 C   0  0  0  0  0  0
    6.8290   52.5251   16.0893 S   0  0  0  0  0  0
    7.2157   53.8075   17.1846 C   0  0  0  0  0  0
    8.5897   53.9989   17.3074 C   0  0  0  0  0  0
    9.0034   55.1436   18.0983 C   0  0  0  0  0  0
    8.2530   55.8450   18.8431 N   0  0  0  0  0  0
    6.8166   55.4906   18.8993 C   0  0  1  0  0  0
    6.2776   56.4228   18.7182 H   0  0  0  0  0  0
    6.2771   54.5736   17.8554 N   0  0  0  0  0  0
    6.3885   55.1367   20.3485 C   0  0  0  0  0  0
    5.1650   54.4975   20.5999 C   0  0  0  0  0  0
    4.7787   54.1760   21.9015 C   0  0  0  0  0  0
    5.5906   54.4969   22.9913 C   0  0  0  0  0  0
    6.8164   55.1234   22.7430 C   0  0  0  0  0  0
    7.2027   55.4500   21.4483 C   0  0  0  0  0  0
    5.1034   54.1715   24.2475 O   0  0  0  0  0  0
    5.4249   54.8236   25.4221 C   0  0  0  0  0  0
    6.2955   55.6947   25.5465 O   0  0  0  0  0  0
    4.6228   54.3131   26.5825 C   0  0  0  0  0  0
    5.0956   54.4991   27.8876 C   0  0  0  0  0  0
    4.3356   54.0836   28.9792 C   0  0  0  0  0  0
    3.0996   53.4711   28.7789 C   0  0  0  0  0  0
    2.6194   53.2810   27.4845 C   0  0  0  0  0  0
    3.3737   53.6978   26.3915 C   0  0  0  0  0  0
    2.2906   52.9885   29.9694 C   0  0  0  0  0  0
   10.3031   55.5575   18.0816 O   0  0  0  0  0  0
    8.9880   50.8768   15.1989 C   0  0  0  0  0  0
   12.8191   48.6952   13.6818 H   0  0  0  0  0  0
   12.6323   50.3897   13.2805 H   0  0  0  0  0  0
   13.2068   49.9033   14.8787 H   0  0  0  0  0  0
   10.9011   48.8945   15.3839 H   0  0  0  0  0  0
   10.3982   49.2978   13.7223 H   0  0  0  0  0  0
   10.8380   50.6612   17.1607 H   0  0  0  0  0  0
   12.2780   51.2567   16.2941 H   0  0  0  0  0  0
   11.3179   53.4962   15.9774 H   0  0  0  0  0  0
   11.2376   53.0984   17.6761 H   0  0  0  0  0  0
    5.3674   54.1981   18.0860 H   0  0  0  0  0  0
    4.4906   54.2465   19.7936 H   0  0  0  0  0  0
    3.8268   53.6899   22.0668 H   0  0  0  0  0  0
    7.4990   55.3635   23.5426 H   0  0  0  0  0  0
    8.1579   55.9376   21.3234 H   0  0  0  0  0  0
    6.0480   54.9785   28.0719 H   0  0  0  0  0  0
    4.7047   54.2458   29.9804 H   0  0  0  0  0  0
    1.6620   52.8031   27.3228 H   0  0  0  0  0  0
    2.9709   53.5452   25.3990 H   0  0  0  0  0  0
    1.6255   53.7748   30.3267 H   0  0  0  0  0  0
    1.6898   52.1160   29.7068 H   0  0  0  0  0  0
    2.9430   52.6795   30.7863 H   0  0  0  0  0  0
   10.6136   55.6963   18.9868 H   0  0  0  0  0  0
    8.7592   49.9842   15.7801 H   0  0  0  0  0  0
    8.5911   50.7905   14.1855 H   0  0  0  0  0  0
   10.7720   51.6462   14.3527 H   0  0  0  0  0  0
  1  2  1  0  0  0
  1 34  1  0  0  0
  1 35  1  0  0  0
  1 36  1  0  0  0
  2  3  1  0  0  0
  2 37  1  0  0  0
  2 38  1  0  0  0
  3 33  1  0  0  0
  3  4  1  0  0  0
  3 58  1  0  0  0
  4  5  1  0  0  0
  4 39  1  0  0  0
  4 40  1  0  0  0
  5  6  1  0  0  0
  5 41  1  0  0  0
  5 42  1  0  0  0
  6 10  1  0  0  0
  6  7  2  0  0  0
  7  8  1  0  0  0
  7 33  1  0  0  0
  8  9  1  0  0  0
  9 15  1  0  0  0
  9 10  2  0  0  0
 10 11  1  0  0  0
 11 12  2  0  0  0
 11 32  1  0  0  0
 12 13  1  0  0  0
 13 14  1  0  0  0
 13 15  1  0  0  0
 13 16  1  0  0  0
 15 43  1  0  0  0
 16 21  2  0  0  0
 16 17  1  0  0  0
 17 18  2  0  0  0
 17 44  1  0  0  0
 18 19  1  0  0  0
 18 45  1  0  0  0
 19 20  2  0  0  0
 19 22  1  0  0  0
 20 21  1  0  0  0
 20 46  1  0  0  0
 21 47  1  0  0  0
 22 23  1  0  0  0
 23 24  2  0  0  0
 23 25  1  0  0  0
 25 30  2  0  0  0
 25 26  1  0  0  0
 26 27  2  0  0  0
 26 48  1  0  0  0
 27 28  1  0  0  0
 27 49  1  0  0  0
 28 29  2  0  0  0
 28 31  1  0  0  0
 29 30  1  0  0  0
 29 50  1  0  0  0
 30 51  1  0  0  0
 31 52  1  0  0  0
 31 53  1  0  0  0
 31 54  1  0  0  0
 32 55  1  0  0  0
 33 56  1  0  0  0
 33 57  1  0  0  0
M  CHG  1   3   1
M  END
> <i_i_glide_confnum>
3

> <i_i_glide_lignum>
2218

> <i_i_glide_posenum>
321

> <i_i_glide_rotatable_bonds>
6

> <i_m_Source_File_Index>
3151

> <b_m_subgroup_collapsed>
0

> <r_i_docking_score>
-7.08505

> <r_i_glide_ecoul>
-10.493

> <r_i_glide_eff_state_penalty>
0

> <r_i_glide_einternal>
8.69897

> <r_i_glide_emodel>
-72.042

> <r_i_glide_energy>
-51.9557

> <r_i_glide_erotb>
0.398276

> <r_i_glide_esite>
-0.00620173

> <r_i_glide_evdw>
-41.4627

> <r_i_glide_gscore>
-7.08505

> <r_i_glide_hbond>
-0.336359

> <r_i_glide_ligand_efficiency>
-0.221408

> <r_i_glide_ligand_efficiency_ln>
-1.58654

> <r_i_glide_ligand_efficiency_sa>
-0.702926

> <r_i_glide_lipo>
-2.60479

> <r_i_glide_metal>
0

> <r_i_glide_rewards>
-0.888894

> <s_i_glide_gridfile>
wee1_glide-grid

> <s_m_Source_File>
wee1_decoys_glide_SP.sdf

> <s_m_Source_Path>
/Users/zhangxujun/Desktop

> <s_m_entry_id>
3426

> <s_m_entry_name>
wee1_decoys_glide_SP.3151

> <s_m_subgroup_title>
wee1_decoys_glide_SP

> <s_m_subgroupid>
wee1_decoys_glide_SP


$$$$
