ZINC39440542_2512
                    3D
 Schrodinger Suite 2024-2.
 51 54  0  0  1  0            999 V2000
    5.1780   54.7497   29.6224 C   0  0  0  0  0  0
    5.3151   54.2075   28.2084 C   0  0  0  0  0  0
    6.3691   53.6937   27.8356 O   0  0  0  0  0  0
    4.2131   54.3009   27.4530 N   0  0  0  0  0  0
    4.0249   53.7384   26.1139 C   0  0  1  0  0  0
    4.4833   52.7622   26.2005 H   0  0  0  0  0  0
    2.4984   53.5581   25.8345 C   0  0  0  0  0  0
    1.6226   53.0298   26.9530 C   0  0  0  0  0  0
    1.2645   53.6638   28.2281 C   0  0  0  0  0  0
    1.5187   54.9244   28.8264 C   0  0  0  0  0  0
    1.1038   55.2106   30.1417 C   0  0  0  0  0  0
    0.3764   54.2561   30.8810 C   0  0  0  0  0  0
    0.0672   53.0101   30.3067 C   0  0  0  0  0  0
    0.5063   52.7297   29.0010 C   0  0  0  0  0  0
    0.3697   51.6349   28.1762 N   0  0  0  0  0  0
    1.0236   51.8155   26.9761 C   0  0  0  0  0  0
    4.8067   54.4978   25.0052 C   0  0  0  0  0  0
    5.5154   55.4621   25.3107 O   0  0  0  0  0  0
    4.6743   54.0413   23.7378 N   0  0  0  0  0  0
    5.4124   54.4728   22.6170 C   0  0  0  0  0  0
    6.7511   54.8862   22.7201 C   0  0  0  0  0  0
    7.4623   55.2992   21.5939 C   0  0  0  0  0  0
    6.8328   55.3103   20.3562 C   0  0  0  0  0  0
    5.5044   54.9213   20.2396 C   0  0  0  0  0  0
    4.7933   54.4779   21.3595 C   0  0  0  0  0  0
    4.9310   55.1075   18.5872 S   0  0  0  0  0  0
    6.4443   56.0153   18.1360 C   0  0  2  0  0  0
    6.7634   55.6938   17.1437 H   0  0  0  0  0  0
    7.4179   55.6316   19.1360 N   0  0  0  0  0  0
    6.3054   57.8235   18.1257 S   0  0  0  0  0  0
    5.2189   58.0997   16.7023 C   0  0  0  0  0  0
    4.6213   55.6832   29.6722 H   0  0  0  0  0  0
    4.6772   54.0091   30.2352 H   0  0  0  0  0  0
    6.1619   54.8971   30.0593 H   0  0  0  0  0  0
    3.3844   54.7040   27.8595 H   0  0  0  0  0  0
    2.0619   54.4965   25.5132 H   0  0  0  0  0  0
    2.3721   52.8946   24.9776 H   0  0  0  0  0  0
    2.0471   55.6862   28.2734 H   0  0  0  0  0  0
    1.3240   56.1743   30.5791 H   0  0  0  0  0  0
    0.0504   54.4788   31.8871 H   0  0  0  0  0  0
   -0.4962   52.2763   30.8681 H   0  0  0  0  0  0
    1.0685   51.0928   26.1744 H   0  0  0  0  0  0
   -0.1409   50.7865   28.3952 H   0  0  0  0  0  0
    3.9893   53.3214   23.5685 H   0  0  0  0  0  0
    7.2610   54.8703   23.6714 H   0  0  0  0  0  0
    8.4985   55.5924   21.6820 H   0  0  0  0  0  0
    3.7599   54.1775   21.2578 H   0  0  0  0  0  0
    8.3638   55.9669   19.0189 H   0  0  0  0  0  0
    5.0750   59.1704   16.5474 H   0  0  0  0  0  0
    4.2435   57.6445   16.8719 H   0  0  0  0  0  0
    5.6535   57.6738   15.7984 H   0  0  0  0  0  0
  1  2  1  0  0  0
  1 32  1  0  0  0
  1 33  1  0  0  0
  1 34  1  0  0  0
  2  3  2  0  0  0
  2  4  1  0  0  0
  4  5  1  0  0  0
  4 35  1  0  0  0
  5  6  1  0  0  0
  5  7  1  0  0  0
  5 17  1  0  0  0
  7 36  1  0  0  0
  7 37  1  0  0  0
  7  8  1  0  0  0
  8  9  1  0  0  0
  8 16  2  0  0  0
  9 10  2  0  0  0
  9 14  1  0  0  0
 10 11  1  0  0  0
 10 38  1  0  0  0
 11 12  2  0  0  0
 11 39  1  0  0  0
 12 13  1  0  0  0
 12 40  1  0  0  0
 13 14  2  0  0  0
 13 41  1  0  0  0
 14 15  1  0  0  0
 15 43  1  0  0  0
 15 16  1  0  0  0
 16 42  1  0  0  0
 17 18  2  0  0  0
 17 19  1  0  0  0
 19 20  1  0  0  0
 19 44  1  0  0  0
 20 25  2  0  0  0
 20 21  1  0  0  0
 21 22  2  0  0  0
 21 45  1  0  0  0
 22 23  1  0  0  0
 22 46  1  0  0  0
 23 29  1  0  0  0
 23 24  2  0  0  0
 24 25  1  0  0  0
 24 26  1  0  0  0
 25 47  1  0  0  0
 26 27  1  0  0  0
 27 28  1  0  0  0
 27 29  1  0  0  0
 27 30  1  0  0  0
 29 48  1  0  0  0
 30 31  1  0  0  0
 31 49  1  0  0  0
 31 50  1  0  0  0
 31 51  1  0  0  0
M  END
> <i_i_glide_confnum>
69

> <i_i_glide_lignum>
2513

> <i_i_glide_posenum>
307

> <i_i_glide_rotatable_bonds>
8

> <i_m_Source_File_Index>
3783

> <b_m_subgroup_collapsed>
0

> <r_i_docking_score>
-6.20035

> <r_i_glide_ecoul>
-4.21514

> <r_i_glide_eff_state_penalty>
0

> <r_i_glide_einternal>
4.35763

> <r_i_glide_emodel>
-65.4108

> <r_i_glide_energy>
-49.2076

> <r_i_glide_erotb>
0.545398

> <r_i_glide_esite>
-0.0016733

> <r_i_glide_evdw>
-44.9924

> <r_i_glide_gscore>
-6.20035

> <r_i_glide_hbond>
0

> <r_i_glide_ligand_efficiency>
-0.213805

> <r_i_glide_ligand_efficiency_ln>
-1.41972

> <r_i_glide_ligand_efficiency_sa>
-0.656878

> <r_i_glide_lipo>
-2.64133

> <r_i_glide_metal>
0

> <r_i_glide_rewards>
-1.22085

> <s_i_glide_gridfile>
wee1_glide-grid

> <s_m_Source_File>
wee1_decoys_glide_SP.sdf

> <s_m_Source_Path>
/Users/zhangxujun/Desktop

> <s_m_entry_id>
4058

> <s_m_entry_name>
wee1_decoys_glide_SP.3783

> <s_m_subgroup_title>
wee1_decoys_glide_SP

> <s_m_subgroupid>
wee1_decoys_glide_SP


$$$$
