ZINC08918445_3245
                    3D
 Schrodinger Suite 2024-2.
 69 73  0  0  1  0            999 V2000
   -0.2851   51.9741   27.7933 C   0  0  0  0  0  0
    0.6252   52.4966   26.6794 C   0  0  0  0  0  0
    0.1708   52.4965   25.3490 C   0  0  0  0  0  0
    1.0267   52.9581   24.3374 C   0  0  0  0  0  0
    2.2931   53.4494   24.6403 C   0  0  0  0  0  0
    2.7487   53.4781   25.9628 C   0  0  0  0  0  0
    1.9048   52.9992   26.9763 C   0  0  0  0  0  0
    2.3064   53.0042   28.3044 O   0  0  0  0  0  0
    3.5542   53.4300   28.7076 C   0  0  0  0  0  0
    3.7476   53.4009   29.9234 O   0  0  0  0  0  0
    4.4989   53.8694   27.6535 C   0  0  0  0  0  0
    4.1051   53.9477   26.3519 C   0  0  0  0  0  0
    5.1177   54.2441   25.2299 C   0  0  0  0  0  0
    6.4578   54.8232   25.7298 C   0  0  0  0  0  0
    6.9380   54.1020   26.9950 C   0  0  0  0  0  0
    5.9056   54.2632   28.1199 C   0  0  0  0  0  0
   -1.1177   52.0454   25.1138 O   0  0  0  0  0  0
   -1.7553   52.2170   23.8388 C   0  0  0  0  0  0
   -1.6792   50.9280   23.0007 C   0  0  0  0  0  0
   -2.3648   50.8299   21.9825 O   0  0  0  0  0  0
   -0.8769   49.9467   23.4454 N   0  0  0  0  0  0
   -0.8056   48.5853   22.9056 C   0  0  0  0  0  0
   -2.0242   47.6974   23.2689 C   0  0  0  0  0  0
   -2.5034   47.0126   22.3630 O   0  0  0  0  0  0
   -2.5397   47.6641   24.5299 N   0  0  0  0  0  0
   -1.9105   48.2968   25.6969 C   0  0  0  0  0  0
   -2.8930   49.3833   26.2040 C   0  0  0  0  0  0
   -4.2954   48.8305   26.5812 C   0  0  1  0  0  0
   -5.2484   49.9767   27.0161 C   0  0  0  0  0  0
   -5.6849   50.8918   25.8523 C   0  0  0  0  0  0
   -6.2708   50.0772   24.6844 C   0  0  0  0  0  0
   -5.2908   48.9930   24.2042 C   0  0  0  0  0  0
   -4.8343   48.0356   25.3426 C   0  0  1  0  0  0
   -5.7201   47.5082   25.7012 H   0  0  0  0  0  0
   -3.8112   46.9738   24.8367 C   0  0  0  0  0  0
   -4.0957   47.9683   27.6920 O   0  0  0  0  0  0
   -1.3353   52.1677   27.5742 H   0  0  0  0  0  0
   -0.1540   50.8985   27.9228 H   0  0  0  0  0  0
   -0.0918   52.4668   28.7462 H   0  0  0  0  0  0
    0.7341   52.9431   23.2997 H   0  0  0  0  0  0
    2.9108   53.7890   23.8224 H   0  0  0  0  0  0
    5.3144   53.3019   24.7166 H   0  0  0  0  0  0
    4.6910   54.8777   24.4534 H   0  0  0  0  0  0
    6.3431   55.8883   25.9345 H   0  0  0  0  0  0
    7.2107   54.7455   24.9430 H   0  0  0  0  0  0
    7.8995   54.4972   27.3213 H   0  0  0  0  0  0
    7.0985   53.0434   26.7856 H   0  0  0  0  0  0
    5.9022   55.2995   28.4569 H   0  0  0  0  0  0
    6.2288   53.6779   28.9793 H   0  0  0  0  0  0
   -1.3992   53.0797   23.2771 H   0  0  0  0  0  0
   -2.8075   52.4169   24.0452 H   0  0  0  0  0  0
   -0.3426   50.1309   24.2840 H   0  0  0  0  0  0
    0.0916   48.0983   23.2830 H   0  0  0  0  0  0
   -0.6902   48.6323   21.8215 H   0  0  0  0  0  0
   -1.8140   47.5122   26.4490 H   0  0  0  0  0  0
   -0.8846   48.6298   25.5510 H   0  0  0  0  0  0
   -2.9889   50.1512   25.4421 H   0  0  0  0  0  0
   -2.4794   49.9407   27.0441 H   0  0  0  0  0  0
   -4.7558   50.6143   27.7525 H   0  0  0  0  0  0
   -6.1491   49.5544   27.4664 H   0  0  0  0  0  0
   -6.4271   51.6085   26.2069 H   0  0  0  0  0  0
   -4.8411   51.4884   25.5017 H   0  0  0  0  0  0
   -7.2051   49.6088   24.9966 H   0  0  0  0  0  0
   -6.5229   50.7423   23.8566 H   0  0  0  0  0  0
   -5.7279   48.4155   23.3873 H   0  0  0  0  0  0
   -4.4280   49.4839   23.7526 H   0  0  0  0  0  0
   -3.6196   46.2456   25.6262 H   0  0  0  0  0  0
   -4.1977   46.4000   23.9925 H   0  0  0  0  0  0
   -3.1860   48.0964   28.0310 H   0  0  0  0  0  0
  1  2  1  0  0  0
  1 37  1  0  0  0
  1 38  1  0  0  0
  1 39  1  0  0  0
  2  7  2  0  0  0
  2  3  1  0  0  0
  3  4  2  0  0  0
  3 17  1  0  0  0
  4  5  1  0  0  0
  4 40  1  0  0  0
  5  6  2  0  0  0
  5 41  1  0  0  0
  6 12  1  0  0  0
  6  7  1  0  0  0
  7  8  1  0  0  0
  8  9  1  0  0  0
  9 10  2  0  0  0
  9 11  1  0  0  0
 11 16  1  0  0  0
 11 12  2  0  0  0
 12 13  1  0  0  0
 13 14  1  0  0  0
 13 42  1  0  0  0
 13 43  1  0  0  0
 14 15  1  0  0  0
 14 44  1  0  0  0
 14 45  1  0  0  0
 15 16  1  0  0  0
 15 46  1  0  0  0
 15 47  1  0  0  0
 16 48  1  0  0  0
 16 49  1  0  0  0
 17 18  1  0  0  0
 18 19  1  0  0  0
 18 50  1  0  0  0
 18 51  1  0  0  0
 19 20  2  0  0  0
 19 21  1  0  0  0
 21 22  1  0  0  0
 21 52  1  0  0  0
 22 23  1  0  0  0
 22 53  1  0  0  0
 22 54  1  0  0  0
 23 24  2  0  0  0
 23 25  1  0  0  0
 25 35  1  0  0  0
 25 26  1  0  0  0
 26 27  1  0  0  0
 26 55  1  0  0  0
 26 56  1  0  0  0
 27 28  1  0  0  0
 27 57  1  0  0  0
 27 58  1  0  0  0
 28 33  1  0  0  0
 28 29  1  0  0  0
 28 36  1  0  0  0
 29 30  1  0  0  0
 29 59  1  0  0  0
 29 60  1  0  0  0
 30 31  1  0  0  0
 30 61  1  0  0  0
 30 62  1  0  0  0
 31 32  1  0  0  0
 31 63  1  0  0  0
 31 64  1  0  0  0
 32 33  1  0  0  0
 32 65  1  0  0  0
 32 66  1  0  0  0
 33 34  1  0  0  0
 33 35  1  0  0  0
 35 67  1  0  0  0
 35 68  1  0  0  0
 36 69  1  0  0  0
M  END
> <i_i_glide_confnum>
202

> <i_i_glide_lignum>
3246

> <i_i_glide_posenum>
273

> <i_i_glide_rotatable_bonds>
8

> <i_m_Source_File_Index>
3686

> <b_m_subgroup_collapsed>
0

> <r_i_docking_score>
-5.74936

> <r_i_glide_ecoul>
-8.56984

> <r_i_glide_eff_state_penalty>
0

> <r_i_glide_einternal>
8.49704

> <r_i_glide_emodel>
-58.7316

> <r_i_glide_energy>
-45.5057

> <r_i_glide_erotb>
0.610039

> <r_i_glide_esite>
-0.0501374

> <r_i_glide_evdw>
-36.9359

> <r_i_glide_gscore>
-5.74936

> <r_i_glide_hbond>
-0.28563

> <r_i_glide_ligand_efficiency>
-0.164267

> <r_i_glide_ligand_efficiency_ln>
-1.26211

> <r_i_glide_ligand_efficiency_sa>
-0.53733

> <r_i_glide_lipo>
-2.68573

> <r_i_glide_metal>
0

> <r_i_glide_rewards>
-0.205632

> <s_i_glide_gridfile>
wee1_glide-grid

> <s_m_Source_File>
wee1_decoys_glide_SP.sdf

> <s_m_Source_Path>
/Users/zhangxujun/Desktop

> <s_m_entry_id>
3961

> <s_m_entry_name>
wee1_decoys_glide_SP.3686

> <s_m_subgroup_title>
wee1_decoys_glide_SP

> <s_m_subgroupid>
wee1_decoys_glide_SP


$$$$
