ZINC61373365_1814
                    3D
 Schrodinger Suite 2024-2.
 35 37  0  0  1  0            999 V2000
    4.0408   52.1538   29.9473 C   0  0  0  0  0  0
    3.1616   52.2752   28.8809 C   0  0  0  0  0  0
    1.7906   52.3540   29.1062 C   0  0  0  0  0  0
    1.3289   52.2779   30.4324 C   0  0  0  0  0  0
    2.1777   52.1128   31.4779 N   0  0  0  0  0  0
    3.5121   52.0964   31.2321 C   0  0  0  0  0  0
   -0.0220   52.3445   30.7614 N   0  0  0  0  0  0
    0.7367   52.5330   27.6757 S   0  0  0  0  0  0
   -0.4956   53.1787   28.1249 O   0  0  0  0  0  0
    0.7079   51.2400   26.9870 O   0  0  0  0  0  0
    1.5422   53.6971   26.6320 N   0  0  0  0  0  0
    2.4609   53.3300   25.5371 C   0  0  1  0  0  0
    2.5993   52.2517   25.5477 H   0  0  0  0  0  0
    1.7312   53.6754   24.2171 C   0  0  0  0  0  0
    2.5670   53.2430   22.9964 C   0  0  0  0  0  0
    3.9457   53.9431   22.9001 C   0  0  0  0  0  0
    4.5292   54.1846   24.2897 C   0  0  0  0  0  0
    3.8417   53.9910   25.4971 C   0  0  0  0  0  0
    4.5907   54.4477   26.5940 C   0  0  0  0  0  0
    5.8563   54.8967   26.2519 C   0  0  0  0  0  0
    6.1239   54.8357   24.5445 S   0  0  0  0  0  0
    5.1035   52.0965   29.7628 H   0  0  0  0  0  0
    3.5491   52.3132   27.8782 H   0  0  0  0  0  0
    4.1661   51.9882   32.0818 H   0  0  0  0  0  0
   -0.6803   52.4018   29.9954 H   0  0  0  0  0  0
   -0.3419   52.0977   31.7003 H   0  0  0  0  0  0
    1.2124   54.6639   26.6694 H   0  0  0  0  0  0
    1.5195   54.7445   24.1537 H   0  0  0  0  0  0
    0.7642   53.1699   24.1823 H   0  0  0  0  0  0
    2.0051   53.4266   22.0789 H   0  0  0  0  0  0
    2.7063   52.1615   23.0358 H   0  0  0  0  0  0
    3.8079   54.8971   22.3928 H   0  0  0  0  0  0
    4.6205   53.3495   22.2825 H   0  0  0  0  0  0
    4.2339   54.4334   27.6123 H   0  0  0  0  0  0
    6.6205   55.2708   26.9177 H   0  0  0  0  0  0
  1  6  2  0  0  0
  1  2  1  0  0  0
  1 22  1  0  0  0
  2  3  2  0  0  0
  2 23  1  0  0  0
  3  4  1  0  0  0
  3  8  1  0  0  0
  4  5  2  0  0  0
  4  7  1  0  0  0
  5  6  1  0  0  0
  6 24  1  0  0  0
  7 25  1  0  0  0
  7 26  1  0  0  0
  8  9  2  0  0  0
  8 10  2  0  0  0
  8 11  1  0  0  0
 11 12  1  0  0  0
 11 27  1  0  0  0
 12 13  1  0  0  0
 12 18  1  0  0  0
 12 14  1  0  0  0
 14 15  1  0  0  0
 14 28  1  0  0  0
 14 29  1  0  0  0
 15 16  1  0  0  0
 15 30  1  0  0  0
 15 31  1  0  0  0
 16 17  1  0  0  0
 16 32  1  0  0  0
 16 33  1  0  0  0
 17 21  1  0  0  0
 17 18  2  0  0  0
 18 19  1  0  0  0
 19 20  2  0  0  0
 19 34  1  0  0  0
 20 21  1  0  0  0
 20 35  1  0  0  0
M  END
> <i_i_glide_confnum>
8

> <i_i_glide_lignum>
1815

> <i_i_glide_posenum>
31

> <i_i_glide_rotatable_bonds>
3

> <i_m_Source_File_Index>
1560

> <b_m_subgroup_collapsed>
0

> <r_i_docking_score>
-5.79326

> <r_i_glide_ecoul>
-2.6

> <r_i_glide_eff_state_penalty>
0

> <r_i_glide_einternal>
3.18786

> <r_i_glide_emodel>
-49.6124

> <r_i_glide_energy>
-36.0597

> <r_i_glide_erotb>
0.580225

> <r_i_glide_esite>
-0.108347

> <r_i_glide_evdw>
-33.4597

> <r_i_glide_gscore>
-5.79326

> <r_i_glide_hbond>
-0.343579

> <r_i_glide_ligand_efficiency>
-0.289663

> <r_i_glide_ligand_efficiency_ln>
-1.44986

> <r_i_glide_ligand_efficiency_sa>
-0.786266

> <r_i_glide_lipo>
-2.95056

> <r_i_glide_metal>
0

> <r_i_glide_rewards>
-0.90801

> <s_i_glide_gridfile>
wee1_glide-grid

> <s_m_Source_File>
wee1_decoys_glide_SP.sdf

> <s_m_Source_Path>
/Users/zhangxujun/Desktop

> <s_m_entry_id>
1835

> <s_m_entry_name>
wee1_decoys_glide_SP.1560

> <s_m_subgroup_title>
wee1_decoys_glide_SP

> <s_m_subgroupid>
wee1_decoys_glide_SP


$$$$
