ZINC63531064_6073
                    3D
 Schrodinger Suite 2024-2.
 49 52  0  0  1  0            999 V2000
    4.7671   54.2397   19.9443 C   0  0  0  0  0  0
    5.5001   54.5592   21.1278 O   0  0  0  0  0  0
    4.9040   54.4184   22.3457 C   0  0  0  0  0  0
    5.8070   54.3364   23.4910 C   0  0  0  0  0  0
    5.2933   54.0965   24.7133 C   0  0  0  0  0  0
    3.8466   53.9231   24.8960 C   0  0  0  0  0  0
    3.1237   53.5395   25.9658 C   0  0  0  0  0  0
    1.6545   53.5398   25.5773 C   0  0  1  0  0  0
    1.1045   54.2681   26.1540 H   0  0  0  0  0  0
    1.7477   53.9671   24.1577 N   0  3  0  0  0  0
    3.0046   54.0956   23.7989 C   0  0  0  0  0  0
    3.5498   54.3225   22.5307 C   0  0  0  0  0  0
    0.9089   52.1905   25.6415 C   0  0  0  0  0  0
    1.1047   51.3329   24.7814 O   0  0  0  0  0  0
    0.0263   52.0292   26.6444 N   0  0  0  0  0  0
   -0.7557   50.8137   26.9141 C   0  0  0  0  0  0
   -1.4639   50.1780   25.7144 C   0  0  0  0  0  0
   -1.0581   48.9103   25.2814 C   0  0  0  0  0  0
   -1.6761   48.3030   24.1891 C   0  0  0  0  0  0
   -2.7167   48.9534   23.5280 C   0  0  0  0  0  0
   -3.1413   50.2075   23.9657 C   0  0  0  0  0  0
   -2.5235   50.8235   25.0550 C   0  0  0  0  0  0
   -3.1570   52.5328   25.6156 Br  0  0  0  0  0  0
    3.7576   53.0728   27.5739 S   0  0  0  0  0  0
    2.5145   53.6340   28.6901 C   0  0  0  0  0  0
    2.3949   54.9957   28.9589 C   0  0  0  0  0  0
    1.4485   55.4355   29.8796 C   0  0  0  0  0  0
    0.6284   54.5054   30.5185 C   0  0  0  0  0  0
    0.7481   53.1425   30.2538 C   0  0  0  0  0  0
    1.7025   52.7039   29.3397 C   0  0  0  0  0  0
    5.4210   54.3525   19.0787 H   0  0  0  0  0  0
    4.4230   53.2030   19.9577 H   0  0  0  0  0  0
    3.9086   54.8969   19.7865 H   0  0  0  0  0  0
    6.8718   54.4604   23.3528 H   0  0  0  0  0  0
    5.9746   54.0262   25.5519 H   0  0  0  0  0  0
    2.8879   54.3897   21.6828 H   0  0  0  0  0  0
   -0.0362   52.7539   27.3433 H   0  0  0  0  0  0
   -1.5070   51.0380   27.6731 H   0  0  0  0  0  0
   -0.0963   50.0920   27.3966 H   0  0  0  0  0  0
   -0.2593   48.3920   25.7962 H   0  0  0  0  0  0
   -1.3488   47.3285   23.8605 H   0  0  0  0  0  0
   -3.1983   48.4866   22.6835 H   0  0  0  0  0  0
   -3.9547   50.7061   23.4618 H   0  0  0  0  0  0
    3.0492   55.7054   28.4793 H   0  0  0  0  0  0
    1.3579   56.4875   30.1111 H   0  0  0  0  0  0
   -0.0986   54.8450   31.2420 H   0  0  0  0  0  0
    0.1118   52.4322   30.7676 H   0  0  0  0  0  0
    1.8072   51.6474   29.1368 H   0  0  0  0  0  0
    0.9509   54.0243   23.5292 H   0  0  0  0  0  0
  1  2  1  0  0  0
  1 31  1  0  0  0
  1 32  1  0  0  0
  1 33  1  0  0  0
  2  3  1  0  0  0
  3 12  2  0  0  0
  3  4  1  0  0  0
  4  5  2  0  0  0
  4 34  1  0  0  0
  5  6  1  0  0  0
  5 35  1  0  0  0
  6 11  1  0  0  0
  6  7  2  0  0  0
  7  8  1  0  0  0
  7 24  1  0  0  0
  8  9  1  0  0  0
  8 10  1  0  0  0
  8 13  1  0  0  0
 10 11  2  0  0  0
 10 49  1  0  0  0
 11 12  1  0  0  0
 12 36  1  0  0  0
 13 14  2  0  0  0
 13 15  1  0  0  0
 15 16  1  0  0  0
 15 37  1  0  0  0
 16 17  1  0  0  0
 16 38  1  0  0  0
 16 39  1  0  0  0
 17 22  2  0  0  0
 17 18  1  0  0  0
 18 19  2  0  0  0
 18 40  1  0  0  0
 19 20  1  0  0  0
 19 41  1  0  0  0
 20 21  2  0  0  0
 20 42  1  0  0  0
 21 22  1  0  0  0
 21 43  1  0  0  0
 22 23  1  0  0  0
 24 25  1  0  0  0
 25 30  2  0  0  0
 25 26  1  0  0  0
 26 27  2  0  0  0
 26 44  1  0  0  0
 27 28  1  0  0  0
 27 45  1  0  0  0
 28 29  2  0  0  0
 28 46  1  0  0  0
 29 30  1  0  0  0
 29 47  1  0  0  0
 30 48  1  0  0  0
M  CHG  1  10   1
M  END
> <i_i_glide_confnum>
6

> <i_i_glide_lignum>
6074

> <i_i_glide_posenum>
243

> <i_i_glide_rotatable_bonds>
7

> <i_m_Source_File_Index>
3812

> <b_m_subgroup_collapsed>
0

> <r_i_docking_score>
-5.2128

> <r_i_glide_ecoul>
-2.58308

> <r_i_glide_eff_state_penalty>
0

> <r_i_glide_einternal>
9.62028

> <r_i_glide_emodel>
-48.8246

> <r_i_glide_energy>
-39.4068

> <r_i_glide_erotb>
0.460137

> <r_i_glide_esite>
0

> <r_i_glide_evdw>
-36.8237

> <r_i_glide_gscore>
-5.2128

> <r_i_glide_hbond>
0

> <r_i_glide_ligand_efficiency>
-0.179752

> <r_i_glide_ligand_efficiency_ln>
-1.1936

> <r_i_glide_ligand_efficiency_sa>
-0.552254

> <r_i_glide_lipo>
-3.07953

> <r_i_glide_metal>
0

> <r_i_glide_rewards>
-0.364759

> <s_i_glide_gridfile>
wee1_glide-grid

> <s_m_Source_File>
wee1_decoys_glide_SP.sdf

> <s_m_Source_Path>
/Users/zhangxujun/Desktop

> <s_m_entry_id>
4087

> <s_m_entry_name>
wee1_decoys_glide_SP.3812

> <s_m_subgroup_title>
wee1_decoys_glide_SP

> <s_m_subgroupid>
wee1_decoys_glide_SP


$$$$
