ZINC09010261_3409
                    3D
 Schrodinger Suite 2024-2.
 63 67  0  0  1  0            999 V2000
    2.7013   52.0979   17.0243 C   0  0  0  0  0  0
    2.0653   51.0626   17.9742 C   0  0  0  0  0  0
    1.5020   49.9709   17.5949 N   0  0  0  0  0  0
    1.5044   49.6689   16.2745 N   0  0  0  0  0  0
    1.1522   48.4509   15.8152 C   0  0  0  0  0  0
    0.7036   47.5421   16.5224 O   0  0  0  0  0  0
    1.2607   48.2445   14.3220 C   0  0  0  0  0  0
    0.1810   47.6300   13.6660 C   0  0  0  0  0  0
    0.2006   47.4217   12.2874 C   0  0  0  0  0  0
    1.3036   47.8212   11.5400 C   0  0  0  0  0  0
    2.3890   48.4192   12.1746 C   0  0  0  0  0  0
    2.3862   48.6262   13.5558 C   0  0  0  0  0  0
    3.5233   49.1876   14.0817 O   0  0  0  0  0  0
    2.1632   51.3712   19.4324 C   0  0  0  0  0  0
    1.5555   50.5323   20.3822 C   0  0  0  0  0  0
    1.6165   50.8109   21.7420 C   0  0  0  0  0  0
    2.3045   51.9314   22.1954 C   0  0  0  0  0  0
    2.9318   52.8029   21.2943 C   0  0  0  0  0  0
    2.8534   52.4949   19.9273 C   0  0  0  0  0  0
    3.6385   54.0684   21.7829 C   0  0  2  0  0  0
    3.1045   54.8967   21.3367 H   0  0  0  0  0  0
    5.1037   54.1450   21.4005 C   0  0  0  0  0  0
    5.9040   54.0670   22.4755 C   0  0  0  0  0  0
    5.1059   53.9021   23.7418 C   0  0  0  0  0  0
    3.6638   54.2341   23.3174 C   0  0  2  0  0  0
    3.5361   55.2968   23.5110 H   0  0  0  0  0  0
    2.4684   53.5653   24.0740 C   0  0  1  0  0  0
    1.5685   54.1255   23.8157 H   0  0  0  0  0  0
    2.2483   52.2093   23.5661 N   0  0  0  0  0  0
    2.4990   53.6093   25.6185 C   0  0  0  0  0  0
    3.3941   54.4128   26.3365 C   0  0  0  0  0  0
    3.5184   54.2748   27.7141 C   0  0  0  0  0  0
    2.7192   53.3621   28.4126 C   0  0  0  0  0  0
    1.7322   52.6528   27.7159 C   0  0  0  0  0  0
    1.6207   52.7870   26.3372 C   0  0  0  0  0  0
    2.9593   53.1500   29.8745 C   0  0  0  0  0  0
    3.9003   53.6682   30.4813 O   0  0  0  0  0  0
    2.0376   52.3419   30.4595 O   0  0  0  0  0  0
    2.0462   52.0967   31.8586 C   0  0  0  0  0  0
    2.3239   53.1014   17.2193 H   0  0  0  0  0  0
    3.7870   52.0978   17.1378 H   0  0  0  0  0  0
    2.5165   51.9067   15.9676 H   0  0  0  0  0  0
    1.9189   50.3599   15.6675 H   0  0  0  0  0  0
   -0.6904   47.3140   14.2230 H   0  0  0  0  0  0
   -0.6417   46.9535   11.7999 H   0  0  0  0  0  0
    1.3198   47.6632   10.4711 H   0  0  0  0  0  0
    3.2468   48.7169   11.5899 H   0  0  0  0  0  0
    3.6373   49.1599   15.0527 H   0  0  0  0  0  0
    1.0126   49.6510   20.0719 H   0  0  0  0  0  0
    1.1221   50.1521   22.4404 H   0  0  0  0  0  0
    3.3402   53.1773   19.2487 H   0  0  0  0  0  0
    5.4249   54.2468   20.3743 H   0  0  0  0  0  0
    6.9831   54.0966   22.4814 H   0  0  0  0  0  0
    5.4985   54.5889   24.4885 H   0  0  0  0  0  0
    5.2100   52.8972   24.1296 H   0  0  0  0  0  0
    1.6977   51.6194   24.1697 H   0  0  0  0  0  0
    4.0196   55.1372   25.8461 H   0  0  0  0  0  0
    4.2620   54.8701   28.2282 H   0  0  0  0  0  0
    1.0715   51.9590   28.2171 H   0  0  0  0  0  0
    0.8789   52.1931   25.8245 H   0  0  0  0  0  0
    1.5046   51.1843   32.0860 H   0  0  0  0  0  0
    3.0559   51.9900   32.2591 H   0  0  0  0  0  0
    1.5341   52.8968   32.3905 H   0  0  0  0  0  0
  1  2  1  0  0  0
  1 40  1  0  0  0
  1 41  1  0  0  0
  1 42  1  0  0  0
  2  3  2  0  0  0
  2 14  1  0  0  0
  3  4  1  0  0  0
  4  5  1  0  0  0
  4 43  1  0  0  0
  5  6  2  0  0  0
  5  7  1  0  0  0
  7 12  2  0  0  0
  7  8  1  0  0  0
  8  9  2  0  0  0
  8 44  1  0  0  0
  9 10  1  0  0  0
  9 45  1  0  0  0
 10 11  2  0  0  0
 10 46  1  0  0  0
 11 12  1  0  0  0
 11 47  1  0  0  0
 12 13  1  0  0  0
 13 48  1  0  0  0
 14 19  2  0  0  0
 14 15  1  0  0  0
 15 16  2  0  0  0
 15 49  1  0  0  0
 16 17  1  0  0  0
 16 50  1  0  0  0
 17 29  1  0  0  0
 17 18  2  0  0  0
 18 19  1  0  0  0
 18 20  1  0  0  0
 19 51  1  0  0  0
 20 21  1  0  0  0
 20 25  1  0  0  0
 20 22  1  0  0  0
 22 23  2  0  0  0
 22 52  1  0  0  0
 23 24  1  0  0  0
 23 53  1  0  0  0
 24 25  1  0  0  0
 24 54  1  0  0  0
 24 55  1  0  0  0
 25 26  1  0  0  0
 25 27  1  0  0  0
 27 28  1  0  0  0
 27 29  1  0  0  0
 27 30  1  0  0  0
 29 56  1  0  0  0
 30 35  2  0  0  0
 30 31  1  0  0  0
 31 32  2  0  0  0
 31 57  1  0  0  0
 32 33  1  0  0  0
 32 58  1  0  0  0
 33 34  2  0  0  0
 33 36  1  0  0  0
 34 35  1  0  0  0
 34 59  1  0  0  0
 35 60  1  0  0  0
 36 37  2  0  0  0
 36 38  1  0  0  0
 38 39  1  0  0  0
 39 61  1  0  0  0
 39 62  1  0  0  0
 39 63  1  0  0  0
M  END
> <i_i_glide_confnum>
110

> <i_i_glide_lignum>
3410

> <i_i_glide_posenum>
356

> <i_i_glide_rotatable_bonds>
8

> <i_m_Source_File_Index>
2453

> <b_m_subgroup_collapsed>
0

> <r_i_docking_score>
-5.68756

> <r_i_glide_ecoul>
-8.52278

> <r_i_glide_eff_state_penalty>
0

> <r_i_glide_einternal>
13.2805

> <r_i_glide_emodel>
-43.7954

> <r_i_glide_energy>
-36.8821

> <r_i_glide_erotb>
0.52493

> <r_i_glide_esite>
-0.25075

> <r_i_glide_evdw>
-28.3593

> <r_i_glide_gscore>
-5.68756

> <r_i_glide_hbond>
-0.522827

> <r_i_glide_ligand_efficiency>
-0.157988

> <r_i_glide_ligand_efficiency_ln>
-1.24087

> <r_i_glide_ligand_efficiency_sa>
-0.521664

> <r_i_glide_lipo>
-2.42703

> <r_i_glide_metal>
0

> <r_i_glide_rewards>
-0.315506

> <s_i_glide_gridfile>
wee1_glide-grid

> <s_m_Source_File>
wee1_decoys_glide_SP.sdf

> <s_m_Source_Path>
/Users/zhangxujun/Desktop

> <s_m_entry_id>
2728

> <s_m_entry_name>
wee1_decoys_glide_SP.2453

> <s_m_subgroup_title>
wee1_decoys_glide_SP

> <s_m_subgroupid>
wee1_decoys_glide_SP


$$$$
