ZINC13180572_515
                    3D
 Schrodinger Suite 2024-2.
 61 63  0  0  1  0            999 V2000
   -6.9253   51.2970   23.8959 C   0  0  0  0  0  0
   -5.5689   50.6732   24.1691 C   0  0  0  0  0  0
   -4.7211   50.3365   23.1119 C   0  0  0  0  0  0
   -3.4752   49.7709   23.3718 C   0  0  0  0  0  0
   -3.0739   49.5308   24.6895 C   0  0  0  0  0  0
   -3.9277   49.8743   25.7453 C   0  0  0  0  0  0
   -5.1692   50.4462   25.4859 C   0  0  0  0  0  0
   -1.6969   48.9083   24.9746 C   0  0  2  0  0  0
   -1.0643   49.0173   24.0892 H   0  0  0  0  0  0
   -1.7546   47.3897   25.3125 C   0  0  0  0  0  0
   -2.5790   46.5310   24.3436 C   0  0  0  0  0  0
   -2.3651   46.6656   23.1193 O   0  0  0  0  0  0
   -1.0221   49.5933   26.0817 N   0  0  0  0  0  0
   -0.2816   50.7127   26.0482 C   0  0  0  0  0  0
    0.0732   51.2428   24.9936 O   0  0  0  0  0  0
    0.0985   51.3354   27.4205 C   0  0  0  0  0  0
    1.6117   51.1429   27.6731 C   0  0  0  0  0  0
    1.9918   51.7478   29.0317 C   0  0  0  0  0  0
    1.6862   53.1894   29.0409 N   0  0  0  0  0  0
    0.3128   53.5989   28.6421 C   0  0  0  0  0  0
   -0.1895   52.8605   27.3733 C   0  0  0  0  0  0
    3.0011   54.3587   29.2571 S   0  0  0  0  0  0
    2.4301   55.7096   29.2816 O   0  0  0  0  0  0
    3.8416   53.8737   30.3581 O   0  0  0  0  0  0
    4.0188   54.2649   27.7861 C   0  0  0  0  0  0
    5.4087   54.1666   27.8929 C   0  0  0  0  0  0
    6.1959   54.1223   26.7434 C   0  0  0  0  0  0
    5.6068   54.1754   25.4753 C   0  0  0  0  0  0
    4.2069   54.2673   25.3656 C   0  0  0  0  0  0
    3.4279   54.3235   26.5248 C   0  0  0  0  0  0
    3.5058   54.3137   24.0139 C   0  0  0  0  0  0
    6.4978   54.0996   24.2428 C   0  0  0  0  0  0
   -7.1019   52.1302   24.5769 H   0  0  0  0  0  0
   -6.9969   51.6946   22.8836 H   0  0  0  0  0  0
   -7.7186   50.5651   24.0493 H   0  0  0  0  0  0
   -5.0270   50.5036   22.0896 H   0  0  0  0  0  0
   -2.8286   49.5022   22.5489 H   0  0  0  0  0  0
   -3.6291   49.6895   26.7681 H   0  0  0  0  0  0
   -5.8209   50.7037   26.3082 H   0  0  0  0  0  0
   -0.7477   46.9763   25.2816 H   0  0  0  0  0  0
   -2.1449   47.2378   26.3209 H   0  0  0  0  0  0
   -1.2133   49.1786   27.0004 H   0  0  0  0  0  0
   -0.4980   50.8276   28.1815 H   0  0  0  0  0  0
    1.9042   50.0966   27.6888 H   0  0  0  0  0  0
    2.1975   51.6972   26.9398 H   0  0  0  0  0  0
    1.4624   51.2961   29.8677 H   0  0  0  0  0  0
    3.0587   51.6169   29.2165 H   0  0  0  0  0  0
   -0.3446   53.4146   29.4926 H   0  0  0  0  0  0
    0.3037   54.6768   28.4814 H   0  0  0  0  0  0
    0.3711   53.2966   26.5485 H   0  0  0  0  0  0
   -1.2577   53.0638   27.2809 H   0  0  0  0  0  0
    5.8859   54.1352   28.8626 H   0  0  0  0  0  0
    7.2677   54.0408   26.8464 H   0  0  0  0  0  0
    2.3550   54.4080   26.4463 H   0  0  0  0  0  0
    3.3803   53.3054   23.6167 H   0  0  0  0  0  0
    2.5258   54.7879   24.0845 H   0  0  0  0  0  0
    4.0753   54.8967   23.2910 H   0  0  0  0  0  0
    6.0919   53.3881   23.5229 H   0  0  0  0  0  0
    6.5609   55.0728   23.7551 H   0  0  0  0  0  0
    7.5046   53.7593   24.4831 H   0  0  0  0  0  0
   -3.3679   45.6967   24.8446 O   0  5  0  0  0  0
  1  2  1  0  0  0
  1 33  1  0  0  0
  1 34  1  0  0  0
  1 35  1  0  0  0
  2  7  2  0  0  0
  2  3  1  0  0  0
  3  4  2  0  0  0
  3 36  1  0  0  0
  4  5  1  0  0  0
  4 37  1  0  0  0
  5  6  2  0  0  0
  5  8  1  0  0  0
  6  7  1  0  0  0
  6 38  1  0  0  0
  7 39  1  0  0  0
  8  9  1  0  0  0
  8 10  1  0  0  0
  8 13  1  0  0  0
 10 11  1  0  0  0
 10 40  1  0  0  0
 10 41  1  0  0  0
 11 12  2  0  0  0
 11 61  1  0  0  0
 13 14  1  0  0  0
 13 42  1  0  0  0
 14 15  2  0  0  0
 14 16  1  0  0  0
 16 21  1  0  0  0
 16 17  1  0  0  0
 16 43  1  0  0  0
 17 18  1  0  0  0
 17 44  1  0  0  0
 17 45  1  0  0  0
 18 19  1  0  0  0
 18 46  1  0  0  0
 18 47  1  0  0  0
 19 20  1  0  0  0
 19 22  1  0  0  0
 20 21  1  0  0  0
 20 48  1  0  0  0
 20 49  1  0  0  0
 21 50  1  0  0  0
 21 51  1  0  0  0
 22 23  2  0  0  0
 22 24  2  0  0  0
 22 25  1  0  0  0
 25 30  2  0  0  0
 25 26  1  0  0  0
 26 27  2  0  0  0
 26 52  1  0  0  0
 27 28  1  0  0  0
 27 53  1  0  0  0
 28 29  2  0  0  0
 28 32  1  0  0  0
 29 30  1  0  0  0
 29 31  1  0  0  0
 30 54  1  0  0  0
 31 55  1  0  0  0
 31 56  1  0  0  0
 31 57  1  0  0  0
 32 58  1  0  0  0
 32 59  1  0  0  0
 32 60  1  0  0  0
M  CHG  1  61  -1
M  END
> <i_i_glide_confnum>
75

> <i_i_glide_lignum>
516

> <i_i_glide_posenum>
302

> <i_i_glide_rotatable_bonds>
8

> <i_m_Source_File_Index>
4495

> <b_m_subgroup_collapsed>
0

> <r_i_docking_score>
-5.79345

> <r_i_glide_ecoul>
-10.0564

> <r_i_glide_eff_state_penalty>
0

> <r_i_glide_einternal>
9.23879

> <r_i_glide_emodel>
-57.6719

> <r_i_glide_energy>
-45.0858

> <r_i_glide_erotb>
0.672231

> <r_i_glide_esite>
-0.24542

> <r_i_glide_evdw>
-35.0295

> <r_i_glide_gscore>
-5.79345

> <r_i_glide_hbond>
-0.314528

> <r_i_glide_ligand_efficiency>
-0.181045

> <r_i_glide_ligand_efficiency_ln>
-1.29731

> <r_i_glide_ligand_efficiency_sa>
-0.574783

> <r_i_glide_lipo>
-2.59903

> <r_i_glide_metal>
0

> <r_i_glide_rewards>
-0.0467687

> <s_i_glide_gridfile>
wee1_glide-grid

> <s_m_Source_File>
wee1_decoys_glide_SP.sdf

> <s_m_Source_Path>
/Users/zhangxujun/Desktop

> <s_m_entry_id>
4770

> <s_m_entry_name>
wee1_decoys_glide_SP.4495

> <s_m_subgroup_title>
wee1_decoys_glide_SP

> <s_m_subgroupid>
wee1_decoys_glide_SP


$$$$
