ZINC01148530_426
                    3D
 Schrodinger Suite 2024-2.
 46 49  0  0  1  0            999 V2000
   -0.1284   51.9187   29.2650 C   0  0  0  0  0  0
    0.6642   52.3057   28.0383 C   0  0  0  0  0  0
    0.4768   51.8857   26.7128 C   0  0  0  0  0  0
    1.5044   52.4969   26.0283 C   0  0  0  0  0  0
    2.2710   53.1970   26.9298 N   0  0  0  0  0  0
    1.7093   53.1058   28.1527 N   0  0  0  0  0  0
    3.5303   53.8245   26.7425 C   0  0  0  0  0  0
    3.8718   54.3725   25.4980 C   0  0  0  0  0  0
    5.1463   54.8969   25.2916 C   0  0  0  0  0  0
    6.0739   54.8945   26.3302 C   0  0  0  0  0  0
    5.7414   54.3749   27.5775 C   0  0  0  0  0  0
    4.4727   53.8380   27.7851 C   0  0  0  0  0  0
    1.8248   52.3405   24.7001 O   0  0  0  0  0  0
    1.1049   51.3650   24.0689 C   0  0  0  0  0  0
    0.0509   50.6781   24.5848 C   0  0  0  0  0  0
   -0.5052   50.9624   25.9950 C   0  0  2  0  0  0
   -0.4958   49.9986   26.5130 H   0  0  0  0  0  0
   -1.9568   51.4645   26.0902 C   0  0  0  0  0  0
   -2.7734   50.8907   27.0700 C   0  0  0  0  0  0
   -4.0889   51.3135   27.2886 C   0  0  0  0  0  0
   -4.6005   52.3365   26.4805 C   0  0  0  0  0  0
   -3.8018   52.9379   25.5014 C   0  0  0  0  0  0
   -2.4842   52.5018   25.2965 C   0  0  0  0  0  0
   -1.5318   53.2967   24.0817 Cl  0  0  0  0  0  0
   -4.5039   54.4010   24.4883 Br  0  0  0  0  0  0
   -5.8877   52.7774   26.6676 O   0  0  0  0  0  0
   -4.9031   50.7838   28.2782 O   0  0  0  0  0  0
   -4.3799   49.7882   29.1598 C   0  0  0  0  0  0
   -0.5769   49.6520   23.8172 C   0  0  0  0  0  0
   -1.0719   48.8278   23.1726 N   0  0  0  0  0  0
    1.6329   51.2150   22.8165 N   0  0  0  0  0  0
   -0.5060   50.8968   29.1920 H   0  0  0  0  0  0
    0.4598   51.9682   30.1838 H   0  0  0  0  0  0
   -0.9960   52.5622   29.4029 H   0  0  0  0  0  0
    3.1660   54.3821   24.6821 H   0  0  0  0  0  0
    5.4173   55.2966   24.3271 H   0  0  0  0  0  0
    7.0610   55.2969   26.1644 H   0  0  0  0  0  0
    6.4679   54.3811   28.3781 H   0  0  0  0  0  0
    4.2407   53.4129   28.7508 H   0  0  0  0  0  0
   -2.3644   50.0996   27.6812 H   0  0  0  0  0  0
   -6.1618   53.3915   25.9826 H   0  0  0  0  0  0
   -5.1411   49.5151   29.8893 H   0  0  0  0  0  0
   -3.5143   50.1548   29.7137 H   0  0  0  0  0  0
   -4.0980   48.8812   28.6217 H   0  0  0  0  0  0
    1.2817   50.5077   22.1865 H   0  0  0  0  0  0
    2.2511   51.9196   22.4363 H   0  0  0  0  0  0
  1  2  1  0  0  0
  1 32  1  0  0  0
  1 33  1  0  0  0
  1 34  1  0  0  0
  2  6  2  0  0  0
  2  3  1  0  0  0
  3 16  1  0  0  0
  3  4  2  0  0  0
  4  5  1  0  0  0
  4 13  1  0  0  0
  5  6  1  0  0  0
  5  7  1  0  0  0
  7 12  2  0  0  0
  7  8  1  0  0  0
  8  9  2  0  0  0
  8 35  1  0  0  0
  9 10  1  0  0  0
  9 36  1  0  0  0
 10 11  2  0  0  0
 10 37  1  0  0  0
 11 12  1  0  0  0
 11 38  1  0  0  0
 12 39  1  0  0  0
 13 14  1  0  0  0
 14 15  2  0  0  0
 14 31  1  0  0  0
 15 16  1  0  0  0
 15 29  1  0  0  0
 16 17  1  0  0  0
 16 18  1  0  0  0
 18 23  2  0  0  0
 18 19  1  0  0  0
 19 20  2  0  0  0
 19 40  1  0  0  0
 20 21  1  0  0  0
 20 27  1  0  0  0
 21 22  2  0  0  0
 21 26  1  0  0  0
 22 23  1  0  0  0
 22 25  1  0  0  0
 23 24  1  0  0  0
 26 41  1  0  0  0
 27 28  1  0  0  0
 28 42  1  0  0  0
 28 43  1  0  0  0
 28 44  1  0  0  0
 29 30  3  0  0  0
 31 45  1  0  0  0
 31 46  1  0  0  0
M  END
> <i_i_glide_confnum>
1

> <i_i_glide_lignum>
427

> <i_i_glide_posenum>
273

> <i_i_glide_rotatable_bonds>
5

> <i_m_Source_File_Index>
1228

> <b_m_subgroup_collapsed>
0

> <r_i_docking_score>
-5.04723

> <r_i_glide_ecoul>
-2.51982

> <r_i_glide_eff_state_penalty>
0

> <r_i_glide_einternal>
4.02505

> <r_i_glide_emodel>
-53.6818

> <r_i_glide_energy>
-42.8014

> <r_i_glide_erotb>
0.170936

> <r_i_glide_esite>
-0.00682315

> <r_i_glide_evdw>
-40.2815

> <r_i_glide_gscore>
-5.04723

> <r_i_glide_hbond>
0

> <r_i_glide_ligand_efficiency>
-0.168241

> <r_i_glide_ligand_efficiency_ln>
-1.14679

> <r_i_glide_ligand_efficiency_sa>
-0.522764

> <r_i_glide_lipo>
-2.39224

> <r_i_glide_metal>
0

> <r_i_glide_rewards>
-0.427054

> <s_i_glide_gridfile>
wee1_glide-grid

> <s_m_Source_File>
wee1_decoys_glide_SP.sdf

> <s_m_Source_Path>
/Users/zhangxujun/Desktop

> <s_m_entry_id>
1503

> <s_m_entry_name>
wee1_decoys_glide_SP.1228

> <s_m_subgroup_title>
wee1_decoys_glide_SP

> <s_m_subgroupid>
wee1_decoys_glide_SP


$$$$
