ZINC12492055_3407
                    3D
 Schrodinger Suite 2024-2.
 66 69  0  0  1  0            999 V2000
   -0.1183   52.2375   29.6032 C   0  0  0  0  0  0
    1.0869   53.0646   30.1302 C   0  0  0  0  0  0
    0.5374   54.3538   30.7782 C   0  0  0  0  0  0
    1.7575   52.1839   31.2071 C   0  0  0  0  0  0
    2.1113   53.4322   29.0235 C   0  0  0  0  0  0
    1.7724   53.3738   27.6665 C   0  0  0  0  0  0
    2.7005   53.6965   26.6835 C   0  0  0  0  0  0
    4.0046   54.0924   27.0233 C   0  0  0  0  0  0
    4.3442   54.1641   28.3793 C   0  0  0  0  0  0
    3.4117   53.8420   29.3607 C   0  0  0  0  0  0
    5.0335   54.4512   25.9677 C   0  0  0  0  0  0
    6.0820   55.0215   26.2822 O   0  0  0  0  0  0
    4.7022   54.0970   24.7074 N   0  0  0  0  0  0
    5.3391   54.3717   23.4886 C   0  0  0  0  0  0
    6.6233   54.9182   23.3749 C   0  0  0  0  0  0
    7.1046   55.2964   22.1285 C   0  0  0  0  0  0
    6.3189   55.1241   20.9857 C   0  0  0  0  0  0
    5.0714   54.4984   21.0884 C   0  0  0  0  0  0
    4.5879   54.1170   22.3370 C   0  0  0  0  0  0
    6.8383   55.6218   19.6672 C   0  0  0  0  0  0
    7.9968   55.3740   19.3245 O   0  0  0  0  0  0
    5.9766   56.4037   18.9827 N   0  0  0  0  0  0
    6.4036   57.0078   17.7991 N   0  0  0  0  0  0
    6.9050   58.2645   17.8423 C   0  0  0  0  0  0
    7.1047   58.8960   18.8821 O   0  0  0  0  0  0
    7.2949   58.7986   16.5623 C   0  0  0  0  0  0
    6.4946   58.7845   15.4742 C   0  0  0  0  0  0
    6.8857   59.2588   14.1278 C   0  0  0  0  0  0
    8.1772   58.9911   13.6603 C   0  0  0  0  0  0
    8.5869   59.3826   12.3924 C   0  0  0  0  0  0
    7.7168   60.0588   11.5473 C   0  0  0  0  0  0
    6.4036   60.3688   11.9726 C   0  0  0  0  0  0
    5.9763   59.9775   13.2830 C   0  0  0  0  0  0
    4.6554   60.3303   13.6851 C   0  0  0  0  0  0
    3.8033   61.0195   12.8274 C   0  0  0  0  0  0
    4.2237   61.3796   11.5533 C   0  0  0  0  0  0
    5.5078   61.0634   11.1208 C   0  0  0  0  0  0
   -0.7752   51.9231   30.4164 H   0  0  0  0  0  0
    0.2054   51.3314   29.0882 H   0  0  0  0  0  0
   -0.7410   52.8075   28.9143 H   0  0  0  0  0  0
    1.3276   55.0401   31.0785 H   0  0  0  0  0  0
   -0.0956   54.8974   30.0813 H   0  0  0  0  0  0
   -0.0685   54.1363   31.6593 H   0  0  0  0  0  0
    2.5782   52.6771   31.7173 H   0  0  0  0  0  0
    1.0523   51.8653   31.9780 H   0  0  0  0  0  0
    2.1723   51.2968   30.7389 H   0  0  0  0  0  0
    0.7867   53.0770   27.3466 H   0  0  0  0  0  0
    2.3720   53.6357   25.6574 H   0  0  0  0  0  0
    5.3336   54.4744   28.6877 H   0  0  0  0  0  0
    3.7287   53.9189   30.3873 H   0  0  0  0  0  0
    3.8243   53.6134   24.6150 H   0  0  0  0  0  0
    7.2549   55.0954   24.2300 H   0  0  0  0  0  0
    8.0840   55.7523   22.0724 H   0  0  0  0  0  0
    4.4587   54.3285   20.2147 H   0  0  0  0  0  0
    3.6032   53.6757   22.4011 H   0  0  0  0  0  0
    4.9718   56.3561   19.0680 H   0  0  0  0  0  0
    6.1556   56.5008   16.9616 H   0  0  0  0  0  0
    8.2862   59.2238   16.5284 H   0  0  0  0  0  0
    5.4974   58.3711   15.5522 H   0  0  0  0  0  0
    8.8798   58.4534   14.2814 H   0  0  0  0  0  0
    9.5885   59.1541   12.0596 H   0  0  0  0  0  0
    8.0420   60.3560   10.5595 H   0  0  0  0  0  0
    4.3053   60.0859   14.6780 H   0  0  0  0  0  0
    2.8096   61.2813   13.1603 H   0  0  0  0  0  0
    3.5503   61.9121   10.8979 H   0  0  0  0  0  0
    5.8299   61.3556   10.1319 H   0  0  0  0  0  0
  1  2  1  0  0  0
  1 38  1  0  0  0
  1 39  1  0  0  0
  1 40  1  0  0  0
  2  3  1  0  0  0
  2  4  1  0  0  0
  2  5  1  0  0  0
  3 41  1  0  0  0
  3 42  1  0  0  0
  3 43  1  0  0  0
  4 44  1  0  0  0
  4 45  1  0  0  0
  4 46  1  0  0  0
  5 10  2  0  0  0
  5  6  1  0  0  0
  6  7  2  0  0  0
  6 47  1  0  0  0
  7  8  1  0  0  0
  7 48  1  0  0  0
  8  9  2  0  0  0
  8 11  1  0  0  0
  9 10  1  0  0  0
  9 49  1  0  0  0
 10 50  1  0  0  0
 11 12  2  0  0  0
 11 13  1  0  0  0
 13 14  1  0  0  0
 13 51  1  0  0  0
 14 19  2  0  0  0
 14 15  1  0  0  0
 15 16  2  0  0  0
 15 52  1  0  0  0
 16 17  1  0  0  0
 16 53  1  0  0  0
 17 18  2  0  0  0
 17 20  1  0  0  0
 18 19  1  0  0  0
 18 54  1  0  0  0
 19 55  1  0  0  0
 20 21  2  0  0  0
 20 22  1  0  0  0
 22 23  1  0  0  0
 22 56  1  0  0  0
 23 24  1  0  0  0
 23 57  1  0  0  0
 24 25  2  0  0  0
 24 26  1  0  0  0
 26 27  2  0  0  0
 26 58  1  0  0  0
 27 28  1  0  0  0
 27 59  1  0  0  0
 28 33  2  0  0  0
 28 29  1  0  0  0
 29 30  2  0  0  0
 29 60  1  0  0  0
 30 31  1  0  0  0
 30 61  1  0  0  0
 31 32  2  0  0  0
 31 62  1  0  0  0
 32 37  1  0  0  0
 32 33  1  0  0  0
 33 34  1  0  0  0
 34 35  2  0  0  0
 34 63  1  0  0  0
 35 36  1  0  0  0
 35 64  1  0  0  0
 36 37  2  0  0  0
 36 65  1  0  0  0
 37 66  1  0  0  0
M  END
> <i_i_glide_confnum>
75

> <i_i_glide_lignum>
3408

> <i_i_glide_posenum>
359

> <i_i_glide_rotatable_bonds>
10

> <i_m_Source_File_Index>
3935

> <b_m_subgroup_collapsed>
0

> <r_i_docking_score>
-5.11634

> <r_i_glide_ecoul>
-1.9628

> <r_i_glide_eff_state_penalty>
0

> <r_i_glide_einternal>
6.94847

> <r_i_glide_emodel>
-59.7466

> <r_i_glide_energy>
-46.3082

> <r_i_glide_erotb>
0.673981

> <r_i_glide_esite>
-0.0508875

> <r_i_glide_evdw>
-44.3454

> <r_i_glide_gscore>
-5.11634

> <r_i_glide_hbond>
-0.0107313

> <r_i_glide_ligand_efficiency>
-0.138279

> <r_i_glide_ligand_efficiency_ln>
-1.10961

> <r_i_glide_ligand_efficiency_sa>
-0.460778

> <r_i_glide_lipo>
-2.56588

> <r_i_glide_metal>
0

> <r_i_glide_rewards>
-0.65113

> <s_i_glide_gridfile>
wee1_glide-grid

> <s_m_Source_File>
wee1_decoys_glide_SP.sdf

> <s_m_Source_Path>
/Users/zhangxujun/Desktop

> <s_m_entry_id>
4210

> <s_m_entry_name>
wee1_decoys_glide_SP.3935

> <s_m_subgroup_title>
wee1_decoys_glide_SP

> <s_m_subgroupid>
wee1_decoys_glide_SP


$$$$
