ZINC04184987_1723
                    3D
 Schrodinger Suite 2024-2.
 30 31  0  0  1  0            999 V2000
    6.3359   54.6342   26.3682 C   0  0  0  0  0  0
    5.2103   53.8229   27.0331 C   0  0  1  0  0  0
    5.5200   52.7761   27.0369 H   0  0  0  0  0  0
    4.9539   54.2728   28.4812 C   0  0  0  0  0  0
    4.0111   53.2773   29.1695 C   0  0  0  0  0  0
    2.7355   53.0513   28.3579 C   0  0  0  0  0  0
    2.6954   53.2873   26.9597 C   0  0  0  0  0  0
    1.5052   52.8966   26.3012 C   0  0  0  0  0  0
    0.4471   52.3648   26.9737 N   0  0  0  0  0  0
    0.5559   52.2659   28.3205 C   0  0  0  0  0  0
    1.6496   52.5995   29.0406 N   0  0  0  0  0  0
   -0.5379   51.7996   29.0596 N   0  0  0  0  0  0
   -1.7693   51.2968   28.4719 N   0  0  0  0  0  0
    1.2987   53.0369   24.7818 C   0  0  0  0  0  0
    1.8012   54.1795   24.3153 F   0  0  0  0  0  0
    0.0079   53.0100   24.4368 F   0  0  0  0  0  0
    1.9045   52.0289   24.1581 F   0  0  0  0  0  0
    3.8891   53.9401   26.2403 C   0  0  0  0  0  0
    6.0954   55.6960   26.3220 H   0  0  0  0  0  0
    7.2710   54.5283   26.9203 H   0  0  0  0  0  0
    6.5198   54.2908   25.3493 H   0  0  0  0  0  0
    4.5797   55.2949   28.5156 H   0  0  0  0  0  0
    5.8985   54.3064   29.0266 H   0  0  0  0  0  0
    3.7797   53.6065   30.1826 H   0  0  0  0  0  0
    4.5217   52.3180   29.2689 H   0  0  0  0  0  0
   -0.5581   51.8082   30.0728 H   0  0  0  0  0  0
   -2.1124   51.9548   27.7864 H   0  0  0  0  0  0
   -1.6115   50.3663   28.0820 H   0  0  0  0  0  0
    4.0287   53.4942   25.2547 H   0  0  0  0  0  0
    3.6575   54.9930   26.0705 H   0  0  0  0  0  0
  1  2  1  0  0  0
  1 19  1  0  0  0
  1 20  1  0  0  0
  1 21  1  0  0  0
  2  3  1  0  0  0
  2 18  1  0  0  0
  2  4  1  0  0  0
  4  5  1  0  0  0
  4 22  1  0  0  0
  4 23  1  0  0  0
  5  6  1  0  0  0
  5 24  1  0  0  0
  5 25  1  0  0  0
  6 11  2  0  0  0
  6  7  1  0  0  0
  7  8  2  0  0  0
  7 18  1  0  0  0
  8  9  1  0  0  0
  8 14  1  0  0  0
  9 10  2  0  0  0
 10 11  1  0  0  0
 10 12  1  0  0  0
 12 13  1  0  0  0
 12 26  1  0  0  0
 13 27  1  0  0  0
 13 28  1  0  0  0
 14 15  1  0  0  0
 14 16  1  0  0  0
 14 17  1  0  0  0
 18 29  1  0  0  0
 18 30  1  0  0  0
M  END
> <i_i_glide_confnum>
1

> <i_i_glide_lignum>
1724

> <i_i_glide_posenum>
115

> <i_i_glide_rotatable_bonds>
2

> <i_m_Source_File_Index>
2184

> <b_m_subgroup_collapsed>
0

> <r_i_docking_score>
-6.40285

> <r_i_glide_ecoul>
-1.49889

> <r_i_glide_eff_state_penalty>
0

> <r_i_glide_einternal>
0.275637

> <r_i_glide_emodel>
-41.1319

> <r_i_glide_energy>
-28.9203

> <r_i_glide_erotb>
0

> <r_i_glide_esite>
-0.0493166

> <r_i_glide_evdw>
-27.4214

> <r_i_glide_gscore>
-6.40285

> <r_i_glide_hbond>
-0.151239

> <r_i_glide_ligand_efficiency>
-0.376638

> <r_i_glide_ligand_efficiency_ln>
-1.67036

> <r_i_glide_ligand_efficiency_sa>
-0.968442

> <r_i_glide_lipo>
-2.06665

> <r_i_glide_metal>
0

> <r_i_glide_rewards>
-2.53974

> <s_i_glide_gridfile>
wee1_glide-grid

> <s_m_Source_File>
wee1_decoys_glide_SP.sdf

> <s_m_Source_Path>
/Users/zhangxujun/Desktop

> <s_m_entry_id>
2459

> <s_m_entry_name>
wee1_decoys_glide_SP.2184

> <s_m_subgroup_title>
wee1_decoys_glide_SP

> <s_m_subgroupid>
wee1_decoys_glide_SP


$$$$
