ZINC12657694_64
                    3D
 Schrodinger Suite 2024-2.
 72 76  0  0  1  0            999 V2000
   -4.6899   50.2503   29.6076 C   0  0  0  0  0  0
   -4.6958   51.1349   28.3588 C   0  0  0  0  0  0
   -3.9760   50.4799   27.3285 O   0  0  0  0  0  0
   -3.7015   51.1031   26.1591 C   0  0  0  0  0  0
   -4.0039   52.2679   25.8811 O   0  0  0  0  0  0
   -2.9122   50.2168   25.1708 C   0  0  2  0  0  0
   -1.5008   50.6416   24.7513 C   0  0  1  0  0  0
   -2.6049   50.7367   23.8918 O   0  0  0  0  0  0
   -0.8873   51.9919   25.1702 C   0  0  0  0  0  0
    0.6059   51.9218   24.8369 C   0  0  0  0  0  0
    0.8186   50.6825   23.9396 C   0  0  1  0  0  0
    1.7811   50.2252   24.1803 H   0  0  0  0  0  0
   -0.3111   49.6929   24.3935 C   0  0  2  0  0  0
   -0.5644   48.6112   23.3108 C   0  0  0  0  0  0
   -0.6853   49.1636   21.8899 C   0  0  0  0  0  0
    0.6398   49.8357   21.4706 C   0  0  2  0  0  0
    1.4546   49.1336   21.6677 H   0  0  0  0  0  0
    0.8869   51.0526   22.4139 C   0  0  2  0  0  0
    0.1323   51.8148   22.2215 H   0  0  0  0  0  0
    2.2912   51.6182   22.0878 C   0  0  0  0  0  0
    2.3738   52.0876   20.6401 C   0  0  0  0  0  0
    2.0978   50.9264   19.6504 C   0  0  1  0  0  0
    2.8770   50.1784   19.8114 H   0  0  0  0  0  0
    0.7177   50.2090   19.9289 C   0  0  2  0  0  0
   -0.4263   51.1835   19.4883 C   0  0  0  0  0  0
   -0.3025   51.6565   18.0235 C   0  0  0  0  0  0
    1.0535   52.3612   17.7964 C   0  0  1  0  0  0
    1.0631   53.2406   18.4401 H   0  0  0  0  0  0
    2.2165   51.4141   18.1783 C   0  0  0  0  0  0
    1.1161   52.7891   16.4365 O   0  0  0  0  0  0
    1.8823   53.8168   15.9706 C   0  0  0  0  0  0
    1.8861   54.1565   14.7921 O   0  0  0  0  0  0
    2.7534   54.5689   16.9820 C   0  0  0  0  0  0
    0.6448   48.8848   19.1102 C   0  0  0  0  0  0
    0.1548   48.9693   25.6825 C   0  0  0  0  0  0
   -3.3438   48.7370   25.0661 C   0  0  0  0  0  0
   -3.9231   48.3194   24.0640 O   0  0  0  0  0  0
   -3.0873   47.9139   26.0817 N   0  0  0  0  0  0
   -5.2333   50.7194   30.4287 H   0  0  0  0  0  0
   -5.1585   49.2864   29.4110 H   0  0  0  0  0  0
   -3.6731   50.0587   29.9498 H   0  0  0  0  0  0
   -4.2333   52.0959   28.5884 H   0  0  0  0  0  0
   -5.7219   51.3261   28.0334 H   0  0  0  0  0  0
   -1.0173   52.1718   26.2383 H   0  0  0  0  0  0
   -1.3647   52.8130   24.6338 H   0  0  0  0  0  0
    1.1696   51.7918   25.7640 H   0  0  0  0  0  0
    0.9763   52.8470   24.3937 H   0  0  0  0  0  0
   -1.3859   47.9459   23.5482 H   0  0  0  0  0  0
    0.3043   47.9610   23.3294 H   0  0  0  0  0  0
   -1.5377   49.8309   21.7716 H   0  0  0  0  0  0
   -0.9086   48.3170   21.2396 H   0  0  0  0  0  0
    3.0599   50.8694   22.2909 H   0  0  0  0  0  0
    2.5331   52.4477   22.7530 H   0  0  0  0  0  0
    3.3544   52.5197   20.4370 H   0  0  0  0  0  0
    1.6717   52.9035   20.4865 H   0  0  0  0  0  0
   -0.4655   52.0612   20.1333 H   0  0  0  0  0  0
   -1.3931   50.6976   19.6175 H   0  0  0  0  0  0
   -1.1188   52.3437   17.8062 H   0  0  0  0  0  0
   -0.3990   50.7962   17.3581 H   0  0  0  0  0  0
    2.2447   50.5598   17.5044 H   0  0  0  0  0  0
    3.1740   51.9195   18.0666 H   0  0  0  0  0  0
    2.1685   54.9159   17.8344 H   0  0  0  0  0  0
    3.1934   55.4456   16.5076 H   0  0  0  0  0  0
    3.5656   53.9350   17.3365 H   0  0  0  0  0  0
    1.3397   48.1374   19.4913 H   0  0  0  0  0  0
   -0.3514   48.4435   19.1328 H   0  0  0  0  0  0
    0.8810   49.0095   18.0556 H   0  0  0  0  0  0
    0.2377   49.6463   26.5369 H   0  0  0  0  0  0
   -0.5228   48.1711   25.9812 H   0  0  0  0  0  0
    1.1274   48.4976   25.5574 H   0  0  0  0  0  0
   -2.5871   48.2208   26.9223 H   0  0  0  0  0  0
   -3.4003   46.9602   26.0254 H   0  0  0  0  0  0
  1  2  1  0  0  0
  1 39  1  0  0  0
  1 40  1  0  0  0
  1 41  1  0  0  0
  2  3  1  0  0  0
  2 42  1  0  0  0
  2 43  1  0  0  0
  3  4  1  0  0  0
  4  5  2  0  0  0
  4  6  1  0  0  0
  6  8  1  0  0  0
  6  7  1  0  0  0
  6 36  1  0  0  0
  7 13  1  0  0  0
  7  8  1  0  0  0
  7  9  1  0  0  0
  9 10  1  0  0  0
  9 44  1  0  0  0
  9 45  1  0  0  0
 10 11  1  0  0  0
 10 46  1  0  0  0
 10 47  1  0  0  0
 11 12  1  0  0  0
 11 18  1  0  0  0
 11 13  1  0  0  0
 13 14  1  0  0  0
 13 35  1  0  0  0
 14 15  1  0  0  0
 14 48  1  0  0  0
 14 49  1  0  0  0
 15 16  1  0  0  0
 15 50  1  0  0  0
 15 51  1  0  0  0
 16 17  1  0  0  0
 16 24  1  0  0  0
 16 18  1  0  0  0
 18 19  1  0  0  0
 18 20  1  0  0  0
 20 21  1  0  0  0
 20 52  1  0  0  0
 20 53  1  0  0  0
 21 22  1  0  0  0
 21 54  1  0  0  0
 21 55  1  0  0  0
 22 23  1  0  0  0
 22 29  1  0  0  0
 22 24  1  0  0  0
 24 25  1  0  0  0
 24 34  1  0  0  0
 25 26  1  0  0  0
 25 56  1  0  0  0
 25 57  1  0  0  0
 26 27  1  0  0  0
 26 58  1  0  0  0
 26 59  1  0  0  0
 27 28  1  0  0  0
 27 29  1  0  0  0
 27 30  1  0  0  0
 29 60  1  0  0  0
 29 61  1  0  0  0
 30 31  1  0  0  0
 31 32  2  0  0  0
 31 33  1  0  0  0
 33 62  1  0  0  0
 33 63  1  0  0  0
 33 64  1  0  0  0
 34 65  1  0  0  0
 34 66  1  0  0  0
 34 67  1  0  0  0
 35 68  1  0  0  0
 35 69  1  0  0  0
 35 70  1  0  0  0
 36 37  2  0  0  0
 36 38  1  0  0  0
 38 71  1  0  0  0
 38 72  1  0  0  0
M  END
> <i_i_glide_confnum>
3

> <i_i_glide_lignum>
65

> <i_i_glide_posenum>
239

> <i_i_glide_rotatable_bonds>
6

> <i_m_Source_File_Index>
3427

> <b_m_subgroup_collapsed>
0

> <r_i_docking_score>
0.10012

> <r_i_glide_ecoul>
-4.57158

> <r_i_glide_eff_state_penalty>
0

> <r_i_glide_einternal>
6.36497

> <r_i_glide_emodel>
-21.1887

> <r_i_glide_energy>
-32.5952

> <r_i_glide_erotb>
0.283537

> <r_i_glide_esite>
-0.147712

> <r_i_glide_evdw>
-28.0236

> <r_i_glide_gscore>
0.10012

> <r_i_glide_hbond>
-0.16

> <r_i_glide_ligand_efficiency>
0.00303394

> <r_i_glide_ligand_efficiency_ln>
0.0222662

> <r_i_glide_ligand_efficiency_sa>
0.00973146

> <r_i_glide_lipo>
-0.328227

> <r_i_glide_metal>
0

> <r_i_glide_rewards>
2.53944

> <s_i_glide_gridfile>
wee1_glide-grid

> <s_m_Source_File>
wee1_decoys_glide_SP.sdf

> <s_m_Source_Path>
/Users/zhangxujun/Desktop

> <s_m_entry_id>
3702

> <s_m_entry_name>
wee1_decoys_glide_SP.3427

> <s_m_subgroup_title>
wee1_decoys_glide_SP

> <s_m_subgroupid>
wee1_decoys_glide_SP


$$$$
