ZINC02542440_3999
                    3D
 Schrodinger Suite 2024-2.
 54 57  0  0  1  0            999 V2000
    0.1407   53.4883   30.5693 C   0  0  0  0  0  0
    0.8103   54.7055   30.4911 C   0  0  0  0  0  0
    1.6369   54.9776   29.4055 C   0  0  0  0  0  0
    1.7908   54.0384   28.3777 C   0  0  0  0  0  0
    1.0553   52.8319   28.4101 C   0  0  0  0  0  0
    0.2518   52.5665   29.5317 C   0  0  0  0  0  0
    1.1064   51.8855   27.2834 C   0  0  0  0  0  0
    0.3065   50.8966   27.1362 N   0  0  0  0  0  0
    0.3027   50.1239   25.9868 N   0  0  0  0  0  0
    0.6258   50.4595   24.7029 C   0  0  0  0  0  0
    1.1041   51.5469   24.3469 O   0  0  0  0  0  0
    0.3247   49.3773   23.7215 C   0  0  0  0  0  0
   -0.0954   48.2639   24.0543 O   0  0  0  0  0  0
    0.5713   49.7703   22.4505 N   0  0  0  0  0  0
    0.4898   48.9911   21.3085 C   0  0  0  0  0  0
   -0.4877   48.0969   20.8319 C   0  0  0  0  0  0
   -0.1012   47.5209   19.5975 C   0  0  0  0  0  0
    1.1389   48.0006   19.1443 C   0  0  0  0  0  0
    1.8249   49.1636   20.2216 S   0  0  0  0  0  0
    1.8608   47.5384   17.8854 C   0  0  0  0  0  0
    0.8817   46.7519   16.9908 C   0  0  0  0  0  0
    0.0411   45.7474   17.7982 C   0  0  0  0  0  0
   -0.8785   46.4512   18.8219 C   0  0  0  0  0  0
   -1.7506   47.7853   21.4934 C   0  0  0  0  0  0
   -2.7528   47.5342   22.0148 N   0  0  0  0  0  0
    2.6200   54.3326   27.3121 O   0  0  0  0  0  0
    3.9816   54.3296   27.4626 C   0  0  0  0  0  0
    4.5621   54.3065   28.5533 O   0  0  0  0  0  0
    4.6974   54.4518   26.1520 C   0  0  0  0  0  0
    4.0717   54.0967   24.9459 C   0  0  0  0  0  0
    4.7586   54.1996   23.7391 C   0  0  0  0  0  0
    6.0665   54.6778   23.7281 C   0  0  0  0  0  0
    6.7040   55.0187   24.9163 C   0  0  0  0  0  0
    6.0273   54.8956   26.1281 C   0  0  0  0  0  0
    6.8909   54.8968   22.2283 Cl  0  0  0  0  0  0
   -0.4819   53.2602   31.4243 H   0  0  0  0  0  0
    0.7080   55.4305   31.2856 H   0  0  0  0  0  0
    2.1702   55.9164   29.3620 H   0  0  0  0  0  0
   -0.3083   51.6430   29.6043 H   0  0  0  0  0  0
    1.8956   52.0970   26.5678 H   0  0  0  0  0  0
   -0.2076   49.2568   26.1073 H   0  0  0  0  0  0
    1.0380   50.6628   22.3599 H   0  0  0  0  0  0
    2.7025   46.8982   18.1425 H   0  0  0  0  0  0
    2.2858   48.3800   17.3369 H   0  0  0  0  0  0
    1.4390   46.2340   16.2090 H   0  0  0  0  0  0
    0.2182   47.4475   16.4735 H   0  0  0  0  0  0
    0.7055   45.0528   18.3155 H   0  0  0  0  0  0
   -0.5633   45.1401   17.1232 H   0  0  0  0  0  0
   -1.7172   46.9165   18.3018 H   0  0  0  0  0  0
   -1.3135   45.7095   19.4929 H   0  0  0  0  0  0
    3.0548   53.7283   24.9274 H   0  0  0  0  0  0
    4.2680   53.9352   22.8135 H   0  0  0  0  0  0
    7.7156   55.3890   24.8816 H   0  0  0  0  0  0
    6.5347   55.1625   27.0461 H   0  0  0  0  0  0
  1  6  2  0  0  0
  1  2  1  0  0  0
  1 36  1  0  0  0
  2  3  2  0  0  0
  2 37  1  0  0  0
  3  4  1  0  0  0
  3 38  1  0  0  0
  4  5  2  0  0  0
  4 26  1  0  0  0
  5  6  1  0  0  0
  5  7  1  0  0  0
  6 39  1  0  0  0
  7  8  2  0  0  0
  7 40  1  0  0  0
  8  9  1  0  0  0
  9 10  1  0  0  0
  9 41  1  0  0  0
 10 11  2  0  0  0
 10 12  1  0  0  0
 12 13  2  0  0  0
 12 14  1  0  0  0
 14 15  1  0  0  0
 14 42  1  0  0  0
 15 19  1  0  0  0
 15 16  2  0  0  0
 16 17  1  0  0  0
 16 24  1  0  0  0
 17 23  1  0  0  0
 17 18  2  0  0  0
 18 19  1  0  0  0
 18 20  1  0  0  0
 20 21  1  0  0  0
 20 43  1  0  0  0
 20 44  1  0  0  0
 21 22  1  0  0  0
 21 45  1  0  0  0
 21 46  1  0  0  0
 22 23  1  0  0  0
 22 47  1  0  0  0
 22 48  1  0  0  0
 23 49  1  0  0  0
 23 50  1  0  0  0
 24 25  3  0  0  0
 26 27  1  0  0  0
 27 28  2  0  0  0
 27 29  1  0  0  0
 29 34  2  0  0  0
 29 30  1  0  0  0
 30 31  2  0  0  0
 30 51  1  0  0  0
 31 32  1  0  0  0
 31 52  1  0  0  0
 32 33  2  0  0  0
 32 35  1  0  0  0
 33 34  1  0  0  0
 33 53  1  0  0  0
 34 54  1  0  0  0
M  END
> <i_i_glide_confnum>
23

> <i_i_glide_lignum>
4000

> <i_i_glide_posenum>
248

> <i_i_glide_rotatable_bonds>
10

> <i_m_Source_File_Index>
3596

> <b_m_subgroup_collapsed>
0

> <r_i_docking_score>
-5.41473

> <r_i_glide_ecoul>
-2.1822

> <r_i_glide_eff_state_penalty>
0

> <r_i_glide_einternal>
11.6588

> <r_i_glide_emodel>
-63.1624

> <r_i_glide_energy>
-52.0341

> <r_i_glide_erotb>
0.716593

> <r_i_glide_esite>
-0.051905

> <r_i_glide_evdw>
-49.8519

> <r_i_glide_gscore>
-5.41473

> <r_i_glide_hbond>
0

> <r_i_glide_ligand_efficiency>
-0.154707

> <r_i_glide_ligand_efficiency_ln>
-1.18865

> <r_i_glide_ligand_efficiency_sa>
-0.506055

> <r_i_glide_lipo>
-2.80284

> <r_i_glide_metal>
0

> <r_i_glide_rewards>
-0.456653

> <s_i_glide_gridfile>
wee1_glide-grid

> <s_m_Source_File>
wee1_decoys_glide_SP.sdf

> <s_m_Source_Path>
/Users/zhangxujun/Desktop

> <s_m_entry_id>
3871

> <s_m_entry_name>
wee1_decoys_glide_SP.3596

> <s_m_subgroup_title>
wee1_decoys_glide_SP

> <s_m_subgroupid>
wee1_decoys_glide_SP


$$$$
