ZINC40569371_4345
                    3D
 Schrodinger Suite 2024-2.
 54 57  0  0  1  0            999 V2000
    1.8652   54.9067   30.0088 C   0  0  0  0  0  0
    3.3113   54.8141   29.4884 C   0  0  0  0  0  0
    3.6352   53.5015   28.7427 C   0  0  0  0  0  0
    2.7573   53.2118   27.5244 C   0  0  0  0  0  0
    1.7000   52.3782   27.6457 C   0  0  0  0  0  0
    0.9160   52.0902   26.4681 C   0  0  0  0  0  0
    1.2042   52.6807   25.2806 C   0  0  0  0  0  0
    2.2600   53.6972   25.2061 C   0  0  0  0  0  0
    2.3268   54.4406   24.2260 O   0  0  0  0  0  0
    3.0858   53.8289   26.3128 N   0  0  0  0  0  0
    4.2522   54.7331   26.1270 C   0  0  0  0  0  0
    5.4931   54.0258   25.5295 C   0  0  1  0  0  0
    5.7046   53.1015   26.0679 H   0  0  0  0  0  0
    5.5389   53.8914   23.9896 C   0  0  0  0  0  0
    6.6125   54.8454   23.5214 C   0  0  0  0  0  0
    6.8757   55.7159   24.7316 C   0  0  0  0  0  0
    6.6187   54.8552   25.8307 O   0  0  0  0  0  0
    0.4296   52.2907   23.9940 C   0  0  2  0  0  0
   -0.0132   53.1923   23.5652 H   0  0  0  0  0  0
   -0.7801   51.4165   24.3766 C   0  0  0  0  0  0
   -0.9052   50.8976   25.6176 C   0  0  0  0  0  0
   -0.0499   51.1573   26.6330 O   0  0  0  0  0  0
   -1.8724   50.0494   26.0818 N   0  0  0  0  0  0
   -1.7516   51.1338   23.3702 C   0  0  0  0  0  0
   -2.5406   50.9426   22.5454 N   0  0  0  0  0  0
    1.3180   51.6722   22.8938 C   0  0  0  0  0  0
    1.4899   50.2819   22.8016 C   0  0  0  0  0  0
    2.3044   49.7287   21.8144 C   0  0  0  0  0  0
    2.9901   50.5595   20.9298 C   0  0  0  0  0  0
    2.8624   51.9417   21.0327 C   0  0  0  0  0  0
    2.0008   52.4922   21.9815 C   0  0  0  0  0  0
    3.9039   53.0754   19.9118 Br  0  0  0  0  0  0
    1.7201   55.8143   30.5956 H   0  0  0  0  0  0
    1.1507   54.9393   29.1859 H   0  0  0  0  0  0
    1.6028   54.0544   30.6376 H   0  0  0  0  0  0
    4.0032   54.8956   30.3252 H   0  0  0  0  0  0
    3.5056   55.6848   28.8639 H   0  0  0  0  0  0
    3.5318   52.6776   29.4519 H   0  0  0  0  0  0
    4.6902   53.4688   28.4633 H   0  0  0  0  0  0
    1.4495   51.9103   28.5875 H   0  0  0  0  0  0
    3.9886   55.5782   25.4909 H   0  0  0  0  0  0
    4.5363   55.1813   27.0750 H   0  0  0  0  0  0
    5.8483   52.8966   23.6815 H   0  0  0  0  0  0
    4.6062   54.1487   23.4943 H   0  0  0  0  0  0
    7.5087   54.2916   23.2474 H   0  0  0  0  0  0
    6.3068   55.4291   22.6509 H   0  0  0  0  0  0
    7.8948   56.0969   24.7632 H   0  0  0  0  0  0
    6.2133   56.5799   24.7886 H   0  0  0  0  0  0
   -2.6424   49.7672   25.4946 H   0  0  0  0  0  0
   -1.6964   49.4915   26.9184 H   0  0  0  0  0  0
    0.9936   49.6193   23.4967 H   0  0  0  0  0  0
    2.4281   48.6578   21.7505 H   0  0  0  0  0  0
    3.6324   50.1366   20.1723 H   0  0  0  0  0  0
    1.8930   53.5665   22.0113 H   0  0  0  0  0  0
  1  2  1  0  0  0
  1 33  1  0  0  0
  1 34  1  0  0  0
  1 35  1  0  0  0
  2  3  1  0  0  0
  2 36  1  0  0  0
  2 37  1  0  0  0
  3  4  1  0  0  0
  3 38  1  0  0  0
  3 39  1  0  0  0
  4 10  1  0  0  0
  4  5  2  0  0  0
  5  6  1  0  0  0
  5 40  1  0  0  0
  6 22  1  0  0  0
  6  7  2  0  0  0
  7  8  1  0  0  0
  7 18  1  0  0  0
  8  9  2  0  0  0
  8 10  1  0  0  0
 10 11  1  0  0  0
 11 12  1  0  0  0
 11 41  1  0  0  0
 11 42  1  0  0  0
 12 13  1  0  0  0
 12 17  1  0  0  0
 12 14  1  0  0  0
 14 15  1  0  0  0
 14 43  1  0  0  0
 14 44  1  0  0  0
 15 16  1  0  0  0
 15 45  1  0  0  0
 15 46  1  0  0  0
 16 17  1  0  0  0
 16 47  1  0  0  0
 16 48  1  0  0  0
 18 19  1  0  0  0
 18 20  1  0  0  0
 18 26  1  0  0  0
 20 21  2  0  0  0
 20 24  1  0  0  0
 21 22  1  0  0  0
 21 23  1  0  0  0
 23 49  1  0  0  0
 23 50  1  0  0  0
 24 25  3  0  0  0
 26 31  2  0  0  0
 26 27  1  0  0  0
 27 28  2  0  0  0
 27 51  1  0  0  0
 28 29  1  0  0  0
 28 52  1  0  0  0
 29 30  2  0  0  0
 29 53  1  0  0  0
 30 31  1  0  0  0
 30 32  1  0  0  0
 31 54  1  0  0  0
M  END
> <i_i_glide_confnum>
128

> <i_i_glide_lignum>
4346

> <i_i_glide_posenum>
46

> <i_i_glide_rotatable_bonds>
6

> <i_m_Source_File_Index>
2014

> <b_m_subgroup_collapsed>
0

> <r_i_docking_score>
-6.36749

> <r_i_glide_ecoul>
-3.36987

> <r_i_glide_eff_state_penalty>
0

> <r_i_glide_einternal>
9.44379

> <r_i_glide_emodel>
-56.4717

> <r_i_glide_energy>
-44.2192

> <r_i_glide_erotb>
0.365299

> <r_i_glide_esite>
-0.0940902

> <r_i_glide_evdw>
-40.8494

> <r_i_glide_gscore>
-6.36749

> <r_i_glide_hbond>
-0.318491

> <r_i_glide_ligand_efficiency>
-0.21225

> <r_i_glide_ligand_efficiency_ln>
-1.44676

> <r_i_glide_ligand_efficiency_sa>
-0.659509

> <r_i_glide_lipo>
-3.11088

> <r_i_glide_metal>
0

> <r_i_glide_rewards>
-0.661381

> <s_i_glide_gridfile>
wee1_glide-grid

> <s_m_Source_File>
wee1_decoys_glide_SP.sdf

> <s_m_Source_Path>
/Users/zhangxujun/Desktop

> <s_m_entry_id>
2289

> <s_m_entry_name>
wee1_decoys_glide_SP.2014

> <s_m_subgroup_title>
wee1_decoys_glide_SP

> <s_m_subgroupid>
wee1_decoys_glide_SP


$$$$
