ZINC32181015_5996
                    3D
 Schrodinger Suite 2024-2.
 63 67  0  0  1  0            999 V2000
    5.4774   55.0818   20.3613 C   0  0  0  0  0  0
    4.5232   53.9028   20.4240 C   0  0  0  0  0  0
    4.1321   53.3531   21.6483 C   0  0  0  0  0  0
    3.2810   52.2470   21.6797 C   0  0  0  0  0  0
    2.8130   51.6818   20.4899 C   0  0  0  0  0  0
    3.1606   52.2629   19.2600 C   0  0  0  0  0  0
    4.0182   53.3654   19.2380 C   0  0  0  0  0  0
    2.6855   51.6780   17.9345 C   0  0  0  0  0  0
    2.0634   50.5029   20.5364 N   0  0  0  0  0  0
    0.2994   50.4888   20.4898 S   0  0  0  0  0  0
   -0.0794   49.1812   19.9439 O   0  0  0  0  0  0
   -0.1571   51.7378   19.8692 O   0  0  0  0  0  0
   -0.2152   50.4882   22.1993 C   0  0  0  0  0  0
    0.0022   49.3473   22.9670 C   0  0  0  0  0  0
   -0.4284   49.2969   24.2866 C   0  0  0  0  0  0
   -1.0873   50.3899   24.8459 C   0  0  0  0  0  0
   -1.2846   51.5711   24.0966 C   0  0  0  0  0  0
   -0.8437   51.5950   22.7676 C   0  0  0  0  0  0
   -1.9297   52.8088   24.7198 C   0  0  1  0  0  0
   -1.2042   53.6144   24.6137 H   0  0  0  0  0  0
   -3.2473   53.1895   24.0723 C   0  0  0  0  0  0
   -4.2920   52.9261   24.8747 C   0  0  0  0  0  0
   -3.8376   52.3526   26.1969 C   0  0  0  0  0  0
   -2.3264   52.6188   26.1964 C   0  0  1  0  0  0
   -2.1883   53.5775   26.6989 H   0  0  0  0  0  0
   -1.4935   51.5660   26.9814 C   0  0  1  0  0  0
   -2.0544   51.3129   27.8849 H   0  0  0  0  0  0
   -1.4192   50.3273   26.2088 N   0  0  0  0  0  0
   -0.1401   52.0998   27.4759 C   0  0  0  0  0  0
    0.0769   52.2603   28.8486 C   0  0  0  0  0  0
    1.3022   52.7273   29.3195 C   0  0  0  0  0  0
    2.3354   53.0481   28.4264 C   0  0  0  0  0  0
    2.1072   52.8973   27.0515 C   0  0  0  0  0  0
    0.8859   52.4264   26.5855 C   0  0  0  0  0  0
    3.6559   53.5285   28.9555 C   0  0  0  0  0  0
    3.8763   53.6966   30.1571 O   0  0  0  0  0  0
    4.5834   53.7422   27.9859 O   0  0  0  0  0  0
    5.9027   54.1529   28.3151 C   0  0  0  0  0  0
    5.1788   55.7635   19.5642 H   0  0  0  0  0  0
    5.4757   55.6606   21.2818 H   0  0  0  0  0  0
    6.4924   54.7424   20.1556 H   0  0  0  0  0  0
    4.4972   53.7699   22.5760 H   0  0  0  0  0  0
    2.9968   51.8113   22.6258 H   0  0  0  0  0  0
    4.3120   53.7950   18.2912 H   0  0  0  0  0  0
    3.3386   51.9660   17.1093 H   0  0  0  0  0  0
    2.7040   50.5880   17.9642 H   0  0  0  0  0  0
    1.6651   51.9950   17.7168 H   0  0  0  0  0  0
    2.5418   49.6221   20.6295 H   0  0  0  0  0  0
    0.5129   48.5003   22.5333 H   0  0  0  0  0  0
   -0.2368   48.4114   24.8778 H   0  0  0  0  0  0
   -0.9931   52.4859   22.1740 H   0  0  0  0  0  0
   -3.2958   53.5941   23.0742 H   0  0  0  0  0  0
   -5.3371   53.0781   24.6386 H   0  0  0  0  0  0
   -4.0738   51.2895   26.2672 H   0  0  0  0  0  0
   -4.3234   52.8511   27.0364 H   0  0  0  0  0  0
   -1.2949   49.4862   26.7656 H   0  0  0  0  0  0
   -0.6966   52.0051   29.5595 H   0  0  0  0  0  0
    1.4370   52.8263   30.3879 H   0  0  0  0  0  0
    2.8742   53.1281   26.3271 H   0  0  0  0  0  0
    0.7577   52.3090   25.5222 H   0  0  0  0  0  0
    6.4709   54.3373   27.4040 H   0  0  0  0  0  0
    6.4213   53.3794   28.8813 H   0  0  0  0  0  0
    5.9009   55.0724   28.9021 H   0  0  0  0  0  0
  1  2  1  0  0  0
  1 39  1  0  0  0
  1 40  1  0  0  0
  1 41  1  0  0  0
  2  7  2  0  0  0
  2  3  1  0  0  0
  3  4  2  0  0  0
  3 42  1  0  0  0
  4  5  1  0  0  0
  4 43  1  0  0  0
  5  6  2  0  0  0
  5  9  1  0  0  0
  6  7  1  0  0  0
  6  8  1  0  0  0
  7 44  1  0  0  0
  8 45  1  0  0  0
  8 46  1  0  0  0
  8 47  1  0  0  0
  9 10  1  0  0  0
  9 48  1  0  0  0
 10 11  2  0  0  0
 10 12  2  0  0  0
 10 13  1  0  0  0
 13 18  2  0  0  0
 13 14  1  0  0  0
 14 15  2  0  0  0
 14 49  1  0  0  0
 15 16  1  0  0  0
 15 50  1  0  0  0
 16 28  1  0  0  0
 16 17  2  0  0  0
 17 18  1  0  0  0
 17 19  1  0  0  0
 18 51  1  0  0  0
 19 20  1  0  0  0
 19 24  1  0  0  0
 19 21  1  0  0  0
 21 22  2  0  0  0
 21 52  1  0  0  0
 22 23  1  0  0  0
 22 53  1  0  0  0
 23 24  1  0  0  0
 23 54  1  0  0  0
 23 55  1  0  0  0
 24 25  1  0  0  0
 24 26  1  0  0  0
 26 27  1  0  0  0
 26 28  1  0  0  0
 26 29  1  0  0  0
 28 56  1  0  0  0
 29 34  2  0  0  0
 29 30  1  0  0  0
 30 31  2  0  0  0
 30 57  1  0  0  0
 31 32  1  0  0  0
 31 58  1  0  0  0
 32 33  2  0  0  0
 32 35  1  0  0  0
 33 34  1  0  0  0
 33 59  1  0  0  0
 34 60  1  0  0  0
 35 36  2  0  0  0
 35 37  1  0  0  0
 37 38  1  0  0  0
 38 61  1  0  0  0
 38 62  1  0  0  0
 38 63  1  0  0  0
M  END
> <i_i_glide_confnum>
220

> <i_i_glide_lignum>
5997

> <i_i_glide_posenum>
386

> <i_i_glide_rotatable_bonds>
6

> <i_m_Source_File_Index>
3932

> <b_m_subgroup_collapsed>
0

> <r_i_docking_score>
-4.41411

> <r_i_glide_ecoul>
-3.45987

> <r_i_glide_eff_state_penalty>
0

> <r_i_glide_einternal>
5.54797

> <r_i_glide_emodel>
-54.6859

> <r_i_glide_energy>
-44.9543

> <r_i_glide_erotb>
0.425955

> <r_i_glide_esite>
-0.116731

> <r_i_glide_evdw>
-41.4944

> <r_i_glide_gscore>
-4.41411

> <r_i_glide_hbond>
-0.456

> <r_i_glide_ligand_efficiency>
-0.126117

> <r_i_glide_ligand_efficiency_ln>
-0.968995

> <r_i_glide_ligand_efficiency_sa>
-0.412538

> <r_i_glide_lipo>
-1.6723

> <r_i_glide_metal>
0

> <r_i_glide_rewards>
-0.00133307

> <s_i_glide_gridfile>
wee1_glide-grid

> <s_m_Source_File>
wee1_decoys_glide_SP.sdf

> <s_m_Source_Path>
/Users/zhangxujun/Desktop

> <s_m_entry_id>
4207

> <s_m_entry_name>
wee1_decoys_glide_SP.3932

> <s_m_subgroup_title>
wee1_decoys_glide_SP

> <s_m_subgroupid>
wee1_decoys_glide_SP


$$$$
