ZINC43218578_5514
                    3D
 Schrodinger Suite 2024-2.
 64 68  0  0  1  0            999 V2000
    3.0176   50.7469   19.5987 C   0  0  0  0  0  0
    2.0513   51.6743   20.3547 C   0  0  2  0  0  0
    2.7249   52.8970   21.0706 C   0  0  1  0  0  0
    2.7871   53.6971   20.3402 H   0  0  0  0  0  0
    1.9020   53.2402   22.2804 C   0  0  1  0  0  0
    1.3185   54.1368   22.0824 H   0  0  0  0  0  0
    0.9456   52.0283   22.5333 C   0  0  1  0  0  0
   -0.0387   52.2894   22.1385 H   0  0  0  0  0  0
    1.4236   50.9527   21.5476 N   0  3  0  0  0  0
    0.6646   51.4144   23.9101 C   0  0  0  0  0  0
    0.7613   50.0285   24.1419 C   0  0  0  0  0  0
    0.3753   49.4796   25.3594 C   0  0  0  0  0  0
   -0.0891   50.3115   26.3667 C   0  0  0  0  0  0
   -0.1696   51.6890   26.1715 C   0  0  0  0  0  0
    0.1813   52.2325   24.9364 C   0  0  0  0  0  0
   -0.5912   52.5100   27.1858 O   0  0  0  0  0  0
    0.1962   52.5905   28.3101 C   0  0  0  0  0  0
   -0.4000   52.4145   29.5575 C   0  0  0  0  0  0
    0.3631   52.4959   30.7190 C   0  0  0  0  0  0
    1.7335   52.7166   30.6376 C   0  0  0  0  0  0
    2.3496   52.9031   29.3961 C   0  0  0  0  0  0
    1.5712   52.8516   28.2331 C   0  0  0  0  0  0
    3.8523   53.1423   29.3408 C   0  0  0  0  0  0
    4.4735   52.0988   29.8848 F   0  0  0  0  0  0
    4.1484   54.2376   30.0367 F   0  0  0  0  0  0
    4.3060   53.3009   28.1009 F   0  0  0  0  0  0
    2.9159   53.6001   23.3581 C   0  0  0  0  0  0
    2.5790   54.0514   24.4506 O   0  0  0  0  0  0
    4.1758   53.3757   22.8719 N   0  0  0  0  0  0
    4.1500   52.8079   21.6304 C   0  0  0  0  0  0
    5.1046   52.3651   21.0022 O   0  0  0  0  0  0
    5.4619   53.4716   23.6639 C   0  0  0  0  0  0
    6.6985   54.2151   23.1415 C   0  0  0  0  0  0
    6.7138   55.6859   23.4352 C   0  0  0  0  0  0
    6.3035   56.0565   24.8818 C   0  0  0  0  0  0
    5.2401   55.1833   25.5561 C   0  0  0  0  0  0
    5.3840   53.7052   25.1970 C   0  0  0  0  0  0
    0.8786   52.0370   19.3580 C   0  0  0  0  0  0
   -0.2967   51.6611   19.5957 O   0  0  0  0  0  0
    1.1794   52.7050   18.3442 O   0  5  0  0  0  0
    3.5042   51.2922   18.7887 H   0  0  0  0  0  0
    3.7984   50.3391   20.2371 H   0  0  0  0  0  0
    2.5139   49.8926   19.1415 H   0  0  0  0  0  0
    2.1181   50.3638   21.9838 H   0  0  0  0  0  0
    1.1093   49.3359   23.3908 H   0  0  0  0  0  0
    0.4401   48.4135   25.5280 H   0  0  0  0  0  0
   -0.3936   49.8787   27.3009 H   0  0  0  0  0  0
    0.0812   53.2967   24.7861 H   0  0  0  0  0  0
   -1.4515   52.1826   29.6215 H   0  0  0  0  0  0
   -0.0962   52.3375   31.6819 H   0  0  0  0  0  0
    2.3158   52.7320   31.5466 H   0  0  0  0  0  0
    2.0267   52.9946   27.2635 H   0  0  0  0  0  0
    5.8883   52.4967   23.5434 H   0  0  0  0  0  0
    7.5978   53.7610   23.5644 H   0  0  0  0  0  0
    6.7968   54.0960   22.0776 H   0  0  0  0  0  0
    7.7102   56.0952   23.2654 H   0  0  0  0  0  0
    6.1883   56.0969   22.5967 H   0  0  0  0  0  0
    7.1914   56.0681   25.5108 H   0  0  0  0  0  0
    5.9042   57.0633   24.8812 H   0  0  0  0  0  0
    5.2967   55.3000   26.6387 H   0  0  0  0  0  0
    4.2566   55.5531   25.2847 H   0  0  0  0  0  0
    4.5903   53.1170   25.6552 H   0  0  0  0  0  0
    6.2949   53.3220   25.6625 H   0  0  0  0  0  0
    0.6662   50.3619   21.2296 H   0  0  0  0  0  0
  1  2  1  0  0  0
  1 41  1  0  0  0
  1 42  1  0  0  0
  1 43  1  0  0  0
  2  9  1  0  0  0
  2  3  1  0  0  0
  2 38  1  0  0  0
  3  4  1  0  0  0
  3 30  1  0  0  0
  3  5  1  0  0  0
  5  6  1  0  0  0
  5  7  1  0  0  0
  5 27  1  0  0  0
  7  8  1  0  0  0
  7  9  1  0  0  0
  7 10  1  0  0  0
  9 44  1  0  0  0
  9 64  1  0  0  0
 10 15  2  0  0  0
 10 11  1  0  0  0
 11 12  2  0  0  0
 11 45  1  0  0  0
 12 13  1  0  0  0
 12 46  1  0  0  0
 13 14  2  0  0  0
 13 47  1  0  0  0
 14 15  1  0  0  0
 14 16  1  0  0  0
 15 48  1  0  0  0
 16 17  1  0  0  0
 17 22  2  0  0  0
 17 18  1  0  0  0
 18 19  2  0  0  0
 18 49  1  0  0  0
 19 20  1  0  0  0
 19 50  1  0  0  0
 20 21  2  0  0  0
 20 51  1  0  0  0
 21 22  1  0  0  0
 21 23  1  0  0  0
 22 52  1  0  0  0
 23 24  1  0  0  0
 23 25  1  0  0  0
 23 26  1  0  0  0
 27 28  2  0  0  0
 27 29  1  0  0  0
 29 30  1  0  0  0
 29 32  1  0  0  0
 30 31  2  0  0  0
 32 37  1  0  0  0
 32 33  1  0  0  0
 32 53  1  0  0  0
 33 34  1  0  0  0
 33 54  1  0  0  0
 33 55  1  0  0  0
 34 35  1  0  0  0
 34 56  1  0  0  0
 34 57  1  0  0  0
 35 36  1  0  0  0
 35 58  1  0  0  0
 35 59  1  0  0  0
 36 37  1  0  0  0
 36 60  1  0  0  0
 36 61  1  0  0  0
 37 62  1  0  0  0
 37 63  1  0  0  0
 38 39  2  0  0  0
 38 40  1  0  0  0
M  CHG  2   9   1  40  -1
M  END
> <i_i_glide_confnum>
38

> <i_i_glide_lignum>
5515

> <i_i_glide_posenum>
309

> <i_i_glide_rotatable_bonds>
6

> <i_m_Source_File_Index>
97

> <b_m_subgroup_collapsed>
0

> <r_i_docking_score>
-5.35393

> <r_i_glide_ecoul>
-4.49086

> <r_i_glide_eff_state_penalty>
0

> <r_i_glide_einternal>
18.415

> <r_i_glide_emodel>
-34.7853

> <r_i_glide_energy>
-33.2697

> <r_i_glide_erotb>
0.307758

> <r_i_glide_esite>
-0.0489688

> <r_i_glide_evdw>
-28.7789

> <r_i_glide_gscore>
-5.35393

> <r_i_glide_hbond>
0

> <r_i_glide_ligand_efficiency>
-0.144701

> <r_i_glide_ligand_efficiency_ln>
-1.16114

> <r_i_glide_ligand_efficiency_sa>
-0.482175

> <r_i_glide_lipo>
-2.11091

> <r_i_glide_metal>
0

> <r_i_glide_rewards>
-1.38924

> <s_i_glide_gridfile>
wee1_glide-grid

> <s_m_Source_File>
wee1_decoys_glide_SP.sdf

> <s_m_Source_Path>
/Users/zhangxujun/Desktop

> <s_m_entry_id>
372

> <s_m_entry_name>
wee1_decoys_glide_SP.97

> <s_m_subgroup_title>
wee1_decoys_glide_SP

> <s_m_subgroupid>
wee1_decoys_glide_SP


$$$$
