ZINC21520315_4775
                    3D
 Schrodinger Suite 2024-2.
 29 30  0  0  1  0            999 V2000
    6.0127   54.2229   23.1803 C   0  0  0  0  0  0
    4.9173   53.8701   22.3889 C   0  0  0  0  0  0
    3.6404   53.7765   22.9495 C   0  0  0  0  0  0
    3.4663   54.0570   24.3128 C   0  0  0  0  0  0
    4.5626   54.4127   25.1007 C   0  0  0  0  0  0
    5.8342   54.4981   24.5353 C   0  0  0  0  0  0
    6.8899   54.8600   25.3003 F   0  0  0  0  0  0
    2.2406   54.0051   24.8803 F   0  0  0  0  0  0
    2.5535   53.4636   22.1211 N   0  0  0  0  0  0
    1.8742   51.8312   21.9941 S   0  0  0  0  0  0
    0.9920   51.8592   20.8242 O   0  0  0  0  0  0
    2.9855   50.8797   22.0804 O   0  0  0  0  0  0
    0.8022   51.5715   23.4052 C   0  0  0  0  0  0
   -0.0803   52.5793   23.7947 C   0  0  0  0  0  0
   -0.9546   52.3717   24.8574 C   0  0  0  0  0  0
   -0.9607   51.1513   25.5332 C   0  0  0  0  0  0
   -0.0823   50.1316   25.1438 C   0  0  0  0  0  0
    0.8002   50.3458   24.0805 C   0  0  0  0  0  0
   -0.0892   48.9015   25.8066 N   0  0  0  0  0  0
   -1.8175   50.9773   26.5684 F   0  0  0  0  0  0
    7.0012   54.2981   22.7476 H   0  0  0  0  0  0
    5.0621   53.6656   21.3381 H   0  0  0  0  0  0
    4.4260   54.6294   26.1497 H   0  0  0  0  0  0
    2.1753   54.1702   21.5016 H   0  0  0  0  0  0
   -0.0756   53.5311   23.2840 H   0  0  0  0  0  0
   -1.6319   53.1560   25.1620 H   0  0  0  0  0  0
    1.4737   49.5554   23.7728 H   0  0  0  0  0  0
   -0.6616   48.7928   26.6457 H   0  0  0  0  0  0
    0.6303   48.2171   25.6129 H   0  0  0  0  0  0
  1  6  2  0  0  0
  1  2  1  0  0  0
  1 21  1  0  0  0
  2  3  2  0  0  0
  2 22  1  0  0  0
  3  4  1  0  0  0
  3  9  1  0  0  0
  4  5  2  0  0  0
  4  8  1  0  0  0
  5  6  1  0  0  0
  5 23  1  0  0  0
  6  7  1  0  0  0
  9 10  1  0  0  0
  9 24  1  0  0  0
 10 11  2  0  0  0
 10 12  2  0  0  0
 10 13  1  0  0  0
 13 18  2  0  0  0
 13 14  1  0  0  0
 14 15  2  0  0  0
 14 25  1  0  0  0
 15 16  1  0  0  0
 15 26  1  0  0  0
 16 17  2  0  0  0
 16 20  1  0  0  0
 17 18  1  0  0  0
 17 19  1  0  0  0
 18 27  1  0  0  0
 19 28  1  0  0  0
 19 29  1  0  0  0
M  END
> <i_i_glide_confnum>
20

> <i_i_glide_lignum>
4776

> <i_i_glide_posenum>
356

> <i_i_glide_rotatable_bonds>
3

> <i_m_Source_File_Index>
327

> <b_m_subgroup_collapsed>
0

> <r_i_docking_score>
-5.49693

> <r_i_glide_ecoul>
-6.07002

> <r_i_glide_eff_state_penalty>
0

> <r_i_glide_einternal>
4.50224

> <r_i_glide_emodel>
-40.04

> <r_i_glide_energy>
-31.8173

> <r_i_glide_erotb>
0.604458

> <r_i_glide_esite>
-0.185677

> <r_i_glide_evdw>
-25.7473

> <r_i_glide_gscore>
-5.49693

> <r_i_glide_hbond>
-0.497899

> <r_i_glide_ligand_efficiency>
-0.274847

> <r_i_glide_ligand_efficiency_ln>
-1.3757

> <r_i_glide_ligand_efficiency_sa>
-0.746049

> <r_i_glide_lipo>
-1.78263

> <r_i_glide_metal>
0

> <r_i_glide_rewards>
-1.43731

> <s_i_glide_gridfile>
wee1_glide-grid

> <s_m_Source_File>
wee1_decoys_glide_SP.sdf

> <s_m_Source_Path>
/Users/zhangxujun/Desktop

> <s_m_entry_id>
602

> <s_m_entry_name>
wee1_decoys_glide_SP.327

> <s_m_subgroup_title>
wee1_decoys_glide_SP

> <s_m_subgroupid>
wee1_decoys_glide_SP


$$$$
