ZINC09300964_7
                    3D
 Schrodinger Suite 2024-2.
 55 59  0  0  1  0            999 V2000
    5.1034   53.8962   21.8112 C   0  0  0  0  0  0
    5.0518   54.0506   20.4193 C   0  0  0  0  0  0
    5.9807   54.8963   19.8303 C   0  0  0  0  0  0
    6.9171   55.5578   20.5673 C   0  0  0  0  0  0
    6.9957   55.4234   21.9461 C   0  0  0  0  0  0
    6.0617   54.5892   22.5950 C   0  0  0  0  0  0
    6.0657   54.4937   24.1065 C   0  0  0  0  0  0
    7.1023   54.6707   24.7554 O   0  0  0  0  0  0
    4.8405   54.2866   24.6397 N   0  0  0  0  0  0
    4.4741   54.1487   25.9688 C   0  0  0  0  0  0
    3.2042   54.0203   26.2794 N   0  0  0  0  0  0
    3.0485   53.9185   27.5839 C   0  0  0  0  0  0
    4.1908   53.9329   28.3490 C   0  0  0  0  0  0
    5.5859   54.1054   27.3316 S   0  0  0  0  0  0
    3.9218   53.7438   29.8145 C   0  0  0  0  0  0
    2.3819   53.8651   29.8679 C   0  0  0  0  0  0
    1.8140   53.6970   28.4316 C   0  0  2  0  0  0
    1.0236   54.4236   28.2365 H   0  0  0  0  0  0
    1.2450   52.2840   28.1787 C   0  0  0  0  0  0
    1.9044   51.2940   28.4913 O   0  0  0  0  0  0
    0.0310   52.2100   27.6049 N   0  0  0  0  0  0
   -0.6909   50.9805   27.2543 C   0  0  0  0  0  0
   -1.3911   51.0728   25.8709 C   0  0  0  0  0  0
   -0.4228   51.3418   24.6895 C   0  0  0  0  0  0
    0.4610   50.1200   24.3680 C   0  0  0  0  0  0
   -0.3886   48.8687   24.0673 C   0  0  0  0  0  0
   -1.3908   48.5804   25.2005 C   0  0  0  0  0  0
   -2.2448   49.8198   25.5422 C   0  0  0  0  0  0
    7.6616   56.3464   19.7508 O   0  0  0  0  0  0
    7.3012   55.9803   18.4468 C   0  0  0  0  0  0
    6.1115   55.2426   18.5239 O   0  0  0  0  0  0
    4.3786   53.2357   22.2682 H   0  0  0  0  0  0
    4.3111   53.5347   19.8287 H   0  0  0  0  0  0
    7.7443   55.9786   22.4871 H   0  0  0  0  0  0
    4.0775   54.2734   23.9839 H   0  0  0  0  0  0
    4.4046   54.4957   30.4355 H   0  0  0  0  0  0
    4.2580   52.7633   30.1542 H   0  0  0  0  0  0
    2.1223   54.8667   30.2165 H   0  0  0  0  0  0
    1.9448   53.1725   30.5905 H   0  0  0  0  0  0
   -0.4662   53.0687   27.4330 H   0  0  0  0  0  0
   -1.4116   50.7225   28.0307 H   0  0  0  0  0  0
   -0.0069   50.1302   27.2477 H   0  0  0  0  0  0
   -2.0894   51.9129   25.9076 H   0  0  0  0  0  0
    0.2156   52.2006   24.9020 H   0  0  0  0  0  0
   -0.9957   51.6099   23.8007 H   0  0  0  0  0  0
    1.1045   49.9049   25.2177 H   0  0  0  0  0  0
    1.1219   50.3359   23.5265 H   0  0  0  0  0  0
    0.2641   48.0085   23.9177 H   0  0  0  0  0  0
   -0.9285   49.0117   23.1295 H   0  0  0  0  0  0
   -0.8417   48.2489   26.0822 H   0  0  0  0  0  0
   -2.0361   47.7466   24.9269 H   0  0  0  0  0  0
   -2.8987   50.0421   24.6970 H   0  0  0  0  0  0
   -2.9044   49.5878   26.3806 H   0  0  0  0  0  0
    8.0847   55.3514   18.0201 H   0  0  0  0  0  0
    7.1588   56.8634   17.8216 H   0  0  0  0  0  0
  1  6  2  0  0  0
  1  2  1  0  0  0
  1 32  1  0  0  0
  2  3  2  0  0  0
  2 33  1  0  0  0
  3 31  1  0  0  0
  3  4  1  0  0  0
  4  5  2  0  0  0
  4 29  1  0  0  0
  5  6  1  0  0  0
  5 34  1  0  0  0
  6  7  1  0  0  0
  7  8  2  0  0  0
  7  9  1  0  0  0
  9 10  1  0  0  0
  9 35  1  0  0  0
 10 14  1  0  0  0
 10 11  2  0  0  0
 11 12  1  0  0  0
 12 17  1  0  0  0
 12 13  2  0  0  0
 13 14  1  0  0  0
 13 15  1  0  0  0
 15 16  1  0  0  0
 15 36  1  0  0  0
 15 37  1  0  0  0
 16 17  1  0  0  0
 16 38  1  0  0  0
 16 39  1  0  0  0
 17 18  1  0  0  0
 17 19  1  0  0  0
 19 20  2  0  0  0
 19 21  1  0  0  0
 21 22  1  0  0  0
 21 40  1  0  0  0
 22 23  1  0  0  0
 22 41  1  0  0  0
 22 42  1  0  0  0
 23 28  1  0  0  0
 23 24  1  0  0  0
 23 43  1  0  0  0
 24 25  1  0  0  0
 24 44  1  0  0  0
 24 45  1  0  0  0
 25 26  1  0  0  0
 25 46  1  0  0  0
 25 47  1  0  0  0
 26 27  1  0  0  0
 26 48  1  0  0  0
 26 49  1  0  0  0
 27 28  1  0  0  0
 27 50  1  0  0  0
 27 51  1  0  0  0
 28 52  1  0  0  0
 28 53  1  0  0  0
 29 30  1  0  0  0
 30 31  1  0  0  0
 30 54  1  0  0  0
 30 55  1  0  0  0
M  END
> <i_i_glide_confnum>
36

> <i_i_glide_lignum>
8

> <i_i_glide_posenum>
379

> <i_i_glide_rotatable_bonds>
7

> <i_m_Source_File_Index>
5270

> <b_m_subgroup_collapsed>
0

> <r_i_docking_score>
-5.58033

> <r_i_glide_ecoul>
-3.30877

> <r_i_glide_eff_state_penalty>
0

> <r_i_glide_einternal>
1.86688

> <r_i_glide_emodel>
-64.8772

> <r_i_glide_energy>
-49.6553

> <r_i_glide_erotb>
0.651818

> <r_i_glide_esite>
0

> <r_i_glide_evdw>
-46.3465

> <r_i_glide_gscore>
-5.58033

> <r_i_glide_hbond>
-0.119643

> <r_i_glide_ligand_efficiency>
-0.186011

> <r_i_glide_ligand_efficiency_ln>
-1.26791

> <r_i_glide_ligand_efficiency_sa>
-0.57798

> <r_i_glide_lipo>
-2.09065

> <r_i_glide_metal>
0

> <r_i_glide_rewards>
-1.20821

> <s_i_glide_gridfile>
wee1_glide-grid

> <s_m_Source_File>
wee1_decoys_glide_SP.sdf

> <s_m_Source_Path>
/Users/zhangxujun/Desktop

> <s_m_entry_id>
5545

> <s_m_entry_name>
wee1_decoys_glide_SP.5270

> <s_m_subgroup_title>
wee1_decoys_glide_SP

> <s_m_subgroupid>
wee1_decoys_glide_SP


$$$$
