ZINC22906236_434
                    3D
 Schrodinger Suite 2024-2.
 54 57  0  0  1  0            999 V2000
    7.0979   53.9120   27.7370 C   0  0  0  0  0  0
    5.7042   53.8796   27.0909 C   0  0  2  0  0  0
    5.4023   52.8332   27.0582 H   0  0  0  0  0  0
    5.6729   54.4894   25.6731 C   0  0  0  0  0  0
    4.7954   55.2979   25.3735 O   0  0  0  0  0  0
    6.6462   54.0987   24.8190 N   0  0  0  0  0  0
    6.7069   54.6094   23.5156 N   0  0  0  0  0  0
    5.8598   54.1688   22.5568 C   0  0  0  0  0  0
    5.0094   53.2961   22.7449 O   0  0  0  0  0  0
    6.0054   54.8136   21.1951 C   0  0  0  0  0  0
    7.1464   55.5562   20.8404 C   0  0  0  0  0  0
    7.2518   56.1298   19.5752 C   0  0  0  0  0  0
    6.2083   56.0063   18.6596 C   0  0  0  0  0  0
    5.0531   55.2852   18.9988 C   0  0  0  0  0  0
    4.9874   54.6499   20.2428 C   0  0  0  0  0  0
    3.9050   55.1850   18.1897 N   0  0  0  0  0  0
    3.5134   55.9907   17.1786 C   0  0  0  0  0  0
    4.1899   56.8917   16.6843 O   0  0  0  0  0  0
    2.1471   55.7998   16.7588 C   0  0  0  0  0  0
    1.3323   56.7490   16.1386 C   0  0  0  0  0  0
    0.0524   56.2704   15.8421 C   0  0  0  0  0  0
   -0.1085   54.9364   16.1898 C   0  0  0  0  0  0
    1.3312   54.2587   16.8786 S   0  0  0  0  0  0
    4.8830   54.6647   27.9603 O   0  0  0  0  0  0
    3.5911   54.2840   28.2602 C   0  0  0  0  0  0
    2.9805   54.9936   29.2852 C   0  0  0  0  0  0
    1.7525   54.6073   29.8097 C   0  0  0  0  0  0
    1.0874   53.4792   29.2817 C   0  0  0  0  0  0
   -0.1017   52.9777   29.8580 C   0  0  0  0  0  0
   -0.7594   51.8946   29.2801 C   0  0  0  0  0  0
   -0.2695   51.3101   28.1187 C   0  0  0  0  0  0
    0.9179   51.7565   27.5486 C   0  0  0  0  0  0
    1.6350   52.8249   28.1380 C   0  0  0  0  0  0
    2.8904   53.2453   27.6378 C   0  0  0  0  0  0
    7.7660   53.1838   27.2808 H   0  0  0  0  0  0
    7.5609   54.8959   27.6774 H   0  0  0  0  0  0
    7.0360   53.6562   28.7946 H   0  0  0  0  0  0
    7.3193   53.3683   25.0003 H   0  0  0  0  0  0
    7.1705   55.5063   23.4789 H   0  0  0  0  0  0
    7.9759   55.6785   21.5239 H   0  0  0  0  0  0
    8.1425   56.6789   19.3056 H   0  0  0  0  0  0
    6.3176   56.4797   17.6965 H   0  0  0  0  0  0
    4.0987   54.0867   20.4970 H   0  0  0  0  0  0
    3.2177   54.5154   18.5033 H   0  0  0  0  0  0
    1.6506   57.7628   15.9360 H   0  0  0  0  0  0
   -0.7183   56.8736   15.3865 H   0  0  0  0  0  0
   -0.9858   54.3230   16.0587 H   0  0  0  0  0  0
    3.4995   55.8483   29.6816 H   0  0  0  0  0  0
    1.3164   55.1484   30.6383 H   0  0  0  0  0  0
   -0.4936   53.4348   30.7548 H   0  0  0  0  0  0
   -1.6622   51.5039   29.7291 H   0  0  0  0  0  0
   -0.8063   50.4870   27.6715 H   0  0  0  0  0  0
    1.3025   51.2830   26.6593 H   0  0  0  0  0  0
    3.2993   52.7219   26.7884 H   0  0  0  0  0  0
  1  2  1  0  0  0
  1 35  1  0  0  0
  1 36  1  0  0  0
  1 37  1  0  0  0
  2  3  1  0  0  0
  2  4  1  0  0  0
  2 24  1  0  0  0
  4  5  2  0  0  0
  4  6  1  0  0  0
  6  7  1  0  0  0
  6 38  1  0  0  0
  7  8  1  0  0  0
  7 39  1  0  0  0
  8  9  2  0  0  0
  8 10  1  0  0  0
 10 15  2  0  0  0
 10 11  1  0  0  0
 11 12  2  0  0  0
 11 40  1  0  0  0
 12 13  1  0  0  0
 12 41  1  0  0  0
 13 14  2  0  0  0
 13 42  1  0  0  0
 14 15  1  0  0  0
 14 16  1  0  0  0
 15 43  1  0  0  0
 16 17  1  0  0  0
 16 44  1  0  0  0
 17 18  2  0  0  0
 17 19  1  0  0  0
 19 23  1  0  0  0
 19 20  2  0  0  0
 20 21  1  0  0  0
 20 45  1  0  0  0
 21 22  2  0  0  0
 21 46  1  0  0  0
 22 23  1  0  0  0
 22 47  1  0  0  0
 24 25  1  0  0  0
 25 34  2  0  0  0
 25 26  1  0  0  0
 26 27  2  0  0  0
 26 48  1  0  0  0
 27 28  1  0  0  0
 27 49  1  0  0  0
 28 33  2  0  0  0
 28 29  1  0  0  0
 29 30  2  0  0  0
 29 50  1  0  0  0
 30 31  1  0  0  0
 30 51  1  0  0  0
 31 32  2  0  0  0
 31 52  1  0  0  0
 32 33  1  0  0  0
 32 53  1  0  0  0
 33 34  1  0  0  0
 34 54  1  0  0  0
M  END
> <i_i_glide_confnum>
37

> <i_i_glide_lignum>
435

> <i_i_glide_posenum>
184

> <i_i_glide_rotatable_bonds>
10

> <i_m_Source_File_Index>
2904

> <b_m_subgroup_collapsed>
0

> <r_i_docking_score>
-5.66802

> <r_i_glide_ecoul>
-3.28979

> <r_i_glide_eff_state_penalty>
0

> <r_i_glide_einternal>
7.77571

> <r_i_glide_emodel>
-69.5023

> <r_i_glide_energy>
-52.754

> <r_i_glide_erotb>
0.857614

> <r_i_glide_esite>
0

> <r_i_glide_evdw>
-49.4642

> <r_i_glide_gscore>
-5.66802

> <r_i_glide_hbond>
0

> <r_i_glide_ligand_efficiency>
-0.171758

> <r_i_glide_ligand_efficiency_ln>
-1.26054

> <r_i_glide_ligand_efficiency_sa>
-0.55092

> <r_i_glide_lipo>
-2.40986

> <r_i_glide_metal>
0

> <r_i_glide_rewards>
-1.1491

> <s_i_glide_gridfile>
wee1_glide-grid

> <s_m_Source_File>
wee1_decoys_glide_SP.sdf

> <s_m_Source_Path>
/Users/zhangxujun/Desktop

> <s_m_entry_id>
3179

> <s_m_entry_name>
wee1_decoys_glide_SP.2904

> <s_m_subgroup_title>
wee1_decoys_glide_SP

> <s_m_subgroupid>
wee1_decoys_glide_SP


$$$$
