ZINC40291963_1680
                    3D
 Schrodinger Suite 2024-2.
 42 43  0  0  1  0            999 V2000
   -1.5135   51.3254   28.4992 C   0  0  0  0  0  0
   -0.3646   51.9653   27.7143 C   0  0  0  0  0  0
   -0.4463   52.0018   26.3112 C   0  0  0  0  0  0
    0.5583   52.4726   25.5357 N   0  0  0  0  0  0
    1.6804   52.9156   26.1035 N   0  0  0  0  0  0
    1.8251   52.9276   27.4590 C   0  0  0  0  0  0
    0.8096   52.4754   28.3341 C   0  0  0  0  0  0
    1.0173   52.5108   29.8123 C   0  0  0  0  0  0
    2.1305   52.0967   30.2781 N   0  0  0  0  0  0
    2.2234   52.0968   31.6817 O   0  0  0  0  0  0
   -0.0890   53.0122   30.4792 N   0  0  0  0  0  0
    3.0266   53.4025   27.9660 O   0  0  0  0  0  0
    4.1711   53.5810   27.1272 C   0  0  2  0  0  0
    4.2244   52.7837   26.3929 H   0  0  0  0  0  0
    5.4303   53.4916   28.0090 C   0  0  0  0  0  0
    6.7063   53.7244   27.1777 C   0  0  0  0  0  0
    6.6448   55.0469   26.3899 C   0  0  0  0  0  0
    5.3724   55.2088   25.5328 C   0  0  2  0  0  0
    5.3346   56.2604   25.2518 H   0  0  0  0  0  0
    4.1217   54.9315   26.3946 C   0  0  0  0  0  0
    5.4078   54.3580   24.2496 C   0  0  0  0  0  0
   -1.6592   51.5015   25.5368 C   0  0  0  0  0  0
   -1.9516   50.4967   27.9479 H   0  0  0  0  0  0
   -1.1922   50.8959   29.4470 H   0  0  0  0  0  0
   -2.3077   52.0428   28.6796 H   0  0  0  0  0  0
    1.3607   52.4161   31.9573 H   0  0  0  0  0  0
   -0.2437   52.8644   31.4683 H   0  0  0  0  0  0
   -0.8928   53.2545   29.9224 H   0  0  0  0  0  0
    5.3920   54.2505   28.7927 H   0  0  0  0  0  0
    5.4895   52.5109   28.4816 H   0  0  0  0  0  0
    7.5705   53.7272   27.8408 H   0  0  0  0  0  0
    6.8572   52.9025   26.4819 H   0  0  0  0  0  0
    7.5045   55.1374   25.7349 H   0  0  0  0  0  0
    6.7044   55.8692   27.1022 H   0  0  0  0  0  0
    3.2299   55.0062   25.7746 H   0  0  0  0  0  0
    4.0814   55.6964   27.1559 H   0  0  0  0  0  0
    5.5018   53.2974   24.4672 H   0  0  0  0  0  0
    4.5019   54.4956   23.6584 H   0  0  0  0  0  0
    6.2525   54.6365   23.6185 H   0  0  0  0  0  0
   -1.6956   50.4115   25.5615 H   0  0  0  0  0  0
   -2.5828   51.8872   25.9714 H   0  0  0  0  0  0
   -1.6389   51.8117   24.4906 H   0  0  0  0  0  0
  1  2  1  0  0  0
  1 23  1  0  0  0
  1 24  1  0  0  0
  1 25  1  0  0  0
  2  7  2  0  0  0
  2  3  1  0  0  0
  3  4  2  0  0  0
  3 22  1  0  0  0
  4  5  1  0  0  0
  5  6  2  0  0  0
  6  7  1  0  0  0
  6 12  1  0  0  0
  7  8  1  0  0  0
  8  9  2  0  0  0
  8 11  1  0  0  0
  9 10  1  0  0  0
 10 26  1  0  0  0
 11 27  1  0  0  0
 11 28  1  0  0  0
 12 13  1  0  0  0
 13 14  1  0  0  0
 13 20  1  0  0  0
 13 15  1  0  0  0
 15 16  1  0  0  0
 15 29  1  0  0  0
 15 30  1  0  0  0
 16 17  1  0  0  0
 16 31  1  0  0  0
 16 32  1  0  0  0
 17 18  1  0  0  0
 17 33  1  0  0  0
 17 34  1  0  0  0
 18 19  1  0  0  0
 18 20  1  0  0  0
 18 21  1  0  0  0
 20 35  1  0  0  0
 20 36  1  0  0  0
 21 37  1  0  0  0
 21 38  1  0  0  0
 21 39  1  0  0  0
 22 40  1  0  0  0
 22 41  1  0  0  0
 22 42  1  0  0  0
M  END
> <i_i_glide_confnum>
19

> <i_i_glide_lignum>
1681

> <i_i_glide_posenum>
144

> <i_i_glide_rotatable_bonds>
4

> <i_m_Source_File_Index>
2487

> <b_m_subgroup_collapsed>
0

> <r_i_docking_score>
-5.20269

> <r_i_glide_ecoul>
-5.29798

> <r_i_glide_eff_state_penalty>
0

> <r_i_glide_einternal>
1.00034

> <r_i_glide_emodel>
-44.4248

> <r_i_glide_energy>
-32.6855

> <r_i_glide_erotb>
0.930553

> <r_i_glide_esite>
-0.149575

> <r_i_glide_evdw>
-27.3875

> <r_i_glide_gscore>
-5.20269

> <r_i_glide_hbond>
-0.00217931

> <r_i_glide_ligand_efficiency>
-0.260134

> <r_i_glide_ligand_efficiency_ln>
-1.30206

> <r_i_glide_ligand_efficiency_sa>
-0.706113

> <r_i_glide_lipo>
-2.07909

> <r_i_glide_metal>
0

> <r_i_glide_rewards>
-1.73833

> <s_i_glide_gridfile>
wee1_glide-grid

> <s_m_Source_File>
wee1_decoys_glide_SP.sdf

> <s_m_Source_Path>
/Users/zhangxujun/Desktop

> <s_m_entry_id>
2762

> <s_m_entry_name>
wee1_decoys_glide_SP.2487

> <s_m_subgroup_title>
wee1_decoys_glide_SP

> <s_m_subgroupid>
wee1_decoys_glide_SP


$$$$
