ZINC23443981_1076
                    3D
 Schrodinger Suite 2024-2.
 73 76  0  0  1  0            999 V2000
    5.4948   55.6497   17.5938 C   0  0  0  0  0  0
    6.4906   55.8747   18.5847 O   0  0  0  0  0  0
    6.2653   55.4375   19.8750 C   0  0  0  0  0  0
    7.2681   55.6966   20.8073 C   0  0  0  0  0  0
    7.1194   55.2978   22.1322 C   0  0  0  0  0  0
    5.9822   54.6168   22.5451 C   0  0  0  0  0  0
    4.9441   54.3785   21.6416 C   0  0  0  0  0  0
    5.1037   54.7763   20.3062 C   0  0  0  0  0  0
    3.6267   53.7370   22.0833 C   0  0  1  0  0  0
    2.8324   54.4450   21.8448 H   0  0  0  0  0  0
    3.3562   52.4152   21.3343 C   0  0  0  0  0  0
    2.1522   51.6899   21.9808 N   0  3  0  0  0  0
    2.0547   50.2296   21.5013 C   0  0  0  0  0  0
    0.9220   49.5450   22.2885 C   0  0  0  0  0  0
   -0.3361   50.2820   22.0367 N   0  0  0  0  0  0
   -0.3317   51.7023   22.4432 C   0  0  0  0  0  0
    0.8170   52.4168   21.6999 C   0  0  0  0  0  0
   -1.5129   49.6635   21.7286 C   0  0  0  0  0  0
   -2.6089   50.2129   21.8681 O   0  0  0  0  0  0
   -1.4803   48.2571   21.1812 C   0  0  0  0  0  0
   -0.6683   47.9256   20.0861 C   0  0  0  0  0  0
   -0.6737   46.6317   19.5708 C   0  0  0  0  0  0
   -1.4900   45.6571   20.1397 C   0  0  0  0  0  0
   -2.3168   45.9680   21.2331 C   0  0  0  0  0  0
   -2.3063   47.2713   21.7348 C   0  0  0  0  0  0
   -3.1530   45.0662   21.8640 O   0  0  0  0  0  0
   -3.3143   43.7691   21.3033 C   0  0  0  0  0  0
    3.5943   53.4314   23.4844 O   0  0  0  0  0  0
    3.2321   54.4944   24.3570 C   0  0  0  0  0  0
    3.1435   53.9654   25.7806 C   0  0  0  0  0  0
    4.2312   54.0958   26.6462 C   0  0  0  0  0  0
    4.1456   53.6195   27.9526 C   0  0  0  0  0  0
    2.9638   53.0220   28.4145 C   0  0  0  0  0  0
    1.8779   52.8900   27.5353 C   0  0  0  0  0  0
    1.9709   53.3529   26.2252 C   0  0  0  0  0  0
    2.8906   52.5260   29.8282 C   0  0  0  0  0  0
    3.8840   52.3272   30.5326 O   0  0  0  0  0  0
    1.6159   52.4138   30.2829 O   0  0  0  0  0  0
    1.3412   52.0972   31.6432 C   0  0  0  0  0  0
    5.8414   56.0544   16.6422 H   0  0  0  0  0  0
    5.3026   54.5860   17.4508 H   0  0  0  0  0  0
    4.5600   56.1552   17.8450 H   0  0  0  0  0  0
    8.1723   56.1980   20.4950 H   0  0  0  0  0  0
    7.9032   55.5153   22.8402 H   0  0  0  0  0  0
    5.9061   54.3079   23.5765 H   0  0  0  0  0  0
    4.2993   54.5921   19.6115 H   0  0  0  0  0  0
    4.2015   51.7352   21.4528 H   0  0  0  0  0  0
    3.1262   52.5421   20.2744 H   0  0  0  0  0  0
    1.9148   50.2126   20.4163 H   0  0  0  0  0  0
    3.0064   49.7550   21.7485 H   0  0  0  0  0  0
    1.1492   49.5757   23.3558 H   0  0  0  0  0  0
    0.8686   48.4967   22.0292 H   0  0  0  0  0  0
   -1.2766   52.1988   22.2151 H   0  0  0  0  0  0
   -0.1793   51.7814   23.5208 H   0  0  0  0  0  0
    0.6620   52.4866   20.6206 H   0  0  0  0  0  0
    0.9199   53.4190   22.1108 H   0  0  0  0  0  0
   -0.0383   48.6712   19.6204 H   0  0  0  0  0  0
   -0.0479   46.3867   18.7247 H   0  0  0  0  0  0
   -1.4715   44.6655   19.7175 H   0  0  0  0  0  0
   -2.9541   47.5140   22.5662 H   0  0  0  0  0  0
   -4.0215   43.1961   21.9053 H   0  0  0  0  0  0
   -3.7043   43.8191   20.2844 H   0  0  0  0  0  0
   -2.3655   43.2332   21.2981 H   0  0  0  0  0  0
    3.9655   55.2965   24.3133 H   0  0  0  0  0  0
    2.2696   54.9240   24.0735 H   0  0  0  0  0  0
    5.1472   54.5593   26.3107 H   0  0  0  0  0  0
    5.0037   53.7264   28.6014 H   0  0  0  0  0  0
    0.9564   52.4223   27.8517 H   0  0  0  0  0  0
    1.1240   53.2452   25.5622 H   0  0  0  0  0  0
    0.3032   51.7813   31.7442 H   0  0  0  0  0  0
    1.9739   51.2960   32.0213 H   0  0  0  0  0  0
    1.4847   52.9654   32.2845 H   0  0  0  0  0  0
    2.3204   51.6926   22.9794 H   0  0  0  0  0  0
  1  2  1  0  0  0
  1 40  1  0  0  0
  1 41  1  0  0  0
  1 42  1  0  0  0
  2  3  1  0  0  0
  3  8  2  0  0  0
  3  4  1  0  0  0
  4  5  2  0  0  0
  4 43  1  0  0  0
  5  6  1  0  0  0
  5 44  1  0  0  0
  6  7  2  0  0  0
  6 45  1  0  0  0
  7  8  1  0  0  0
  7  9  1  0  0  0
  8 46  1  0  0  0
  9 10  1  0  0  0
  9 11  1  0  0  0
  9 28  1  0  0  0
 11 12  1  0  0  0
 11 47  1  0  0  0
 11 48  1  0  0  0
 12 17  1  0  0  0
 12 13  1  0  0  0
 12 73  1  0  0  0
 13 14  1  0  0  0
 13 49  1  0  0  0
 13 50  1  0  0  0
 14 15  1  0  0  0
 14 51  1  0  0  0
 14 52  1  0  0  0
 15 16  1  0  0  0
 15 18  1  0  0  0
 16 17  1  0  0  0
 16 53  1  0  0  0
 16 54  1  0  0  0
 17 55  1  0  0  0
 17 56  1  0  0  0
 18 19  2  0  0  0
 18 20  1  0  0  0
 20 25  2  0  0  0
 20 21  1  0  0  0
 21 22  2  0  0  0
 21 57  1  0  0  0
 22 23  1  0  0  0
 22 58  1  0  0  0
 23 24  2  0  0  0
 23 59  1  0  0  0
 24 25  1  0  0  0
 24 26  1  0  0  0
 25 60  1  0  0  0
 26 27  1  0  0  0
 27 61  1  0  0  0
 27 62  1  0  0  0
 27 63  1  0  0  0
 28 29  1  0  0  0
 29 30  1  0  0  0
 29 64  1  0  0  0
 29 65  1  0  0  0
 30 35  2  0  0  0
 30 31  1  0  0  0
 31 32  2  0  0  0
 31 66  1  0  0  0
 32 33  1  0  0  0
 32 67  1  0  0  0
 33 34  2  0  0  0
 33 36  1  0  0  0
 34 35  1  0  0  0
 34 68  1  0  0  0
 35 69  1  0  0  0
 36 37  2  0  0  0
 36 38  1  0  0  0
 38 39  1  0  0  0
 39 70  1  0  0  0
 39 71  1  0  0  0
 39 72  1  0  0  0
M  CHG  1  12   1
M  END
> <i_i_glide_confnum>
178

> <i_i_glide_lignum>
1077

> <i_i_glide_posenum>
362

> <i_i_glide_rotatable_bonds>
12

> <i_m_Source_File_Index>
5897

> <b_m_subgroup_collapsed>
0

> <r_i_docking_score>
-4.78614

> <r_i_glide_ecoul>
-3.99658

> <r_i_glide_eff_state_penalty>
0

> <r_i_glide_einternal>
9.89935

> <r_i_glide_emodel>
-58.1856

> <r_i_glide_energy>
-47.3387

> <r_i_glide_erotb>
0.68488

> <r_i_glide_esite>
0

> <r_i_glide_evdw>
-43.3421

> <r_i_glide_gscore>
-4.78614

> <r_i_glide_hbond>
-4.00673e-05

> <r_i_glide_ligand_efficiency>
-0.125951

> <r_i_glide_ligand_efficiency_ln>
-1.03203

> <r_i_glide_ligand_efficiency_sa>
-0.423444

> <r_i_glide_lipo>
-2.55884

> <r_i_glide_metal>
0

> <r_i_glide_rewards>
-0.145544

> <s_i_glide_gridfile>
wee1_glide-grid

> <s_m_Source_File>
wee1_decoys_glide_SP.sdf

> <s_m_Source_Path>
/Users/zhangxujun/Desktop

> <s_m_entry_id>
6172

> <s_m_entry_name>
wee1_decoys_glide_SP.5897

> <s_m_subgroup_title>
wee1_decoys_glide_SP

> <s_m_subgroupid>
wee1_decoys_glide_SP


$$$$
