ZINC59271729_5065
                    3D
 Schrodinger Suite 2024-2.
 43 47  0  0  1  0            999 V2000
    2.4912   49.5243   20.0437 C   0  0  0  0  0  0
    2.3043   50.7315   19.3730 C   0  0  0  0  0  0
    1.6728   51.8156   19.9846 C   0  0  0  0  0  0
    1.2246   51.6328   21.2954 C   0  0  0  0  0  0
    1.4170   50.4106   22.0037 C   0  0  0  0  0  0
    2.0775   49.3513   21.3640 C   0  0  0  0  0  0
    0.8475   50.5757   23.2819 C   0  0  0  0  0  0
    0.2956   51.8757   23.3366 C   0  0  0  0  0  0
    0.5589   52.4967   22.1390 N   0  0  0  0  0  0
    0.3107   53.4444   21.9053 H   0  0  0  0  0  0
   -0.3577   52.3795   24.3869 N   0  0  0  0  0  0
   -0.4132   51.5092   25.4277 C   0  0  0  0  0  0
    0.1200   50.2560   25.4567 N   0  0  0  0  0  0
    0.7333   49.7781   24.3557 N   0  0  0  0  0  0
   -1.2215   52.0968   26.8850 S   0  0  0  0  0  0
   -0.2208   51.5830   28.3295 C   0  0  0  0  0  0
    1.2219   52.1217   28.4039 C   0  0  0  0  0  0
    1.8826   51.8933   29.4187 O   0  0  0  0  0  0
    1.6759   52.8014   27.3302 N   0  0  0  0  0  0
    2.9299   53.3466   27.1132 C   0  0  0  0  0  0
    3.2803   53.6976   25.9023 N   0  0  0  0  0  0
    4.5401   54.0970   25.8137 C   0  0  0  0  0  0
    5.2059   54.1350   27.0481 C   0  0  0  0  0  0
    4.1610   53.5783   28.3237 S   0  0  0  0  0  0
    5.1294   54.4105   24.4684 C   0  0  0  0  0  0
    6.3051   55.1621   24.3888 C   0  0  0  0  0  0
    6.8565   55.4702   23.1485 C   0  0  0  0  0  0
    6.2565   55.0196   21.9805 C   0  0  0  0  0  0
    5.0951   54.2521   22.0391 C   0  0  0  0  0  0
    4.5309   53.9569   23.2801 C   0  0  0  0  0  0
    6.9810   55.5409   20.2986 Br  0  0  0  0  0  0
    3.0009   48.7230   19.5301 H   0  0  0  0  0  0
    2.6732   50.8263   18.3601 H   0  0  0  0  0  0
    1.5407   52.7504   19.4563 H   0  0  0  0  0  0
    2.2718   48.4273   21.8842 H   0  0  0  0  0  0
   -0.1794   50.4969   28.3359 H   0  0  0  0  0  0
   -0.7471   51.8710   29.2404 H   0  0  0  0  0  0
    1.0533   52.8281   26.5381 H   0  0  0  0  0  0
    6.2272   54.4114   27.2628 H   0  0  0  0  0  0
    6.7837   55.5372   25.2799 H   0  0  0  0  0  0
    7.7377   56.0960   23.0895 H   0  0  0  0  0  0
    4.6220   53.9064   21.1311 H   0  0  0  0  0  0
    3.6242   53.3685   23.3077 H   0  0  0  0  0  0
  1  6  2  0  0  0
  1  2  1  0  0  0
  1 32  1  0  0  0
  2  3  2  0  0  0
  2 33  1  0  0  0
  3  4  1  0  0  0
  3 34  1  0  0  0
  4  9  1  0  0  0
  4  5  2  0  0  0
  5  6  1  0  0  0
  5  7  1  0  0  0
  6 35  1  0  0  0
  7 14  2  0  0  0
  7  8  1  0  0  0
  8  9  1  0  0  0
  8 11  2  0  0  0
  9 10  1  0  0  0
 11 12  1  0  0  0
 12 13  2  0  0  0
 12 15  1  0  0  0
 13 14  1  0  0  0
 15 16  1  0  0  0
 16 17  1  0  0  0
 16 36  1  0  0  0
 16 37  1  0  0  0
 17 18  2  0  0  0
 17 19  1  0  0  0
 19 20  1  0  0  0
 19 38  1  0  0  0
 20 24  1  0  0  0
 20 21  2  0  0  0
 21 22  1  0  0  0
 22 23  2  0  0  0
 22 25  1  0  0  0
 23 24  1  0  0  0
 23 39  1  0  0  0
 25 30  2  0  0  0
 25 26  1  0  0  0
 26 27  2  0  0  0
 26 40  1  0  0  0
 27 28  1  0  0  0
 27 41  1  0  0  0
 28 29  2  0  0  0
 28 31  1  0  0  0
 29 30  1  0  0  0
 29 42  1  0  0  0
 30 43  1  0  0  0
M  END
> <i_i_glide_confnum>
11

> <i_i_glide_lignum>
5066

> <i_i_glide_posenum>
130

> <i_i_glide_rotatable_bonds>
6

> <i_m_Source_File_Index>
4063

> <b_m_subgroup_collapsed>
0

> <r_i_docking_score>
-5.21011

> <r_i_glide_ecoul>
-2.44233

> <r_i_glide_eff_state_penalty>
0

> <r_i_glide_einternal>
4.24777

> <r_i_glide_emodel>
-64.2612

> <r_i_glide_energy>
-48.1458

> <r_i_glide_erotb>
0.412265

> <r_i_glide_esite>
-0.0438533

> <r_i_glide_evdw>
-45.7035

> <r_i_glide_gscore>
-5.21011

> <r_i_glide_hbond>
-0.0251382

> <r_i_glide_ligand_efficiency>
-0.17367

> <r_i_glide_ligand_efficiency_ln>
-1.18379

> <r_i_glide_ligand_efficiency_sa>
-0.539634

> <r_i_glide_lipo>
-2.5689

> <r_i_glide_metal>
0

> <r_i_glide_rewards>
-0.332966

> <s_i_glide_gridfile>
wee1_glide-grid

> <s_m_Source_File>
wee1_decoys_glide_SP.sdf

> <s_m_Source_Path>
/Users/zhangxujun/Desktop

> <s_m_entry_id>
4338

> <s_m_entry_name>
wee1_decoys_glide_SP.4063

> <s_m_subgroup_title>
wee1_decoys_glide_SP

> <s_m_subgroupid>
wee1_decoys_glide_SP


$$$$
