ZINC09941960_2698
                    3D
 Schrodinger Suite 2024-2.
 41 44  0  0  1  0            999 V2000
    3.9193   54.4475   17.5995 C   0  0  0  0  0  0
    4.1757   53.9827   19.0323 C   0  0  0  0  0  0
    3.6198   52.8970   19.6510 C   0  0  0  0  0  0
    3.9860   52.5123   21.1170 C   0  0  1  0  0  0
    4.4731   51.5357   21.1432 H   0  0  0  0  0  0
    5.0013   53.4638   21.6087 N   0  0  0  0  0  0
    5.5018   54.5617   20.9429 C   0  0  0  0  0  0
    6.3657   55.2122   21.6795 N   0  0  0  0  0  0
    6.4198   54.5007   22.8757 N   0  0  0  0  0  0
    5.5738   53.4079   22.8204 N   0  0  0  0  0  0
    5.1076   54.8018   19.6474 N   0  0  0  0  0  0
    2.7928   52.4102   22.0856 C   0  0  0  0  0  0
    2.2221   53.5681   22.6288 C   0  0  0  0  0  0
    1.1699   53.4744   23.5345 C   0  0  0  0  0  0
    0.6791   52.2222   23.8942 C   0  0  0  0  0  0
    1.2358   51.0628   23.3593 C   0  0  0  0  0  0
    2.2932   51.1562   22.4585 C   0  0  0  0  0  0
   -0.7648   52.0962   25.1267 Br  0  0  0  0  0  0
    2.5615   52.1174   19.0141 C   0  0  0  0  0  0
    1.6453   52.6546   18.3899 O   0  0  0  0  0  0
    2.6507   50.7870   19.2284 N   0  0  0  0  0  0
    1.7620   49.7581   18.8578 C   0  0  0  0  0  0
    0.7624   49.8894   17.8798 C   0  0  0  0  0  0
   -0.0568   48.8070   17.5682 C   0  0  0  0  0  0
    0.1218   47.5911   18.2234 C   0  0  0  0  0  0
    1.1158   47.4490   19.1872 C   0  0  0  0  0  0
    1.9342   48.5301   19.5024 C   0  0  0  0  0  0
   -0.8895   46.2476   17.8346 Cl  0  0  0  0  0  0
    3.4469   53.6859   16.9810 H   0  0  0  0  0  0
    3.2743   55.3268   17.6029 H   0  0  0  0  0  0
    4.8515   54.7064   17.0949 H   0  0  0  0  0  0
    5.5279   55.5528   19.1212 H   0  0  0  0  0  0
    2.5944   54.5425   22.3455 H   0  0  0  0  0  0
    0.7348   54.3701   23.9525 H   0  0  0  0  0  0
    0.8538   50.0942   23.6476 H   0  0  0  0  0  0
    2.7222   50.2495   22.0584 H   0  0  0  0  0  0
    3.5339   50.4726   19.5954 H   0  0  0  0  0  0
    0.6160   50.8070   17.3332 H   0  0  0  0  0  0
   -0.8207   48.9106   16.8115 H   0  0  0  0  0  0
    1.2576   46.5005   19.6815 H   0  0  0  0  0  0
    2.7044   48.4035   20.2489 H   0  0  0  0  0  0
  1  2  1  0  0  0
  1 29  1  0  0  0
  1 30  1  0  0  0
  1 31  1  0  0  0
  2 11  1  0  0  0
  2  3  2  0  0  0
  3  4  1  0  0  0
  3 19  1  0  0  0
  4  5  1  0  0  0
  4  6  1  0  0  0
  4 12  1  0  0  0
  6 10  1  0  0  0
  6  7  1  0  0  0
  7  8  2  0  0  0
  7 11  1  0  0  0
  8  9  1  0  0  0
  9 10  2  0  0  0
 11 32  1  0  0  0
 12 17  2  0  0  0
 12 13  1  0  0  0
 13 14  2  0  0  0
 13 33  1  0  0  0
 14 15  1  0  0  0
 14 34  1  0  0  0
 15 16  2  0  0  0
 15 18  1  0  0  0
 16 17  1  0  0  0
 16 35  1  0  0  0
 17 36  1  0  0  0
 19 20  2  0  0  0
 19 21  1  0  0  0
 21 22  1  0  0  0
 21 37  1  0  0  0
 22 27  2  0  0  0
 22 23  1  0  0  0
 23 24  2  0  0  0
 23 38  1  0  0  0
 24 25  1  0  0  0
 24 39  1  0  0  0
 25 26  2  0  0  0
 25 28  1  0  0  0
 26 27  1  0  0  0
 26 40  1  0  0  0
 27 41  1  0  0  0
M  END
> <i_i_glide_confnum>
21

> <i_i_glide_lignum>
2699

> <i_i_glide_posenum>
117

> <i_i_glide_rotatable_bonds>
4

> <i_m_Source_File_Index>
5446

> <b_m_subgroup_collapsed>
0

> <r_i_docking_score>
-2.85033

> <r_i_glide_ecoul>
0.40655

> <r_i_glide_eff_state_penalty>
0

> <r_i_glide_einternal>
0.507045

> <r_i_glide_emodel>
-40.5261

> <r_i_glide_energy>
-33.3718

> <r_i_glide_erotb>
0.40293

> <r_i_glide_esite>
-0.125177

> <r_i_glide_evdw>
-33.7784

> <r_i_glide_gscore>
-2.85033

> <r_i_glide_hbond>
-0.0148327

> <r_i_glide_ligand_efficiency>
-0.105568

> <r_i_glide_ligand_efficiency_ln>
-0.663511

> <r_i_glide_ligand_efficiency_sa>
-0.316704

> <r_i_glide_lipo>
-0.722917

> <r_i_glide_metal>
0

> <r_i_glide_rewards>
-0.762401

> <s_i_glide_gridfile>
wee1_glide-grid

> <s_m_Source_File>
wee1_decoys_glide_SP.sdf

> <s_m_Source_Path>
/Users/zhangxujun/Desktop

> <s_m_entry_id>
5721

> <s_m_entry_name>
wee1_decoys_glide_SP.5446

> <s_m_subgroup_title>
wee1_decoys_glide_SP

> <s_m_subgroupid>
wee1_decoys_glide_SP


$$$$
