ZINC39695722_5566
                    3D
 Schrodinger Suite 2024-2.
 65 69  0  0  1  0            999 V2000
    8.8957   55.8559   18.8471 C   0  0  0  0  0  0
    7.6723   55.2972   19.5494 C   0  0  0  0  0  0
    7.4060   55.6766   20.8693 C   0  0  0  0  0  0
    6.3044   55.1748   21.5616 C   0  0  0  0  0  0
    5.4676   54.2633   20.9017 C   0  0  0  0  0  0
    5.7630   53.8662   19.5732 C   0  0  0  0  0  0
    6.8483   54.3918   18.8658 C   0  0  0  0  0  0
    4.8073   52.9103   19.2959 N   0  0  0  0  0  0
    3.9611   52.8483   20.3789 C   0  0  0  0  0  0
    4.3467   53.6315   21.3646 N   0  0  0  0  0  0
    2.6832   52.0057   20.3671 C   0  0  1  0  0  0
    2.0888   52.3571   19.5191 H   0  0  0  0  0  0
    2.9589   50.4971   20.2015 C   0  0  0  0  0  0
    1.8999   52.2900   21.5676 N   0  0  0  0  0  0
    0.6180   51.9744   21.7928 C   0  0  0  0  0  0
   -0.0731   51.3331   21.0015 O   0  0  0  0  0  0
   -0.0030   52.4634   23.1191 C   0  0  2  0  0  0
   -1.0379   52.6876   22.8540 H   0  0  0  0  0  0
    0.6264   53.7618   23.6817 C   0  0  0  0  0  0
    1.4876   53.2978   24.7734 N   0  0  0  0  0  0
    1.3286   51.8596   25.0093 C   0  0  0  0  0  0
    0.0485   51.4185   24.2726 C   0  0  0  0  0  0
    0.0500   49.9057   23.8931 C   0  0  0  0  0  0
    0.1914   48.9976   25.1371 C   0  0  0  0  0  0
   -0.9928   49.2968   26.0815 N   0  3  0  0  0  0
   -1.1541   50.7826   26.4601 C   0  0  0  0  0  0
   -1.2200   51.6021   25.1580 C   0  0  0  0  0  0
    2.6520   53.9177   25.0878 C   0  0  0  0  0  0
    3.2050   54.7007   24.3167 O   0  0  0  0  0  0
    3.2249   53.6968   26.4766 C   0  0  0  0  0  0
    4.5887   53.9224   26.7236 C   0  0  0  0  0  0
    5.1258   53.7201   27.9966 C   0  0  0  0  0  0
    4.3026   53.2973   29.0401 C   0  0  0  0  0  0
    2.9448   53.0957   28.8215 C   0  0  0  0  0  0
    2.4068   53.3124   27.5553 C   0  0  0  0  0  0
    1.8266   52.5196   30.2516 Br  0  0  0  0  0  0
    8.6593   56.1063   17.8113 H   0  0  0  0  0  0
    9.2570   56.7705   19.3226 H   0  0  0  0  0  0
    9.6995   55.1190   18.8455 H   0  0  0  0  0  0
    8.0821   56.3453   21.3825 H   0  0  0  0  0  0
    6.1186   55.4500   22.5883 H   0  0  0  0  0  0
    7.0699   54.0787   17.8565 H   0  0  0  0  0  0
    3.5044   50.2893   19.2822 H   0  0  0  0  0  0
    3.5332   50.0999   21.0377 H   0  0  0  0  0  0
    2.0332   49.9243   20.1466 H   0  0  0  0  0  0
    2.3593   52.9081   22.2230 H   0  0  0  0  0  0
    1.1062   54.3323   22.8817 H   0  0  0  0  0  0
   -0.2319   54.2993   24.0813 H   0  0  0  0  0  0
    1.4928   51.5016   26.0237 H   0  0  0  0  0  0
    2.1523   51.3931   24.4672 H   0  0  0  0  0  0
   -0.8325   49.6443   23.3065 H   0  0  0  0  0  0
    0.9008   49.6828   23.2453 H   0  0  0  0  0  0
    0.1302   47.9365   24.8940 H   0  0  0  0  0  0
    1.1032   49.1660   25.7118 H   0  0  0  0  0  0
   -1.8467   48.9816   25.6437 H   0  0  0  0  0  0
   -2.0758   50.8406   27.0438 H   0  0  0  0  0  0
   -0.3184   51.0342   27.1136 H   0  0  0  0  0  0
   -1.3136   52.6494   25.4541 H   0  0  0  0  0  0
   -2.1306   51.3827   24.5966 H   0  0  0  0  0  0
    5.2467   54.2390   25.9250 H   0  0  0  0  0  0
    6.1792   53.8835   28.1723 H   0  0  0  0  0  0
    4.7044   53.1236   30.0244 H   0  0  0  0  0  0
    1.3419   53.1800   27.4273 H   0  0  0  0  0  0
   -0.9423   48.7693   26.9663 H   0  0  0  0  0  0
    4.7091   52.3164   18.4788 H   0  0  0  0  0  0
  1  2  1  0  0  0
  1 37  1  0  0  0
  1 38  1  0  0  0
  1 39  1  0  0  0
  2  7  2  0  0  0
  2  3  1  0  0  0
  3  4  2  0  0  0
  3 40  1  0  0  0
  4  5  1  0  0  0
  4 41  1  0  0  0
  5 10  1  0  0  0
  5  6  2  0  0  0
  6  7  1  0  0  0
  6  8  1  0  0  0
  7 42  1  0  0  0
  8  9  1  0  0  0
  8 65  1  0  0  0
  9 10  2  0  0  0
  9 11  1  0  0  0
 11 12  1  0  0  0
 11 13  1  0  0  0
 11 14  1  0  0  0
 13 43  1  0  0  0
 13 44  1  0  0  0
 13 45  1  0  0  0
 14 15  1  0  0  0
 14 46  1  0  0  0
 15 16  2  0  0  0
 15 17  1  0  0  0
 17 18  1  0  0  0
 17 22  1  0  0  0
 17 19  1  0  0  0
 19 20  1  0  0  0
 19 47  1  0  0  0
 19 48  1  0  0  0
 20 21  1  0  0  0
 20 28  1  0  0  0
 21 22  1  0  0  0
 21 49  1  0  0  0
 21 50  1  0  0  0
 22 27  1  0  0  0
 22 23  1  0  0  0
 23 24  1  0  0  0
 23 51  1  0  0  0
 23 52  1  0  0  0
 24 25  1  0  0  0
 24 53  1  0  0  0
 24 54  1  0  0  0
 25 26  1  0  0  0
 25 55  1  0  0  0
 25 64  1  0  0  0
 26 27  1  0  0  0
 26 56  1  0  0  0
 26 57  1  0  0  0
 27 58  1  0  0  0
 27 59  1  0  0  0
 28 29  2  0  0  0
 28 30  1  0  0  0
 30 35  2  0  0  0
 30 31  1  0  0  0
 31 32  2  0  0  0
 31 60  1  0  0  0
 32 33  1  0  0  0
 32 61  1  0  0  0
 33 34  2  0  0  0
 33 62  1  0  0  0
 34 35  1  0  0  0
 34 36  1  0  0  0
 35 63  1  0  0  0
M  CHG  1  25   1
M  END
> <i_i_glide_confnum>
272

> <i_i_glide_lignum>
5567

> <i_i_glide_posenum>
287

> <i_i_glide_rotatable_bonds>
6

> <i_m_Source_File_Index>
3338

> <b_m_subgroup_collapsed>
0

> <r_i_docking_score>
-5.39296

> <r_i_glide_ecoul>
-7.66554

> <r_i_glide_eff_state_penalty>
0

> <r_i_glide_einternal>
13.9385

> <r_i_glide_emodel>
-57.307

> <r_i_glide_energy>
-48.6671

> <r_i_glide_erotb>
0.447278

> <r_i_glide_esite>
-0.177887

> <r_i_glide_evdw>
-41.0016

> <r_i_glide_gscore>
-5.39296

> <r_i_glide_hbond>
-0.281725

> <r_i_glide_ligand_efficiency>
-0.158617

> <r_i_glide_ligand_efficiency_ln>
-1.19146

> <r_i_glide_ligand_efficiency_sa>
-0.513856

> <r_i_glide_lipo>
-2.38839

> <r_i_glide_metal>
0

> <r_i_glide_rewards>
0.207677

> <s_i_glide_gridfile>
wee1_glide-grid

> <s_m_Source_File>
wee1_decoys_glide_SP.sdf

> <s_m_Source_Path>
/Users/zhangxujun/Desktop

> <s_m_entry_id>
3613

> <s_m_entry_name>
wee1_decoys_glide_SP.3338

> <s_m_subgroup_title>
wee1_decoys_glide_SP

> <s_m_subgroupid>
wee1_decoys_glide_SP


$$$$
