ZINC23456673_4031
                    3D
 Schrodinger Suite 2024-2.
 57 60  0  0  1  0            999 V2000
   -0.0273   51.5568   15.3947 C   0  0  0  0  0  0
    0.0008   52.3696   16.6780 C   0  0  0  0  0  0
    0.3128   53.6856   16.3706 O   0  0  0  0  0  0
    1.4768   54.1032   17.0514 C   0  0  0  0  0  0
    1.8777   52.9051   17.9150 C   0  0  1  0  0  0
    1.6817   53.0930   18.9713 H   0  0  0  0  0  0
    1.0072   51.8752   17.4948 O   0  0  0  0  0  0
    3.3348   52.4311   17.7256 C   0  0  0  0  0  0
    4.2919   53.3050   18.4105 N   0  0  0  0  0  0
    4.6725   53.1536   19.6888 C   0  0  0  0  0  0
    4.3199   52.2187   20.4099 O   0  0  0  0  0  0
    5.5043   54.2212   20.1855 C   0  0  0  0  0  0
    6.5394   54.8969   19.5315 C   0  0  0  0  0  0
    7.2197   55.6919   20.3313 N   0  0  0  0  0  0
    6.6563   55.5232   21.4987 C   0  0  0  0  0  0
    5.5459   54.6982   21.4926 N   0  0  0  0  0  0
    4.7537   54.3586   22.6227 C   0  0  0  0  0  0
    3.3887   54.1087   22.4616 C   0  0  0  0  0  0
    2.5841   53.8441   23.5575 C   0  0  0  0  0  0
    3.1185   53.8225   24.8488 C   0  0  0  0  0  0
    4.4857   54.0967   25.0119 C   0  0  0  0  0  0
    5.3012   54.3545   23.9117 C   0  0  0  0  0  0
    2.2394   53.5083   26.0132 C   0  0  0  0  0  0
    1.1522   52.6316   25.8808 C   0  0  0  0  0  0
    0.2991   52.3572   26.9525 C   0  0  0  0  0  0
    0.5436   52.9600   28.1902 C   0  0  0  0  0  0
    1.6209   53.8373   28.3483 C   0  0  0  0  0  0
    2.4605   54.0973   27.2626 C   0  0  0  0  0  0
    1.9066   54.5156   29.6801 C   0  0  0  0  0  0
    3.1235   54.1500   30.0816 F   0  0  0  0  0  0
    1.8762   55.8395   29.5334 F   0  0  0  0  0  0
    1.0250   54.1781   30.6212 F   0  0  0  0  0  0
   -0.8870   51.4217   26.7396 C   0  0  0  0  0  0
   -1.6653   51.9082   25.7700 F   0  0  0  0  0  0
   -0.4423   50.2184   26.3723 F   0  0  0  0  0  0
   -1.6317   51.2968   27.8379 F   0  0  0  0  0  0
   -1.3039   52.3544   17.4602 C   0  0  0  0  0  0
    0.9410   51.6179   14.8958 H   0  0  0  0  0  0
   -0.7968   51.9438   14.7243 H   0  0  0  0  0  0
   -0.2411   50.5119   15.6207 H   0  0  0  0  0  0
    1.2739   54.9685   17.6821 H   0  0  0  0  0  0
    2.2617   54.3567   16.3361 H   0  0  0  0  0  0
    3.4271   51.4047   18.0896 H   0  0  0  0  0  0
    3.5890   52.3686   16.6662 H   0  0  0  0  0  0
    4.7293   54.0295   17.8645 H   0  0  0  0  0  0
    6.8287   54.7711   18.4977 H   0  0  0  0  0  0
    6.9646   56.0062   22.4134 H   0  0  0  0  0  0
    2.9237   54.1421   21.4873 H   0  0  0  0  0  0
    1.5331   53.6696   23.3870 H   0  0  0  0  0  0
    4.9338   54.0759   25.9948 H   0  0  0  0  0  0
    6.3524   54.5419   24.0729 H   0  0  0  0  0  0
    0.9626   52.1497   24.9314 H   0  0  0  0  0  0
   -0.1087   52.7481   29.0262 H   0  0  0  0  0  0
    3.2805   54.7875   27.3927 H   0  0  0  0  0  0
   -1.1877   52.9177   18.3880 H   0  0  0  0  0  0
   -2.1017   52.8053   16.8659 H   0  0  0  0  0  0
   -1.5778   51.3278   17.7065 H   0  0  0  0  0  0
  1  2  1  0  0  0
  1 38  1  0  0  0
  1 39  1  0  0  0
  1 40  1  0  0  0
  2  7  1  0  0  0
  2  3  1  0  0  0
  2 37  1  0  0  0
  3  4  1  0  0  0
  4  5  1  0  0  0
  4 41  1  0  0  0
  4 42  1  0  0  0
  5  6  1  0  0  0
  5  7  1  0  0  0
  5  8  1  0  0  0
  8  9  1  0  0  0
  8 43  1  0  0  0
  8 44  1  0  0  0
  9 10  1  0  0  0
  9 45  1  0  0  0
 10 11  2  0  0  0
 10 12  1  0  0  0
 12 16  1  0  0  0
 12 13  2  0  0  0
 13 14  1  0  0  0
 13 46  1  0  0  0
 14 15  2  0  0  0
 15 16  1  0  0  0
 15 47  1  0  0  0
 16 17  1  0  0  0
 17 22  2  0  0  0
 17 18  1  0  0  0
 18 19  2  0  0  0
 18 48  1  0  0  0
 19 20  1  0  0  0
 19 49  1  0  0  0
 20 21  2  0  0  0
 20 23  1  0  0  0
 21 22  1  0  0  0
 21 50  1  0  0  0
 22 51  1  0  0  0
 23 28  2  0  0  0
 23 24  1  0  0  0
 24 25  2  0  0  0
 24 52  1  0  0  0
 25 26  1  0  0  0
 25 33  1  0  0  0
 26 27  2  0  0  0
 26 53  1  0  0  0
 27 28  1  0  0  0
 27 29  1  0  0  0
 28 54  1  0  0  0
 29 30  1  0  0  0
 29 31  1  0  0  0
 29 32  1  0  0  0
 33 34  1  0  0  0
 33 35  1  0  0  0
 33 36  1  0  0  0
 37 55  1  0  0  0
 37 56  1  0  0  0
 37 57  1  0  0  0
M  END
> <i_i_glide_confnum>
8

> <i_i_glide_lignum>
4032

> <i_i_glide_posenum>
149

> <i_i_glide_rotatable_bonds>
8

> <i_m_Source_File_Index>
757

> <b_m_subgroup_collapsed>
0

> <r_i_docking_score>
-5.66508

> <r_i_glide_ecoul>
-2.54142

> <r_i_glide_eff_state_penalty>
0

> <r_i_glide_einternal>
6.46226

> <r_i_glide_emodel>
-52.46

> <r_i_glide_energy>
-40.7315

> <r_i_glide_erotb>
0.466732

> <r_i_glide_esite>
-0.37013

> <r_i_glide_evdw>
-38.19

> <r_i_glide_gscore>
-5.66508

> <r_i_glide_hbond>
0

> <r_i_glide_ligand_efficiency>
-0.157363

> <r_i_glide_ligand_efficiency_ln>
-1.23597

> <r_i_glide_ligand_efficiency_sa>
-0.519602

> <r_i_glide_lipo>
-2.26497

> <r_i_glide_metal>
0

> <r_i_glide_rewards>
-1.20599

> <s_i_glide_gridfile>
wee1_glide-grid

> <s_m_Source_File>
wee1_decoys_glide_SP.sdf

> <s_m_Source_Path>
/Users/zhangxujun/Desktop

> <s_m_entry_id>
1032

> <s_m_entry_name>
wee1_decoys_glide_SP.757

> <s_m_subgroup_title>
wee1_decoys_glide_SP

> <s_m_subgroupid>
wee1_decoys_glide_SP


$$$$
