ZINC59425667_5621
                    3D
 Schrodinger Suite 2024-2.
 49 51  0  0  1  0            999 V2000
    6.9016   54.3235   27.4808 C   0  0  0  0  0  0
    6.6173   55.2950   26.4832 O   0  0  0  0  0  0
    5.9070   54.8540   25.3904 C   0  0  0  0  0  0
    6.5209   54.9996   24.1457 C   0  0  0  0  0  0
    5.8720   54.6311   22.9601 C   0  0  0  0  0  0
    4.5883   54.0890   23.0507 C   0  0  0  0  0  0
    3.9603   53.9484   24.2847 C   0  0  0  0  0  0
    4.6038   54.3254   25.4775 C   0  0  0  0  0  0
    4.0067   54.2064   26.7242 O   0  0  0  0  0  0
    2.7573   53.5155   26.8176 C   0  0  0  0  0  0
    2.2899   53.3814   28.2625 C   0  0  0  0  0  0
    1.0229   53.8645   28.6097 C   0  0  0  0  0  0
    0.5246   53.6964   29.8991 C   0  0  0  0  0  0
    1.2946   53.0480   30.8593 C   0  0  0  0  0  0
    2.5617   52.5686   30.5299 C   0  0  0  0  0  0
    3.0637   52.7325   29.2387 C   0  0  0  0  0  0
    4.6392   52.1202   28.8919 Cl  0  0  0  0  0  0
    0.7044   52.8966   32.4700 Cl  0  0  0  0  0  0
    6.4379   54.8936   21.6349 C   0  0  0  0  0  0
    7.6035   55.3831   21.4463 N   0  0  0  0  0  0
    8.0223   55.7560   20.1894 N   0  0  0  0  0  0
    7.3325   56.4655   19.2532 C   0  0  0  0  0  0
    6.1025   56.4941   19.1590 O   0  0  0  0  0  0
    8.1742   57.3539   18.3673 C   0  0  0  0  0  0
    9.5184   57.0629   18.0903 C   0  0  0  0  0  0
   10.2877   57.9453   17.3387 C   0  0  0  0  0  0
    9.7336   59.1335   16.8434 C   0  0  0  0  0  0
    8.3825   59.4051   17.0930 C   0  0  0  0  0  0
    7.6120   58.5233   17.8427 C   0  0  0  0  0  0
   10.5661   60.0929   16.0780 N   0  3  0  0  0  0
   11.7048   59.7593   15.7617 O   0  0  0  0  0  0
   10.0930   61.1930   15.8045 O   0  5  0  0  0  0
    6.1998   54.4292   28.3078 H   0  0  0  0  0  0
    6.8668   53.2942   27.1152 H   0  0  0  0  0  0
    7.9040   54.4965   27.8734 H   0  0  0  0  0  0
    7.5039   55.4456   24.1069 H   0  0  0  0  0  0
    4.0444   53.8053   22.1595 H   0  0  0  0  0  0
    2.9622   53.5409   24.2837 H   0  0  0  0  0  0
    2.0017   54.0473   26.2364 H   0  0  0  0  0  0
    2.8391   52.5077   26.4051 H   0  0  0  0  0  0
    0.4102   54.3644   27.8778 H   0  0  0  0  0  0
   -0.4543   54.0734   30.1552 H   0  0  0  0  0  0
    3.1635   52.0898   31.2889 H   0  0  0  0  0  0
    5.7806   54.6400   20.8065 H   0  0  0  0  0  0
    9.0186   55.9180   20.1702 H   0  0  0  0  0  0
    9.9930   56.1649   18.4653 H   0  0  0  0  0  0
   11.3252   57.7039   17.1558 H   0  0  0  0  0  0
    7.9135   60.3083   16.7197 H   0  0  0  0  0  0
    6.5775   58.7814   18.0310 H   0  0  0  0  0  0
  1  2  1  0  0  0
  1 33  1  0  0  0
  1 34  1  0  0  0
  1 35  1  0  0  0
  2  3  1  0  0  0
  3  8  2  0  0  0
  3  4  1  0  0  0
  4  5  2  0  0  0
  4 36  1  0  0  0
  5  6  1  0  0  0
  5 19  1  0  0  0
  6  7  2  0  0  0
  6 37  1  0  0  0
  7  8  1  0  0  0
  7 38  1  0  0  0
  8  9  1  0  0  0
  9 10  1  0  0  0
 10 11  1  0  0  0
 10 39  1  0  0  0
 10 40  1  0  0  0
 11 16  2  0  0  0
 11 12  1  0  0  0
 12 13  2  0  0  0
 12 41  1  0  0  0
 13 14  1  0  0  0
 13 42  1  0  0  0
 14 15  2  0  0  0
 14 18  1  0  0  0
 15 16  1  0  0  0
 15 43  1  0  0  0
 16 17  1  0  0  0
 19 20  2  0  0  0
 19 44  1  0  0  0
 20 21  1  0  0  0
 21 22  1  0  0  0
 21 45  1  0  0  0
 22 23  2  0  0  0
 22 24  1  0  0  0
 24 29  2  0  0  0
 24 25  1  0  0  0
 25 26  2  0  0  0
 25 46  1  0  0  0
 26 27  1  0  0  0
 26 47  1  0  0  0
 27 28  2  0  0  0
 27 30  1  0  0  0
 28 29  1  0  0  0
 28 48  1  0  0  0
 29 49  1  0  0  0
 30 31  2  0  0  0
 30 32  1  0  0  0
M  CHG  2  30   1  32  -1
M  END
> <i_i_glide_confnum>
53

> <i_i_glide_lignum>
5622

> <i_i_glide_posenum>
340

> <i_i_glide_rotatable_bonds>
9

> <i_m_Source_File_Index>
5355

> <b_m_subgroup_collapsed>
0

> <r_i_docking_score>
-5.70328

> <r_i_glide_ecoul>
-3.15131

> <r_i_glide_eff_state_penalty>
0

> <r_i_glide_einternal>
9.32771

> <r_i_glide_emodel>
-59.7535

> <r_i_glide_energy>
-46.6915

> <r_i_glide_erotb>
0.629628

> <r_i_glide_esite>
-0.0105903

> <r_i_glide_evdw>
-43.5402

> <r_i_glide_gscore>
-5.70328

> <r_i_glide_hbond>
-0.274898

> <r_i_glide_ligand_efficiency>
-0.178228

> <r_i_glide_ligand_efficiency_ln>
-1.27712

> <r_i_glide_ligand_efficiency_sa>
-0.565837

> <r_i_glide_lipo>
-2.74538

> <r_i_glide_metal>
0

> <r_i_glide_rewards>
-0.652337

> <s_i_glide_gridfile>
wee1_glide-grid

> <s_m_Source_File>
wee1_decoys_glide_SP.sdf

> <s_m_Source_Path>
/Users/zhangxujun/Desktop

> <s_m_entry_id>
5630

> <s_m_entry_name>
wee1_decoys_glide_SP.5355

> <s_m_subgroup_title>
wee1_decoys_glide_SP

> <s_m_subgroupid>
wee1_decoys_glide_SP


$$$$
