ZINC06146821_1433
                    3D
 Schrodinger Suite 2024-2.
 43 46  0  0  1  0            999 V2000
    4.1352   54.0354   25.0701 C   0  0  0  0  0  0
    4.3863   54.0971   23.7035 C   0  0  0  0  0  0
    3.3379   53.9413   22.7948 C   0  0  0  0  0  0
    2.0487   53.6948   23.2542 C   0  0  0  0  0  0
    1.8008   53.5989   24.6161 C   0  0  0  0  0  0
    2.8441   53.7664   25.5420 C   0  0  0  0  0  0
    2.5888   53.7106   27.0296 C   0  0  0  0  0  0
    3.3797   54.2413   27.8129 O   0  0  0  0  0  0
    1.4806   53.0288   27.3889 N   0  0  0  0  0  0
    0.9425   52.8778   28.6538 C   0  0  0  0  0  0
   -0.0879   52.0946   28.8438 N   0  0  0  0  0  0
   -0.4708   52.0964   30.1027 C   0  0  0  0  0  0
    0.2598   52.8972   30.9750 C   0  0  0  0  0  0
    1.5031   53.7114   30.0819 S   0  0  0  0  0  0
    3.5044   54.0966   21.4190 N   0  0  0  0  0  0
    4.9710   53.7157   20.5418 S   0  0  0  0  0  0
    6.0167   54.6047   21.0603 O   0  0  0  0  0  0
    5.1043   52.2565   20.5945 O   0  0  0  0  0  0
    4.6109   54.2230   18.8710 C   0  0  0  0  0  0
    4.1517   53.3103   17.9136 C   0  0  0  0  0  0
    3.8049   53.7569   16.6351 C   0  0  0  0  0  0
    3.9125   55.1129   16.3191 C   0  0  0  0  0  0
    4.3704   56.0244   17.2837 C   0  0  0  0  0  0
    4.7379   55.5767   18.5464 C   0  0  0  0  0  0
    4.5251   57.3687   17.0180 O   0  0  0  0  0  0
    3.7683   57.8276   15.8934 C   0  0  0  0  0  0
    3.9196   56.8416   14.7069 C   0  0  0  0  0  0
    3.4837   55.5249   15.0718 O   0  0  0  0  0  0
    4.9576   54.1791   25.7559 H   0  0  0  0  0  0
    5.3909   54.3039   23.3736 H   0  0  0  0  0  0
    1.2324   53.5856   22.5547 H   0  0  0  0  0  0
    0.7826   53.4201   24.9298 H   0  0  0  0  0  0
    1.0171   52.5081   26.6614 H   0  0  0  0  0  0
   -1.2957   51.4608   30.4005 H   0  0  0  0  0  0
    0.1227   53.0241   32.0405 H   0  0  0  0  0  0
    2.6865   54.3345   20.8670 H   0  0  0  0  0  0
    4.0547   52.2596   18.1565 H   0  0  0  0  0  0
    3.4410   53.0559   15.8993 H   0  0  0  0  0  0
    5.1018   56.2856   19.2772 H   0  0  0  0  0  0
    4.1036   58.8278   15.6168 H   0  0  0  0  0  0
    2.7148   57.8986   16.1724 H   0  0  0  0  0  0
    4.9688   56.8010   14.4107 H   0  0  0  0  0  0
    3.3477   57.1862   13.8456 H   0  0  0  0  0  0
  1  6  2  0  0  0
  1  2  1  0  0  0
  1 29  1  0  0  0
  2  3  2  0  0  0
  2 30  1  0  0  0
  3  4  1  0  0  0
  3 15  1  0  0  0
  4  5  2  0  0  0
  4 31  1  0  0  0
  5  6  1  0  0  0
  5 32  1  0  0  0
  6  7  1  0  0  0
  7  8  2  0  0  0
  7  9  1  0  0  0
  9 10  1  0  0  0
  9 33  1  0  0  0
 10 14  1  0  0  0
 10 11  2  0  0  0
 11 12  1  0  0  0
 12 13  2  0  0  0
 12 34  1  0  0  0
 13 14  1  0  0  0
 13 35  1  0  0  0
 15 16  1  0  0  0
 15 36  1  0  0  0
 16 17  2  0  0  0
 16 18  2  0  0  0
 16 19  1  0  0  0
 19 24  2  0  0  0
 19 20  1  0  0  0
 20 21  2  0  0  0
 20 37  1  0  0  0
 21 22  1  0  0  0
 21 38  1  0  0  0
 22 28  1  0  0  0
 22 23  2  0  0  0
 23 24  1  0  0  0
 23 25  1  0  0  0
 24 39  1  0  0  0
 25 26  1  0  0  0
 26 27  1  0  0  0
 26 40  1  0  0  0
 26 41  1  0  0  0
 27 28  1  0  0  0
 27 42  1  0  0  0
 27 43  1  0  0  0
M  END
> <i_i_glide_confnum>
18

> <i_i_glide_lignum>
1434

> <i_i_glide_posenum>
332

> <i_i_glide_rotatable_bonds>
6

> <i_m_Source_File_Index>
2485

> <b_m_subgroup_collapsed>
0

> <r_i_docking_score>
-2.50574

> <r_i_glide_ecoul>
-7.21289

> <r_i_glide_eff_state_penalty>
0

> <r_i_glide_einternal>
5.61218

> <r_i_glide_emodel>
-40.9495

> <r_i_glide_energy>
-44.8256

> <r_i_glide_erotb>
0.680494

> <r_i_glide_esite>
-0.0602526

> <r_i_glide_evdw>
-37.6127

> <r_i_glide_gscore>
-2.50574

> <r_i_glide_hbond>
-0.32

> <r_i_glide_ligand_efficiency>
-0.0894906

> <r_i_glide_ligand_efficiency_ln>
-0.578398

> <r_i_glide_ligand_efficiency_sa>
-0.271746

> <r_i_glide_lipo>
-1.74646

> <r_i_glide_metal>
0

> <r_i_glide_rewards>
1.90305

> <s_i_glide_gridfile>
wee1_glide-grid

> <s_m_Source_File>
wee1_decoys_glide_SP.sdf

> <s_m_Source_Path>
/Users/zhangxujun/Desktop

> <s_m_entry_id>
2760

> <s_m_entry_name>
wee1_decoys_glide_SP.2485

> <s_m_subgroup_title>
wee1_decoys_glide_SP

> <s_m_subgroupid>
wee1_decoys_glide_SP


$$$$
