ZINC21322972_3618
                    3D
 Schrodinger Suite 2024-2.
 42 44  0  0  1  0            999 V2000
    6.3654   52.7892   14.9922 C   0  0  0  0  0  0
    7.4025   52.5756   16.1080 C   0  0  0  0  0  0
    7.3082   53.0849   17.2815 N   0  0  0  0  0  0
    6.2515   53.9302   17.6476 N   0  0  0  0  0  0
    6.0690   54.3572   18.9448 C   0  0  0  0  0  0
    6.6089   55.4233   19.4806 N   0  0  0  0  0  0
    6.2024   55.4541   20.8127 N   0  0  0  0  0  0
    5.4346   54.4083   21.0217 C   0  0  0  0  0  0
    5.3072   53.6674   19.8644 N   0  0  0  0  0  0
    4.5779   52.4968   19.6817 N   0  0  0  0  0  0
    4.6453   54.0149   22.5532 S   0  0  0  0  0  0
    5.9433   54.5032   23.7484 C   0  0  0  0  0  0
    5.5020   54.4333   25.2159 C   0  0  0  0  0  0
    4.1606   54.5787   25.5955 C   0  0  0  0  0  0
    3.7947   54.4961   26.9363 C   0  0  0  0  0  0
    4.7670   54.2787   27.9087 C   0  0  0  0  0  0
    6.1051   54.1373   27.5467 C   0  0  0  0  0  0
    6.4682   54.2143   26.2030 C   0  0  0  0  0  0
    4.3044   54.2002   29.5712 Cl  0  0  0  0  0  0
    8.5632   51.6959   15.7732 C   0  0  0  0  0  0
    9.5562   51.4455   16.7363 C   0  0  0  0  0  0
   10.6378   50.6137   16.4765 C   0  0  0  0  0  0
   10.7604   50.0175   15.2296 C   0  0  0  0  0  0
    9.8040   50.2469   14.2452 C   0  0  0  0  0  0
    8.7152   51.0782   14.5161 C   0  0  0  0  0  0
   12.2571   48.8967   14.8804 Br  0  0  0  0  0  0
    5.8948   51.8440   14.7184 H   0  0  0  0  0  0
    5.5511   53.4550   15.2716 H   0  0  0  0  0  0
    6.8262   53.2302   14.1076 H   0  0  0  0  0  0
    5.5910   54.1232   16.9100 H   0  0  0  0  0  0
    3.7153   52.6921   19.1964 H   0  0  0  0  0  0
    5.1042   51.8258   19.1172 H   0  0  0  0  0  0
    6.7871   53.8289   23.5922 H   0  0  0  0  0  0
    6.3031   55.5109   23.5365 H   0  0  0  0  0  0
    3.3908   54.7589   24.8601 H   0  0  0  0  0  0
    2.7586   54.6074   27.2199 H   0  0  0  0  0  0
    6.8581   53.9733   28.3044 H   0  0  0  0  0  0
    7.5043   54.0986   25.9283 H   0  0  0  0  0  0
    9.5040   51.9002   17.7120 H   0  0  0  0  0  0
   11.3800   50.4414   17.2428 H   0  0  0  0  0  0
    9.9115   49.7828   13.2743 H   0  0  0  0  0  0
    7.9928   51.2242   13.7273 H   0  0  0  0  0  0
  1  2  1  0  0  0
  1 27  1  0  0  0
  1 28  1  0  0  0
  1 29  1  0  0  0
  2  3  2  0  0  0
  2 20  1  0  0  0
  3  4  1  0  0  0
  4  5  1  0  0  0
  4 30  1  0  0  0
  5  9  1  0  0  0
  5  6  2  0  0  0
  6  7  1  0  0  0
  7  8  2  0  0  0
  8  9  1  0  0  0
  8 11  1  0  0  0
  9 10  1  0  0  0
 10 31  1  0  0  0
 10 32  1  0  0  0
 11 12  1  0  0  0
 12 13  1  0  0  0
 12 33  1  0  0  0
 12 34  1  0  0  0
 13 18  2  0  0  0
 13 14  1  0  0  0
 14 15  2  0  0  0
 14 35  1  0  0  0
 15 16  1  0  0  0
 15 36  1  0  0  0
 16 17  2  0  0  0
 16 19  1  0  0  0
 17 18  1  0  0  0
 17 37  1  0  0  0
 18 38  1  0  0  0
 20 25  2  0  0  0
 20 21  1  0  0  0
 21 22  2  0  0  0
 21 39  1  0  0  0
 22 23  1  0  0  0
 22 40  1  0  0  0
 23 24  2  0  0  0
 23 26  1  0  0  0
 24 25  1  0  0  0
 24 41  1  0  0  0
 25 42  1  0  0  0
M  END
> <i_i_glide_confnum>
82

> <i_i_glide_lignum>
3619

> <i_i_glide_posenum>
388

> <i_i_glide_rotatable_bonds>
6

> <i_m_Source_File_Index>
5322

> <b_m_subgroup_collapsed>
0

> <r_i_docking_score>
-5.80756

> <r_i_glide_ecoul>
-4.82417

> <r_i_glide_eff_state_penalty>
0

> <r_i_glide_einternal>
2.8301

> <r_i_glide_emodel>
-60.4921

> <r_i_glide_energy>
-45.8443

> <r_i_glide_erotb>
0.491425

> <r_i_glide_esite>
-0.13757

> <r_i_glide_evdw>
-41.0201

> <r_i_glide_gscore>
-5.80756

> <r_i_glide_hbond>
-0.16

> <r_i_glide_ligand_efficiency>
-0.223368

> <r_i_glide_ligand_efficiency_ln>
-1.36389

> <r_i_glide_ligand_efficiency_sa>
-0.661725

> <r_i_glide_lipo>
-2.6279

> <r_i_glide_metal>
0

> <r_i_glide_rewards>
-0.598877

> <s_i_glide_gridfile>
wee1_glide-grid

> <s_m_Source_File>
wee1_decoys_glide_SP.sdf

> <s_m_Source_Path>
/Users/zhangxujun/Desktop

> <s_m_entry_id>
5597

> <s_m_entry_name>
wee1_decoys_glide_SP.5322

> <s_m_subgroup_title>
wee1_decoys_glide_SP

> <s_m_subgroupid>
wee1_decoys_glide_SP


$$$$
