ZINC11998030_1068
                    3D
 Schrodinger Suite 2024-2.
 68 73  0  0  1  0            999 V2000
    4.3887   58.5509   15.5598 C   0  0  0  0  0  0
    4.7613   58.0926   16.8259 C   0  0  0  0  0  0
    4.6115   56.7128   16.9928 C   0  0  0  0  0  0
    4.0050   55.9912   15.5165 S   0  0  0  0  0  0
    3.9577   57.5303   14.7258 C   0  0  0  0  0  0
    4.8858   55.8710   18.2011 C   0  0  0  0  0  0
    5.6898   56.3709   19.2287 C   0  0  0  0  0  0
    5.9044   55.6327   20.3928 C   0  0  0  0  0  0
    5.3424   54.3546   20.5429 C   0  0  0  0  0  0
    4.5689   53.8306   19.4945 C   0  0  0  0  0  0
    4.3390   54.5912   18.3443 C   0  0  0  0  0  0
    4.0361   52.3990   19.5442 C   0  0  0  0  0  0
    2.2594   50.7016   20.1014 C   0  0  0  0  0  0
    0.9000   50.4665   20.7888 C   0  0  0  0  0  0
    0.8613   50.9080   22.1979 N   0  0  0  0  0  0
    1.2853   52.3164   22.3315 C   0  0  0  0  0  0
    2.6417   52.6323   21.6763 C   0  0  0  0  0  0
    0.2995   50.1602   23.2399 C   0  0  0  0  0  0
   -0.2432   48.9448   22.9345 N   0  0  0  0  0  0
   -0.7462   48.2123   23.9607 C   0  0  0  0  0  0
   -0.7110   48.6584   25.2811 C   0  0  0  0  0  0
   -0.1330   49.9062   25.5117 C   0  0  0  0  0  0
    0.3734   50.6682   24.5065 N   0  0  0  0  0  0
    5.5044   53.5475   21.6561 O   0  0  0  0  0  0
    6.2279   53.9625   22.8240 C   0  0  0  0  0  0
    5.2370   54.2127   23.9664 C   0  0  0  0  0  0
    4.0640   54.4952   23.7147 O   0  0  0  0  0  0
    5.7327   54.0967   25.2143 N   0  0  0  0  0  0
    5.0076   54.1108   26.4161 C   0  0  0  0  0  0
    5.6893   54.4974   27.5753 C   0  0  0  0  0  0
    5.0359   54.4965   28.8075 C   0  0  0  0  0  0
    3.7078   54.0726   28.8831 C   0  0  0  0  0  0
    3.0326   53.6739   27.7483 C   0  0  0  0  0  0
    3.6661   53.6972   26.5087 C   0  0  0  0  0  0
    1.6392   53.2570   28.1373 C   0  0  0  0  0  0
    1.5643   53.3745   29.5532 O   0  0  0  0  0  0
    2.7702   53.9450   30.0492 C   0  0  0  0  0  0
    4.4296   59.5957   15.2767 H   0  0  0  0  0  0
    5.1179   58.7648   17.5958 H   0  0  0  0  0  0
    3.6191   57.6093   13.7019 H   0  0  0  0  0  0
    6.1286   57.3533   19.1443 H   0  0  0  0  0  0
    6.5078   56.0895   21.1573 H   0  0  0  0  0  0
    3.7286   54.1763   17.5568 H   0  0  0  0  0  0
    3.9039   52.0130   18.5315 H   0  0  0  0  0  0
    4.7259   51.7337   20.0711 H   0  0  0  0  0  0
    2.1892   50.4751   19.0349 H   0  0  0  0  0  0
    3.0587   50.1066   20.5520 H   0  0  0  0  0  0
    0.1188   51.0364   20.2807 H   0  0  0  0  0  0
    0.6211   49.4195   20.6788 H   0  0  0  0  0  0
    1.2941   52.6540   23.3677 H   0  0  0  0  0  0
    0.5048   52.8966   21.8375 H   0  0  0  0  0  0
    3.4696   52.1352   22.1814 H   0  0  0  0  0  0
    2.7923   53.7116   21.6489 H   0  0  0  0  0  0
   -1.1788   47.2545   23.7123 H   0  0  0  0  0  0
   -1.1084   48.0609   26.0894 H   0  0  0  0  0  0
   -0.0759   50.3028   26.5161 H   0  0  0  0  0  0
    6.8761   54.8255   22.7006 H   0  0  0  0  0  0
    6.8870   53.1395   23.0983 H   0  0  0  0  0  0
    6.7308   53.9956   25.3128 H   0  0  0  0  0  0
    6.7222   54.8093   27.5337 H   0  0  0  0  0  0
    5.5767   54.8260   29.6816 H   0  0  0  0  0  0
    3.1260   53.3530   25.6390 H   0  0  0  0  0  0
    1.4270   52.2274   27.8462 H   0  0  0  0  0  0
    0.8837   53.8930   27.6772 H   0  0  0  0  0  0
    2.5514   54.9218   30.4809 H   0  0  0  0  0  0
    3.1828   53.2969   30.8246 H   0  0  0  0  0  0
    2.6492   52.1924   20.2012 N   0  3  0  0  0  0
    1.9558   52.7436   19.7101 H   0  0  0  0  0  0
  1  5  2  0  0  0
  1  2  1  0  0  0
  1 38  1  0  0  0
  2  3  2  0  0  0
  2 39  1  0  0  0
  3  4  1  0  0  0
  3  6  1  0  0  0
  4  5  1  0  0  0
  5 40  1  0  0  0
  6 11  2  0  0  0
  6  7  1  0  0  0
  7  8  2  0  0  0
  7 41  1  0  0  0
  8  9  1  0  0  0
  8 42  1  0  0  0
  9 10  2  0  0  0
  9 24  1  0  0  0
 10 11  1  0  0  0
 10 12  1  0  0  0
 11 43  1  0  0  0
 12 44  1  0  0  0
 12 45  1  0  0  0
 12 67  1  0  0  0
 13 14  1  0  0  0
 13 46  1  0  0  0
 13 47  1  0  0  0
 13 67  1  0  0  0
 14 15  1  0  0  0
 14 48  1  0  0  0
 14 49  1  0  0  0
 15 16  1  0  0  0
 15 18  1  0  0  0
 16 17  1  0  0  0
 16 50  1  0  0  0
 16 51  1  0  0  0
 17 52  1  0  0  0
 17 53  1  0  0  0
 17 67  1  0  0  0
 18 23  2  0  0  0
 18 19  1  0  0  0
 19 20  2  0  0  0
 20 21  1  0  0  0
 20 54  1  0  0  0
 21 22  2  0  0  0
 21 55  1  0  0  0
 22 23  1  0  0  0
 22 56  1  0  0  0
 24 25  1  0  0  0
 25 26  1  0  0  0
 25 57  1  0  0  0
 25 58  1  0  0  0
 26 27  2  0  0  0
 26 28  1  0  0  0
 28 29  1  0  0  0
 28 59  1  0  0  0
 29 34  2  0  0  0
 29 30  1  0  0  0
 30 31  2  0  0  0
 30 60  1  0  0  0
 31 32  1  0  0  0
 31 61  1  0  0  0
 32 37  1  0  0  0
 32 33  2  0  0  0
 33 34  1  0  0  0
 33 35  1  0  0  0
 34 62  1  0  0  0
 35 36  1  0  0  0
 35 63  1  0  0  0
 35 64  1  0  0  0
 36 37  1  0  0  0
 37 65  1  0  0  0
 37 66  1  0  0  0
 67 68  1  0  0  0
M  CHG  1  67   1
M  END
> <i_i_glide_confnum>
145

> <i_i_glide_lignum>
1069

> <i_i_glide_posenum>
390

> <i_i_glide_rotatable_bonds>
9

> <i_m_Source_File_Index>
2501

> <b_m_subgroup_collapsed>
0

> <r_i_docking_score>
-4.57089

> <r_i_glide_ecoul>
-0.751431

> <r_i_glide_eff_state_penalty>
0

> <r_i_glide_einternal>
7.31346

> <r_i_glide_emodel>
-58.5161

> <r_i_glide_energy>
-46.8887

> <r_i_glide_erotb>
0.589773

> <r_i_glide_esite>
-0.0209887

> <r_i_glide_evdw>
-46.1373

> <r_i_glide_gscore>
-4.57089

> <r_i_glide_hbond>
0

> <r_i_glide_ligand_efficiency>
-0.120287

> <r_i_glide_ligand_efficiency_ln>
-0.985619

> <r_i_glide_ligand_efficiency_sa>
-0.404401

> <r_i_glide_lipo>
-2.27825

> <r_i_glide_metal>
0

> <r_i_glide_rewards>
-0.441847

> <s_i_glide_gridfile>
wee1_glide-grid

> <s_m_Source_File>
wee1_decoys_glide_SP.sdf

> <s_m_Source_Path>
/Users/zhangxujun/Desktop

> <s_m_entry_id>
2776

> <s_m_entry_name>
wee1_decoys_glide_SP.2501

> <s_m_subgroup_title>
wee1_decoys_glide_SP

> <s_m_subgroupid>
wee1_decoys_glide_SP


$$$$
