ZINC47809072_5864
                    3D
 Schrodinger Suite 2024-2.
 56 58  0  0  1  0            999 V2000
    1.5043   55.9627   30.0815 C   0  0  0  0  0  0
    1.9948   54.6910   29.3789 C   0  0  1  0  0  0
    1.1284   54.2367   28.8926 H   0  0  0  0  0  0
    3.0879   55.0115   28.3371 C   0  0  0  0  0  0
    3.6343   53.8080   27.6940 N   0  0  0  0  0  0
    4.1654   52.9820   28.7901 C   0  0  0  0  0  0
    3.0246   52.5620   29.7464 C   0  0  1  0  0  0
    3.4550   51.9941   30.5714 H   0  0  0  0  0  0
    2.5256   53.7647   30.3320 O   0  0  0  0  0  0
    1.9177   51.7045   29.1019 C   0  0  0  0  0  0
    4.3896   54.0136   26.5427 C   0  0  0  0  0  0
    5.7490   54.3501   26.6322 C   0  0  0  0  0  0
    6.4887   54.6337   25.4886 C   0  0  0  0  0  0
    5.8852   54.6081   24.2365 C   0  0  0  0  0  0
    4.5287   54.3205   24.1282 C   0  0  0  0  0  0
    3.7640   54.0442   25.2730 C   0  0  0  0  0  0
    2.3936   53.6980   25.1899 N   0  0  0  0  0  0
    1.7466   53.0652   24.1922 C   0  0  0  0  0  0
    2.2620   52.6487   23.1565 O   0  0  0  0  0  0
    0.4445   52.9302   24.4835 N   0  0  0  0  0  0
   -0.4946   52.0154   23.8409 C   0  0  2  0  0  0
   -0.2318   51.9668   22.7790 H   0  0  0  0  0  0
   -1.9430   52.5635   23.8745 C   0  0  0  0  0  0
   -2.9884   51.6011   23.2810 C   0  0  0  0  0  0
   -2.8697   50.1950   23.8860 C   0  0  0  0  0  0
   -1.4497   49.6189   23.6836 C   0  0  1  0  0  0
   -1.2343   49.6288   22.6134 H   0  0  0  0  0  0
   -0.4250   50.5564   24.3717 C   0  0  0  0  0  0
   -1.3457   48.1541   24.1740 C   0  0  0  0  0  0
   -1.7268   48.0223   25.4431 F   0  0  0  0  0  0
   -0.0992   47.6972   24.0818 F   0  0  0  0  0  0
   -2.1180   47.3460   23.4409 F   0  0  0  0  0  0
    1.1046   56.6803   29.3648 H   0  0  0  0  0  0
    0.7147   55.7375   30.7977 H   0  0  0  0  0  0
    2.3040   56.4640   30.6195 H   0  0  0  0  0  0
    3.9042   55.5751   28.7892 H   0  0  0  0  0  0
    2.6374   55.6042   27.5412 H   0  0  0  0  0  0
    4.7101   52.0986   28.4545 H   0  0  0  0  0  0
    4.9152   53.5569   29.3361 H   0  0  0  0  0  0
    2.2970   50.7077   28.8787 H   0  0  0  0  0  0
    1.0645   51.5901   29.7723 H   0  0  0  0  0  0
    1.5472   52.1217   28.1668 H   0  0  0  0  0  0
    6.2351   54.3903   27.5964 H   0  0  0  0  0  0
    7.5336   54.8766   25.5632 H   0  0  0  0  0  0
    6.4639   54.8269   23.3529 H   0  0  0  0  0  0
    4.0736   54.3301   23.1461 H   0  0  0  0  0  0
    1.9159   53.7273   26.0773 H   0  0  0  0  0  0
    0.1030   53.3782   25.3188 H   0  0  0  0  0  0
   -2.2249   52.7535   24.9104 H   0  0  0  0  0  0
   -2.0013   53.5203   23.3549 H   0  0  0  0  0  0
   -3.9910   51.9913   23.4543 H   0  0  0  0  0  0
   -2.8652   51.5474   22.1993 H   0  0  0  0  0  0
   -3.6105   49.5374   23.4259 H   0  0  0  0  0  0
   -3.1294   50.1996   24.9473 H   0  0  0  0  0  0
   -0.5981   50.5360   25.4487 H   0  0  0  0  0  0
    0.5849   50.1609   24.2382 H   0  0  0  0  0  0
  1  2  1  0  0  0
  1 33  1  0  0  0
  1 34  1  0  0  0
  1 35  1  0  0  0
  2  3  1  0  0  0
  2  9  1  0  0  0
  2  4  1  0  0  0
  4  5  1  0  0  0
  4 36  1  0  0  0
  4 37  1  0  0  0
  5  6  1  0  0  0
  5 11  1  0  0  0
  6  7  1  0  0  0
  6 38  1  0  0  0
  6 39  1  0  0  0
  7  8  1  0  0  0
  7  9  1  0  0  0
  7 10  1  0  0  0
 10 40  1  0  0  0
 10 41  1  0  0  0
 10 42  1  0  0  0
 11 16  2  0  0  0
 11 12  1  0  0  0
 12 13  2  0  0  0
 12 43  1  0  0  0
 13 14  1  0  0  0
 13 44  1  0  0  0
 14 15  2  0  0  0
 14 45  1  0  0  0
 15 16  1  0  0  0
 15 46  1  0  0  0
 16 17  1  0  0  0
 17 18  1  0  0  0
 17 47  1  0  0  0
 18 19  2  0  0  0
 18 20  1  0  0  0
 20 21  1  0  0  0
 20 48  1  0  0  0
 21 22  1  0  0  0
 21 28  1  0  0  0
 21 23  1  0  0  0
 23 24  1  0  0  0
 23 49  1  0  0  0
 23 50  1  0  0  0
 24 25  1  0  0  0
 24 51  1  0  0  0
 24 52  1  0  0  0
 25 26  1  0  0  0
 25 53  1  0  0  0
 25 54  1  0  0  0
 26 27  1  0  0  0
 26 28  1  0  0  0
 26 29  1  0  0  0
 28 55  1  0  0  0
 28 56  1  0  0  0
 29 30  1  0  0  0
 29 31  1  0  0  0
 29 32  1  0  0  0
M  END
> <i_i_glide_confnum>
83

> <i_i_glide_lignum>
5865

> <i_i_glide_posenum>
346

> <i_i_glide_rotatable_bonds>
6

> <i_m_Source_File_Index>
2124

> <b_m_subgroup_collapsed>
0

> <r_i_docking_score>
-6.52495

> <r_i_glide_ecoul>
-1.01622

> <r_i_glide_eff_state_penalty>
0

> <r_i_glide_einternal>
1.75821

> <r_i_glide_emodel>
-57.0301

> <r_i_glide_energy>
-42.1504

> <r_i_glide_erotb>
0.614018

> <r_i_glide_esite>
-0.160663

> <r_i_glide_evdw>
-41.1342

> <r_i_glide_gscore>
-6.52495

> <r_i_glide_hbond>
-0.32

> <r_i_glide_ligand_efficiency>
-0.233034

> <r_i_glide_ligand_efficiency_ln>
-1.50615

> <r_i_glide_ligand_efficiency_sa>
-0.707628

> <r_i_glide_lipo>
-3.13273

> <r_i_glide_metal>
0

> <r_i_glide_rewards>
-1.31644

> <s_i_glide_gridfile>
wee1_glide-grid

> <s_m_Source_File>
wee1_decoys_glide_SP.sdf

> <s_m_Source_Path>
/Users/zhangxujun/Desktop

> <s_m_entry_id>
2399

> <s_m_entry_name>
wee1_decoys_glide_SP.2124

> <s_m_subgroup_title>
wee1_decoys_glide_SP

> <s_m_subgroupid>
wee1_decoys_glide_SP


$$$$
