ZINC22620731_4065
                    3D
 Schrodinger Suite 2024-2.
 64 66  0  0  1  0            999 V2000
    0.7051   49.6359   26.3749 C   0  0  0  0  0  0
   -0.1287   50.6049   25.5078 C   0  0  1  0  0  0
   -0.9500   50.9908   26.1104 H   0  0  0  0  0  0
    0.7325   51.7372   24.9001 C   0  0  0  0  0  0
    0.9686   51.8837   23.6172 N   0  0  0  0  0  0
    1.7935   52.9860   23.4622 N   0  0  0  0  0  0
    2.0703   53.4544   24.6516 C   0  0  0  0  0  0
    1.3861   52.7325   25.6250 N   0  0  0  0  0  0
    1.3965   52.8763   27.0347 C   0  0  0  0  0  0
    0.1829   52.8849   27.7355 C   0  0  0  0  0  0
    0.1745   52.8061   29.1245 C   0  0  0  0  0  0
    1.3838   52.7501   29.8147 C   0  0  0  0  0  0
    2.5979   52.8293   29.1295 C   0  0  0  0  0  0
    2.6062   52.8994   27.7364 C   0  0  0  0  0  0
    1.3696   52.5443   31.5281 Cl  0  0  0  0  0  0
    3.1049   54.8778   24.8811 S   0  0  0  0  0  0
    4.7894   54.1863   24.7028 C   0  0  2  0  0  0
    4.7282   53.1686   25.0680 H   0  0  0  0  0  0
    5.7959   54.9045   25.6322 C   0  0  0  0  0  0
    5.2271   54.0983   23.2157 C   0  0  0  0  0  0
    4.6451   53.3001   22.4783 O   0  0  0  0  0  0
    6.2441   54.8989   22.7989 N   0  0  0  0  0  0
    6.5907   55.2929   21.5467 C   0  0  0  0  0  0
    7.5088   56.0956   21.3965 O   0  0  0  0  0  0
    5.9002   54.7951   20.4979 N   0  0  0  0  0  0
    6.1065   55.1216   19.0857 C   0  0  0  0  0  0
    5.5931   54.0180   18.1315 C   0  0  0  0  0  0
    5.7931   54.3547   16.6401 C   0  0  0  0  0  0
    5.2353   55.7415   16.2771 C   0  0  0  0  0  0
    5.8365   56.8393   17.1688 C   0  0  0  0  0  0
    5.6358   56.5397   18.6681 C   0  0  0  0  0  0
   -0.8881   49.8319   24.3830 N   0  3  0  0  0  0
   -1.4211   48.4327   24.7824 C   0  0  0  0  0  0
   -2.0518   50.6654   23.7872 C   0  0  0  0  0  0
    1.2314   50.1596   27.1709 H   0  0  0  0  0  0
    0.0812   48.9032   26.8822 H   0  0  0  0  0  0
    1.4455   49.0852   25.7908 H   0  0  0  0  0  0
   -0.7618   52.8964   27.2124 H   0  0  0  0  0  0
   -0.7700   52.7494   29.6548 H   0  0  0  0  0  0
    3.5332   52.7977   29.6705 H   0  0  0  0  0  0
    3.5510   52.9035   27.2130 H   0  0  0  0  0  0
    6.7926   54.4631   25.5651 H   0  0  0  0  0  0
    5.8751   55.9676   25.3976 H   0  0  0  0  0  0
    5.4842   54.8255   26.6756 H   0  0  0  0  0  0
    6.7557   55.3754   23.5241 H   0  0  0  0  0  0
    5.1252   54.1783   20.7045 H   0  0  0  0  0  0
    7.1901   55.1291   18.9349 H   0  0  0  0  0  0
    4.5254   53.8714   18.3011 H   0  0  0  0  0  0
    6.0761   53.0648   18.3547 H   0  0  0  0  0  0
    5.3224   53.5888   16.0226 H   0  0  0  0  0  0
    6.8571   54.3188   16.4017 H   0  0  0  0  0  0
    4.1498   55.7377   16.3824 H   0  0  0  0  0  0
    5.4392   55.9625   15.2288 H   0  0  0  0  0  0
    5.3932   57.8063   16.9205 H   0  0  0  0  0  0
    6.9031   56.9354   16.9591 H   0  0  0  0  0  0
    6.1425   57.3032   19.2594 H   0  0  0  0  0  0
    4.5703   56.6323   18.8813 H   0  0  0  0  0  0
   -2.0531   48.5494   25.6684 H   0  0  0  0  0  0
   -1.9896   48.0314   23.9369 H   0  0  0  0  0  0
   -0.5655   47.7897   24.9888 H   0  0  0  0  0  0
   -2.8207   50.7613   24.5580 H   0  0  0  0  0  0
   -1.6720   51.6416   23.4897 H   0  0  0  0  0  0
   -2.4318   50.1255   22.9189 H   0  0  0  0  0  0
   -0.2035   49.6888   23.6493 H   0  0  0  0  0  0
  1  2  1  0  0  0
  1 35  1  0  0  0
  1 36  1  0  0  0
  1 37  1  0  0  0
  2  3  1  0  0  0
  2  4  1  0  0  0
  2 32  1  0  0  0
  4  8  1  0  0  0
  4  5  2  0  0  0
  5  6  1  0  0  0
  6  7  2  0  0  0
  7  8  1  0  0  0
  7 16  1  0  0  0
  8  9  1  0  0  0
  9 14  2  0  0  0
  9 10  1  0  0  0
 10 11  2  0  0  0
 10 38  1  0  0  0
 11 12  1  0  0  0
 11 39  1  0  0  0
 12 13  2  0  0  0
 12 15  1  0  0  0
 13 14  1  0  0  0
 13 40  1  0  0  0
 14 41  1  0  0  0
 16 17  1  0  0  0
 17 18  1  0  0  0
 17 19  1  0  0  0
 17 20  1  0  0  0
 19 42  1  0  0  0
 19 43  1  0  0  0
 19 44  1  0  0  0
 20 21  2  0  0  0
 20 22  1  0  0  0
 22 23  1  0  0  0
 22 45  1  0  0  0
 23 24  2  0  0  0
 23 25  1  0  0  0
 25 26  1  0  0  0
 25 46  1  0  0  0
 26 31  1  0  0  0
 26 27  1  0  0  0
 26 47  1  0  0  0
 27 28  1  0  0  0
 27 48  1  0  0  0
 27 49  1  0  0  0
 28 29  1  0  0  0
 28 50  1  0  0  0
 28 51  1  0  0  0
 29 30  1  0  0  0
 29 52  1  0  0  0
 29 53  1  0  0  0
 30 31  1  0  0  0
 30 54  1  0  0  0
 30 55  1  0  0  0
 31 56  1  0  0  0
 31 57  1  0  0  0
 32 33  1  0  0  0
 32 34  1  0  0  0
 32 64  1  0  0  0
 33 58  1  0  0  0
 33 59  1  0  0  0
 33 60  1  0  0  0
 34 61  1  0  0  0
 34 62  1  0  0  0
 34 63  1  0  0  0
M  CHG  1  32   1
M  END
> <i_i_glide_confnum>
313

> <i_i_glide_lignum>
4066

> <i_i_glide_posenum>
214

> <i_i_glide_rotatable_bonds>
10

> <i_m_Source_File_Index>
2237

> <b_m_subgroup_collapsed>
0

> <r_i_docking_score>
-4.14554

> <r_i_glide_ecoul>
-2.71768

> <r_i_glide_eff_state_penalty>
0

> <r_i_glide_einternal>
12.8798

> <r_i_glide_emodel>
-46.5354

> <r_i_glide_energy>
-43.1424

> <r_i_glide_erotb>
0.703897

> <r_i_glide_esite>
-0.0158649

> <r_i_glide_evdw>
-40.4247

> <r_i_glide_gscore>
-4.14554

> <r_i_glide_hbond>
-0.0889953

> <r_i_glide_ligand_efficiency>
-0.129548

> <r_i_glide_ligand_efficiency_ln>
-0.928298

> <r_i_glide_ligand_efficiency_sa>
-0.411289

> <r_i_glide_lipo>
-1.71059

> <r_i_glide_metal>
0

> <r_i_glide_rewards>
-0.605091

> <s_i_glide_gridfile>
wee1_glide-grid

> <s_m_Source_File>
wee1_decoys_glide_SP.sdf

> <s_m_Source_Path>
/Users/zhangxujun/Desktop

> <s_m_entry_id>
2512

> <s_m_entry_name>
wee1_decoys_glide_SP.2237

> <s_m_subgroup_title>
wee1_decoys_glide_SP

> <s_m_subgroupid>
wee1_decoys_glide_SP


$$$$
