ZINC58949384_1611
                    3D
 Schrodinger Suite 2024-2.
 40 41  0  0  1  0            999 V2000
    1.9046   50.8692   22.8201 C   0  0  0  0  0  0
    0.5408   51.2539   23.4123 C   0  0  0  0  0  0
    0.6118   51.4435   24.8237 O   0  0  0  0  0  0
    1.0434   52.6082   25.3790 C   0  0  0  0  0  0
    1.3978   53.5739   24.6981 O   0  0  0  0  0  0
    1.0574   52.6340   26.8740 C   0  0  0  0  0  0
    0.5393   51.6514   27.6552 C   0  0  0  0  0  0
    0.4973   51.7211   29.0086 O   0  0  0  0  0  0
    0.7487   52.8915   29.6550 C   0  0  0  0  0  0
    1.2790   53.9807   29.0285 C   0  0  0  0  0  0
    1.6942   53.8776   27.5384 C   0  0  1  0  0  0
    1.2783   54.7450   27.0361 H   0  0  0  0  0  0
    3.2044   53.9308   27.3198 C   0  0  0  0  0  0
    3.9034   54.4979   26.2591 C   0  0  0  0  0  0
    5.2859   54.4671   26.3945 C   0  0  0  0  0  0
    5.7127   53.8742   27.5682 C   0  0  0  0  0  0
    4.3496   53.3003   28.4719 S   0  0  0  0  0  0
    7.1044   53.6967   28.0817 C   0  0  0  0  0  0
    1.5043   55.2809   29.6588 C   0  0  0  0  0  0
    2.3573   56.0765   29.2817 O   0  0  0  0  0  0
    0.7045   55.6265   30.6628 N   0  0  0  0  0  0
    0.4030   52.7043   31.1257 C   0  0  0  0  0  0
   -0.0956   50.4968   27.2815 N   0  0  0  0  0  0
    1.8162   50.6458   21.7572 H   0  0  0  0  0  0
    2.6243   51.6812   22.9244 H   0  0  0  0  0  0
    2.3134   49.9864   23.3133 H   0  0  0  0  0  0
   -0.1689   50.4484   23.2228 H   0  0  0  0  0  0
    0.1399   52.1410   22.9187 H   0  0  0  0  0  0
    3.4163   54.9514   25.4091 H   0  0  0  0  0  0
    5.9605   54.8830   25.6613 H   0  0  0  0  0  0
    7.8276   54.2395   27.4744 H   0  0  0  0  0  0
    7.4039   52.6489   28.0809 H   0  0  0  0  0  0
    7.2081   54.0667   29.1013 H   0  0  0  0  0  0
   -0.0096   54.9970   30.9928 H   0  0  0  0  0  0
    0.8379   56.5259   31.1006 H   0  0  0  0  0  0
    0.9527   53.3694   31.7879 H   0  0  0  0  0  0
   -0.6649   52.8552   31.2808 H   0  0  0  0  0  0
    0.6394   51.6967   31.4593 H   0  0  0  0  0  0
   -0.1851   50.2645   26.3032 H   0  0  0  0  0  0
   -0.5380   49.8650   27.9456 H   0  0  0  0  0  0
  1  2  1  0  0  0
  1 24  1  0  0  0
  1 25  1  0  0  0
  1 26  1  0  0  0
  2  3  1  0  0  0
  2 27  1  0  0  0
  2 28  1  0  0  0
  3  4  1  0  0  0
  4  5  2  0  0  0
  4  6  1  0  0  0
  6 11  1  0  0  0
  6  7  2  0  0  0
  7  8  1  0  0  0
  7 23  1  0  0  0
  8  9  1  0  0  0
  9 10  2  0  0  0
  9 22  1  0  0  0
 10 11  1  0  0  0
 10 19  1  0  0  0
 11 12  1  0  0  0
 11 13  1  0  0  0
 13 17  1  0  0  0
 13 14  2  0  0  0
 14 15  1  0  0  0
 14 29  1  0  0  0
 15 16  2  0  0  0
 15 30  1  0  0  0
 16 17  1  0  0  0
 16 18  1  0  0  0
 18 31  1  0  0  0
 18 32  1  0  0  0
 18 33  1  0  0  0
 19 20  2  0  0  0
 19 21  1  0  0  0
 21 34  1  0  0  0
 21 35  1  0  0  0
 22 36  1  0  0  0
 22 37  1  0  0  0
 22 38  1  0  0  0
 23 39  1  0  0  0
 23 40  1  0  0  0
M  END
> <i_i_glide_confnum>
3

> <i_i_glide_lignum>
1612

> <i_i_glide_posenum>
382

> <i_i_glide_rotatable_bonds>
5

> <i_m_Source_File_Index>
3803

> <b_m_subgroup_collapsed>
0

> <r_i_docking_score>
-6.25445

> <r_i_glide_ecoul>
-2.4352

> <r_i_glide_eff_state_penalty>
0

> <r_i_glide_einternal>
4.45485

> <r_i_glide_emodel>
-55.2029

> <r_i_glide_energy>
-40.2733

> <r_i_glide_erotb>
0.539778

> <r_i_glide_esite>
-0.0824531

> <r_i_glide_evdw>
-37.8381

> <r_i_glide_gscore>
-6.25445

> <r_i_glide_hbond>
-0.16

> <r_i_glide_ligand_efficiency>
-0.284293

> <r_i_glide_ligand_efficiency_ln>
-1.52882

> <r_i_glide_ligand_efficiency_sa>
-0.796601

> <r_i_glide_lipo>
-2.38572

> <r_i_glide_metal>
0

> <r_i_glide_rewards>
-1.90887

> <s_i_glide_gridfile>
wee1_glide-grid

> <s_m_Source_File>
wee1_decoys_glide_SP.sdf

> <s_m_Source_Path>
/Users/zhangxujun/Desktop

> <s_m_entry_id>
4078

> <s_m_entry_name>
wee1_decoys_glide_SP.3803

> <s_m_subgroup_title>
wee1_decoys_glide_SP

> <s_m_subgroupid>
wee1_decoys_glide_SP


$$$$
