ZINC63480108_1262
                    3D
 Schrodinger Suite 2024-2.
 64 70  0  0  1  0            999 V2000
   -2.4779   46.5466   25.8897 C   0  0  0  0  0  0
   -2.1553   47.2146   24.5639 C   0  0  0  0  0  0
   -2.8930   46.8996   23.4197 C   0  0  0  0  0  0
   -2.6201   47.5303   22.2049 C   0  0  0  0  0  0
   -1.5981   48.4767   22.1344 C   0  0  0  0  0  0
   -0.8460   48.8108   23.2728 C   0  0  0  0  0  0
   -1.1381   48.1708   24.4907 C   0  0  0  0  0  0
    0.1990   49.7664   23.1844 N   0  0  0  0  0  0
    0.3226   50.8404   24.0175 C   0  0  0  0  0  0
   -0.4248   51.1797   24.9374 O   0  0  0  0  0  0
    1.6014   51.5829   23.6631 C   0  0  2  0  0  0
    2.3057   51.4858   24.4815 H   0  0  0  0  0  0
    1.4031   53.0536   23.2565 C   0  0  2  0  0  0
    0.3520   53.2171   23.0049 H   0  0  0  0  0  0
    2.1492   53.2342   22.0228 N   0  0  0  0  0  0
    2.1307   51.9713   21.2943 C   0  0  1  0  0  0
    2.1194   50.8961   22.4371 C   0  0  2  0  0  0
    3.1044   50.4729   22.6469 H   0  0  0  0  0  0
    1.1743   49.7254   22.2306 C   0  0  0  0  0  0
    1.3262   48.8966   21.3334 O   0  0  0  0  0  0
    1.0908   51.8900   20.1973 C   0  0  0  0  0  0
   -0.3058   51.9463   20.2260 C   0  0  0  0  0  0
   -1.0277   51.7816   19.0413 C   0  0  0  0  0  0
   -0.3581   51.5673   17.8329 C   0  0  0  0  0  0
    1.0366   51.5130   17.8034 C   0  0  0  0  0  0
    1.7400   51.6786   18.9949 C   0  0  0  0  0  0
    3.1073   51.6535   19.2060 N   0  0  0  0  0  0
    3.4531   51.8527   20.4909 C   0  0  0  0  0  0
    4.5973   51.8846   20.9502 O   0  0  0  0  0  0
    1.7732   54.0730   24.3605 C   0  0  0  0  0  0
    3.2324   54.0977   24.8224 C   0  0  0  0  0  0
    3.7626   54.1325   26.0622 C   0  0  0  0  0  0
    3.1191   54.1376   27.3844 C   0  0  0  0  0  0
    3.8528   54.2226   28.5116 C   0  0  0  0  0  0
    5.3015   54.3127   28.3822 C   0  0  0  0  0  0
    5.9170   54.3015   27.1701 C   0  0  0  0  0  0
    5.1598   54.2131   25.9940 C   0  0  0  0  0  0
    5.5624   54.2021   24.7456 N   0  3  0  0  0  0
    4.4013   54.0771   23.8532 C   0  0  0  0  0  0
   -3.4178   47.1802   20.9630 C   0  0  0  0  0  0
   -3.4384   46.0329   25.8733 H   0  0  0  0  0  0
   -1.6951   45.8440   26.1743 H   0  0  0  0  0  0
   -2.5349   47.2975   26.6777 H   0  0  0  0  0  0
   -3.6899   46.1730   23.4795 H   0  0  0  0  0  0
   -1.3888   48.9556   21.1892 H   0  0  0  0  0  0
   -0.5731   48.4099   25.3827 H   0  0  0  0  0  0
    1.7971   53.9909   21.4354 H   0  0  0  0  0  0
   -0.8371   52.0944   21.1536 H   0  0  0  0  0  0
   -2.1071   51.8122   19.0566 H   0  0  0  0  0  0
   -0.9204   51.4353   16.9196 H   0  0  0  0  0  0
    1.5537   51.3377   16.8729 H   0  0  0  0  0  0
    3.7953   51.4030   18.4988 H   0  0  0  0  0  0
    1.1293   53.9047   25.2237 H   0  0  0  0  0  0
    1.5369   55.0724   24.0006 H   0  0  0  0  0  0
    2.0464   54.0650   27.4882 H   0  0  0  0  0  0
    3.3813   54.2213   29.4850 H   0  0  0  0  0  0
    5.9071   54.4001   29.2744 H   0  0  0  0  0  0
    6.9954   54.3683   27.1383 H   0  0  0  0  0  0
    4.4100   54.8966   23.1372 H   0  0  0  0  0  0
    4.4977   53.1419   23.3045 H   0  0  0  0  0  0
   -3.8522   46.1821   21.0336 H   0  0  0  0  0  0
   -4.2163   47.9055   20.8064 H   0  0  0  0  0  0
   -2.7724   47.1801   20.0838 H   0  0  0  0  0  0
    6.5262   54.2500   24.4292 H   0  0  0  0  0  0
  1  2  1  0  0  0
  1 41  1  0  0  0
  1 42  1  0  0  0
  1 43  1  0  0  0
  2  7  2  0  0  0
  2  3  1  0  0  0
  3  4  2  0  0  0
  3 44  1  0  0  0
  4  5  1  0  0  0
  4 40  1  0  0  0
  5  6  2  0  0  0
  5 45  1  0  0  0
  6  7  1  0  0  0
  6  8  1  0  0  0
  7 46  1  0  0  0
  8 19  1  0  0  0
  8  9  1  0  0  0
  9 10  2  0  0  0
  9 11  1  0  0  0
 11 12  1  0  0  0
 11 17  1  0  0  0
 11 13  1  0  0  0
 13 14  1  0  0  0
 13 15  1  0  0  0
 13 30  1  0  0  0
 15 16  1  0  0  0
 15 47  1  0  0  0
 16 28  1  0  0  0
 16 17  1  0  0  0
 16 21  1  0  0  0
 17 18  1  0  0  0
 17 19  1  0  0  0
 19 20  2  0  0  0
 21 26  2  0  0  0
 21 22  1  0  0  0
 22 23  2  0  0  0
 22 48  1  0  0  0
 23 24  1  0  0  0
 23 49  1  0  0  0
 24 25  2  0  0  0
 24 50  1  0  0  0
 25 26  1  0  0  0
 25 51  1  0  0  0
 26 27  1  0  0  0
 27 28  1  0  0  0
 27 52  1  0  0  0
 28 29  2  0  0  0
 30 31  1  0  0  0
 30 53  1  0  0  0
 30 54  1  0  0  0
 31 39  1  0  0  0
 31 32  2  0  0  0
 32 37  1  0  0  0
 32 33  1  0  0  0
 33 34  2  0  0  0
 33 55  1  0  0  0
 34 35  1  0  0  0
 34 56  1  0  0  0
 35 36  2  0  0  0
 35 57  1  0  0  0
 36 37  1  0  0  0
 36 58  1  0  0  0
 37 38  2  0  0  0
 38 39  1  0  0  0
 38 64  1  0  0  0
 39 59  1  0  0  0
 39 60  1  0  0  0
 40 61  1  0  0  0
 40 62  1  0  0  0
 40 63  1  0  0  0
M  CHG  1  38   1
M  END
> <i_i_glide_confnum>
36

> <i_i_glide_lignum>
1263

> <i_i_glide_posenum>
88

> <i_i_glide_rotatable_bonds>
3

> <i_m_Source_File_Index>
1610

> <b_m_subgroup_collapsed>
0

> <r_i_docking_score>
-6.15009

> <r_i_glide_ecoul>
-4.93254

> <r_i_glide_eff_state_penalty>
0

> <r_i_glide_einternal>
1.86713

> <r_i_glide_emodel>
-63.6714

> <r_i_glide_energy>
-47.4169

> <r_i_glide_erotb>
0.252762

> <r_i_glide_esite>
-0.123633

> <r_i_glide_evdw>
-42.4844

> <r_i_glide_gscore>
-6.15009

> <r_i_glide_hbond>
-0.442455

> <r_i_glide_ligand_efficiency>
-0.166219

> <r_i_glide_ligand_efficiency_ln>
-1.33381

> <r_i_glide_ligand_efficiency_sa>
-0.553877

> <r_i_glide_lipo>
-2.62609

> <r_i_glide_metal>
0

> <r_i_glide_rewards>
-0.346569

> <s_i_glide_gridfile>
wee1_glide-grid

> <s_m_Source_File>
wee1_decoys_glide_SP.sdf

> <s_m_Source_Path>
/Users/zhangxujun/Desktop

> <s_m_entry_id>
1885

> <s_m_entry_name>
wee1_decoys_glide_SP.1610

> <s_m_subgroup_title>
wee1_decoys_glide_SP

> <s_m_subgroupid>
wee1_decoys_glide_SP


$$$$
