ZINC06195036_20
                    3D
 Schrodinger Suite 2024-2.
 50 52  0  0  1  0            999 V2000
    0.5444   53.2965   31.7871 C   0  0  0  0  0  0
   -0.1104   53.0514   30.4224 C   0  0  0  0  0  0
    0.7850   53.0036   29.3218 O   0  0  0  0  0  0
    1.6779   53.9853   29.0382 C   0  0  0  0  0  0
    1.8628   54.9756   29.7510 O   0  0  0  0  0  0
    2.3936   53.6959   27.8706 N   0  0  0  0  0  0
    3.7500   54.2623   27.7899 C   0  0  0  0  0  0
    4.2737   54.1883   26.3664 C   0  0  0  0  0  0
    3.6199   53.6972   25.2904 C   0  0  0  0  0  0
    2.1840   53.1496   25.4804 C   0  0  2  0  0  0
    1.5689   54.0444   25.3899 H   0  0  0  0  0  0
    1.9288   52.6563   26.9283 C   0  0  0  0  0  0
    1.7572   52.1250   24.3464 C   0  0  2  0  0  0
    2.3037   51.2080   24.4817 H   0  0  0  0  0  0
    2.2375   52.6248   22.9437 C   0  0  0  0  0  0
    3.6831   53.1390   22.8817 C   0  0  0  0  0  0
    4.2706   53.6967   23.9686 C   0  0  0  0  0  0
    5.6036   54.2104   23.8331 C   0  0  0  0  0  0
    6.6876   54.6049   23.7382 N   0  0  0  0  0  0
    4.2803   53.1023   21.6384 N   0  0  0  0  0  0
    1.8320   51.7662   21.8134 C   0  0  0  0  0  0
    1.5138   51.0976   20.9246 N   0  0  0  0  0  0
    1.5878   53.8839   22.8659 C   0  0  0  0  0  0
    1.1044   54.8967   22.8817 N   0  0  0  0  0  0
    0.2205   51.7752   24.3866 C   0  0  0  0  0  0
   -0.7146   52.8253   24.4436 C   0  0  0  0  0  0
   -2.0895   52.6108   24.4481 C   0  0  0  0  0  0
   -2.5848   51.3191   24.4137 C   0  0  0  0  0  0
   -1.6989   50.2526   24.3732 C   0  0  0  0  0  0
   -0.3078   50.4549   24.3565 C   0  0  0  0  0  0
    0.5656   49.2073   24.3242 C   0  0  0  0  0  0
    1.5043   49.3123   23.3858 F   0  0  0  0  0  0
    1.1044   49.0720   25.5317 F   0  0  0  0  0  0
   -0.1191   48.0911   24.0641 F   0  0  0  0  0  0
   -0.0955   52.9618   32.5956 H   0  0  0  0  0  0
    1.4916   52.7665   31.8854 H   0  0  0  0  0  0
    0.7044   54.3609   31.9524 H   0  0  0  0  0  0
   -0.8801   53.7980   30.2249 H   0  0  0  0  0  0
   -0.6242   52.0895   30.4496 H   0  0  0  0  0  0
    4.4227   53.7103   28.4480 H   0  0  0  0  0  0
    3.7751   55.2969   28.1304 H   0  0  0  0  0  0
    5.2747   54.5716   26.2345 H   0  0  0  0  0  0
    0.8467   52.5335   27.0021 H   0  0  0  0  0  0
    2.3614   51.6968   27.1964 H   0  0  0  0  0  0
    3.8011   52.7322   20.8275 H   0  0  0  0  0  0
    5.2067   53.4782   21.4919 H   0  0  0  0  0  0
   -0.4005   53.8496   24.4809 H   0  0  0  0  0  0
   -2.7705   53.4478   24.4842 H   0  0  0  0  0  0
   -3.6504   51.1418   24.4287 H   0  0  0  0  0  0
   -2.1158   49.2556   24.3665 H   0  0  0  0  0  0
  1  2  1  0  0  0
  1 35  1  0  0  0
  1 36  1  0  0  0
  1 37  1  0  0  0
  2  3  1  0  0  0
  2 38  1  0  0  0
  2 39  1  0  0  0
  3  4  1  0  0  0
  4  5  2  0  0  0
  4  6  1  0  0  0
  6 12  1  0  0  0
  6  7  1  0  0  0
  7  8  1  0  0  0
  7 40  1  0  0  0
  7 41  1  0  0  0
  8  9  2  0  0  0
  8 42  1  0  0  0
  9 17  1  0  0  0
  9 10  1  0  0  0
 10 11  1  0  0  0
 10 12  1  0  0  0
 10 13  1  0  0  0
 12 43  1  0  0  0
 12 44  1  0  0  0
 13 14  1  0  0  0
 13 15  1  0  0  0
 13 25  1  0  0  0
 15 16  1  0  0  0
 15 21  1  0  0  0
 15 23  1  0  0  0
 16 17  2  0  0  0
 16 20  1  0  0  0
 17 18  1  0  0  0
 18 19  3  0  0  0
 20 45  1  0  0  0
 20 46  1  0  0  0
 21 22  3  0  0  0
 23 24  3  0  0  0
 25 30  2  0  0  0
 25 26  1  0  0  0
 26 27  2  0  0  0
 26 47  1  0  0  0
 27 28  1  0  0  0
 27 48  1  0  0  0
 28 29  2  0  0  0
 28 49  1  0  0  0
 29 30  1  0  0  0
 29 50  1  0  0  0
 30 31  1  0  0  0
 31 32  1  0  0  0
 31 33  1  0  0  0
 31 34  1  0  0  0
M  END
> <i_i_glide_confnum>
3

> <i_i_glide_lignum>
21

> <i_i_glide_posenum>
194

> <i_i_glide_rotatable_bonds>
8

> <i_m_Source_File_Index>
916

> <b_m_subgroup_collapsed>
0

> <r_i_docking_score>
-3.79891

> <r_i_glide_ecoul>
-0.782906

> <r_i_glide_eff_state_penalty>
0

> <r_i_glide_einternal>
16.773

> <r_i_glide_emodel>
-10.1412

> <r_i_glide_energy>
-10.4502

> <r_i_glide_erotb>
0.307558

> <r_i_glide_esite>
-0.105343

> <r_i_glide_evdw>
-9.6673

> <r_i_glide_gscore>
-3.79891

> <r_i_glide_hbond>
-0.0157535

> <r_i_glide_ligand_efficiency>
-0.118716

> <r_i_glide_ligand_efficiency_ln>
-0.85068

> <r_i_glide_ligand_efficiency_sa>
-0.3769

> <r_i_glide_lipo>
-1.7199

> <r_i_glide_metal>
0

> <r_i_glide_rewards>
-1.66468

> <s_i_glide_gridfile>
wee1_glide-grid

> <s_m_Source_File>
wee1_decoys_glide_SP.sdf

> <s_m_Source_Path>
/Users/zhangxujun/Desktop

> <s_m_entry_id>
1191

> <s_m_entry_name>
wee1_decoys_glide_SP.916

> <s_m_subgroup_title>
wee1_decoys_glide_SP

> <s_m_subgroupid>
wee1_decoys_glide_SP


$$$$
