ZINC00714903_4000
                    3D
 Schrodinger Suite 2024-2.
 48 52  0  0  1  0            999 V2000
    7.2407   57.6730   18.7196 C   0  0  0  0  0  0
    7.9065   58.5698   17.8854 C   0  0  0  0  0  0
    9.0963   58.1966   17.2603 C   0  0  0  0  0  0
    9.6159   56.9117   17.4652 C   0  0  0  0  0  0
    8.9409   56.0136   18.2935 C   0  0  0  0  0  0
    7.7505   56.3831   18.9307 C   0  0  0  0  0  0
    7.0642   55.4020   19.8830 C   0  0  2  0  0  0
    7.5293   54.4384   19.6750 H   0  0  0  0  0  0
    5.5350   55.2797   19.6591 C   0  0  0  0  0  0
    4.7806   54.3472   20.6623 C   0  0  2  0  0  0
    3.7519   54.6985   20.7590 H   0  0  0  0  0  0
    5.3996   54.5026   21.9905 N   0  0  0  0  0  0
    6.6023   55.1272   22.2574 C   0  0  0  0  0  0
    6.7045   55.1338   23.6237 C   0  0  0  0  0  0
    5.5619   54.5148   24.1376 C   0  0  0  0  0  0
    4.7997   54.0960   23.1363 N   0  0  0  0  0  0
    5.3167   54.3924   25.5633 C   0  0  0  0  0  0
    6.2142   54.6616   26.3678 O   0  0  0  0  0  0
    4.0691   54.0000   25.9103 N   0  0  0  0  0  0
    3.5914   53.6775   27.1994 C   0  0  0  0  0  0
    4.4349   53.2592   28.2577 C   0  0  0  0  0  0
    3.9057   52.8566   29.4907 C   0  0  0  0  0  0
    2.5280   52.9051   29.6483 C   0  0  0  0  0  0
    1.7030   53.3161   28.6411 C   0  0  0  0  0  0
    2.1986   53.6982   27.3956 C   0  0  0  0  0  0
    0.4112   53.2231   29.0569 O   0  0  0  0  0  0
    0.4672   52.9039   30.4254 C   0  0  0  0  0  0
    1.7868   52.5280   30.7221 O   0  0  0  0  0  0
    7.3861   55.6969   21.2788 N   0  0  0  0  0  0
    4.6904   52.8940   20.1514 C   0  0  0  0  0  0
    5.8669   52.4946   19.6815 F   0  0  0  0  0  0
    4.3109   52.0258   21.0911 F   0  0  0  0  0  0
    3.8150   52.8117   19.1493 F   0  0  0  0  0  0
   11.0944   56.4075   16.7209 Cl  0  0  0  0  0  0
    9.9051   59.3457   16.2519 Cl  0  0  0  0  0  0
    6.3362   58.0021   19.2072 H   0  0  0  0  0  0
    7.5003   59.5607   17.7280 H   0  0  0  0  0  0
    9.3624   55.0312   18.4561 H   0  0  0  0  0  0
    5.3395   54.9567   18.6347 H   0  0  0  0  0  0
    5.1025   56.2742   19.6842 H   0  0  0  0  0  0
    7.5040   55.5803   24.1939 H   0  0  0  0  0  0
    3.4078   53.8929   25.1566 H   0  0  0  0  0  0
    5.5037   53.1865   28.1266 H   0  0  0  0  0  0
    4.5531   52.4985   30.2765 H   0  0  0  0  0  0
    1.5272   53.9904   26.6020 H   0  0  0  0  0  0
    0.2089   53.7869   31.0129 H   0  0  0  0  0  0
   -0.2235   52.0919   30.6651 H   0  0  0  0  0  0
    8.3856   55.7106   21.4310 H   0  0  0  0  0  0
  1  6  2  0  0  0
  1  2  1  0  0  0
  1 36  1  0  0  0
  2  3  2  0  0  0
  2 37  1  0  0  0
  3  4  1  0  0  0
  3 35  1  0  0  0
  4  5  2  0  0  0
  4 34  1  0  0  0
  5  6  1  0  0  0
  5 38  1  0  0  0
  6  7  1  0  0  0
  7  8  1  0  0  0
  7 29  1  0  0  0
  7  9  1  0  0  0
  9 10  1  0  0  0
  9 39  1  0  0  0
  9 40  1  0  0  0
 10 11  1  0  0  0
 10 12  1  0  0  0
 10 30  1  0  0  0
 12 16  1  0  0  0
 12 13  1  0  0  0
 13 14  2  0  0  0
 13 29  1  0  0  0
 14 15  1  0  0  0
 14 41  1  0  0  0
 15 16  2  0  0  0
 15 17  1  0  0  0
 17 18  2  0  0  0
 17 19  1  0  0  0
 19 20  1  0  0  0
 19 42  1  0  0  0
 20 25  2  0  0  0
 20 21  1  0  0  0
 21 22  2  0  0  0
 21 43  1  0  0  0
 22 23  1  0  0  0
 22 44  1  0  0  0
 23 28  1  0  0  0
 23 24  2  0  0  0
 24 25  1  0  0  0
 24 26  1  0  0  0
 25 45  1  0  0  0
 26 27  1  0  0  0
 27 28  1  0  0  0
 27 46  1  0  0  0
 27 47  1  0  0  0
 29 48  1  0  0  0
 30 31  1  0  0  0
 30 32  1  0  0  0
 30 33  1  0  0  0
M  END
> <i_i_glide_confnum>
32

> <i_i_glide_lignum>
4001

> <i_i_glide_posenum>
229

> <i_i_glide_rotatable_bonds>
5

> <i_m_Source_File_Index>
2460

> <b_m_subgroup_collapsed>
0

> <r_i_docking_score>
-5.63439

> <r_i_glide_ecoul>
-4.68923

> <r_i_glide_eff_state_penalty>
0

> <r_i_glide_einternal>
9.60927

> <r_i_glide_emodel>
-60.6091

> <r_i_glide_energy>
-50.2009

> <r_i_glide_erotb>
0.327544

> <r_i_glide_esite>
-0.106151

> <r_i_glide_evdw>
-45.5116

> <r_i_glide_gscore>
-5.63439

> <r_i_glide_hbond>
0

> <r_i_glide_ligand_efficiency>
-0.170739

> <r_i_glide_ligand_efficiency_ln>
-1.25306

> <r_i_glide_ligand_efficiency_sa>
-0.547652

> <r_i_glide_lipo>
-2.11415

> <r_i_glide_metal>
0

> <r_i_glide_rewards>
-0.762666

> <s_i_glide_gridfile>
wee1_glide-grid

> <s_m_Source_File>
wee1_decoys_glide_SP.sdf

> <s_m_Source_Path>
/Users/zhangxujun/Desktop

> <s_m_entry_id>
2735

> <s_m_entry_name>
wee1_decoys_glide_SP.2460

> <s_m_subgroup_title>
wee1_decoys_glide_SP

> <s_m_subgroupid>
wee1_decoys_glide_SP


$$$$
