ZINC36025896_2822
                    3D
 Schrodinger Suite 2024-2.
 64 68  0  0  1  0            999 V2000
   -0.8900   51.8930   30.2338 C   0  0  0  0  0  0
    0.0601   52.4004   29.1710 C   0  0  0  0  0  0
    0.1902   51.7239   27.9590 C   0  0  0  0  0  0
    1.0362   52.2231   26.9705 C   0  0  0  0  0  0
    1.7647   53.4007   27.1867 C   0  0  0  0  0  0
    1.6210   54.0979   28.4044 C   0  0  0  0  0  0
    0.7676   53.5842   29.3842 C   0  0  0  0  0  0
    2.3041   55.4320   28.6776 C   0  0  0  0  0  0
    2.6462   53.8373   26.1730 N   0  0  0  0  0  0
    4.0144   54.0524   26.2362 C   0  0  0  0  0  0
    4.4180   54.4426   24.9373 C   0  0  0  0  0  0
    3.1950   54.4839   24.1951 C   0  0  0  0  0  0
    2.1832   54.0933   24.9260 N   0  0  0  0  0  0
    5.8089   54.6339   24.7496 C   0  0  0  0  0  0
    6.6635   54.4855   25.7945 N   0  0  0  0  0  0
    6.1316   54.1051   26.9834 C   0  0  0  0  0  0
    4.8304   53.8687   27.2790 N   0  0  0  0  0  0
    7.1058   53.8420   28.1048 C   0  0  0  0  0  0
    6.4311   54.8935   23.5194 N   0  0  0  0  0  0
    5.7780   54.6903   22.2246 C   0  0  2  0  0  0
    5.4208   53.1989   22.0429 C   0  0  0  0  0  0
    4.6866   52.9800   20.7074 C   0  0  0  0  0  0
    5.4531   53.5431   19.4854 C   0  0  2  0  0  0
    6.1110   54.9422   19.7186 C   0  0  0  0  0  0
    6.7535   55.1183   21.1148 C   0  0  0  0  0  0
    4.8006   53.2972   18.2010 N   0  0  0  0  0  0
    3.8382   54.0556   17.6404 C   0  0  0  0  0  0
    3.5054   55.1546   18.0807 O   0  0  0  0  0  0
    3.1709   53.4785   16.4160 C   0  0  0  0  0  0
    2.9376   52.0971   16.3122 C   0  0  0  0  0  0
    2.3093   51.5622   15.1887 C   0  0  0  0  0  0
    1.9015   52.3973   14.1518 C   0  0  0  0  0  0
    2.1272   53.7701   14.2393 C   0  0  0  0  0  0
    2.7600   54.3107   15.3595 C   0  0  0  0  0  0
    2.9726   55.6488   15.3908 F   0  0  0  0  0  0
   -1.2906   52.7426   30.7706 H   0  0  0  0  0  0
   -1.7179   51.3240   29.8088 H   0  0  0  0  0  0
   -0.3961   51.2970   30.9880 H   0  0  0  0  0  0
   -0.3632   50.8120   27.7823 H   0  0  0  0  0  0
    1.1263   51.6852   26.0383 H   0  0  0  0  0  0
    0.6380   54.1176   30.3155 H   0  0  0  0  0  0
    1.7739   56.0073   29.4364 H   0  0  0  0  0  0
    3.3339   55.2877   29.0040 H   0  0  0  0  0  0
    2.3043   56.0520   27.7833 H   0  0  0  0  0  0
    3.0413   54.7419   23.1576 H   0  0  0  0  0  0
    6.6526   54.0323   29.0771 H   0  0  0  0  0  0
    7.4567   52.8097   28.0721 H   0  0  0  0  0  0
    7.9622   54.5021   28.0235 H   0  0  0  0  0  0
    7.4407   54.8356   23.5334 H   0  0  0  0  0  0
    4.8763   55.2947   22.1461 H   0  0  0  0  0  0
    6.3043   52.5644   22.1093 H   0  0  0  0  0  0
    4.7660   52.8581   22.8401 H   0  0  0  0  0  0
    3.7209   53.4842   20.7723 H   0  0  0  0  0  0
    4.4841   51.9166   20.5718 H   0  0  0  0  0  0
    6.3056   52.8731   19.4153 H   0  0  0  0  0  0
    6.8550   55.1427   18.9455 H   0  0  0  0  0  0
    5.3483   55.7165   19.6390 H   0  0  0  0  0  0
    7.6794   54.5463   21.1645 H   0  0  0  0  0  0
    7.0396   56.1627   21.2494 H   0  0  0  0  0  0
    4.8620   52.3357   17.8826 H   0  0  0  0  0  0
    3.2382   51.4152   17.0970 H   0  0  0  0  0  0
    2.1490   50.4939   15.1283 H   0  0  0  0  0  0
    1.4166   51.9811   13.2813 H   0  0  0  0  0  0
    1.8162   54.4186   13.4343 H   0  0  0  0  0  0
  1  2  1  0  0  0
  1 36  1  0  0  0
  1 37  1  0  0  0
  1 38  1  0  0  0
  2  7  2  0  0  0
  2  3  1  0  0  0
  3  4  2  0  0  0
  3 39  1  0  0  0
  4  5  1  0  0  0
  4 40  1  0  0  0
  5  6  2  0  0  0
  5  9  1  0  0  0
  6  7  1  0  0  0
  6  8  1  0  0  0
  7 41  1  0  0  0
  8 42  1  0  0  0
  8 43  1  0  0  0
  8 44  1  0  0  0
  9 13  1  0  0  0
  9 10  1  0  0  0
 10 17  2  0  0  0
 10 11  1  0  0  0
 11 12  1  0  0  0
 11 14  2  0  0  0
 12 13  2  0  0  0
 12 45  1  0  0  0
 14 15  1  0  0  0
 14 19  1  0  0  0
 15 16  2  0  0  0
 16 17  1  0  0  0
 16 18  1  0  0  0
 18 46  1  0  0  0
 18 47  1  0  0  0
 18 48  1  0  0  0
 19 20  1  0  0  0
 19 49  1  0  0  0
 20 25  1  0  0  0
 20 21  1  0  0  0
 20 50  1  0  0  0
 21 22  1  0  0  0
 21 51  1  0  0  0
 21 52  1  0  0  0
 22 23  1  0  0  0
 22 53  1  0  0  0
 22 54  1  0  0  0
 23 24  1  0  0  0
 23 26  1  0  0  0
 23 55  1  0  0  0
 24 25  1  0  0  0
 24 56  1  0  0  0
 24 57  1  0  0  0
 25 58  1  0  0  0
 25 59  1  0  0  0
 26 27  1  0  0  0
 26 60  1  0  0  0
 27 28  2  0  0  0
 27 29  1  0  0  0
 29 34  2  0  0  0
 29 30  1  0  0  0
 30 31  2  0  0  0
 30 61  1  0  0  0
 31 32  1  0  0  0
 31 62  1  0  0  0
 32 33  2  0  0  0
 32 63  1  0  0  0
 33 34  1  0  0  0
 33 64  1  0  0  0
 34 35  1  0  0  0
M  END
> <i_i_glide_confnum>
121

> <i_i_glide_lignum>
2823

> <i_i_glide_posenum>
314

> <i_i_glide_rotatable_bonds>
6

> <i_m_Source_File_Index>
2858

> <b_m_subgroup_collapsed>
0

> <r_i_docking_score>
-6.96433

> <r_i_glide_ecoul>
-3.70449

> <r_i_glide_eff_state_penalty>
0

> <r_i_glide_einternal>
10.7242

> <r_i_glide_emodel>
-59.3684

> <r_i_glide_energy>
-45.3419

> <r_i_glide_erotb>
0.380314

> <r_i_glide_esite>
-0.0881651

> <r_i_glide_evdw>
-41.6374

> <r_i_glide_gscore>
-6.96433

> <r_i_glide_hbond>
-0.335889

> <r_i_glide_ligand_efficiency>
-0.198981

> <r_i_glide_ligand_efficiency_ln>
-1.52883

> <r_i_glide_ligand_efficiency_sa>
-0.65088

> <r_i_glide_lipo>
-2.75992

> <r_i_glide_metal>
0

> <r_i_glide_rewards>
-1.52313

> <s_i_glide_gridfile>
wee1_glide-grid

> <s_m_Source_File>
wee1_decoys_glide_SP.sdf

> <s_m_Source_Path>
/Users/zhangxujun/Desktop

> <s_m_entry_id>
3133

> <s_m_entry_name>
wee1_decoys_glide_SP.2858

> <s_m_subgroup_title>
wee1_decoys_glide_SP

> <s_m_subgroupid>
wee1_decoys_glide_SP


$$$$
