ZINC11278175_4925
                    3D
 Schrodinger Suite 2024-2.
 52 55  0  0  1  0            999 V2000
    6.9439   57.5115   16.0593 C   0  0  0  0  0  0
    6.5935   56.2802   16.8748 C   0  0  0  0  0  0
    5.9764   55.1837   16.2748 C   0  0  0  0  0  0
    5.6260   54.0585   17.0276 C   0  0  0  0  0  0
    5.8743   54.0344   18.4154 C   0  0  0  0  0  0
    6.5336   55.1350   19.0098 C   0  0  0  0  0  0
    6.8745   56.2460   18.2383 C   0  0  0  0  0  0
    6.9646   55.1888   20.6882 Cl  0  0  0  0  0  0
    5.4855   52.8967   19.1538 N   0  0  0  0  0  0
    4.5838   52.9187   20.1871 C   0  0  0  0  0  0
    4.0219   53.9797   20.6999 N   0  0  0  0  0  0
    3.1042   53.6610   21.6818 N   0  0  0  0  0  0
    2.9720   52.3771   21.9007 C   0  0  0  0  0  0
    4.0117   51.4284   20.8817 S   0  0  0  0  0  0
    1.8954   51.6242   23.0924 S   0  0  0  0  0  0
    1.2261   53.0675   23.9993 C   0  0  0  0  0  0
    2.3114   53.8832   24.7230 C   0  0  0  0  0  0
    2.7045   54.8966   24.1496 O   0  0  0  0  0  0
    2.8152   53.4919   25.9295 N   0  0  0  0  0  0
    1.8774   52.8605   26.8869 C   0  0  0  0  0  0
    2.5251   52.6769   28.2959 C   0  0  1  0  0  0
    3.0710   51.7334   28.3433 H   0  0  0  0  0  0
    3.4142   53.7428   28.6590 O   0  0  0  0  0  0
    4.3899   53.9681   27.7194 C   0  0  0  0  0  0
    4.1141   53.8978   26.3478 C   0  0  0  0  0  0
    5.1849   54.0974   25.4512 C   0  0  0  0  0  0
    6.4628   54.4065   25.9133 C   0  0  0  0  0  0
    6.7002   54.4994   27.2823 C   0  0  0  0  0  0
    5.6623   54.2884   28.1878 C   0  0  0  0  0  0
    1.4363   52.6141   29.3949 C   0  0  0  0  0  0
    1.4459   53.3715   30.3636 O   0  0  0  0  0  0
    0.4751   51.6968   29.2777 N   0  0  0  0  0  0
    4.9447   52.8976   16.3087 C   0  0  0  0  0  0
    6.4011   57.5403   15.1139 H   0  0  0  0  0  0
    6.6737   58.4167   16.6055 H   0  0  0  0  0  0
    8.0150   57.5471   15.8596 H   0  0  0  0  0  0
    5.7646   55.2081   15.2153 H   0  0  0  0  0  0
    7.3644   57.0892   18.7033 H   0  0  0  0  0  0
    5.5057   52.0261   18.6085 H   0  0  0  0  0  0
    0.4523   52.7362   24.6884 H   0  0  0  0  0  0
    0.7067   53.7153   23.2920 H   0  0  0  0  0  0
    1.4557   51.9339   26.4957 H   0  0  0  0  0  0
    1.0155   53.5273   26.9574 H   0  0  0  0  0  0
    5.0419   53.9980   24.3844 H   0  0  0  0  0  0
    7.2653   54.5553   25.2052 H   0  0  0  0  0  0
    7.6843   54.7378   27.6567 H   0  0  0  0  0  0
    5.8480   54.3672   29.2489 H   0  0  0  0  0  0
    0.4500   51.0357   28.5159 H   0  0  0  0  0  0
   -0.2319   51.6452   29.9980 H   0  0  0  0  0  0
    4.5204   53.2012   15.3512 H   0  0  0  0  0  0
    5.6592   52.0934   16.1390 H   0  0  0  0  0  0
    4.1185   52.4968   16.8974 H   0  0  0  0  0  0
  1  2  1  0  0  0
  1 34  1  0  0  0
  1 35  1  0  0  0
  1 36  1  0  0  0
  2  7  2  0  0  0
  2  3  1  0  0  0
  3  4  2  0  0  0
  3 37  1  0  0  0
  4  5  1  0  0  0
  4 33  1  0  0  0
  5  6  2  0  0  0
  5  9  1  0  0  0
  6  7  1  0  0  0
  6  8  1  0  0  0
  7 38  1  0  0  0
  9 10  1  0  0  0
  9 39  1  0  0  0
 10 14  1  0  0  0
 10 11  2  0  0  0
 11 12  1  0  0  0
 12 13  2  0  0  0
 13 14  1  0  0  0
 13 15  1  0  0  0
 15 16  1  0  0  0
 16 17  1  0  0  0
 16 40  1  0  0  0
 16 41  1  0  0  0
 17 18  2  0  0  0
 17 19  1  0  0  0
 19 25  1  0  0  0
 19 20  1  0  0  0
 20 21  1  0  0  0
 20 42  1  0  0  0
 20 43  1  0  0  0
 21 22  1  0  0  0
 21 23  1  0  0  0
 21 30  1  0  0  0
 23 24  1  0  0  0
 24 29  2  0  0  0
 24 25  1  0  0  0
 25 26  2  0  0  0
 26 27  1  0  0  0
 26 44  1  0  0  0
 27 28  2  0  0  0
 27 45  1  0  0  0
 28 29  1  0  0  0
 28 46  1  0  0  0
 29 47  1  0  0  0
 30 31  2  0  0  0
 30 32  1  0  0  0
 32 48  1  0  0  0
 32 49  1  0  0  0
 33 50  1  0  0  0
 33 51  1  0  0  0
 33 52  1  0  0  0
M  END
> <i_i_glide_confnum>
203

> <i_i_glide_lignum>
4926

> <i_i_glide_posenum>
132

> <i_i_glide_rotatable_bonds>
7

> <i_m_Source_File_Index>
5880

> <b_m_subgroup_collapsed>
0

> <r_i_docking_score>
-5.68981

> <r_i_glide_ecoul>
-5.36293

> <r_i_glide_eff_state_penalty>
0

> <r_i_glide_einternal>
4.88603

> <r_i_glide_emodel>
-66.58

> <r_i_glide_energy>
-48.7411

> <r_i_glide_erotb>
0.508475

> <r_i_glide_esite>
-0.106246

> <r_i_glide_evdw>
-43.3782

> <r_i_glide_gscore>
-5.68981

> <r_i_glide_hbond>
-0.179099

> <r_i_glide_ligand_efficiency>
-0.177807

> <r_i_glide_ligand_efficiency_ln>
-1.2741

> <r_i_glide_ligand_efficiency_sa>
-0.564501

> <r_i_glide_lipo>
-2.50522

> <r_i_glide_metal>
0

> <r_i_glide_rewards>
-0.434368

> <s_i_glide_gridfile>
wee1_glide-grid

> <s_m_Source_File>
wee1_decoys_glide_SP.sdf

> <s_m_Source_Path>
/Users/zhangxujun/Desktop

> <s_m_entry_id>
6155

> <s_m_entry_name>
wee1_decoys_glide_SP.5880

> <s_m_subgroup_title>
wee1_decoys_glide_SP

> <s_m_subgroupid>
wee1_decoys_glide_SP


$$$$
