ZINC08770073_5376
                    3D
 Schrodinger Suite 2024-2.
 78 82  0  0  1  0            999 V2000
    4.2920   55.6674   25.7810 C   0  0  0  0  0  0
    5.1135   54.3981   25.9250 C   0  0  2  0  0  0
    6.0632   54.2591   24.6842 C   0  0  0  0  0  0
    5.4523   53.5859   23.4221 C   0  0  0  0  0  0
    3.9000   53.5795   23.3726 C   0  0  2  0  0  0
    3.6562   54.6313   23.2799 H   0  0  0  0  0  0
    3.2067   53.1550   24.7127 C   0  0  1  0  0  0
    3.0916   52.0969   24.6001 H   0  0  0  0  0  0
    4.0837   53.2983   26.0058 C   0  0  2  0  0  0
    4.7791   52.4967   26.0819 H   0  0  0  0  0  0
    3.4848   53.3039   27.4227 C   0  0  0  0  0  0
    4.6157   53.8911   28.3067 C   0  0  0  0  0  0
    5.7616   54.3492   27.3547 C   0  0  1  0  0  0
    7.0325   53.5010   27.5326 C   0  0  0  0  0  0
    6.3045   55.5789   27.6816 O   0  0  0  0  0  0
    1.7100   53.5507   24.7535 C   0  0  0  0  0  0
    1.0962   53.7945   23.3446 C   0  0  0  0  0  0
    1.7068   52.8014   22.3526 C   0  0  0  0  0  0
    0.9890   51.7804   21.8258 C   0  0  0  0  0  0
    1.5448   50.6630   21.1115 C   0  0  0  0  0  0
    0.7627   49.8320   20.5350 N   0  0  0  0  0  0
    1.3812   48.7591   19.8212 O   0  0  0  0  0  0
    2.0020   49.1168   18.5616 C   0  0  0  0  0  0
    1.1357   49.9470   17.5888 C   0  0  0  0  0  0
   -0.0798   50.0790   17.7306 O   0  0  0  0  0  0
    1.8255   50.4959   16.5705 N   0  0  0  0  0  0
    1.2595   51.3700   15.5209 C   0  0  1  0  0  0
    0.2650   50.9971   15.2739 H   0  0  0  0  0  0
    1.1976   52.8140   15.9896 C   0  0  0  0  0  0
    0.0627   53.5808   15.6987 C   0  0  0  0  0  0
   -0.0145   54.9087   16.1107 C   0  0  0  0  0  0
    1.0464   55.4772   16.8114 C   0  0  0  0  0  0
    2.1814   54.7260   17.1122 C   0  0  0  0  0  0
    2.2537   53.3963   16.7083 C   0  0  0  0  0  0
    2.0883   51.2461   14.2359 C   0  0  0  0  0  0
    2.1155   52.1387   13.3839 O   0  0  0  0  0  0
    2.7055   50.0459   14.0826 O   0  0  0  0  0  0
    3.5118   49.7786   12.9446 C   0  0  0  0  0  0
    2.9874   50.5946   21.1887 C   0  0  0  0  0  0
    3.7697   51.5785   21.6714 C   0  0  0  0  0  0
    3.2406   52.9544   22.0984 C   0  0  2  0  0  0
    3.5083   53.8717   20.8879 C   0  0  0  0  0  0
    3.6346   55.6964   26.6408 H   0  0  0  0  0  0
    4.9598   56.5059   25.6818 H   0  0  0  0  0  0
    3.5882   55.6960   24.9796 H   0  0  0  0  0  0
    6.8679   53.5735   24.9481 H   0  0  0  0  0  0
    6.5846   55.1952   24.4725 H   0  0  0  0  0  0
    5.8344   52.5733   23.2954 H   0  0  0  0  0  0
    5.8368   54.1057   22.5429 H   0  0  0  0  0  0
    2.6161   53.9589   27.4668 H   0  0  0  0  0  0
    3.1368   52.3202   27.7298 H   0  0  0  0  0  0
    4.2303   54.7290   28.8888 H   0  0  0  0  0  0
    4.9645   53.1408   29.0218 H   0  0  0  0  0  0
    6.8358   52.4968   27.2154 H   0  0  0  0  0  0
    7.8740   53.8706   26.9458 H   0  0  0  0  0  0
    7.3573   53.4514   28.5743 H   0  0  0  0  0  0
    6.7660   55.5435   28.5348 H   0  0  0  0  0  0
    1.6154   54.4966   25.2727 H   0  0  0  0  0  0
    1.1347   52.8360   25.3451 H   0  0  0  0  0  0
    1.2931   54.8097   22.9990 H   0  0  0  0  0  0
    0.0135   53.6964   23.4118 H   0  0  0  0  0  0
   -0.0609   51.7409   22.0803 H   0  0  0  0  0  0
    2.2352   48.1811   18.0541 H   0  0  0  0  0  0
    2.9623   49.6056   18.7212 H   0  0  0  0  0  0
    2.8131   50.2360   16.4816 H   0  0  0  0  0  0
   -0.7608   53.1481   15.1463 H   0  0  0  0  0  0
   -0.8941   55.4936   15.8821 H   0  0  0  0  0  0
    0.9792   56.5077   17.1275 H   0  0  0  0  0  0
    2.9982   55.1652   17.6673 H   0  0  0  0  0  0
    3.1349   52.8164   16.9436 H   0  0  0  0  0  0
    3.9255   48.7737   13.0197 H   0  0  0  0  0  0
    2.9325   49.8430   12.0231 H   0  0  0  0  0  0
    4.3450   50.4788   12.8849 H   0  0  0  0  0  0
    3.5010   49.6955   20.8946 H   0  0  0  0  0  0
    4.8355   51.4051   21.6734 H   0  0  0  0  0  0
    2.9632   53.5465   19.9989 H   0  0  0  0  0  0
    3.2264   54.8966   21.1209 H   0  0  0  0  0  0
    4.5680   53.8867   20.6158 H   0  0  0  0  0  0
  1  2  1  0  0  0
  1 43  1  0  0  0
  1 44  1  0  0  0
  1 45  1  0  0  0
  2  9  1  0  0  0
  2 13  1  0  0  0
  2  3  1  0  0  0
  3  4  1  0  0  0
  3 46  1  0  0  0
  3 47  1  0  0  0
  4  5  1  0  0  0
  4 48  1  0  0  0
  4 49  1  0  0  0
  5  6  1  0  0  0
  5 41  1  0  0  0
  5  7  1  0  0  0
  7  8  1  0  0  0
  7  9  1  0  0  0
  7 16  1  0  0  0
  9 10  1  0  0  0
  9 11  1  0  0  0
 11 12  1  0  0  0
 11 50  1  0  0  0
 11 51  1  0  0  0
 12 13  1  0  0  0
 12 52  1  0  0  0
 12 53  1  0  0  0
 13 14  1  0  0  0
 13 15  1  0  0  0
 14 54  1  0  0  0
 14 55  1  0  0  0
 14 56  1  0  0  0
 15 57  1  0  0  0
 16 17  1  0  0  0
 16 58  1  0  0  0
 16 59  1  0  0  0
 17 18  1  0  0  0
 17 60  1  0  0  0
 17 61  1  0  0  0
 18 41  1  0  0  0
 18 19  2  0  0  0
 19 20  1  0  0  0
 19 62  1  0  0  0
 20 21  2  0  0  0
 20 39  1  0  0  0
 21 22  1  0  0  0
 22 23  1  0  0  0
 23 24  1  0  0  0
 23 63  1  0  0  0
 23 64  1  0  0  0
 24 25  2  0  0  0
 24 26  1  0  0  0
 26 27  1  0  0  0
 26 65  1  0  0  0
 27 28  1  0  0  0
 27 29  1  0  0  0
 27 35  1  0  0  0
 29 34  2  0  0  0
 29 30  1  0  0  0
 30 31  2  0  0  0
 30 66  1  0  0  0
 31 32  1  0  0  0
 31 67  1  0  0  0
 32 33  2  0  0  0
 32 68  1  0  0  0
 33 34  1  0  0  0
 33 69  1  0  0  0
 34 70  1  0  0  0
 35 36  2  0  0  0
 35 37  1  0  0  0
 37 38  1  0  0  0
 38 71  1  0  0  0
 38 72  1  0  0  0
 38 73  1  0  0  0
 39 40  2  0  0  0
 39 74  1  0  0  0
 40 41  1  0  0  0
 40 75  1  0  0  0
 41 42  1  0  0  0
 42 76  1  0  0  0
 42 77  1  0  0  0
 42 78  1  0  0  0
M  END
> <i_i_glide_confnum>
57

> <i_i_glide_lignum>
5377

> <i_i_glide_posenum>
168

> <i_i_glide_rotatable_bonds>
9

> <i_m_Source_File_Index>
2102

> <b_m_subgroup_collapsed>
0

> <r_i_docking_score>
-0.26718

> <r_i_glide_ecoul>
-9.77719

> <r_i_glide_eff_state_penalty>
0

> <r_i_glide_einternal>
7.3962

> <r_i_glide_emodel>
3.2251

> <r_i_glide_energy>
-13.6546

> <r_i_glide_erotb>
0.454894

> <r_i_glide_esite>
-0.20561

> <r_i_glide_evdw>
-3.87744

> <r_i_glide_gscore>
-0.26718

> <r_i_glide_hbond>
-0.440461

> <r_i_glide_ligand_efficiency>
-0.00703106

> <r_i_glide_ligand_efficiency_ln>
-0.0576119

> <r_i_glide_ligand_efficiency_sa>
-0.0236382

> <r_i_glide_lipo>
-2.91987

> <r_i_glide_metal>
0

> <r_i_glide_rewards>
4.50431

> <s_i_glide_gridfile>
wee1_glide-grid

> <s_m_Source_File>
wee1_decoys_glide_SP.sdf

> <s_m_Source_Path>
/Users/zhangxujun/Desktop

> <s_m_entry_id>
2377

> <s_m_entry_name>
wee1_decoys_glide_SP.2102

> <s_m_subgroup_title>
wee1_decoys_glide_SP

> <s_m_subgroupid>
wee1_decoys_glide_SP


$$$$
