ZINC63384343_3089
                    3D
 Schrodinger Suite 2024-2.
 69 73  0  0  1  0            999 V2000
    4.5165   53.4347   16.7410 C   0  0  0  0  0  0
    4.9263   54.3053   17.9435 C   0  0  0  0  0  0
    4.9621   53.5420   19.2852 C   0  0  1  0  0  0
    5.6698   52.7177   19.1515 H   0  0  0  0  0  0
    5.4900   54.4304   20.4290 C   0  0  0  0  0  0
    3.6501   52.9794   19.6028 N   0  0  0  0  0  0
    3.4589   51.8837   20.3540 C   0  0  0  0  0  0
    4.3626   51.2967   20.9459 O   0  0  0  0  0  0
    2.0171   51.3567   20.4761 C   0  0  2  0  0  0
    2.0990   50.3152   20.7935 H   0  0  0  0  0  0
    1.2087   51.3573   19.1566 C   0  0  0  0  0  0
    1.6229   50.2237   18.2058 C   0  0  0  0  0  0
    1.0977   48.5755   18.7642 S   0  0  0  0  0  0
    2.2928   47.5441   17.8769 C   0  0  0  0  0  0
    1.2875   52.0960   21.5048 N   0  0  0  0  0  0
    1.2896   51.7339   22.7972 C   0  0  0  0  0  0
    1.9044   50.7525   23.2177 O   0  0  0  0  0  0
    0.4707   52.5926   23.7820 C   0  0  2  0  0  0
    0.2982   53.5391   23.2680 H   0  0  0  0  0  0
    1.2977   52.8780   25.0857 C   0  0  0  0  0  0
    0.7470   52.1314   26.2884 C   0  0  0  0  0  0
    0.5620   52.5069   27.5591 C   0  0  0  0  0  0
    0.9529   53.7252   28.2844 C   0  0  0  0  0  0
    0.6484   53.8736   29.5892 C   0  0  0  0  0  0
   -0.0957   52.8057   30.2414 C   0  0  0  0  0  0
   -0.4943   51.6966   29.5660 C   0  0  0  0  0  0
   -0.1592   51.5132   28.2160 C   0  0  0  0  0  0
   -0.4168   50.5008   27.4006 N   0  3  0  0  0  0
    0.1485   50.7493   26.0608 C   0  0  1  0  0  0
    0.9175   49.9883   25.9261 H   0  0  0  0  0  0
   -0.8234   50.6749   24.8353 C   0  0  2  0  0  0
   -0.4646   49.8996   24.1554 H   0  0  0  0  0  0
   -0.8349   51.9621   24.1145 N   0  0  0  0  0  0
   -2.0440   52.5667   24.0862 C   0  0  0  0  0  0
   -2.3020   53.6955   23.6817 O   0  0  0  0  0  0
   -2.9899   51.5678   24.6696 C   0  0  0  0  0  0
   -2.2862   50.4596   25.1029 C   0  0  0  0  0  0
   -2.9641   49.3844   25.6819 C   0  0  0  0  0  0
   -4.3503   49.4499   25.8421 C   0  0  0  0  0  0
   -5.0542   50.5810   25.4161 C   0  0  0  0  0  0
   -4.3751   51.6504   24.8261 C   0  0  0  0  0  0
    4.5669   54.0021   15.8112 H   0  0  0  0  0  0
    5.1742   52.5698   16.6372 H   0  0  0  0  0  0
    3.4978   53.0599   16.8433 H   0  0  0  0  0  0
    5.9124   54.7276   17.7431 H   0  0  0  0  0  0
    4.2452   55.1547   18.0188 H   0  0  0  0  0  0
    6.4758   54.8272   20.1858 H   0  0  0  0  0  0
    4.8450   55.2926   20.5999 H   0  0  0  0  0  0
    5.5859   53.8727   21.3614 H   0  0  0  0  0  0
    2.8549   53.4234   19.1698 H   0  0  0  0  0  0
    0.1516   51.2223   19.3870 H   0  0  0  0  0  0
    1.2732   52.3175   18.6436 H   0  0  0  0  0  0
    1.2091   50.3937   17.2122 H   0  0  0  0  0  0
    2.7048   50.2225   18.0819 H   0  0  0  0  0  0
    2.3030   47.7873   16.8130 H   0  0  0  0  0  0
    3.2963   47.6970   18.2745 H   0  0  0  0  0  0
    2.0323   46.4949   17.9907 H   0  0  0  0  0  0
    0.8117   52.9339   21.2018 H   0  0  0  0  0  0
    2.3589   52.6493   24.9659 H   0  0  0  0  0  0
    1.2719   53.9504   25.2799 H   0  0  0  0  0  0
    1.4985   54.5207   27.7959 H   0  0  0  0  0  0
    0.9301   54.7656   30.1311 H   0  0  0  0  0  0
   -0.3661   52.8979   31.2860 H   0  0  0  0  0  0
   -1.0603   50.9445   30.1018 H   0  0  0  0  0  0
   -2.4296   48.5129   26.0340 H   0  0  0  0  0  0
   -4.8742   48.6271   26.3054 H   0  0  0  0  0  0
   -6.1259   50.6284   25.5448 H   0  0  0  0  0  0
   -4.9278   52.5190   24.4971 H   0  0  0  0  0  0
   -0.8964   49.6276   27.6790 H   0  0  0  0  0  0
  1  2  1  0  0  0
  1 42  1  0  0  0
  1 43  1  0  0  0
  1 44  1  0  0  0
  2  3  1  0  0  0
  2 45  1  0  0  0
  2 46  1  0  0  0
  3  4  1  0  0  0
  3  5  1  0  0  0
  3  6  1  0  0  0
  5 47  1  0  0  0
  5 48  1  0  0  0
  5 49  1  0  0  0
  6  7  1  0  0  0
  6 50  1  0  0  0
  7  8  2  0  0  0
  7  9  1  0  0  0
  9 10  1  0  0  0
  9 11  1  0  0  0
  9 15  1  0  0  0
 11 12  1  0  0  0
 11 51  1  0  0  0
 11 52  1  0  0  0
 12 13  1  0  0  0
 12 53  1  0  0  0
 12 54  1  0  0  0
 13 14  1  0  0  0
 14 55  1  0  0  0
 14 56  1  0  0  0
 14 57  1  0  0  0
 15 16  1  0  0  0
 15 58  1  0  0  0
 16 17  2  0  0  0
 16 18  1  0  0  0
 18 19  1  0  0  0
 18 33  1  0  0  0
 18 20  1  0  0  0
 20 21  1  0  0  0
 20 59  1  0  0  0
 20 60  1  0  0  0
 21 29  1  0  0  0
 21 22  2  0  0  0
 22 27  1  0  0  0
 22 23  1  0  0  0
 23 24  2  0  0  0
 23 61  1  0  0  0
 24 25  1  0  0  0
 24 62  1  0  0  0
 25 26  2  0  0  0
 25 63  1  0  0  0
 26 27  1  0  0  0
 26 64  1  0  0  0
 27 28  2  0  0  0
 28 29  1  0  0  0
 28 69  1  0  0  0
 29 30  1  0  0  0
 29 31  1  0  0  0
 31 32  1  0  0  0
 31 37  1  0  0  0
 31 33  1  0  0  0
 33 34  1  0  0  0
 34 35  2  0  0  0
 34 36  1  0  0  0
 36 41  2  0  0  0
 36 37  1  0  0  0
 37 38  2  0  0  0
 38 39  1  0  0  0
 38 65  1  0  0  0
 39 40  2  0  0  0
 39 66  1  0  0  0
 40 41  1  0  0  0
 40 67  1  0  0  0
 41 68  1  0  0  0
M  CHG  1  28   1
M  END
> <i_i_glide_confnum>
77

> <i_i_glide_lignum>
3090

> <i_i_glide_posenum>
131

> <i_i_glide_rotatable_bonds>
10

> <i_m_Source_File_Index>
1919

> <b_m_subgroup_collapsed>
0

> <r_i_docking_score>
-4.27002

> <r_i_glide_ecoul>
-8.79749

> <r_i_glide_eff_state_penalty>
0

> <r_i_glide_einternal>
6.19848

> <r_i_glide_emodel>
-56.978

> <r_i_glide_energy>
-46.4403

> <r_i_glide_erotb>
0.56

> <r_i_glide_esite>
-0.14728

> <r_i_glide_evdw>
-37.6428

> <r_i_glide_gscore>
-4.27002

> <r_i_glide_hbond>
-0.2

> <r_i_glide_ligand_efficiency>
-0.118612

> <r_i_glide_ligand_efficiency_ln>
-0.931603

> <r_i_glide_ligand_efficiency_sa>
-0.391647

> <r_i_glide_lipo>
-0.979761

> <r_i_glide_metal>
0

> <r_i_glide_rewards>
-0.301216

> <s_i_glide_gridfile>
wee1_glide-grid

> <s_m_Source_File>
wee1_decoys_glide_SP.sdf

> <s_m_Source_Path>
/Users/zhangxujun/Desktop

> <s_m_entry_id>
2194

> <s_m_entry_name>
wee1_decoys_glide_SP.1919

> <s_m_subgroup_title>
wee1_decoys_glide_SP

> <s_m_subgroupid>
wee1_decoys_glide_SP


$$$$
