ZINC29794920_689
                    3D
 Schrodinger Suite 2024-2.
 51 55  0  0  1  0            999 V2000
   -0.1616   50.2637   26.1038 C   0  0  0  0  0  0
    0.2863   50.7717   24.8847 C   0  0  0  0  0  0
    0.9421   52.0091   24.8297 C   0  0  0  0  0  0
    1.1046   52.7413   26.0153 C   0  0  0  0  0  0
    0.6680   52.2315   27.2415 C   0  0  0  0  0  0
    0.0333   50.9868   27.2794 C   0  0  0  0  0  0
    0.9417   53.1599   28.7546 S   0  0  0  0  0  0
    0.7082   54.5807   28.4811 O   0  0  0  0  0  0
    0.2092   52.4804   29.8272 O   0  0  0  0  0  0
    2.6635   52.9546   29.1529 N   0  0  0  0  0  0
    3.7507   53.4644   28.4218 C   0  0  0  0  0  0
    3.6464   54.4924   27.4777 C   0  0  0  0  0  0
    4.7673   54.8966   26.7553 C   0  0  0  0  0  0
    6.0081   54.3254   27.0141 C   0  0  0  0  0  0
    6.1303   53.3314   27.9774 C   0  0  0  0  0  0
    5.0012   52.8968   28.6691 C   0  0  0  0  0  0
    7.0994   54.7458   26.3338 F   0  0  0  0  0  0
    1.4894   52.5113   23.5181 C   0  0  0  0  0  0
    0.8590   52.3302   22.4766 O   0  0  0  0  0  0
    2.7041   53.0953   23.6120 N   0  0  0  0  0  0
    3.6001   53.4949   22.6038 C   0  0  0  0  0  0
    3.3987   53.2981   21.2310 C   0  0  0  0  0  0
    4.3436   53.7546   20.3151 C   0  0  0  0  0  0
    5.5042   54.3996   20.7533 C   0  0  0  0  0  0
    5.7270   54.5422   22.1259 C   0  0  0  0  0  0
    4.7805   54.0963   23.0427 C   0  0  0  0  0  0
    6.5070   54.8963   19.7578 C   0  0  0  0  0  0
    6.7042   54.4066   18.4656 C   0  0  0  0  0  0
    7.7661   55.1253   17.9583 N   0  0  0  0  0  0
    8.5317   55.2143   16.8086 C   0  0  0  0  0  0
    9.5034   56.1884   16.9242 C   0  0  0  0  0  0
    9.4656   57.0075   18.4816 S   0  0  0  0  0  0
    8.1156   55.9958   18.9694 C   0  0  0  0  0  0
    7.3676   55.8620   20.0429 N   0  0  0  0  0  0
   -0.6533   49.3011   26.1492 H   0  0  0  0  0  0
    0.1420   50.1845   23.9878 H   0  0  0  0  0  0
    1.5702   53.7126   25.9834 H   0  0  0  0  0  0
   -0.3200   50.5688   28.2122 H   0  0  0  0  0  0
    2.8582   52.1938   29.7829 H   0  0  0  0  0  0
    2.7133   54.9939   27.2877 H   0  0  0  0  0  0
    4.6831   55.6827   26.0197 H   0  0  0  0  0  0
    7.0982   52.8954   28.1723 H   0  0  0  0  0  0
    5.1027   52.1061   29.3976 H   0  0  0  0  0  0
    3.0650   53.1912   24.5476 H   0  0  0  0  0  0
    2.5136   52.8204   20.8421 H   0  0  0  0  0  0
    4.1578   53.6139   19.2604 H   0  0  0  0  0  0
    6.6318   55.0098   22.4867 H   0  0  0  0  0  0
    4.9766   54.2267   24.0948 H   0  0  0  0  0  0
    6.2066   53.6201   17.9161 H   0  0  0  0  0  0
    8.3335   54.5654   15.9678 H   0  0  0  0  0  0
   10.2419   56.4750   16.1883 H   0  0  0  0  0  0
  1  6  2  0  0  0
  1  2  1  0  0  0
  1 35  1  0  0  0
  2  3  2  0  0  0
  2 36  1  0  0  0
  3  4  1  0  0  0
  3 18  1  0  0  0
  4  5  2  0  0  0
  4 37  1  0  0  0
  5  6  1  0  0  0
  5  7  1  0  0  0
  6 38  1  0  0  0
  7  8  2  0  0  0
  7  9  2  0  0  0
  7 10  1  0  0  0
 10 11  1  0  0  0
 10 39  1  0  0  0
 11 16  2  0  0  0
 11 12  1  0  0  0
 12 13  2  0  0  0
 12 40  1  0  0  0
 13 14  1  0  0  0
 13 41  1  0  0  0
 14 15  2  0  0  0
 14 17  1  0  0  0
 15 16  1  0  0  0
 15 42  1  0  0  0
 16 43  1  0  0  0
 18 19  2  0  0  0
 18 20  1  0  0  0
 20 21  1  0  0  0
 20 44  1  0  0  0
 21 26  2  0  0  0
 21 22  1  0  0  0
 22 23  2  0  0  0
 22 45  1  0  0  0
 23 24  1  0  0  0
 23 46  1  0  0  0
 24 25  2  0  0  0
 24 27  1  0  0  0
 25 26  1  0  0  0
 25 47  1  0  0  0
 26 48  1  0  0  0
 27 34  1  0  0  0
 27 28  2  0  0  0
 28 29  1  0  0  0
 28 49  1  0  0  0
 29 33  1  0  0  0
 29 30  1  0  0  0
 30 31  2  0  0  0
 30 50  1  0  0  0
 31 32  1  0  0  0
 31 51  1  0  0  0
 32 33  1  0  0  0
 33 34  2  0  0  0
M  END
> <i_i_glide_confnum>
96

> <i_i_glide_lignum>
690

> <i_i_glide_posenum>
181

> <i_i_glide_rotatable_bonds>
7

> <i_m_Source_File_Index>
2790

> <b_m_subgroup_collapsed>
0

> <r_i_docking_score>
-5.53367

> <r_i_glide_ecoul>
-3.31291

> <r_i_glide_eff_state_penalty>
0

> <r_i_glide_einternal>
5.47999

> <r_i_glide_emodel>
-65.2801

> <r_i_glide_energy>
-50.8027

> <r_i_glide_erotb>
0.587616

> <r_i_glide_esite>
-0.00620564

> <r_i_glide_evdw>
-47.4898

> <r_i_glide_gscore>
-5.53367

> <r_i_glide_hbond>
0

> <r_i_glide_ligand_efficiency>
-0.162755

> <r_i_glide_ligand_efficiency_ln>
-1.22254

> <r_i_glide_ligand_efficiency_sa>
-0.527263

> <r_i_glide_lipo>
-2.66134

> <r_i_glide_metal>
0

> <r_i_glide_rewards>
-0.582311

> <s_i_glide_gridfile>
wee1_glide-grid

> <s_m_Source_File>
wee1_decoys_glide_SP.sdf

> <s_m_Source_Path>
/Users/zhangxujun/Desktop

> <s_m_entry_id>
3065

> <s_m_entry_name>
wee1_decoys_glide_SP.2790

> <s_m_subgroup_title>
wee1_decoys_glide_SP

> <s_m_subgroupid>
wee1_decoys_glide_SP


$$$$
