ZINC06239275_3276
                    3D
 Schrodinger Suite 2024-2.
 50 53  0  0  1  0            999 V2000
    5.0046   54.3389   28.6696 C   0  0  0  0  0  0
    3.7752   53.6253   28.7565 O   0  0  0  0  0  0
    3.0495   53.3629   27.6064 C   0  0  0  0  0  0
    3.4756   53.7204   26.3136 C   0  0  0  0  0  0
    2.7082   53.4278   25.1723 C   0  0  0  0  0  0
    1.4685   52.8164   25.3600 C   0  0  0  0  0  0
    1.0625   52.3791   26.6206 C   0  0  0  0  0  0
    1.8389   52.6653   27.7496 C   0  0  0  0  0  0
    1.4311   52.1997   28.9807 O   0  0  0  0  0  0
    0.8743   53.1848   29.8426 C   0  0  0  0  0  0
   -0.0492   51.5801   26.7170 O   0  0  0  0  0  0
   -1.2791   52.2731   26.7990 C   0  0  0  0  0  0
    3.2480   53.6968   23.8150 C   0  0  0  0  0  0
    4.3244   54.3463   23.6009 N   0  0  0  0  0  0
    4.6154   54.4289   22.3684 N   0  0  0  0  0  0
    3.7460   53.8239   21.6974 C   0  0  0  0  0  0
    2.6022   53.2578   22.4953 C   0  0  1  0  0  0
    1.7106   53.8508   22.2899 H   0  0  0  0  0  0
    2.3924   51.7490   22.0571 C   0  0  2  0  0  0
    3.1891   51.1425   22.4812 H   0  0  0  0  0  0
    2.5773   51.5737   20.5366 C   0  0  0  0  0  0
    3.2554   52.5069   19.8287 C   0  0  0  0  0  0
    3.8561   53.6123   20.3466 O   0  0  0  0  0  0
    3.5044   52.4969   18.4842 N   0  0  0  0  0  0
    2.0522   50.4089   19.8944 C   0  0  0  0  0  0
    1.5916   49.4640   19.4108 N   0  0  0  0  0  0
    1.0852   51.1407   22.5727 C   0  0  0  0  0  0
    1.1137   50.0943   23.5021 C   0  0  0  0  0  0
   -0.0744   49.5776   24.0094 C   0  0  0  0  0  0
   -1.2923   50.1026   23.5823 C   0  0  0  0  0  0
   -1.3317   51.1311   22.6423 C   0  0  0  0  0  0
   -0.1437   51.6488   22.1352 C   0  0  0  0  0  0
   -2.9171   49.4168   24.2954 Br  0  0  0  0  0  0
    5.3596   54.5684   29.6741 H   0  0  0  0  0  0
    5.7709   53.7441   28.1720 H   0  0  0  0  0  0
    4.8893   55.2865   28.1453 H   0  0  0  0  0  0
    4.4341   54.2009   26.1854 H   0  0  0  0  0  0
    0.8147   52.6131   24.5320 H   0  0  0  0  0  0
    1.6456   53.8490   30.2311 H   0  0  0  0  0  0
    0.1153   53.7910   29.3488 H   0  0  0  0  0  0
    0.4017   52.6905   30.6924 H   0  0  0  0  0  0
   -2.0949   51.5546   26.8792 H   0  0  0  0  0  0
   -1.2958   52.8980   27.6867 H   0  0  0  0  0  0
   -1.4582   52.8904   25.9178 H   0  0  0  0  0  0
    3.4038   51.6158   17.9971 H   0  0  0  0  0  0
    4.2414   53.0834   18.1278 H   0  0  0  0  0  0
    2.0535   49.6951   23.8569 H   0  0  0  0  0  0
   -0.0486   48.7876   24.7470 H   0  0  0  0  0  0
   -2.2804   51.5270   22.3112 H   0  0  0  0  0  0
   -0.1708   52.4475   21.4089 H   0  0  0  0  0  0
  1  2  1  0  0  0
  1 34  1  0  0  0
  1 35  1  0  0  0
  1 36  1  0  0  0
  2  3  1  0  0  0
  3  8  2  0  0  0
  3  4  1  0  0  0
  4  5  2  0  0  0
  4 37  1  0  0  0
  5  6  1  0  0  0
  5 13  1  0  0  0
  6  7  2  0  0  0
  6 38  1  0  0  0
  7  8  1  0  0  0
  7 11  1  0  0  0
  8  9  1  0  0  0
  9 10  1  0  0  0
 10 39  1  0  0  0
 10 40  1  0  0  0
 10 41  1  0  0  0
 11 12  1  0  0  0
 12 42  1  0  0  0
 12 43  1  0  0  0
 12 44  1  0  0  0
 13 17  1  0  0  0
 13 14  2  0  0  0
 14 15  1  0  0  0
 15 16  2  0  0  0
 16 23  1  0  0  0
 16 17  1  0  0  0
 17 18  1  0  0  0
 17 19  1  0  0  0
 19 20  1  0  0  0
 19 21  1  0  0  0
 19 27  1  0  0  0
 21 22  2  0  0  0
 21 25  1  0  0  0
 22 23  1  0  0  0
 22 24  1  0  0  0
 24 45  1  0  0  0
 24 46  1  0  0  0
 25 26  3  0  0  0
 27 32  2  0  0  0
 27 28  1  0  0  0
 28 29  2  0  0  0
 28 47  1  0  0  0
 29 30  1  0  0  0
 29 48  1  0  0  0
 30 31  2  0  0  0
 30 33  1  0  0  0
 31 32  1  0  0  0
 31 49  1  0  0  0
 32 50  1  0  0  0
M  END
> <i_i_glide_confnum>
1

> <i_i_glide_lignum>
3277

> <i_i_glide_posenum>
86

> <i_i_glide_rotatable_bonds>
6

> <i_m_Source_File_Index>
531

> <b_m_subgroup_collapsed>
0

> <r_i_docking_score>
-4.27055

> <r_i_glide_ecoul>
-2.02916

> <r_i_glide_eff_state_penalty>
0

> <r_i_glide_einternal>
7.51461

> <r_i_glide_emodel>
-45.4668

> <r_i_glide_energy>
-38.2198

> <r_i_glide_erotb>
0.173805

> <r_i_glide_esite>
-0.115281

> <r_i_glide_evdw>
-36.1906

> <r_i_glide_gscore>
-4.27055

> <r_i_glide_hbond>
-0.00801294

> <r_i_glide_ligand_efficiency>
-0.13776

> <r_i_glide_ligand_efficiency_ln>
-0.963139

> <r_i_glide_ligand_efficiency_sa>
-0.432755

> <r_i_glide_lipo>
-1.69394

> <r_i_glide_metal>
0

> <r_i_glide_rewards>
-0.513215

> <s_i_glide_gridfile>
wee1_glide-grid

> <s_m_Source_File>
wee1_decoys_glide_SP.sdf

> <s_m_Source_Path>
/Users/zhangxujun/Desktop

> <s_m_entry_id>
806

> <s_m_entry_name>
wee1_decoys_glide_SP.531

> <s_m_subgroup_title>
wee1_decoys_glide_SP

> <s_m_subgroupid>
wee1_decoys_glide_SP


$$$$
