ZINC08708095_153
                    3D
 Schrodinger Suite 2024-2.
 49 51  0  0  1  0            999 V2000
   -3.5505   51.2292   23.8045 C   0  0  0  0  0  0
   -4.5574   52.0967   24.2194 C   0  0  0  0  0  0
   -4.3503   52.9252   25.3192 C   0  0  0  0  0  0
   -3.1534   52.8685   26.0258 C   0  0  0  0  0  0
   -2.1510   51.9906   25.6255 C   0  0  0  0  0  0
   -2.3400   51.1701   24.5039 C   0  0  0  0  0  0
   -1.2439   50.1932   24.0363 C   0  0  2  0  0  0
   -1.6401   49.5857   23.2204 H   0  0  0  0  0  0
   -0.8247   49.2524   25.1913 C   0  0  0  0  0  0
    0.3044   49.2967   25.6763 O   0  0  0  0  0  0
   -1.7550   48.4386   25.6817 N   0  0  0  0  0  0
    0.7114   49.9416   22.4046 C   0  0  0  0  0  0
    2.0044   50.5776   21.8608 C   0  0  0  0  0  0
    1.8577   51.9779   21.4395 N   0  0  0  0  0  0
    1.2218   52.8294   22.4484 C   0  0  0  0  0  0
   -0.1430   52.2753   22.8889 C   0  0  0  0  0  0
    2.7058   52.4967   20.4762 C   0  0  0  0  0  0
    3.7694   53.3042   20.8903 C   0  0  0  0  0  0
    4.6848   53.8196   19.9786 C   0  0  0  0  0  0
    4.5678   53.5058   18.6168 C   0  0  0  0  0  0
    3.5044   52.6924   18.2026 C   0  0  0  0  0  0
    2.5653   52.1751   19.1076 C   0  0  0  0  0  0
    1.4021   51.4126   18.5717 N   0  3  0  0  0  0
    1.5053   50.8967   17.4637 O   0  0  0  0  0  0
    0.3527   51.3685   19.2092 O   0  5  0  0  0  0
    5.5783   54.0326   17.5926 C   0  0  0  0  0  0
    5.5497   55.3657   17.5805 F   0  0  0  0  0  0
    6.8079   53.6324   17.9181 F   0  0  0  0  0  0
    5.3236   53.6080   16.3534 F   0  0  0  0  0  0
    5.9407   54.8472   20.5838 Cl  0  0  0  0  0  0
   -5.5788   54.0349   25.8083 Cl  0  0  0  0  0  0
   -3.7229   50.5997   22.9431 H   0  0  0  0  0  0
   -5.4943   52.1354   23.6817 H   0  0  0  0  0  0
   -3.0021   53.5057   26.8817 H   0  0  0  0  0  0
   -1.2273   51.9513   26.1862 H   0  0  0  0  0  0
   -1.5534   48.0368   26.6016 H   0  0  0  0  0  0
   -2.7095   48.4717   25.3636 H   0  0  0  0  0  0
    0.9530   49.0084   22.9183 H   0  0  0  0  0  0
   -0.0171   49.7649   21.6103 H   0  0  0  0  0  0
    2.7222   50.6135   22.6811 H   0  0  0  0  0  0
    2.4481   49.9621   21.0753 H   0  0  0  0  0  0
    1.1248   53.8522   22.0817 H   0  0  0  0  0  0
    1.8960   52.8635   23.3065 H   0  0  0  0  0  0
   -0.8698   52.2158   22.0761 H   0  0  0  0  0  0
   -0.5253   52.9025   23.6936 H   0  0  0  0  0  0
    3.8861   53.5429   21.9369 H   0  0  0  0  0  0
    3.4085   52.4443   17.1540 H   0  0  0  0  0  0
    0.0503   50.8569   23.4653 N   0  3  0  0  0  0
    0.6915   50.9431   24.2452 H   0  0  0  0  0  0
  1  6  2  0  0  0
  1  2  1  0  0  0
  1 32  1  0  0  0
  2  3  2  0  0  0
  2 33  1  0  0  0
  3  4  1  0  0  0
  3 31  1  0  0  0
  4  5  2  0  0  0
  4 34  1  0  0  0
  5  6  1  0  0  0
  5 35  1  0  0  0
  6  7  1  0  0  0
  7  8  1  0  0  0
  7  9  1  0  0  0
  7 48  1  0  0  0
  9 10  2  0  0  0
  9 11  1  0  0  0
 11 36  1  0  0  0
 11 37  1  0  0  0
 12 13  1  0  0  0
 12 38  1  0  0  0
 12 39  1  0  0  0
 12 48  1  0  0  0
 13 14  1  0  0  0
 13 40  1  0  0  0
 13 41  1  0  0  0
 14 15  1  0  0  0
 14 17  1  0  0  0
 15 16  1  0  0  0
 15 42  1  0  0  0
 15 43  1  0  0  0
 16 44  1  0  0  0
 16 45  1  0  0  0
 16 48  1  0  0  0
 17 22  2  0  0  0
 17 18  1  0  0  0
 18 19  2  0  0  0
 18 46  1  0  0  0
 19 20  1  0  0  0
 19 30  1  0  0  0
 20 21  2  0  0  0
 20 26  1  0  0  0
 21 22  1  0  0  0
 21 47  1  0  0  0
 22 23  1  0  0  0
 23 24  2  0  0  0
 23 25  1  0  0  0
 26 27  1  0  0  0
 26 28  1  0  0  0
 26 29  1  0  0  0
 48 49  1  0  0  0
M  CHG  3  23   1  25  -1  48   1
M  END
> <i_i_glide_confnum>
8

> <i_i_glide_lignum>
154

> <i_i_glide_posenum>
347

> <i_i_glide_rotatable_bonds>
6

> <i_m_Source_File_Index>
5756

> <b_m_subgroup_collapsed>
0

> <r_i_docking_score>
-2.98186

> <r_i_glide_ecoul>
-3.53234

> <r_i_glide_eff_state_penalty>
0

> <r_i_glide_einternal>
7.34545

> <r_i_glide_emodel>
-33.0594

> <r_i_glide_energy>
-29.8842

> <r_i_glide_erotb>
0.265754

> <r_i_glide_esite>
-0.301615

> <r_i_glide_evdw>
-26.3519

> <r_i_glide_gscore>
-2.98186

> <r_i_glide_hbond>
-0.150201

> <r_i_glide_ligand_efficiency>
-0.0961889

> <r_i_glide_ligand_efficiency_ln>
-0.6725

> <r_i_glide_ligand_efficiency_sa>
-0.302166

> <r_i_glide_lipo>
-0.755102

> <r_i_glide_metal>
0

> <r_i_glide_rewards>
-0.193248

> <s_i_glide_gridfile>
wee1_glide-grid

> <s_m_Source_File>
wee1_decoys_glide_SP.sdf

> <s_m_Source_Path>
/Users/zhangxujun/Desktop

> <s_m_entry_id>
6031

> <s_m_entry_name>
wee1_decoys_glide_SP.5756

> <s_m_subgroup_title>
wee1_decoys_glide_SP

> <s_m_subgroupid>
wee1_decoys_glide_SP


$$$$
