ZINC28310976_5494
                    3D
 Schrodinger Suite 2024-2.
 56 58  0  0  1  0            999 V2000
    7.9431   56.2398   19.4755 C   0  0  0  0  0  0
    7.5621   56.0705   20.8390 O   0  0  0  0  0  0
    6.4555   55.2960   21.1278 C   0  0  0  0  0  0
    6.3070   54.8958   22.4540 C   0  0  0  0  0  0
    5.2364   54.0950   22.8378 C   0  0  0  0  0  0
    4.2900   53.6857   21.8973 C   0  0  0  0  0  0
    4.4230   54.0956   20.5627 C   0  0  0  0  0  0
    5.5012   54.8943   20.1809 C   0  0  0  0  0  0
    3.2556   52.8711   22.3949 N   0  0  0  0  0  0
    2.3078   52.1412   21.7453 C   0  0  0  0  0  0
    2.2077   52.1322   20.5182 O   0  0  0  0  0  0
    1.4108   51.3466   22.6065 C   0  0  0  0  0  0
    0.7229   50.2681   22.1160 C   0  0  0  0  0  0
    0.7260   49.6063   20.7916 C   0  0  0  0  0  0
    1.9204   49.1752   20.2130 C   0  0  0  0  0  0
    1.9194   48.5175   18.9867 C   0  0  0  0  0  0
    0.7286   48.2670   18.3128 C   0  0  0  0  0  0
   -0.4762   48.6877   18.8966 C   0  0  0  0  0  0
   -0.4910   49.3538   20.1366 C   0  0  0  0  0  0
   -1.6536   49.7827   20.7567 O   0  0  0  0  0  0
   -2.9132   49.5418   20.1350 C   0  0  0  0  0  0
    0.8263   47.6035   17.1050 O   0  0  0  0  0  0
   -0.3456   47.4106   16.3224 C   0  0  0  0  0  0
    1.2855   51.7810   23.9187 N   0  0  0  0  0  0
    0.3320   51.5282   24.8501 C   0  0  0  0  0  0
   -0.7030   50.8901   24.6434 O   0  0  0  0  0  0
    0.6052   52.0935   26.2273 C   0  0  0  0  0  0
   -0.0772   51.5646   27.3326 C   0  0  0  0  0  0
    0.1038   52.1039   28.6013 C   0  0  0  0  0  0
    0.9675   53.1823   28.7709 C   0  0  0  0  0  0
    1.6785   53.6998   27.6931 C   0  0  0  0  0  0
    1.5041   53.1574   26.4243 C   0  0  0  0  0  0
    1.1603   53.9820   30.4841 Br  0  0  0  0  0  0
    8.9065   56.7482   19.4342 H   0  0  0  0  0  0
    8.0605   55.2813   18.9661 H   0  0  0  0  0  0
    7.2209   56.8481   18.9285 H   0  0  0  0  0  0
    7.0426   55.1986   23.1870 H   0  0  0  0  0  0
    5.1581   53.7897   23.8724 H   0  0  0  0  0  0
    3.7077   53.8165   19.8045 H   0  0  0  0  0  0
    5.5775   55.1928   19.1473 H   0  0  0  0  0  0
    3.3107   52.7450   23.3908 H   0  0  0  0  0  0
    0.0721   49.7297   22.7852 H   0  0  0  0  0  0
    2.8649   49.3551   20.7089 H   0  0  0  0  0  0
    2.8571   48.2134   18.5414 H   0  0  0  0  0  0
   -1.4035   48.4904   18.3865 H   0  0  0  0  0  0
   -3.7069   49.9469   20.7622 H   0  0  0  0  0  0
   -2.9766   50.0322   19.1625 H   0  0  0  0  0  0
   -3.1010   48.4739   20.0157 H   0  0  0  0  0  0
   -0.0762   46.9120   15.3929 H   0  0  0  0  0  0
   -1.0745   46.7828   16.8378 H   0  0  0  0  0  0
   -0.8129   48.3623   16.0620 H   0  0  0  0  0  0
    2.0269   52.3739   24.2498 H   0  0  0  0  0  0
   -0.7615   50.7311   27.2203 H   0  0  0  0  0  0
   -0.4364   51.6945   29.4457 H   0  0  0  0  0  0
    2.3460   54.5349   27.8393 H   0  0  0  0  0  0
    2.0488   53.6069   25.6082 H   0  0  0  0  0  0
  1  2  1  0  0  0
  1 34  1  0  0  0
  1 35  1  0  0  0
  1 36  1  0  0  0
  2  3  1  0  0  0
  3  8  2  0  0  0
  3  4  1  0  0  0
  4  5  2  0  0  0
  4 37  1  0  0  0
  5  6  1  0  0  0
  5 38  1  0  0  0
  6  7  2  0  0  0
  6  9  1  0  0  0
  7  8  1  0  0  0
  7 39  1  0  0  0
  8 40  1  0  0  0
  9 10  1  0  0  0
  9 41  1  0  0  0
 10 11  2  0  0  0
 10 12  1  0  0  0
 12 13  2  0  0  0
 12 24  1  0  0  0
 13 14  1  0  0  0
 13 42  1  0  0  0
 14 19  2  0  0  0
 14 15  1  0  0  0
 15 16  2  0  0  0
 15 43  1  0  0  0
 16 17  1  0  0  0
 16 44  1  0  0  0
 17 18  2  0  0  0
 17 22  1  0  0  0
 18 19  1  0  0  0
 18 45  1  0  0  0
 19 20  1  0  0  0
 20 21  1  0  0  0
 21 46  1  0  0  0
 21 47  1  0  0  0
 21 48  1  0  0  0
 22 23  1  0  0  0
 23 49  1  0  0  0
 23 50  1  0  0  0
 23 51  1  0  0  0
 24 25  1  0  0  0
 24 52  1  0  0  0
 25 26  2  0  0  0
 25 27  1  0  0  0
 27 32  2  0  0  0
 27 28  1  0  0  0
 28 29  2  0  0  0
 28 53  1  0  0  0
 29 30  1  0  0  0
 29 54  1  0  0  0
 30 31  2  0  0  0
 30 33  1  0  0  0
 31 32  1  0  0  0
 31 55  1  0  0  0
 32 56  1  0  0  0
M  END
> <i_i_glide_confnum>
148

> <i_i_glide_lignum>
5495

> <i_i_glide_posenum>
388

> <i_i_glide_rotatable_bonds>
10

> <i_m_Source_File_Index>
4931

> <b_m_subgroup_collapsed>
0

> <r_i_docking_score>
-3.85864

> <r_i_glide_ecoul>
-1.37559

> <r_i_glide_eff_state_penalty>
0

> <r_i_glide_einternal>
1.49609

> <r_i_glide_emodel>
-51.9217

> <r_i_glide_energy>
-39.8557

> <r_i_glide_erotb>
0.470204

> <r_i_glide_esite>
0

> <r_i_glide_evdw>
-38.4802

> <r_i_glide_gscore>
-3.85864

> <r_i_glide_hbond>
-0.0983677

> <r_i_glide_ligand_efficiency>
-0.116929

> <r_i_glide_ligand_efficiency_ln>
-0.858142

> <r_i_glide_ligand_efficiency_sa>
-0.375052

> <r_i_glide_lipo>
-1.96276

> <r_i_glide_metal>
0

> <r_i_glide_rewards>
-0.137372

> <s_i_glide_gridfile>
wee1_glide-grid

> <s_m_Source_File>
wee1_decoys_glide_SP.sdf

> <s_m_Source_Path>
/Users/zhangxujun/Desktop

> <s_m_entry_id>
5206

> <s_m_entry_name>
wee1_decoys_glide_SP.4931

> <s_m_subgroup_title>
wee1_decoys_glide_SP

> <s_m_subgroupid>
wee1_decoys_glide_SP


$$$$
