ZINC49068567_1107
                    3D
 Schrodinger Suite 2024-2.
 79 82  0  0  1  0            999 V2000
   -0.0794   52.4958   30.4817 C   0  0  0  0  0  0
    0.4840   51.9077   29.1738 C   0  0  0  0  0  0
   -0.5725   51.8191   28.0678 C   0  0  0  0  0  0
    1.5337   52.7347   28.6879 O   0  0  0  0  0  0
    2.8189   52.6002   29.1028 C   0  0  0  0  0  0
    3.1927   51.6967   29.8580 O   0  0  0  0  0  0
    3.6440   53.6105   28.5714 N   0  0  0  0  0  0
    3.1052   54.7246   27.7507 C   0  0  0  0  0  0
    3.8716   54.7535   26.4114 C   0  0  0  0  0  0
    5.3987   54.8089   26.6070 C   0  0  0  0  0  0
    5.7765   53.5341   27.3736 C   0  0  0  0  0  0
    5.1054   53.4972   28.7617 C   0  0  0  0  0  0
    6.1459   54.9722   25.2662 C   0  0  0  0  0  0
    5.6610   54.0351   24.3051 O   0  0  0  0  0  0
    5.7620   54.3533   22.9695 C   0  0  0  0  0  0
    6.7512   55.1949   22.4409 C   0  0  0  0  0  0
    6.7868   55.4573   21.0712 C   0  0  0  0  0  0
    5.8210   54.8931   20.2206 C   0  0  0  0  0  0
    4.8793   54.0965   20.7782 N   0  3  0  0  0  0
    4.8249   53.8006   22.0929 C   0  0  0  0  0  0
    5.7971   55.1377   18.8040 N   0  0  0  0  0  0
    5.2124   54.1467   17.8580 C   0  0  0  0  0  0
    6.3139   53.1806   17.3544 C   0  0  0  0  0  0
    7.4286   53.9592   16.7698 N   0  0  0  0  0  0
    8.0012   54.9554   17.7002 C   0  0  0  0  0  0
    6.8670   55.9158   18.1244 C   0  0  0  0  0  0
    8.5274   53.1215   15.6654 S   0  0  0  0  0  0
    7.7034   52.5742   14.5831 O   0  0  0  0  0  0
    9.6426   54.0268   15.3701 O   0  0  0  0  0  0
    9.1792   51.6339   16.6456 C   0  0  0  0  0  0
   10.5127   51.0817   16.0714 C   0  0  0  0  0  0
   10.8946   49.6997   16.6712 C   0  0  0  0  0  0
   12.3264   49.3046   16.2408 C   0  0  0  0  0  0
   12.4641   49.2709   14.7027 C   0  0  0  0  0  0
   11.9640   50.5773   14.0519 C   0  0  0  0  0  0
   10.5418   50.9266   14.5297 C   0  0  0  0  0  0
   -0.8916   51.8779   30.8683 H   0  0  0  0  0  0
   -0.4700   53.5026   30.3332 H   0  0  0  0  0  0
    0.6854   52.5422   31.2565 H   0  0  0  0  0  0
    0.8561   50.8974   29.3460 H   0  0  0  0  0  0
   -1.4349   51.2364   28.3934 H   0  0  0  0  0  0
   -0.9220   52.8065   27.7677 H   0  0  0  0  0  0
   -0.1668   51.3273   27.1821 H   0  0  0  0  0  0
    2.0474   54.6133   27.5105 H   0  0  0  0  0  0
    3.1968   55.6413   28.3301 H   0  0  0  0  0  0
    3.5869   53.9012   25.7906 H   0  0  0  0  0  0
    3.5487   55.6168   25.8298 H   0  0  0  0  0  0
    5.6546   55.6617   27.2376 H   0  0  0  0  0  0
    6.8600   53.4789   27.4935 H   0  0  0  0  0  0
    5.5225   52.6464   26.7971 H   0  0  0  0  0  0
    5.4325   54.3153   29.4036 H   0  0  0  0  0  0
    5.3843   52.5639   29.2540 H   0  0  0  0  0  0
    5.9933   55.9984   24.9225 H   0  0  0  0  0  0
    7.2206   54.8424   25.4042 H   0  0  0  0  0  0
    7.5016   55.6399   23.0762 H   0  0  0  0  0  0
    7.5838   56.0797   20.6951 H   0  0  0  0  0  0
    4.0209   53.1483   22.4021 H   0  0  0  0  0  0
    4.4012   53.5909   18.3295 H   0  0  0  0  0  0
    4.7774   54.7055   17.0258 H   0  0  0  0  0  0
    5.9014   52.5096   16.5997 H   0  0  0  0  0  0
    6.6799   52.6152   18.2146 H   0  0  0  0  0  0
    8.7928   55.5145   17.1997 H   0  0  0  0  0  0
    8.3860   54.4433   18.5833 H   0  0  0  0  0  0
    6.4176   56.3891   17.2485 H   0  0  0  0  0  0
    7.2242   56.7329   18.7491 H   0  0  0  0  0  0
    9.3089   51.9504   17.6807 H   0  0  0  0  0  0
    8.3804   50.8963   16.6264 H   0  0  0  0  0  0
   11.2899   51.8010   16.3409 H   0  0  0  0  0  0
   10.8587   49.7426   17.7598 H   0  0  0  0  0  0
   10.1664   48.9270   16.4073 H   0  0  0  0  0  0
   13.0419   50.0166   16.6566 H   0  0  0  0  0  0
   12.6010   48.3340   16.6531 H   0  0  0  0  0  0
   13.4999   49.0851   14.4161 H   0  0  0  0  0  0
   11.8925   48.4315   14.3029 H   0  0  0  0  0  0
   12.6450   51.3919   14.2978 H   0  0  0  0  0  0
   11.9821   50.4958   12.9644 H   0  0  0  0  0  0
    9.7986   50.1995   14.1960 H   0  0  0  0  0  0
   10.2568   51.8534   14.0338 H   0  0  0  0  0  0
    4.1759   53.7048   20.1675 H   0  0  0  0  0  0
  1  2  1  0  0  0
  1 37  1  0  0  0
  1 38  1  0  0  0
  1 39  1  0  0  0
  2  3  1  0  0  0
  2  4  1  0  0  0
  2 40  1  0  0  0
  3 41  1  0  0  0
  3 42  1  0  0  0
  3 43  1  0  0  0
  4  5  1  0  0  0
  5  6  2  0  0  0
  5  7  1  0  0  0
  7 12  1  0  0  0
  7  8  1  0  0  0
  8  9  1  0  0  0
  8 44  1  0  0  0
  8 45  1  0  0  0
  9 10  1  0  0  0
  9 46  1  0  0  0
  9 47  1  0  0  0
 10 11  1  0  0  0
 10 13  1  0  0  0
 10 48  1  0  0  0
 11 12  1  0  0  0
 11 49  1  0  0  0
 11 50  1  0  0  0
 12 51  1  0  0  0
 12 52  1  0  0  0
 13 14  1  0  0  0
 13 53  1  0  0  0
 13 54  1  0  0  0
 14 15  1  0  0  0
 15 20  2  0  0  0
 15 16  1  0  0  0
 16 17  2  0  0  0
 16 55  1  0  0  0
 17 18  1  0  0  0
 17 56  1  0  0  0
 18 19  2  0  0  0
 18 21  1  0  0  0
 19 20  1  0  0  0
 19 79  1  0  0  0
 20 57  1  0  0  0
 21 26  1  0  0  0
 21 22  1  0  0  0
 22 23  1  0  0  0
 22 58  1  0  0  0
 22 59  1  0  0  0
 23 24  1  0  0  0
 23 60  1  0  0  0
 23 61  1  0  0  0
 24 25  1  0  0  0
 24 27  1  0  0  0
 25 26  1  0  0  0
 25 62  1  0  0  0
 25 63  1  0  0  0
 26 64  1  0  0  0
 26 65  1  0  0  0
 27 28  2  0  0  0
 27 29  2  0  0  0
 27 30  1  0  0  0
 30 31  1  0  0  0
 30 66  1  0  0  0
 30 67  1  0  0  0
 31 36  1  0  0  0
 31 32  1  0  0  0
 31 68  1  0  0  0
 32 33  1  0  0  0
 32 69  1  0  0  0
 32 70  1  0  0  0
 33 34  1  0  0  0
 33 71  1  0  0  0
 33 72  1  0  0  0
 34 35  1  0  0  0
 34 73  1  0  0  0
 34 74  1  0  0  0
 35 36  1  0  0  0
 35 75  1  0  0  0
 35 76  1  0  0  0
 36 77  1  0  0  0
 36 78  1  0  0  0
M  CHG  1  19   1
M  END
> <i_i_glide_confnum>
201

> <i_i_glide_lignum>
1108

> <i_i_glide_posenum>
269

> <i_i_glide_rotatable_bonds>
10

> <i_m_Source_File_Index>
3649

> <b_m_subgroup_collapsed>
0

> <r_i_docking_score>
-6.58173

> <r_i_glide_ecoul>
-5.14722

> <r_i_glide_eff_state_penalty>
0

> <r_i_glide_einternal>
13.536

> <r_i_glide_emodel>
-74.1579

> <r_i_glide_energy>
-56.3065

> <r_i_glide_erotb>
0.67505

> <r_i_glide_esite>
-0.000515231

> <r_i_glide_evdw>
-51.1593

> <r_i_glide_gscore>
-6.58173

> <r_i_glide_hbond>
-0.32

> <r_i_glide_ligand_efficiency>
-0.182826

> <r_i_glide_ligand_efficiency_ln>
-1.43596

> <r_i_glide_ligand_efficiency_sa>
-0.603677

> <r_i_glide_lipo>
-3.01672

> <r_i_glide_metal>
0

> <r_i_glide_rewards>
-0.589496

> <s_i_glide_gridfile>
wee1_glide-grid

> <s_m_Source_File>
wee1_decoys_glide_SP.sdf

> <s_m_Source_Path>
/Users/zhangxujun/Desktop

> <s_m_entry_id>
3924

> <s_m_entry_name>
wee1_decoys_glide_SP.3649

> <s_m_subgroup_title>
wee1_decoys_glide_SP

> <s_m_subgroupid>
wee1_decoys_glide_SP


$$$$
