ZINC36073363_5697
                    3D
 Schrodinger Suite 2024-2.
 77 80  0  0  1  0            999 V2000
    4.7467   60.7384   13.7199 C   0  0  0  0  0  0
    5.5033   59.4021   13.7672 C   0  0  0  0  0  0
    5.4097   58.7515   15.0333 O   0  0  0  0  0  0
    4.2957   58.0681   15.4040 C   0  0  0  0  0  0
    3.2706   57.9781   14.7226 O   0  0  0  0  0  0
    4.4465   57.2954   16.7401 C   0  0  1  0  0  0
    4.0926   58.0050   17.4880 H   0  0  0  0  0  0
    3.4907   56.0615   16.7824 C   0  0  0  0  0  0
    3.8114   55.0790   17.9257 C   0  0  0  0  0  0
    5.3186   54.7862   17.9971 C   0  0  0  0  0  0
    5.9598   56.0854   18.2621 N   0  0  0  0  0  0
    5.9367   56.9922   17.0976 C   0  0  0  0  0  0
    6.4844   56.4962   19.4555 C   0  0  0  0  0  0
    7.0303   57.5907   19.5997 O   0  0  0  0  0  0
    6.4224   55.6172   20.6055 C   0  0  0  0  0  0
    7.3538   55.5952   21.6421 C   0  0  0  0  0  0
    6.9491   54.6862   22.5563 O   0  0  0  0  0  0
    5.7743   54.2447   22.0541 C   0  0  0  0  0  0
    5.4142   54.8222   20.9353 N   0  0  0  0  0  0
    5.0310   53.1712   22.8101 C   0  0  0  0  0  0
    3.6138   53.6958   23.1634 N   0  3  2  0  0  0
    3.6530   54.6466   24.3867 C   0  0  0  0  0  0
    3.9857   54.0966   25.7751 C   0  0  0  0  0  0
    2.9514   53.6974   26.6321 C   0  0  0  0  0  0
    3.2199   53.2849   27.9493 C   0  0  0  0  0  0
    4.5388   53.2968   28.4012 C   0  0  0  0  0  0
    5.5766   53.6964   27.5635 C   0  0  0  0  0  0
    5.3082   54.0977   26.2550 C   0  0  0  0  0  0
    6.3595   54.4651   25.4532 O   0  0  0  0  0  0
    6.7058   55.8389   25.5229 C   0  0  0  0  0  0
    2.2672   52.8532   28.8515 O   0  0  0  0  0  0
    0.9098   52.7462   28.4337 C   0  0  0  0  0  0
    2.4639   52.6510   23.1740 C   0  0  1  0  0  0
    2.6415   52.0881   24.0925 H   0  0  0  0  0  0
    1.1228   53.4029   23.2480 C   0  0  0  0  0  0
    2.4604   51.7154   21.9629 C   0  0  0  0  0  0
    2.3025   50.3387   22.1513 C   0  0  0  0  0  0
    2.3043   49.4822   21.0539 C   0  0  0  0  0  0
    2.4785   49.9989   19.7716 C   0  0  0  0  0  0
    2.6331   51.3677   19.5745 C   0  0  0  0  0  0
    2.6104   52.2285   20.6675 C   0  0  0  0  0  0
    4.8661   61.2220   12.7507 H   0  0  0  0  0  0
    5.1180   61.4252   14.4813 H   0  0  0  0  0  0
    3.6796   60.5985   13.8936 H   0  0  0  0  0  0
    5.1528   58.7384   12.9734 H   0  0  0  0  0  0
    6.5592   59.5866   13.5685 H   0  0  0  0  0  0
    2.4484   56.3820   16.8466 H   0  0  0  0  0  0
    3.5829   55.4980   15.8502 H   0  0  0  0  0  0
    3.4702   55.4769   18.8809 H   0  0  0  0  0  0
    3.2604   54.1500   17.7729 H   0  0  0  0  0  0
    5.6299   53.9766   18.6553 H   0  0  0  0  0  0
    5.6817   54.4375   17.0288 H   0  0  0  0  0  0
    6.4176   56.4674   16.2705 H   0  0  0  0  0  0
    6.5274   57.8977   17.2528 H   0  0  0  0  0  0
    8.2933   56.0962   21.8335 H   0  0  0  0  0  0
    4.9386   52.2713   22.2025 H   0  0  0  0  0  0
    5.5102   52.8969   23.7443 H   0  0  0  0  0  0
    4.4529   55.2969   24.0821 H   0  0  0  0  0  0
    2.7229   55.2137   24.3801 H   0  0  0  0  0  0
    1.9354   53.7180   26.2717 H   0  0  0  0  0  0
    4.7562   52.9782   29.4086 H   0  0  0  0  0  0
    6.5941   53.6878   27.9259 H   0  0  0  0  0  0
    7.5026   56.0490   24.8096 H   0  0  0  0  0  0
    5.8717   56.4971   25.2820 H   0  0  0  0  0  0
    7.0699   56.0966   26.5137 H   0  0  0  0  0  0
    0.3078   52.3647   29.2582 H   0  0  0  0  0  0
    0.4998   53.7159   28.1465 H   0  0  0  0  0  0
    0.8006   52.0493   27.6011 H   0  0  0  0  0  0
    0.2788   52.7329   23.0778 H   0  0  0  0  0  0
    0.9524   53.8775   24.2123 H   0  0  0  0  0  0
    1.1043   54.1761   22.4797 H   0  0  0  0  0  0
    2.1842   49.9245   23.1433 H   0  0  0  0  0  0
    2.2010   48.4170   21.1975 H   0  0  0  0  0  0
    2.5157   49.3357   18.9179 H   0  0  0  0  0  0
    2.7818   51.7500   18.5744 H   0  0  0  0  0  0
    2.7218   53.2904   20.5007 H   0  0  0  0  0  0
    3.3753   54.2752   22.3699 H   0  0  0  0  0  0
  1  2  1  0  0  0
  1 42  1  0  0  0
  1 43  1  0  0  0
  1 44  1  0  0  0
  2  3  1  0  0  0
  2 45  1  0  0  0
  2 46  1  0  0  0
  3  4  1  0  0  0
  4  5  2  0  0  0
  4  6  1  0  0  0
  6  7  1  0  0  0
  6 12  1  0  0  0
  6  8  1  0  0  0
  8  9  1  0  0  0
  8 47  1  0  0  0
  8 48  1  0  0  0
  9 10  1  0  0  0
  9 49  1  0  0  0
  9 50  1  0  0  0
 10 11  1  0  0  0
 10 51  1  0  0  0
 10 52  1  0  0  0
 11 12  1  0  0  0
 11 13  1  0  0  0
 12 53  1  0  0  0
 12 54  1  0  0  0
 13 14  2  0  0  0
 13 15  1  0  0  0
 15 19  1  0  0  0
 15 16  2  0  0  0
 16 17  1  0  0  0
 16 55  1  0  0  0
 17 18  1  0  0  0
 18 19  2  0  0  0
 18 20  1  0  0  0
 20 21  1  0  0  0
 20 56  1  0  0  0
 20 57  1  0  0  0
 21 22  1  0  0  0
 21 33  1  0  0  0
 21 77  1  0  0  0
 22 23  1  0  0  0
 22 58  1  0  0  0
 22 59  1  0  0  0
 23 28  2  0  0  0
 23 24  1  0  0  0
 24 25  2  0  0  0
 24 60  1  0  0  0
 25 26  1  0  0  0
 25 31  1  0  0  0
 26 27  2  0  0  0
 26 61  1  0  0  0
 27 28  1  0  0  0
 27 62  1  0  0  0
 28 29  1  0  0  0
 29 30  1  0  0  0
 30 63  1  0  0  0
 30 64  1  0  0  0
 30 65  1  0  0  0
 31 32  1  0  0  0
 32 66  1  0  0  0
 32 67  1  0  0  0
 32 68  1  0  0  0
 33 34  1  0  0  0
 33 35  1  0  0  0
 33 36  1  0  0  0
 35 69  1  0  0  0
 35 70  1  0  0  0
 35 71  1  0  0  0
 36 41  2  0  0  0
 36 37  1  0  0  0
 37 38  2  0  0  0
 37 72  1  0  0  0
 38 39  1  0  0  0
 38 73  1  0  0  0
 39 40  2  0  0  0
 39 74  1  0  0  0
 40 41  1  0  0  0
 40 75  1  0  0  0
 41 76  1  0  0  0
M  CHG  1  21   1
M  END
> <i_i_glide_confnum>
362

> <i_i_glide_lignum>
5698

> <i_i_glide_posenum>
16

> <i_i_glide_rotatable_bonds>
13

> <i_m_Source_File_Index>
4867

> <b_m_subgroup_collapsed>
0

> <r_i_docking_score>
-5.87492

> <r_i_glide_ecoul>
-3.7003

> <r_i_glide_eff_state_penalty>
0

> <r_i_glide_einternal>
10.6174

> <r_i_glide_emodel>
-62.4582

> <r_i_glide_energy>
-49.3692

> <r_i_glide_erotb>
0.645406

> <r_i_glide_esite>
-0.0291741

> <r_i_glide_evdw>
-45.6689

> <r_i_glide_gscore>
-5.87492

> <r_i_glide_hbond>
-0.274094

> <r_i_glide_ligand_efficiency>
-0.150639

> <r_i_glide_ligand_efficiency_ln>
-1.25975

> <r_i_glide_ligand_efficiency_sa>
-0.510848

> <r_i_glide_lipo>
-3.29349

> <r_i_glide_metal>
0

> <r_i_glide_rewards>
-0.0850734

> <s_i_glide_gridfile>
wee1_glide-grid

> <s_m_Source_File>
wee1_decoys_glide_SP.sdf

> <s_m_Source_Path>
/Users/zhangxujun/Desktop

> <s_m_entry_id>
5142

> <s_m_entry_name>
wee1_decoys_glide_SP.4867

> <s_m_subgroup_title>
wee1_decoys_glide_SP

> <s_m_subgroupid>
wee1_decoys_glide_SP


$$$$
