ZINC64713758_1212
                    3D
 Schrodinger Suite 2024-2.
 49 52  0  0  1  0            999 V2000
    4.0274   52.1556   29.9460 C   0  0  0  0  0  0
    3.7698   53.4675   29.4632 O   0  0  0  0  0  0
    4.4300   53.7961   28.3042 C   0  0  0  0  0  0
    5.7883   54.1133   28.3522 C   0  0  0  0  0  0
    6.4650   54.5066   27.2054 C   0  0  0  0  0  0
    5.7907   54.6086   25.9940 C   0  0  0  0  0  0
    4.4359   54.2960   25.9307 C   0  0  0  0  0  0
    3.7508   53.8843   27.0815 C   0  0  0  0  0  0
    2.0076   53.5031   27.0116 S   0  0  0  0  0  0
    1.8622   52.0940   27.3788 O   0  0  0  0  0  0
    1.3452   54.5316   27.8175 O   0  0  0  0  0  0
    1.5044   53.6966   25.3285 N   0  0  0  0  0  0
    1.8729   52.7244   24.2763 C   0  0  0  0  0  0
    0.6470   52.0667   23.6024 C   0  0  1  0  0  0
    0.0402   52.8951   23.2353 H   0  0  0  0  0  0
    1.0880   51.2679   22.3897 C   0  0  0  0  0  0
    1.9154   50.1456   22.3165 C   0  0  0  0  0  0
    2.1043   49.6501   21.0243 C   0  0  0  0  0  0
    1.4489   50.4016   20.0685 C   0  0  0  0  0  0
    0.5666   51.7064   20.7826 S   0  0  0  0  0  0
   -0.2515   51.3016   24.5694 C   0  0  0  0  0  0
   -1.5236   51.5343   24.9456 C   0  0  0  0  0  0
   -2.4677   52.5927   24.5552 C   0  0  0  0  0  0
   -3.7016   52.6521   25.0956 C   0  0  0  0  0  0
   -4.0678   51.6391   26.0767 C   0  0  0  0  0  0
   -3.2132   50.6460   26.4378 C   0  0  0  0  0  0
   -1.9355   50.5719   25.8703 C   0  0  0  0  0  0
   -0.9859   49.6967   26.0816 N   0  3  0  0  0  0
    0.2011   50.0379   25.2836 C   0  0  0  0  0  0
    6.7045   55.2095   24.4380 Br  0  0  0  0  0  0
    3.5554   52.0347   30.9210 H   0  0  0  0  0  0
    3.6127   51.3979   29.2814 H   0  0  0  0  0  0
    5.0926   51.9597   30.0702 H   0  0  0  0  0  0
    6.3303   54.0971   29.2811 H   0  0  0  0  0  0
    7.5044   54.7633   27.2806 H   0  0  0  0  0  0
    3.9357   54.3985   24.9812 H   0  0  0  0  0  0
    1.1682   54.6179   25.0375 H   0  0  0  0  0  0
    2.4554   53.2620   23.5257 H   0  0  0  0  0  0
    2.5484   51.9859   24.6989 H   0  0  0  0  0  0
    2.3691   49.6969   23.1873 H   0  0  0  0  0  0
    2.7042   48.7833   20.7920 H   0  0  0  0  0  0
    1.4455   50.2542   18.9974 H   0  0  0  0  0  0
   -2.2026   53.3412   23.8232 H   0  0  0  0  0  0
   -4.4012   53.4237   24.8076 H   0  0  0  0  0  0
   -5.0469   51.6796   26.5330 H   0  0  0  0  0  0
   -3.5287   49.9197   27.1753 H   0  0  0  0  0  0
    0.4145   49.1968   24.6225 H   0  0  0  0  0  0
    1.0296   50.1874   25.9748 H   0  0  0  0  0  0
   -1.0454   48.9253   26.7575 H   0  0  0  0  0  0
  1  2  1  0  0  0
  1 31  1  0  0  0
  1 32  1  0  0  0
  1 33  1  0  0  0
  2  3  1  0  0  0
  3  8  2  0  0  0
  3  4  1  0  0  0
  4  5  2  0  0  0
  4 34  1  0  0  0
  5  6  1  0  0  0
  5 35  1  0  0  0
  6  7  2  0  0  0
  6 30  1  0  0  0
  7  8  1  0  0  0
  7 36  1  0  0  0
  8  9  1  0  0  0
  9 10  2  0  0  0
  9 11  2  0  0  0
  9 12  1  0  0  0
 12 13  1  0  0  0
 12 37  1  0  0  0
 13 14  1  0  0  0
 13 38  1  0  0  0
 13 39  1  0  0  0
 14 15  1  0  0  0
 14 16  1  0  0  0
 14 21  1  0  0  0
 16 20  1  0  0  0
 16 17  2  0  0  0
 17 18  1  0  0  0
 17 40  1  0  0  0
 18 19  2  0  0  0
 18 41  1  0  0  0
 19 20  1  0  0  0
 19 42  1  0  0  0
 21 29  1  0  0  0
 21 22  2  0  0  0
 22 27  1  0  0  0
 22 23  1  0  0  0
 23 24  2  0  0  0
 23 43  1  0  0  0
 24 25  1  0  0  0
 24 44  1  0  0  0
 25 26  2  0  0  0
 25 45  1  0  0  0
 26 27  1  0  0  0
 26 46  1  0  0  0
 27 28  2  0  0  0
 28 29  1  0  0  0
 28 49  1  0  0  0
 29 47  1  0  0  0
 29 48  1  0  0  0
M  CHG  1  28   1
M  END
> <i_i_glide_confnum>
109

> <i_i_glide_lignum>
1213

> <i_i_glide_posenum>
324

> <i_i_glide_rotatable_bonds>
7

> <i_m_Source_File_Index>
3561

> <b_m_subgroup_collapsed>
0

> <r_i_docking_score>
-2.94584

> <r_i_glide_ecoul>
-2.64398

> <r_i_glide_eff_state_penalty>
0

> <r_i_glide_einternal>
11.3398

> <r_i_glide_emodel>
-40.4497

> <r_i_glide_energy>
-43.7717

> <r_i_glide_erotb>
0.503888

> <r_i_glide_esite>
-0.1

> <r_i_glide_evdw>
-41.1277

> <r_i_glide_gscore>
-2.94584

> <r_i_glide_hbond>
-0.199436

> <r_i_glide_ligand_efficiency>
-0.101581

> <r_i_glide_ligand_efficiency_ln>
-0.674523

> <r_i_glide_ligand_efficiency_sa>
-0.312088

> <r_i_glide_lipo>
-2.85419

> <r_i_glide_metal>
0

> <r_i_glide_rewards>
2.15688

> <s_i_glide_gridfile>
wee1_glide-grid

> <s_m_Source_File>
wee1_decoys_glide_SP.sdf

> <s_m_Source_Path>
/Users/zhangxujun/Desktop

> <s_m_entry_id>
3836

> <s_m_entry_name>
wee1_decoys_glide_SP.3561

> <s_m_subgroup_title>
wee1_decoys_glide_SP

> <s_m_subgroupid>
wee1_decoys_glide_SP


$$$$
