ZINC57313078_3548
                    3D
 Schrodinger Suite 2024-2.
 49 51  0  0  1  0            999 V2000
    5.0070   56.4402   13.1151 C   0  0  0  0  0  0
    5.9228   56.6017   14.3444 C   0  0  0  0  0  0
    5.3394   56.0572   15.6582 C   0  0  0  0  0  0
    4.1635   55.6968   15.7117 O   0  0  0  0  0  0
    6.2069   56.0349   16.6913 N   0  0  0  0  0  0
    5.9868   55.6100   17.9918 C   0  0  0  0  0  0
    6.9414   55.7404   18.8672 N   0  0  0  0  0  0
    6.5469   55.3155   20.0956 C   0  0  0  0  0  0
    7.3491   55.3446   21.2404 C   0  0  0  0  0  0
    6.8058   54.8965   22.4444 C   0  0  0  0  0  0
    5.4706   54.4635   22.5482 C   0  0  0  0  0  0
    4.6758   54.3959   21.3964 C   0  0  0  0  0  0
    5.2211   54.8230   20.1776 C   0  0  0  0  0  0
    4.4867   54.8987   18.5829 S   0  0  0  0  0  0
    4.8087   54.0980   23.7505 N   0  0  0  0  0  0
    4.9820   54.4099   25.0765 C   0  0  0  0  0  0
    6.3043   55.2523   25.6835 S   0  0  0  0  0  0
    3.9046   53.9742   25.8178 N   0  0  0  0  0  0
    3.6014   54.0150   27.1499 C   0  0  0  0  0  0
    4.3398   54.4956   28.0125 O   0  0  0  0  0  0
    2.2696   53.3915   27.5576 C   0  0  0  0  0  0
    1.5809   52.5407   26.6718 C   0  0  0  0  0  0
    0.4293   51.8641   27.0587 C   0  0  0  0  0  0
   -0.0719   52.0212   28.3434 C   0  0  0  0  0  0
    0.5612   52.8807   29.2400 C   0  0  0  0  0  0
    1.7158   53.5844   28.8498 C   0  0  0  0  0  0
    2.2883   54.4336   29.7718 O   0  0  0  0  0  0
    1.8556   55.7884   29.6654 C   0  0  0  0  0  0
   -0.0032   53.0171   30.6466 C   0  0  0  0  0  0
   -0.4375   50.6932   25.8360 Br  0  0  0  0  0  0
    5.4947   56.8429   12.2272 H   0  0  0  0  0  0
    4.0697   56.9874   13.2337 H   0  0  0  0  0  0
    4.7872   55.3912   12.9077 H   0  0  0  0  0  0
    6.8753   56.1073   14.1477 H   0  0  0  0  0  0
    6.1456   57.6604   14.4872 H   0  0  0  0  0  0
    7.1300   56.3987   16.5195 H   0  0  0  0  0  0
    8.3723   55.6915   21.1928 H   0  0  0  0  0  0
    7.4848   54.8942   23.2814 H   0  0  0  0  0  0
    3.6497   54.0566   21.4345 H   0  0  0  0  0  0
    3.9616   53.5874   23.5562 H   0  0  0  0  0  0
    3.1807   53.5406   25.2697 H   0  0  0  0  0  0
    1.9417   52.3481   25.6731 H   0  0  0  0  0  0
   -0.9511   51.4665   28.6403 H   0  0  0  0  0  0
    2.3041   56.3794   30.4633 H   0  0  0  0  0  0
    2.1464   56.2357   28.7135 H   0  0  0  0  0  0
    0.7738   55.8740   29.7720 H   0  0  0  0  0  0
   -0.7118   52.2206   30.8818 H   0  0  0  0  0  0
    0.7961   52.9546   31.3847 H   0  0  0  0  0  0
   -0.4954   53.9793   30.7725 H   0  0  0  0  0  0
  1  2  1  0  0  0
  1 31  1  0  0  0
  1 32  1  0  0  0
  1 33  1  0  0  0
  2  3  1  0  0  0
  2 34  1  0  0  0
  2 35  1  0  0  0
  3  4  2  0  0  0
  3  5  1  0  0  0
  5  6  1  0  0  0
  5 36  1  0  0  0
  6 14  1  0  0  0
  6  7  2  0  0  0
  7  8  1  0  0  0
  8 13  2  0  0  0
  8  9  1  0  0  0
  9 10  2  0  0  0
  9 37  1  0  0  0
 10 11  1  0  0  0
 10 38  1  0  0  0
 11 12  2  0  0  0
 11 15  1  0  0  0
 12 13  1  0  0  0
 12 39  1  0  0  0
 13 14  1  0  0  0
 15 16  1  0  0  0
 15 40  1  0  0  0
 16 17  2  0  0  0
 16 18  1  0  0  0
 18 19  1  0  0  0
 18 41  1  0  0  0
 19 20  2  0  0  0
 19 21  1  0  0  0
 21 26  2  0  0  0
 21 22  1  0  0  0
 22 23  2  0  0  0
 22 42  1  0  0  0
 23 24  1  0  0  0
 23 30  1  0  0  0
 24 25  2  0  0  0
 24 43  1  0  0  0
 25 26  1  0  0  0
 25 29  1  0  0  0
 26 27  1  0  0  0
 27 28  1  0  0  0
 28 44  1  0  0  0
 28 45  1  0  0  0
 28 46  1  0  0  0
 29 47  1  0  0  0
 29 48  1  0  0  0
 29 49  1  0  0  0
M  END
> <i_i_glide_confnum>
49

> <i_i_glide_lignum>
3549

> <i_i_glide_posenum>
181

> <i_i_glide_rotatable_bonds>
9

> <i_m_Source_File_Index>
4976

> <b_m_subgroup_collapsed>
0

> <r_i_docking_score>
-5.39373

> <r_i_glide_ecoul>
-4.32145

> <r_i_glide_eff_state_penalty>
0

> <r_i_glide_einternal>
7.9275

> <r_i_glide_emodel>
-60.9884

> <r_i_glide_energy>
-48.1085

> <r_i_glide_erotb>
0.556414

> <r_i_glide_esite>
0

> <r_i_glide_evdw>
-43.7871

> <r_i_glide_gscore>
-5.39373

> <r_i_glide_hbond>
-0.214686

> <r_i_glide_ligand_efficiency>
-0.179791

> <r_i_glide_ligand_efficiency_ln>
-1.22552

> <r_i_glide_ligand_efficiency_sa>
-0.558653

> <r_i_glide_lipo>
-1.83845

> <r_i_glide_metal>
0

> <r_i_glide_rewards>
-1.05944

> <s_i_glide_gridfile>
wee1_glide-grid

> <s_m_Source_File>
wee1_decoys_glide_SP.sdf

> <s_m_Source_Path>
/Users/zhangxujun/Desktop

> <s_m_entry_id>
5251

> <s_m_entry_name>
wee1_decoys_glide_SP.4976

> <s_m_subgroup_title>
wee1_decoys_glide_SP

> <s_m_subgroupid>
wee1_decoys_glide_SP


$$$$
