ZINC20106914_679
                    3D
 Schrodinger Suite 2024-2.
 73 78  0  0  1  0            999 V2000
    0.4282   52.7996   30.7726 C   0  0  0  0  0  0
    0.5158   52.5435   29.2792 C   0  0  0  0  0  0
    1.5896   53.0536   28.5485 C   0  0  0  0  0  0
    1.6722   52.8264   27.1759 C   0  0  0  0  0  0
    0.6666   52.1074   26.5273 C   0  0  0  0  0  0
   -0.4113   51.5930   27.2609 C   0  0  0  0  0  0
   -0.4846   51.8101   28.6345 C   0  0  0  0  0  0
    0.8168   51.8724   25.1504 N   0  0  0  0  0  0
   -0.1459   51.9051   24.2072 C   0  0  0  0  0  0
   -1.3091   52.2429   24.4284 O   0  0  0  0  0  0
    0.2545   51.4991   22.7588 C   0  0  2  0  0  0
   -0.6872   51.4098   22.2165 H   0  0  0  0  0  0
    0.9967   50.1283   22.7348 C   0  0  1  0  0  0
    0.7376   49.4042   23.5106 H   0  0  0  0  0  0
    1.0946   49.5673   21.3188 C   0  0  0  0  0  0
    1.9980   50.3294   20.6800 C   0  0  0  0  0  0
    2.3564   51.4108   21.6876 C   0  0  2  0  0  0
    1.2591   52.4163   21.9769 C   0  0  2  0  0  0
    0.8075   52.7945   21.0595 H   0  0  0  0  0  0
    1.9921   53.5861   22.6652 C   0  0  0  0  0  0
    1.4454   54.4965   23.2864 O   0  0  0  0  0  0
    3.3219   53.4031   22.4536 N   0  0  0  0  0  0
    3.6513   52.2166   21.6376 C   0  0  2  0  0  0
    4.4556   51.6345   22.0826 H   0  0  0  0  0  0
    4.1509   52.5637   20.2123 C   0  0  0  0  0  0
    5.3594   52.4955   19.9977 O   0  0  0  0  0  0
    3.2680   52.9010   19.2500 N   0  0  0  0  0  0
    3.6213   53.1034   17.8347 C   0  0  0  0  0  0
    2.3827   53.0083   16.9102 C   0  0  0  0  0  0
    1.3948   54.1800   17.0996 C   0  0  0  0  0  0
    2.0916   55.5502   16.9458 C   0  0  0  0  0  0
    3.3749   55.6621   17.7935 C   0  0  0  0  0  0
    4.3155   54.4619   17.5579 C   0  0  0  0  0  0
    4.3228   54.2851   23.0925 C   0  0  0  0  0  0
    4.2910   54.2721   24.6502 C   0  0  0  0  0  0
    5.3943   55.0776   25.3562 C   0  0  0  0  0  0
    6.7891   54.7991   24.7868 C   0  0  0  0  0  0
    6.8351   55.0243   23.2694 C   0  0  0  0  0  0
    5.7680   54.2054   22.5248 C   0  0  0  0  0  0
    2.3047   50.6383   22.8742 O   0  0  0  0  0  0
   -0.6001   52.7337   31.1290 H   0  0  0  0  0  0
    0.7747   53.8059   31.0111 H   0  0  0  0  0  0
    1.0375   52.0869   31.3286 H   0  0  0  0  0  0
    2.3687   53.6151   29.0436 H   0  0  0  0  0  0
    2.5198   53.2095   26.6315 H   0  0  0  0  0  0
   -1.1764   51.0055   26.7773 H   0  0  0  0  0  0
   -1.3105   51.3903   29.1929 H   0  0  0  0  0  0
    1.7603   51.7426   24.8172 H   0  0  0  0  0  0
    0.5399   48.7187   20.9461 H   0  0  0  0  0  0
    2.3564   50.2720   19.6614 H   0  0  0  0  0  0
    2.3431   53.1988   19.5243 H   0  0  0  0  0  0
    4.2975   52.2922   17.5467 H   0  0  0  0  0  0
    2.7142   52.9836   15.8710 H   0  0  0  0  0  0
    1.8749   52.0586   17.0813 H   0  0  0  0  0  0
    0.5786   54.0966   16.3817 H   0  0  0  0  0  0
    0.9350   54.1043   18.0815 H   0  0  0  0  0  0
    2.3440   55.7097   15.8966 H   0  0  0  0  0  0
    1.4011   56.3514   17.2124 H   0  0  0  0  0  0
    3.8916   56.5978   17.5726 H   0  0  0  0  0  0
    3.1067   55.7053   18.8478 H   0  0  0  0  0  0
    5.2081   54.5621   18.1771 H   0  0  0  0  0  0
    4.6781   54.4806   16.5285 H   0  0  0  0  0  0
    3.9895   55.2873   22.8357 H   0  0  0  0  0  0
    3.3284   54.6312   25.0171 H   0  0  0  0  0  0
    4.4117   53.2499   24.9913 H   0  0  0  0  0  0
    5.1786   56.1395   25.2770 H   0  0  0  0  0  0
    5.3802   54.8565   26.4252 H   0  0  0  0  0  0
    7.5059   55.4546   25.2789 H   0  0  0  0  0  0
    7.0913   53.7759   25.0140 H   0  0  0  0  0  0
    6.7048   56.0857   23.0542 H   0  0  0  0  0  0
    7.8191   54.7522   22.8784 H   0  0  0  0  0  0
    6.1010   53.1672   22.5699 H   0  0  0  0  0  0
    5.7775   54.5257   21.4823 H   0  0  0  0  0  0
  1  2  1  0  0  0
  1 41  1  0  0  0
  1 42  1  0  0  0
  1 43  1  0  0  0
  2  7  2  0  0  0
  2  3  1  0  0  0
  3  4  2  0  0  0
  3 44  1  0  0  0
  4  5  1  0  0  0
  4 45  1  0  0  0
  5  6  2  0  0  0
  5  8  1  0  0  0
  6  7  1  0  0  0
  6 46  1  0  0  0
  7 47  1  0  0  0
  8  9  1  0  0  0
  8 48  1  0  0  0
  9 10  2  0  0  0
  9 11  1  0  0  0
 11 12  1  0  0  0
 11 18  1  0  0  0
 11 13  1  0  0  0
 13 14  1  0  0  0
 13 40  1  0  0  0
 13 15  1  0  0  0
 15 16  2  0  0  0
 15 49  1  0  0  0
 16 17  1  0  0  0
 16 50  1  0  0  0
 17 23  1  0  0  0
 17 18  1  0  0  0
 17 40  1  0  0  0
 18 19  1  0  0  0
 18 20  1  0  0  0
 20 21  2  0  0  0
 20 22  1  0  0  0
 22 23  1  0  0  0
 22 34  1  0  0  0
 23 24  1  0  0  0
 23 25  1  0  0  0
 25 26  2  0  0  0
 25 27  1  0  0  0
 27 28  1  0  0  0
 27 51  1  0  0  0
 28 33  1  0  0  0
 28 29  1  0  0  0
 28 52  1  0  0  0
 29 30  1  0  0  0
 29 53  1  0  0  0
 29 54  1  0  0  0
 30 31  1  0  0  0
 30 55  1  0  0  0
 30 56  1  0  0  0
 31 32  1  0  0  0
 31 57  1  0  0  0
 31 58  1  0  0  0
 32 33  1  0  0  0
 32 59  1  0  0  0
 32 60  1  0  0  0
 33 61  1  0  0  0
 33 62  1  0  0  0
 34 39  1  0  0  0
 34 35  1  0  0  0
 34 63  1  0  0  0
 35 36  1  0  0  0
 35 64  1  0  0  0
 35 65  1  0  0  0
 36 37  1  0  0  0
 36 66  1  0  0  0
 36 67  1  0  0  0
 37 38  1  0  0  0
 37 68  1  0  0  0
 37 69  1  0  0  0
 38 39  1  0  0  0
 38 70  1  0  0  0
 38 71  1  0  0  0
 39 72  1  0  0  0
 39 73  1  0  0  0
M  END
> <i_i_glide_confnum>
5

> <i_i_glide_lignum>
680

> <i_i_glide_posenum>
234

> <i_i_glide_rotatable_bonds>
7

> <i_m_Source_File_Index>
2923

> <b_m_subgroup_collapsed>
0

> <r_i_docking_score>
-4.55427

> <r_i_glide_ecoul>
-3.15932

> <r_i_glide_eff_state_penalty>
0

> <r_i_glide_einternal>
15.6706

> <r_i_glide_emodel>
-47.723

> <r_i_glide_energy>
-44.3798

> <r_i_glide_erotb>
0.589643

> <r_i_glide_esite>
-0.0518171

> <r_i_glide_evdw>
-41.2205

> <r_i_glide_gscore>
-4.55427

> <r_i_glide_hbond>
-0.0630415

> <r_i_glide_ligand_efficiency>
-0.126507

> <r_i_glide_ligand_efficiency_ln>
-0.993618

> <r_i_glide_ligand_efficiency_sa>
-0.417718

> <r_i_glide_lipo>
-2.20662

> <r_i_glide_metal>
0

> <r_i_glide_rewards>
-0.287504

> <s_i_glide_gridfile>
wee1_glide-grid

> <s_m_Source_File>
wee1_decoys_glide_SP.sdf

> <s_m_Source_Path>
/Users/zhangxujun/Desktop

> <s_m_entry_id>
3198

> <s_m_entry_name>
wee1_decoys_glide_SP.2923

> <s_m_subgroup_title>
wee1_decoys_glide_SP

> <s_m_subgroupid>
wee1_decoys_glide_SP


$$$$
