ZINC17089212_2605
                    3D
 Schrodinger Suite 2024-2.
 52 54  0  0  1  0            999 V2000
    4.8642   52.1290   20.5963 C   0  0  0  0  0  0
    4.9365   53.2954   21.6017 C   0  0  0  0  0  0
    5.0897   54.6431   20.8796 C   0  0  0  0  0  0
    3.7585   53.3033   22.5679 C   0  0  0  0  0  0
    2.4821   52.7560   22.4297 C   0  0  0  0  0  0
    1.6396   52.8343   23.5640 C   0  0  0  0  0  0
    2.3343   53.4516   24.6233 C   0  0  0  0  0  0
    3.8633   54.0963   24.1146 S   0  0  0  0  0  0
    2.0133   53.6986   25.9489 N   0  0  0  0  0  0
    1.4145   52.8566   26.8164 C   0  0  0  0  0  0
    1.1046   51.6977   26.5360 O   0  0  0  0  0  0
    0.9986   53.4651   28.1860 C   0  0  1  0  0  0
    0.1167   54.0367   27.9016 H   0  0  0  0  0  0
    0.5397   52.3925   29.2168 C   0  0  0  0  0  0
    0.2052   53.0519   30.5511 C   0  0  0  0  0  0
    0.5316   54.3183   30.8818 C   0  0  0  0  0  0
    1.3542   55.2609   30.0026 C   0  0  0  0  0  0
    2.0016   54.5037   28.8028 C   0  0  1  0  0  0
    2.2900   55.2779   28.0905 H   0  0  0  0  0  0
    3.3636   53.8766   29.2042 C   0  0  0  0  0  0
    3.5184   53.4735   30.3807 O   0  0  0  0  0  0
    0.2375   52.4356   23.5654 C   0  0  0  0  0  0
   -0.5550   52.9017   24.3824 O   0  0  0  0  0  0
   -0.0988   51.5703   22.5813 N   0  0  0  0  0  0
   -1.3464   50.9936   22.2745 C   0  0  0  0  0  0
   -2.5045   51.1214   23.0608 C   0  0  0  0  0  0
   -3.6853   50.4944   22.6711 C   0  0  0  0  0  0
   -3.7165   49.7379   21.5014 C   0  0  0  0  0  0
   -2.5746   49.6033   20.7157 C   0  0  0  0  0  0
   -1.3917   50.2286   21.1031 C   0  0  0  0  0  0
    4.8045   51.1675   21.1077 H   0  0  0  0  0  0
    3.9968   52.2118   19.9405 H   0  0  0  0  0  0
    5.7432   52.1019   19.9517 H   0  0  0  0  0  0
    5.8435   53.1394   22.1864 H   0  0  0  0  0  0
    5.2864   55.4495   21.5862 H   0  0  0  0  0  0
    5.9176   54.6210   20.1685 H   0  0  0  0  0  0
    4.1866   54.8927   20.3201 H   0  0  0  0  0  0
    2.1809   52.3031   21.4981 H   0  0  0  0  0  0
    2.5070   54.4669   26.3761 H   0  0  0  0  0  0
    1.3313   51.6613   29.3934 H   0  0  0  0  0  0
   -0.3103   51.8238   28.8385 H   0  0  0  0  0  0
   -0.3464   52.4736   31.2813 H   0  0  0  0  0  0
    0.2203   54.6714   31.8541 H   0  0  0  0  0  0
    0.7044   56.0497   29.6315 H   0  0  0  0  0  0
    2.1060   55.7779   30.6001 H   0  0  0  0  0  0
    0.6575   51.2779   21.9812 H   0  0  0  0  0  0
   -2.5156   51.6834   23.9830 H   0  0  0  0  0  0
   -4.5726   50.5872   23.2800 H   0  0  0  0  0  0
   -4.6331   49.2488   21.2056 H   0  0  0  0  0  0
   -2.6056   49.0112   19.8117 H   0  0  0  0  0  0
   -0.5117   50.1116   20.4867 H   0  0  0  0  0  0
    4.2038   53.7462   28.2864 O   0  5  0  0  0  0
  1  2  1  0  0  0
  1 31  1  0  0  0
  1 32  1  0  0  0
  1 33  1  0  0  0
  2  3  1  0  0  0
  2  4  1  0  0  0
  2 34  1  0  0  0
  3 35  1  0  0  0
  3 36  1  0  0  0
  3 37  1  0  0  0
  4  8  1  0  0  0
  4  5  2  0  0  0
  5  6  1  0  0  0
  5 38  1  0  0  0
  6  7  2  0  0  0
  6 22  1  0  0  0
  7  8  1  0  0  0
  7  9  1  0  0  0
  9 10  1  0  0  0
  9 39  1  0  0  0
 10 11  2  0  0  0
 10 12  1  0  0  0
 12 13  1  0  0  0
 12 18  1  0  0  0
 12 14  1  0  0  0
 14 15  1  0  0  0
 14 40  1  0  0  0
 14 41  1  0  0  0
 15 16  2  0  0  0
 15 42  1  0  0  0
 16 17  1  0  0  0
 16 43  1  0  0  0
 17 18  1  0  0  0
 17 44  1  0  0  0
 17 45  1  0  0  0
 18 19  1  0  0  0
 18 20  1  0  0  0
 20 21  2  0  0  0
 20 52  1  0  0  0
 22 23  2  0  0  0
 22 24  1  0  0  0
 24 25  1  0  0  0
 24 46  1  0  0  0
 25 30  2  0  0  0
 25 26  1  0  0  0
 26 27  2  0  0  0
 26 47  1  0  0  0
 27 28  1  0  0  0
 27 48  1  0  0  0
 28 29  2  0  0  0
 28 49  1  0  0  0
 29 30  1  0  0  0
 29 50  1  0  0  0
 30 51  1  0  0  0
M  CHG  1  52  -1
M  END
> <i_i_glide_confnum>
42

> <i_i_glide_lignum>
2606

> <i_i_glide_posenum>
326

> <i_i_glide_rotatable_bonds>
8

> <i_m_Source_File_Index>
3687

> <b_m_subgroup_collapsed>
0

> <r_i_docking_score>
-5.33887

> <r_i_glide_ecoul>
-4.25306

> <r_i_glide_eff_state_penalty>
0

> <r_i_glide_einternal>
4.78204

> <r_i_glide_emodel>
-55.6298

> <r_i_glide_energy>
-40.5423

> <r_i_glide_erotb>
0.698411

> <r_i_glide_esite>
0

> <r_i_glide_evdw>
-36.2892

> <r_i_glide_gscore>
-5.33887

> <r_i_glide_hbond>
-0.16

> <r_i_glide_ligand_efficiency>
-0.184099

> <r_i_glide_ligand_efficiency_ln>
-1.22247

> <r_i_glide_ligand_efficiency_sa>
-0.565611

> <r_i_glide_lipo>
-2.26401

> <r_i_glide_metal>
0

> <r_i_glide_rewards>
-1.16086

> <s_i_glide_gridfile>
wee1_glide-grid

> <s_m_Source_File>
wee1_decoys_glide_SP.sdf

> <s_m_Source_Path>
/Users/zhangxujun/Desktop

> <s_m_entry_id>
3962

> <s_m_entry_name>
wee1_decoys_glide_SP.3687

> <s_m_subgroup_title>
wee1_decoys_glide_SP

> <s_m_subgroupid>
wee1_decoys_glide_SP


$$$$
