ZINC39665456_1284
                    3D
 Schrodinger Suite 2024-2.
 69 72  0  0  1  0            999 V2000
    1.8280   50.2174   14.8871 C   0  0  0  0  0  0
    0.8100   50.1797   16.0110 C   0  0  0  0  0  0
   -0.4064   50.8535   15.8823 C   0  0  0  0  0  0
   -1.3292   50.8193   16.9237 C   0  0  0  0  0  0
   -1.0382   50.1108   18.0932 C   0  0  0  0  0  0
    0.1840   49.4466   18.2225 C   0  0  0  0  0  0
    1.1041   49.4782   17.1798 C   0  0  0  0  0  0
   -2.0357   50.1020   19.2438 C   0  0  0  0  0  0
   -1.7704   51.2632   20.2208 C   0  0  0  0  0  0
   -2.0957   52.3944   19.8566 O   0  0  0  0  0  0
   -1.2081   51.0291   21.4330 N   0  0  0  0  0  0
   -0.9437   52.1052   22.3919 C   0  0  0  0  0  0
   -0.1516   51.4168   23.5295 C   0  0  2  0  0  0
    0.9190   51.5400   23.3433 H   0  0  0  0  0  0
   -0.5405   49.9089   23.4334 C   0  0  0  0  0  0
   -0.7337   49.7326   21.9122 C   0  0  0  0  0  0
   -1.8955   49.4777   24.0950 C   0  0  0  0  0  0
   -1.8684   49.3192   25.6365 C   0  0  0  0  0  0
   -0.6445   48.4968   26.0817 N   0  3  0  0  0  0
    0.7046   48.8786   25.4460 C   0  0  0  0  0  0
    0.5253   48.9028   23.9242 C   0  0  0  0  0  0
   -0.4962   52.0948   24.8745 C   0  0  0  0  0  0
   -1.6281   52.5216   25.1010 O   0  0  0  0  0  0
    0.5031   52.1889   25.7679 N   0  0  0  0  0  0
    0.3252   52.5395   27.1801 C   0  0  0  0  0  0
    1.6301   52.9771   27.8824 C   0  0  2  0  0  0
    2.2523   52.0850   27.9807 H   0  0  0  0  0  0
    1.3385   53.5739   29.2734 C   0  0  0  0  0  0
    2.2893   53.9507   27.0666 O   0  0  0  0  0  0
    3.6679   54.0549   27.0788 C   0  0  0  0  0  0
    4.2461   54.7425   26.0118 C   0  0  0  0  0  0
    5.6283   54.8972   25.9302 C   0  0  0  0  0  0
    6.4352   54.3765   26.9367 C   0  0  0  0  0  0
    5.8767   53.6958   28.0137 C   0  0  0  0  0  0
    4.4977   53.5240   28.0815 C   0  0  0  0  0  0
    1.5494   50.9141   14.0940 H   0  0  0  0  0  0
    2.7947   50.5345   15.2805 H   0  0  0  0  0  0
    1.9643   49.2215   14.4621 H   0  0  0  0  0  0
   -0.6338   51.4070   14.9833 H   0  0  0  0  0  0
   -2.2639   51.3491   16.8229 H   0  0  0  0  0  0
    0.4249   48.9085   19.1273 H   0  0  0  0  0  0
    2.0494   48.9637   17.2845 H   0  0  0  0  0  0
   -3.0480   50.2193   18.8545 H   0  0  0  0  0  0
   -2.0260   49.1279   19.7269 H   0  0  0  0  0  0
   -0.3434   52.8966   21.9395 H   0  0  0  0  0  0
   -1.9260   52.4499   22.7190 H   0  0  0  0  0  0
   -1.3348   48.8571   21.6706 H   0  0  0  0  0  0
    0.2418   49.5704   21.4502 H   0  0  0  0  0  0
   -2.6983   50.1550   23.7984 H   0  0  0  0  0  0
   -2.2008   48.5082   23.6982 H   0  0  0  0  0  0
   -1.8135   50.2468   26.2023 H   0  0  0  0  0  0
   -2.7381   48.7780   26.0129 H   0  0  0  0  0  0
   -0.6568   48.4966   27.1107 H   0  0  0  0  0  0
    1.0381   49.8018   25.9006 H   0  0  0  0  0  0
    1.4071   48.0969   25.7170 H   0  0  0  0  0  0
    0.2568   47.8949   23.6155 H   0  0  0  0  0  0
    1.4865   49.1019   23.4466 H   0  0  0  0  0  0
    1.4439   51.9767   25.4736 H   0  0  0  0  0  0
   -0.4459   53.2972   27.2831 H   0  0  0  0  0  0
   -0.0763   51.6680   27.7021 H   0  0  0  0  0  0
    0.8392   52.8489   29.9169 H   0  0  0  0  0  0
    2.2451   53.8919   29.7826 H   0  0  0  0  0  0
    0.6940   54.4507   29.1982 H   0  0  0  0  0  0
    3.6149   55.1519   25.2370 H   0  0  0  0  0  0
    6.0671   55.4219   25.0943 H   0  0  0  0  0  0
    7.5053   54.4955   26.8873 H   0  0  0  0  0  0
    6.5147   53.2982   28.7890 H   0  0  0  0  0  0
    4.0949   52.9821   28.9213 H   0  0  0  0  0  0
   -0.8104   47.5259   25.8648 H   0  0  0  0  0  0
  1  2  1  0  0  0
  1 36  1  0  0  0
  1 37  1  0  0  0
  1 38  1  0  0  0
  2  7  2  0  0  0
  2  3  1  0  0  0
  3  4  2  0  0  0
  3 39  1  0  0  0
  4  5  1  0  0  0
  4 40  1  0  0  0
  5  6  2  0  0  0
  5  8  1  0  0  0
  6  7  1  0  0  0
  6 41  1  0  0  0
  7 42  1  0  0  0
  8  9  1  0  0  0
  8 43  1  0  0  0
  8 44  1  0  0  0
  9 10  2  0  0  0
  9 11  1  0  0  0
 11 16  1  0  0  0
 11 12  1  0  0  0
 12 13  1  0  0  0
 12 45  1  0  0  0
 12 46  1  0  0  0
 13 14  1  0  0  0
 13 15  1  0  0  0
 13 22  1  0  0  0
 15 21  1  0  0  0
 15 16  1  0  0  0
 15 17  1  0  0  0
 16 47  1  0  0  0
 16 48  1  0  0  0
 17 18  1  0  0  0
 17 49  1  0  0  0
 17 50  1  0  0  0
 18 19  1  0  0  0
 18 51  1  0  0  0
 18 52  1  0  0  0
 19 20  1  0  0  0
 19 53  1  0  0  0
 19 69  1  0  0  0
 20 21  1  0  0  0
 20 54  1  0  0  0
 20 55  1  0  0  0
 21 56  1  0  0  0
 21 57  1  0  0  0
 22 23  2  0  0  0
 22 24  1  0  0  0
 24 25  1  0  0  0
 24 58  1  0  0  0
 25 26  1  0  0  0
 25 59  1  0  0  0
 25 60  1  0  0  0
 26 27  1  0  0  0
 26 28  1  0  0  0
 26 29  1  0  0  0
 28 61  1  0  0  0
 28 62  1  0  0  0
 28 63  1  0  0  0
 29 30  1  0  0  0
 30 35  2  0  0  0
 30 31  1  0  0  0
 31 32  2  0  0  0
 31 64  1  0  0  0
 32 33  1  0  0  0
 32 65  1  0  0  0
 33 34  2  0  0  0
 33 66  1  0  0  0
 34 35  1  0  0  0
 34 67  1  0  0  0
 35 68  1  0  0  0
M  CHG  1  19   1
M  END
> <i_i_glide_confnum>
207

> <i_i_glide_lignum>
1285

> <i_i_glide_posenum>
29

> <i_i_glide_rotatable_bonds>
9

> <i_m_Source_File_Index>
349

> <b_m_subgroup_collapsed>
0

> <r_i_docking_score>
-5.47023

> <r_i_glide_ecoul>
-11.1344

> <r_i_glide_eff_state_penalty>
0

> <r_i_glide_einternal>
3.50995

> <r_i_glide_emodel>
-52.4193

> <r_i_glide_energy>
-39.6433

> <r_i_glide_erotb>
0.790025

> <r_i_glide_esite>
-0.116903

> <r_i_glide_evdw>
-28.5089

> <r_i_glide_gscore>
-5.47023

> <r_i_glide_hbond>
-0.497459

> <r_i_glide_ligand_efficiency>
-0.165765

> <r_i_glide_ligand_efficiency_ln>
-1.21655

> <r_i_glide_ligand_efficiency_sa>
-0.531696

> <r_i_glide_lipo>
-2.14484

> <r_i_glide_metal>
0

> <r_i_glide_rewards>
-0.40545

> <s_i_glide_gridfile>
wee1_glide-grid

> <s_m_Source_File>
wee1_decoys_glide_SP.sdf

> <s_m_Source_Path>
/Users/zhangxujun/Desktop

> <s_m_entry_id>
624

> <s_m_entry_name>
wee1_decoys_glide_SP.349

> <s_m_subgroup_title>
wee1_decoys_glide_SP

> <s_m_subgroupid>
wee1_decoys_glide_SP


$$$$
