ZINC21162459_6040
                    3D
 Schrodinger Suite 2024-2.
 70 74  0  0  1  0            999 V2000
    2.2032   51.9436   16.9342 C   0  0  0  0  0  0
    1.1512   50.9720   17.5001 C   0  0  2  0  0  0
    1.5658   50.5702   18.4277 H   0  0  0  0  0  0
    0.9288   49.7746   16.5497 C   0  0  0  0  0  0
   -0.0381   48.7427   17.1576 C   0  0  0  0  0  0
   -1.3732   49.4101   17.5478 C   0  0  0  0  0  0
   -1.1906   50.6268   18.4924 C   0  0  2  0  0  0
   -2.1813   51.0829   18.5691 H   0  0  0  0  0  0
   -0.1943   51.6680   17.8822 C   0  0  2  0  0  0
    0.0456   52.3962   18.6596 H   0  0  0  0  0  0
   -0.8524   52.4622   16.7295 C   0  0  0  0  0  0
   -0.8222   50.2091   19.8492 N   0  0  0  0  0  0
   -0.9031   50.9693   20.9530 C   0  0  0  0  0  0
   -1.4063   52.0967   20.9542 O   0  0  0  0  0  0
   -0.3215   50.3634   22.2493 C   0  0  0  0  0  0
    0.9022   51.2087   22.6903 C   0  0  0  0  0  0
    1.3984   50.7533   24.0817 C   0  0  0  0  0  0
    0.3035   50.9121   25.0668 N   0  0  0  0  0  0
   -0.8169   49.9993   24.7344 C   0  0  0  0  0  0
   -1.4064   50.3873   23.3574 C   0  0  0  0  0  0
    0.4611   51.4181   26.3332 C   0  0  0  0  0  0
   -0.1527   50.9101   27.4588 N   0  3  0  0  0  0
    0.0261   51.7770   28.5210 C   0  0  0  0  0  0
   -0.4534   51.7399   29.8319 C   0  0  0  0  0  0
   -0.0950   52.8083   30.6598 C   0  0  0  0  0  0
    0.6698   53.8773   30.1990 C   0  0  0  0  0  0
    1.1426   53.9241   28.8859 C   0  0  0  0  0  0
    0.8201   52.8408   28.0526 C   0  0  0  0  0  0
    1.1276   52.5820   26.7118 N   0  0  0  0  0  0
    1.9195   53.4915   25.8608 C   0  0  0  0  0  0
    3.4195   53.6730   26.1414 C   0  0  0  0  0  0
    4.0232   53.3227   27.3602 C   0  0  0  0  0  0
    5.3760   53.5818   27.5840 C   0  0  0  0  0  0
    6.1484   54.1729   26.5875 C   0  0  0  0  0  0
    5.5698   54.4961   25.3621 C   0  0  0  0  0  0
    4.2173   54.2413   25.1389 C   0  0  0  0  0  0
    3.6795   54.5384   23.9343 F   0  0  0  0  0  0
    1.9156   52.3382   15.9596 H   0  0  0  0  0  0
    2.3693   52.7850   17.6083 H   0  0  0  0  0  0
    3.1599   51.4359   16.8062 H   0  0  0  0  0  0
    0.5684   50.1196   15.5790 H   0  0  0  0  0  0
    1.8888   49.2966   16.3379 H   0  0  0  0  0  0
   -0.2156   47.9366   16.4453 H   0  0  0  0  0  0
    0.4219   48.2807   18.0336 H   0  0  0  0  0  0
   -1.8948   49.7230   16.6420 H   0  0  0  0  0  0
   -2.0282   48.6738   18.0156 H   0  0  0  0  0  0
   -1.0935   51.8278   15.8792 H   0  0  0  0  0  0
   -0.2028   53.2574   16.3692 H   0  0  0  0  0  0
   -1.7767   52.9387   17.0580 H   0  0  0  0  0  0
   -0.2978   49.3496   19.9049 H   0  0  0  0  0  0
   -0.0171   49.3354   22.0466 H   0  0  0  0  0  0
    1.7370   51.0783   21.9987 H   0  0  0  0  0  0
    0.6489   52.2680   22.7960 H   0  0  0  0  0  0
    1.6936   49.7026   24.0716 H   0  0  0  0  0  0
    2.2875   51.3009   24.3841 H   0  0  0  0  0  0
   -0.4516   48.9700   24.7545 H   0  0  0  0  0  0
   -1.6003   50.0869   25.4893 H   0  0  0  0  0  0
   -1.8109   51.3929   23.4956 H   0  0  0  0  0  0
   -2.2043   49.6758   23.1418 H   0  0  0  0  0  0
   -1.0660   50.9239   30.2015 H   0  0  0  0  0  0
   -0.4484   52.8217   31.6810 H   0  0  0  0  0  0
    0.8880   54.6901   30.8768 H   0  0  0  0  0  0
    1.7321   54.7597   28.5386 H   0  0  0  0  0  0
    1.7436   53.2563   24.8146 H   0  0  0  0  0  0
    1.5017   54.4813   25.9793 H   0  0  0  0  0  0
    3.4667   52.8425   28.1463 H   0  0  0  0  0  0
    5.8328   53.3124   28.5256 H   0  0  0  0  0  0
    7.1969   54.3648   26.7607 H   0  0  0  0  0  0
    6.1665   54.9369   24.5772 H   0  0  0  0  0  0
   -0.6792   50.0356   27.4710 H   0  0  0  0  0  0
  1  2  1  0  0  0
  1 38  1  0  0  0
  1 39  1  0  0  0
  1 40  1  0  0  0
  2  3  1  0  0  0
  2  9  1  0  0  0
  2  4  1  0  0  0
  4  5  1  0  0  0
  4 41  1  0  0  0
  4 42  1  0  0  0
  5  6  1  0  0  0
  5 43  1  0  0  0
  5 44  1  0  0  0
  6  7  1  0  0  0
  6 45  1  0  0  0
  6 46  1  0  0  0
  7  8  1  0  0  0
  7  9  1  0  0  0
  7 12  1  0  0  0
  9 10  1  0  0  0
  9 11  1  0  0  0
 11 47  1  0  0  0
 11 48  1  0  0  0
 11 49  1  0  0  0
 12 13  1  0  0  0
 12 50  1  0  0  0
 13 14  2  0  0  0
 13 15  1  0  0  0
 15 20  1  0  0  0
 15 16  1  0  0  0
 15 51  1  0  0  0
 16 17  1  0  0  0
 16 52  1  0  0  0
 16 53  1  0  0  0
 17 18  1  0  0  0
 17 54  1  0  0  0
 17 55  1  0  0  0
 18 19  1  0  0  0
 18 21  1  0  0  0
 19 20  1  0  0  0
 19 56  1  0  0  0
 19 57  1  0  0  0
 20 58  1  0  0  0
 20 59  1  0  0  0
 21 29  1  0  0  0
 21 22  2  0  0  0
 22 23  1  0  0  0
 22 70  1  0  0  0
 23 28  2  0  0  0
 23 24  1  0  0  0
 24 25  2  0  0  0
 24 60  1  0  0  0
 25 26  1  0  0  0
 25 61  1  0  0  0
 26 27  2  0  0  0
 26 62  1  0  0  0
 27 28  1  0  0  0
 27 63  1  0  0  0
 28 29  1  0  0  0
 29 30  1  0  0  0
 30 31  1  0  0  0
 30 64  1  0  0  0
 30 65  1  0  0  0
 31 36  2  0  0  0
 31 32  1  0  0  0
 32 33  2  0  0  0
 32 66  1  0  0  0
 33 34  1  0  0  0
 33 67  1  0  0  0
 34 35  2  0  0  0
 34 68  1  0  0  0
 35 36  1  0  0  0
 35 69  1  0  0  0
 36 37  1  0  0  0
M  CHG  1  22   1
M  END
> <i_i_glide_confnum>
274

> <i_i_glide_lignum>
6041

> <i_i_glide_posenum>
293

> <i_i_glide_rotatable_bonds>
6

> <i_m_Source_File_Index>
2565

> <b_m_subgroup_collapsed>
0

> <r_i_docking_score>
-4.96201

> <r_i_glide_ecoul>
-4.43541

> <r_i_glide_eff_state_penalty>
0

> <r_i_glide_einternal>
3.74904

> <r_i_glide_emodel>
-51.5137

> <r_i_glide_energy>
-37.8411

> <r_i_glide_erotb>
0.562582

> <r_i_glide_esite>
-0.0823279

> <r_i_glide_evdw>
-33.4057

> <r_i_glide_gscore>
-4.96201

> <r_i_glide_hbond>
-0.188754

> <r_i_glide_ligand_efficiency>
-0.145942

> <r_i_glide_ligand_efficiency_ln>
-1.09625

> <r_i_glide_ligand_efficiency_sa>
-0.472794

> <r_i_glide_lipo>
-2.23729

> <r_i_glide_metal>
0

> <r_i_glide_rewards>
-0.680628

> <s_i_glide_gridfile>
wee1_glide-grid

> <s_m_Source_File>
wee1_decoys_glide_SP.sdf

> <s_m_Source_Path>
/Users/zhangxujun/Desktop

> <s_m_entry_id>
2840

> <s_m_entry_name>
wee1_decoys_glide_SP.2565

> <s_m_subgroup_title>
wee1_decoys_glide_SP

> <s_m_subgroupid>
wee1_decoys_glide_SP


$$$$
