ZINC35403761_4339
                    3D
 Schrodinger Suite 2024-2.
 51 55  0  0  1  0            999 V2000
    0.3820   50.9227   25.8820 C   0  0  0  0  0  0
   -0.8770   51.6644   25.4542 C   0  0  0  0  0  0
   -1.8609   51.8938   26.4227 C   0  0  0  0  0  0
   -3.0659   52.5069   26.0831 C   0  0  0  0  0  0
   -3.2980   52.9063   24.7697 C   0  0  0  0  0  0
   -2.3258   52.6920   23.7949 C   0  0  0  0  0  0
   -1.1107   52.0643   24.1176 C   0  0  0  0  0  0
   -0.2043   51.7739   23.0701 N   0  0  0  0  0  0
    1.0793   52.2598   22.9629 C   0  0  0  0  0  0
    1.7238   52.9363   23.7632 O   0  0  0  0  0  0
    1.5326   51.8598   21.5657 C   0  0  1  0  0  0
    1.2167   52.6693   20.8987 H   0  0  0  0  0  0
    2.9396   51.4301   21.1403 C   0  0  1  0  0  0
    3.4213   50.7814   21.8744 H   0  0  0  0  0  0
    2.5918   50.5015   19.9309 N   0  3  0  0  0  0
    1.0606   50.1498   19.9588 C   0  0  1  0  0  0
    0.7974   50.5956   21.4092 C   0  0  2  0  0  0
    1.1829   49.7829   22.0396 H   0  0  0  0  0  0
   -0.5324   50.9287   22.0409 C   0  0  0  0  0  0
   -1.6325   50.4731   21.7238 O   0  0  0  0  0  0
    0.2858   50.9775   18.8840 C   0  0  0  0  0  0
    0.8808   52.0498   18.1924 C   0  0  0  0  0  0
    0.1513   52.8066   17.2812 C   0  0  0  0  0  0
   -1.1856   52.5029   17.0415 C   0  0  0  0  0  0
   -1.7999   51.4529   17.7160 C   0  0  0  0  0  0
   -1.0683   50.6983   18.6281 C   0  0  0  0  0  0
    0.9604   48.6025   19.6850 C   0  0  0  0  0  0
   -0.0779   48.0198   20.0722 O   0  0  0  0  0  0
    1.9208   47.9940   19.1568 O   0  5  0  0  0  0
    3.8920   52.5615   20.7695 C   0  0  0  0  0  0
    4.4626   52.8969   19.5352 C   0  0  0  0  0  0
    5.3004   54.0124   19.5587 C   0  0  0  0  0  0
    5.4099   54.5633   20.8191 C   0  0  0  0  0  0
    4.4519   53.6981   21.9733 S   0  0  0  0  0  0
    6.3455   55.9282   21.2865 Cl  0  0  0  0  0  0
    0.2198   50.3434   26.7948 H   0  0  0  0  0  0
    0.6985   50.2093   25.1210 H   0  0  0  0  0  0
    1.1902   51.6362   26.0537 H   0  0  0  0  0  0
   -1.7060   51.5730   27.4444 H   0  0  0  0  0  0
   -3.8234   52.6599   26.8376 H   0  0  0  0  0  0
   -4.2345   53.3753   24.5050 H   0  0  0  0  0  0
   -2.5291   52.9898   22.7764 H   0  0  0  0  0  0
    3.1061   49.6285   19.9621 H   0  0  0  0  0  0
    1.9059   52.3376   18.3571 H   0  0  0  0  0  0
    0.6220   53.6293   16.7616 H   0  0  0  0  0  0
   -1.7508   53.0913   16.3325 H   0  0  0  0  0  0
   -2.8387   51.2225   17.5311 H   0  0  0  0  0  0
   -1.5721   49.8991   19.1497 H   0  0  0  0  0  0
    4.2920   52.3372   18.6271 H   0  0  0  0  0  0
    5.8148   54.3951   18.6903 H   0  0  0  0  0  0
    2.8437   50.9034   19.0397 H   0  0  0  0  0  0
  1  2  1  0  0  0
  1 36  1  0  0  0
  1 37  1  0  0  0
  1 38  1  0  0  0
  2  7  2  0  0  0
  2  3  1  0  0  0
  3  4  2  0  0  0
  3 39  1  0  0  0
  4  5  1  0  0  0
  4 40  1  0  0  0
  5  6  2  0  0  0
  5 41  1  0  0  0
  6  7  1  0  0  0
  6 42  1  0  0  0
  7  8  1  0  0  0
  8 19  1  0  0  0
  8  9  1  0  0  0
  9 10  2  0  0  0
  9 11  1  0  0  0
 11 12  1  0  0  0
 11 17  1  0  0  0
 11 13  1  0  0  0
 13 14  1  0  0  0
 13 15  1  0  0  0
 13 30  1  0  0  0
 15 16  1  0  0  0
 15 43  1  0  0  0
 15 51  1  0  0  0
 16 17  1  0  0  0
 16 21  1  0  0  0
 16 27  1  0  0  0
 17 18  1  0  0  0
 17 19  1  0  0  0
 19 20  2  0  0  0
 21 26  2  0  0  0
 21 22  1  0  0  0
 22 23  2  0  0  0
 22 44  1  0  0  0
 23 24  1  0  0  0
 23 45  1  0  0  0
 24 25  2  0  0  0
 24 46  1  0  0  0
 25 26  1  0  0  0
 25 47  1  0  0  0
 26 48  1  0  0  0
 27 28  2  0  0  0
 27 29  1  0  0  0
 30 34  1  0  0  0
 30 31  2  0  0  0
 31 32  1  0  0  0
 31 49  1  0  0  0
 32 33  2  0  0  0
 32 50  1  0  0  0
 33 34  1  0  0  0
 33 35  1  0  0  0
M  CHG  2  15   1  29  -1
M  END
> <i_i_glide_confnum>
4

> <i_i_glide_lignum>
4340

> <i_i_glide_posenum>
318

> <i_i_glide_rotatable_bonds>
4

> <i_m_Source_File_Index>
5314

> <b_m_subgroup_collapsed>
0

> <r_i_docking_score>
-3.06581

> <r_i_glide_ecoul>
-2.18111

> <r_i_glide_eff_state_penalty>
0

> <r_i_glide_einternal>
2.81725

> <r_i_glide_emodel>
-41.8231

> <r_i_glide_energy>
-35.1022

> <r_i_glide_erotb>
0.277647

> <r_i_glide_esite>
-0.0691228

> <r_i_glide_evdw>
-32.921

> <r_i_glide_gscore>
-3.06581

> <r_i_glide_hbond>
0

> <r_i_glide_ligand_efficiency>
-0.0958067

> <r_i_glide_ligand_efficiency_ln>
-0.686519

> <r_i_glide_ligand_efficiency_sa>
-0.304167

> <r_i_glide_lipo>
-0.872527

> <r_i_glide_metal>
0

> <r_i_glide_rewards>
-0.428594

> <s_i_glide_gridfile>
wee1_glide-grid

> <s_m_Source_File>
wee1_decoys_glide_SP.sdf

> <s_m_Source_Path>
/Users/zhangxujun/Desktop

> <s_m_entry_id>
5589

> <s_m_entry_name>
wee1_decoys_glide_SP.5314

> <s_m_subgroup_title>
wee1_decoys_glide_SP

> <s_m_subgroupid>
wee1_decoys_glide_SP


$$$$
