ZINC63573012_1156
                    3D
 Schrodinger Suite 2024-2.
 61 65  0  0  1  0            999 V2000
    4.1950   53.5621   21.4281 C   0  0  0  0  0  0
    4.6758   54.0166   22.8032 C   0  0  0  0  0  0
    5.9844   54.4967   22.9105 C   0  0  0  0  0  0
    6.4925   54.8980   24.1409 C   0  0  0  0  0  0
    5.6996   54.8259   25.2801 C   0  0  0  0  0  0
    4.3886   54.3571   25.1893 C   0  0  0  0  0  0
    3.8606   53.9350   23.9530 C   0  0  0  0  0  0
    2.5772   53.3599   23.7993 N   0  0  0  0  0  0
    1.7162   52.8899   24.7350 C   0  0  0  0  0  0
    1.7210   53.2931   25.8986 O   0  0  0  0  0  0
    0.9137   51.8546   24.3283 N   0  0  0  0  0  0
    0.7135   51.4998   22.8864 C   0  0  0  0  0  0
    0.9108   49.9831   22.6896 C   0  0  0  0  0  0
   -0.0227   49.2655   23.6330 C   0  0  0  0  0  0
   -1.0372   48.4005   23.4807 C   0  0  0  0  0  0
   -1.6433   47.7925   22.2895 C   0  0  0  0  0  0
   -2.6894   46.9453   22.3870 C   0  0  0  0  0  0
   -3.1848   46.6625   23.7424 C   0  0  0  0  0  0
   -2.6208   47.2008   24.8558 C   0  0  0  0  0  0
   -1.5437   48.0831   24.7408 C   0  0  0  0  0  0
   -0.8799   48.7151   25.6817 N   0  3  0  0  0  0
    0.1470   49.6089   25.0902 C   0  0  2  0  0  0
    1.1047   49.2432   25.4559 H   0  0  0  0  0  0
    0.0488   51.1612   25.3443 C   0  0  2  0  0  0
    0.4831   51.3124   26.3349 H   0  0  0  0  0  0
   -1.4003   51.6602   25.5286 C   0  0  0  0  0  0
   -2.0903   51.2976   26.6915 C   0  0  0  0  0  0
   -3.4135   51.6808   26.8816 C   0  0  0  0  0  0
   -4.0607   52.4783   25.9286 C   0  0  0  0  0  0
   -3.3537   52.8971   24.8036 C   0  0  0  0  0  0
   -2.0350   52.4976   24.6035 C   0  0  0  0  0  0
   -5.3721   52.8993   26.0284 O   0  0  0  0  0  0
   -6.2111   52.3135   27.0197 C   0  0  0  0  0  0
   -3.2042   46.4237   21.2407 O   0  0  0  0  0  0
   -4.3568   45.5915   21.3257 C   0  0  0  0  0  0
    6.3572   55.2966   26.8045 Cl  0  0  0  0  0  0
    3.4920   54.2845   21.0148 H   0  0  0  0  0  0
    5.0202   53.4424   20.7245 H   0  0  0  0  0  0
    3.6981   52.5934   21.4855 H   0  0  0  0  0  0
    6.6190   54.5597   22.0383 H   0  0  0  0  0  0
    7.5041   55.2659   24.2064 H   0  0  0  0  0  0
    3.8162   54.3098   26.1012 H   0  0  0  0  0  0
    2.3939   53.0699   22.8527 H   0  0  0  0  0  0
   -0.2966   51.7526   22.5721 H   0  0  0  0  0  0
    1.3913   52.0118   22.2048 H   0  0  0  0  0  0
    0.7152   49.7131   21.6515 H   0  0  0  0  0  0
    1.9481   49.7053   22.8869 H   0  0  0  0  0  0
   -1.2703   48.0117   21.2997 H   0  0  0  0  0  0
   -4.0393   46.0184   23.8786 H   0  0  0  0  0  0
   -3.0323   46.9644   25.8283 H   0  0  0  0  0  0
   -1.6139   50.6866   27.4459 H   0  0  0  0  0  0
   -3.9149   51.3497   27.7776 H   0  0  0  0  0  0
   -3.8379   53.5337   24.0783 H   0  0  0  0  0  0
   -1.5262   52.8632   23.7286 H   0  0  0  0  0  0
   -7.2151   52.7287   26.9315 H   0  0  0  0  0  0
   -6.2880   51.2334   26.8845 H   0  0  0  0  0  0
   -5.8594   52.5167   28.0314 H   0  0  0  0  0  0
   -4.6453   45.2791   20.3222 H   0  0  0  0  0  0
   -4.1629   44.6880   21.9057 H   0  0  0  0  0  0
   -5.2062   46.1230   21.7580 H   0  0  0  0  0  0
   -1.0564   48.6189   26.6897 H   0  0  0  0  0  0
  1  2  1  0  0  0
  1 37  1  0  0  0
  1 38  1  0  0  0
  1 39  1  0  0  0
  2  7  2  0  0  0
  2  3  1  0  0  0
  3  4  2  0  0  0
  3 40  1  0  0  0
  4  5  1  0  0  0
  4 41  1  0  0  0
  5  6  2  0  0  0
  5 36  1  0  0  0
  6  7  1  0  0  0
  6 42  1  0  0  0
  7  8  1  0  0  0
  8  9  1  0  0  0
  8 43  1  0  0  0
  9 10  2  0  0  0
  9 11  1  0  0  0
 11 24  1  0  0  0
 11 12  1  0  0  0
 12 13  1  0  0  0
 12 44  1  0  0  0
 12 45  1  0  0  0
 13 14  1  0  0  0
 13 46  1  0  0  0
 13 47  1  0  0  0
 14 22  1  0  0  0
 14 15  2  0  0  0
 15 20  1  0  0  0
 15 16  1  0  0  0
 16 17  2  0  0  0
 16 48  1  0  0  0
 17 18  1  0  0  0
 17 34  1  0  0  0
 18 19  2  0  0  0
 18 49  1  0  0  0
 19 20  1  0  0  0
 19 50  1  0  0  0
 20 21  2  0  0  0
 21 22  1  0  0  0
 21 61  1  0  0  0
 22 23  1  0  0  0
 22 24  1  0  0  0
 24 25  1  0  0  0
 24 26  1  0  0  0
 26 31  2  0  0  0
 26 27  1  0  0  0
 27 28  2  0  0  0
 27 51  1  0  0  0
 28 29  1  0  0  0
 28 52  1  0  0  0
 29 30  2  0  0  0
 29 32  1  0  0  0
 30 31  1  0  0  0
 30 53  1  0  0  0
 31 54  1  0  0  0
 32 33  1  0  0  0
 33 55  1  0  0  0
 33 56  1  0  0  0
 33 57  1  0  0  0
 34 35  1  0  0  0
 35 58  1  0  0  0
 35 59  1  0  0  0
 35 60  1  0  0  0
M  CHG  1  21   1
M  END
> <i_i_glide_confnum>
58

> <i_i_glide_lignum>
1157

> <i_i_glide_posenum>
186

> <i_i_glide_rotatable_bonds>
6

> <i_m_Source_File_Index>
2046

> <b_m_subgroup_collapsed>
0

> <r_i_docking_score>
-5.33461

> <r_i_glide_ecoul>
-3.72694

> <r_i_glide_eff_state_penalty>
0

> <r_i_glide_einternal>
13.6833

> <r_i_glide_emodel>
-50.8168

> <r_i_glide_energy>
-43.4228

> <r_i_glide_erotb>
0.356102

> <r_i_glide_esite>
-0.1

> <r_i_glide_evdw>
-39.6959

> <r_i_glide_gscore>
-5.33461

> <r_i_glide_hbond>
-0.2

> <r_i_glide_ligand_efficiency>
-0.1569

> <r_i_glide_ligand_efficiency_ln>
-1.17857

> <r_i_glide_ligand_efficiency_sa>
-0.508296

> <r_i_glide_lipo>
-2.32142

> <r_i_glide_metal>
0

> <r_i_glide_rewards>
-0.525455

> <s_i_glide_gridfile>
wee1_glide-grid

> <s_m_Source_File>
wee1_decoys_glide_SP.sdf

> <s_m_Source_Path>
/Users/zhangxujun/Desktop

> <s_m_entry_id>
2321

> <s_m_entry_name>
wee1_decoys_glide_SP.2046

> <s_m_subgroup_title>
wee1_decoys_glide_SP

> <s_m_subgroupid>
wee1_decoys_glide_SP


$$$$
