ZINC13629244_1948
                    3D
 Schrodinger Suite 2024-2.
 59 62  0  0  1  0            999 V2000
    0.3366   53.3482   29.3821 C   0  0  0  0  0  0
    1.1627   52.1367   28.9077 C   0  0  0  0  0  0
    2.6972   52.3508   28.8288 C   0  0  2  0  0  0
    3.1098   51.3904   28.5199 H   0  0  0  0  0  0
    3.3294   52.6859   30.2268 C   0  0  0  0  0  0
    3.5046   51.6968   30.9667 O   0  0  0  0  0  0
    3.0334   53.3489   27.8017 N   0  0  0  0  0  0
    4.2606   53.6975   27.3697 C   0  0  0  0  0  0
    5.3031   53.1623   27.7396 O   0  0  0  0  0  0
    4.3168   54.8828   26.4105 C   0  0  0  0  0  0
    4.8661   54.5403   25.0191 C   0  0  0  0  0  0
    4.1130   54.0944   23.9770 C   0  0  0  0  0  0
    4.6684   54.0982   22.6021 C   0  0  0  0  0  0
    3.9815   53.6462   21.4655 C   0  0  0  0  0  0
    4.5072   53.8232   20.1801 C   0  0  0  0  0  0
    5.7393   54.4926   20.0471 C   0  0  0  0  0  0
    6.4522   54.9040   21.1669 C   0  0  0  0  0  0
    5.9313   54.6789   22.4353 C   0  0  0  0  0  0
    6.7045   55.0898   23.5044 O   0  0  0  0  0  0
    6.2701   54.9826   24.8058 C   0  0  0  0  0  0
    7.0974   55.2983   25.6613 O   0  0  0  0  0  0
    6.3759   54.6822   18.8325 O   0  0  0  0  0  0
    5.5414   54.6618   17.6638 C   0  0  0  0  0  0
    4.7218   55.9893   17.6181 C   0  0  0  0  0  0
    4.0113   56.2017   16.2648 C   0  0  0  0  0  0
    4.9966   56.1357   15.0811 C   0  0  0  0  0  0
    5.8597   54.8590   15.1108 C   0  0  0  0  0  0
    6.5448   54.6554   16.4809 C   0  0  0  0  0  0
    4.6913   53.3619   17.7148 C   0  0  0  0  0  0
    3.7602   53.3528   18.9377 C   0  0  0  0  0  0
    2.6449   53.6906   24.1141 C   0  0  0  0  0  0
   -0.7244   53.0984   29.4109 H   0  0  0  0  0  0
    0.4603   54.2061   28.7196 H   0  0  0  0  0  0
    0.6200   53.6589   30.3880 H   0  0  0  0  0  0
    0.9485   51.2858   29.5529 H   0  0  0  0  0  0
    0.7995   51.8376   27.9234 H   0  0  0  0  0  0
    2.2413   53.8731   27.4646 H   0  0  0  0  0  0
    3.3246   55.3135   26.3036 H   0  0  0  0  0  0
    4.9052   55.6611   26.8958 H   0  0  0  0  0  0
    3.0111   53.1825   21.5562 H   0  0  0  0  0  0
    7.4203   55.3678   21.0489 H   0  0  0  0  0  0
    4.0073   56.0639   18.4376 H   0  0  0  0  0  0
    5.4124   56.8269   17.7336 H   0  0  0  0  0  0
    3.2342   55.4467   16.1381 H   0  0  0  0  0  0
    3.4974   57.1641   16.2642 H   0  0  0  0  0  0
    4.4512   56.1951   14.1382 H   0  0  0  0  0  0
    5.6475   57.0111   15.1085 H   0  0  0  0  0  0
    5.2412   53.9922   14.8740 H   0  0  0  0  0  0
    6.6147   54.9070   14.3248 H   0  0  0  0  0  0
    7.2390   55.4889   16.6008 H   0  0  0  0  0  0
    7.1395   53.7406   16.4793 H   0  0  0  0  0  0
    5.3566   52.4995   17.7847 H   0  0  0  0  0  0
    4.1158   53.2198   16.7994 H   0  0  0  0  0  0
    3.3462   52.3543   19.0885 H   0  0  0  0  0  0
    2.9180   54.0190   18.7574 H   0  0  0  0  0  0
    2.5106   52.6582   23.7892 H   0  0  0  0  0  0
    2.2653   53.7474   25.1312 H   0  0  0  0  0  0
    2.0166   54.3335   23.4955 H   0  0  0  0  0  0
    3.5065   53.8986   30.4813 O   0  5  0  0  0  0
  1  2  1  0  0  0
  1 32  1  0  0  0
  1 33  1  0  0  0
  1 34  1  0  0  0
  2  3  1  0  0  0
  2 35  1  0  0  0
  2 36  1  0  0  0
  3  4  1  0  0  0
  3  5  1  0  0  0
  3  7  1  0  0  0
  5  6  2  0  0  0
  5 59  1  0  0  0
  7  8  1  0  0  0
  7 37  1  0  0  0
  8  9  2  0  0  0
  8 10  1  0  0  0
 10 11  1  0  0  0
 10 38  1  0  0  0
 10 39  1  0  0  0
 11 20  1  0  0  0
 11 12  2  0  0  0
 12 13  1  0  0  0
 12 31  1  0  0  0
 13 18  2  0  0  0
 13 14  1  0  0  0
 14 15  2  0  0  0
 14 40  1  0  0  0
 15 30  1  0  0  0
 15 16  1  0  0  0
 16 17  2  0  0  0
 16 22  1  0  0  0
 17 18  1  0  0  0
 17 41  1  0  0  0
 18 19  1  0  0  0
 19 20  1  0  0  0
 20 21  2  0  0  0
 22 23  1  0  0  0
 23 28  1  0  0  0
 23 24  1  0  0  0
 23 29  1  0  0  0
 24 25  1  0  0  0
 24 42  1  0  0  0
 24 43  1  0  0  0
 25 26  1  0  0  0
 25 44  1  0  0  0
 25 45  1  0  0  0
 26 27  1  0  0  0
 26 46  1  0  0  0
 26 47  1  0  0  0
 27 28  1  0  0  0
 27 48  1  0  0  0
 27 49  1  0  0  0
 28 50  1  0  0  0
 28 51  1  0  0  0
 29 30  1  0  0  0
 29 52  1  0  0  0
 29 53  1  0  0  0
 30 54  1  0  0  0
 30 55  1  0  0  0
 31 56  1  0  0  0
 31 57  1  0  0  0
 31 58  1  0  0  0
M  CHG  1  59  -1
M  END
> <i_i_glide_confnum>
122

> <i_i_glide_lignum>
1949

> <i_i_glide_posenum>
345

> <i_i_glide_rotatable_bonds>
6

> <i_m_Source_File_Index>
171

> <b_m_subgroup_collapsed>
0

> <r_i_docking_score>
-7.76324

> <r_i_glide_ecoul>
-10.2571

> <r_i_glide_eff_state_penalty>
0

> <r_i_glide_einternal>
7.33566

> <r_i_glide_emodel>
-65.575

> <r_i_glide_energy>
-45.4206

> <r_i_glide_erotb>
0.436457

> <r_i_glide_esite>
0

> <r_i_glide_evdw>
-35.1636

> <r_i_glide_gscore>
-7.76324

> <r_i_glide_hbond>
-0.633086

> <r_i_glide_ligand_efficiency>
-0.250427

> <r_i_glide_ligand_efficiency_ln>
-1.75085

> <r_i_glide_ligand_efficiency_sa>
-0.786687

> <r_i_glide_lipo>
-2.73032

> <r_i_glide_metal>
0

> <r_i_glide_rewards>
-1.53955

> <s_i_glide_gridfile>
wee1_glide-grid

> <s_m_Source_File>
wee1_decoys_glide_SP.sdf

> <s_m_Source_Path>
/Users/zhangxujun/Desktop

> <s_m_entry_id>
446

> <s_m_entry_name>
wee1_decoys_glide_SP.171

> <s_m_subgroup_title>
wee1_decoys_glide_SP

> <s_m_subgroupid>
wee1_decoys_glide_SP


$$$$
