ZINC39686643_3084
                    3D
 Schrodinger Suite 2024-2.
 73 76  0  0  1  0            999 V2000
    6.2914   55.7174   21.2460 C   0  0  0  0  0  0
    5.4902   54.7048   20.3980 C   0  0  2  0  0  0
    6.0229   53.7541   20.4139 H   0  0  0  0  0  0
    5.3920   55.1026   18.9093 C   0  0  0  0  0  0
    6.7368   55.0404   18.1907 C   0  0  0  0  0  0
    7.1702   53.8129   17.6762 C   0  0  0  0  0  0
    8.4157   53.7041   17.0636 C   0  0  0  0  0  0
    9.2328   54.8255   16.9525 C   0  0  0  0  0  0
    8.8011   56.0566   17.4471 C   0  0  0  0  0  0
    7.5474   56.1825   18.0683 C   0  0  0  0  0  0
    7.0644   57.3732   18.5851 O   0  0  0  0  0  0
    7.7973   58.5738   18.3769 C   0  0  0  0  0  0
    4.1642   54.4263   20.9480 N   0  0  0  0  0  0
    3.9254   53.6952   22.0473 C   0  0  0  0  0  0
    4.8304   53.2967   22.7818 O   0  0  0  0  0  0
    2.4359   53.3678   22.3302 C   0  0  2  0  0  0
    1.8417   54.2474   22.0831 H   0  0  0  0  0  0
    2.2485   53.0600   23.8355 C   0  0  0  0  0  0
    1.1092   52.1411   23.8775 N   0  0  0  0  0  0
    0.7288   51.7184   22.5179 C   0  0  0  0  0  0
    1.8988   52.1061   21.5911 C   0  0  0  0  0  0
    1.4745   52.4019   20.1277 C   0  0  0  0  0  0
    0.8377   51.1846   19.4248 C   0  0  0  0  0  0
    1.8621   50.0265   19.4173 N   0  3  0  0  0  0
    2.3513   49.6627   20.8343 C   0  0  0  0  0  0
    2.9333   50.9340   21.4863 C   0  0  0  0  0  0
    0.3350   51.7786   24.9455 C   0  0  0  0  0  0
   -0.6860   51.1131   24.7417 O   0  0  0  0  0  0
    0.6555   52.1401   26.4019 C   0  0  0  0  0  0
   -0.3147   51.8626   27.3809 C   0  0  0  0  0  0
   -0.0943   52.1155   28.7289 C   0  0  0  0  0  0
    1.1220   52.6587   29.1665 C   0  0  0  0  0  0
    2.1154   52.9383   28.2157 C   0  0  0  0  0  0
    1.8738   52.6822   26.8558 C   0  0  0  0  0  0
    3.4674   53.5023   28.6699 C   0  0  0  0  0  0
    4.0529   52.6421   29.5075 F   0  0  0  0  0  0
    4.3053   53.7209   27.6544 F   0  0  0  0  0  0
    3.2851   54.6621   29.3056 F   0  0  0  0  0  0
    1.4068   52.9220   30.4964 O   0  0  0  0  0  0
    0.3812   52.7474   31.4712 C   0  0  0  0  0  0
    7.2956   55.8541   20.8450 H   0  0  0  0  0  0
    5.8229   56.7005   21.2404 H   0  0  0  0  0  0
    6.4119   55.3869   22.2777 H   0  0  0  0  0  0
    4.9361   56.0864   18.7940 H   0  0  0  0  0  0
    4.7112   54.4223   18.3933 H   0  0  0  0  0  0
    6.5483   52.9317   17.7650 H   0  0  0  0  0  0
    8.7516   52.7511   16.6808 H   0  0  0  0  0  0
   10.2015   54.7405   16.4833 H   0  0  0  0  0  0
    9.4630   56.9024   17.3447 H   0  0  0  0  0  0
    7.2389   59.4069   18.8032 H   0  0  0  0  0  0
    8.7653   58.5393   18.8746 H   0  0  0  0  0  0
    7.9470   58.7827   17.3184 H   0  0  0  0  0  0
    3.3702   54.7424   20.4037 H   0  0  0  0  0  0
    3.1037   52.4963   24.2076 H   0  0  0  0  0  0
    2.0717   53.9870   24.3821 H   0  0  0  0  0  0
   -0.1327   52.3297   22.2434 H   0  0  0  0  0  0
    0.3934   50.6865   22.4202 H   0  0  0  0  0  0
    0.7267   53.1959   20.1303 H   0  0  0  0  0  0
    2.3105   52.7927   19.5445 H   0  0  0  0  0  0
   -0.0570   50.8154   19.9274 H   0  0  0  0  0  0
    0.6015   51.3880   18.3784 H   0  0  0  0  0  0
    1.4628   49.2137   18.9679 H   0  0  0  0  0  0
    1.5092   49.2278   21.3729 H   0  0  0  0  0  0
    3.1025   48.8878   20.6999 H   0  0  0  0  0  0
    3.8362   51.2337   20.9499 H   0  0  0  0  0  0
    3.2717   50.6554   22.4814 H   0  0  0  0  0  0
   -1.2659   51.4221   27.1128 H   0  0  0  0  0  0
   -0.8846   51.8640   29.4218 H   0  0  0  0  0  0
    2.6885   52.8802   26.1879 H   0  0  0  0  0  0
    0.7231   53.0678   32.4534 H   0  0  0  0  0  0
   -0.4953   53.3425   31.2184 H   0  0  0  0  0  0
    0.0975   51.6982   31.5572 H   0  0  0  0  0  0
    2.6612   50.2864   18.8485 H   0  0  0  0  0  0
  1  2  1  0  0  0
  1 41  1  0  0  0
  1 42  1  0  0  0
  1 43  1  0  0  0
  2  3  1  0  0  0
  2  4  1  0  0  0
  2 13  1  0  0  0
  4  5  1  0  0  0
  4 44  1  0  0  0
  4 45  1  0  0  0
  5 10  2  0  0  0
  5  6  1  0  0  0
  6  7  2  0  0  0
  6 46  1  0  0  0
  7  8  1  0  0  0
  7 47  1  0  0  0
  8  9  2  0  0  0
  8 48  1  0  0  0
  9 10  1  0  0  0
  9 49  1  0  0  0
 10 11  1  0  0  0
 11 12  1  0  0  0
 12 50  1  0  0  0
 12 51  1  0  0  0
 12 52  1  0  0  0
 13 14  1  0  0  0
 13 53  1  0  0  0
 14 15  2  0  0  0
 14 16  1  0  0  0
 16 17  1  0  0  0
 16 21  1  0  0  0
 16 18  1  0  0  0
 18 19  1  0  0  0
 18 54  1  0  0  0
 18 55  1  0  0  0
 19 20  1  0  0  0
 19 27  1  0  0  0
 20 21  1  0  0  0
 20 56  1  0  0  0
 20 57  1  0  0  0
 21 26  1  0  0  0
 21 22  1  0  0  0
 22 23  1  0  0  0
 22 58  1  0  0  0
 22 59  1  0  0  0
 23 24  1  0  0  0
 23 60  1  0  0  0
 23 61  1  0  0  0
 24 25  1  0  0  0
 24 62  1  0  0  0
 24 73  1  0  0  0
 25 26  1  0  0  0
 25 63  1  0  0  0
 25 64  1  0  0  0
 26 65  1  0  0  0
 26 66  1  0  0  0
 27 28  2  0  0  0
 27 29  1  0  0  0
 29 34  2  0  0  0
 29 30  1  0  0  0
 30 31  2  0  0  0
 30 67  1  0  0  0
 31 32  1  0  0  0
 31 68  1  0  0  0
 32 33  2  0  0  0
 32 39  1  0  0  0
 33 34  1  0  0  0
 33 35  1  0  0  0
 34 69  1  0  0  0
 35 36  1  0  0  0
 35 37  1  0  0  0
 35 38  1  0  0  0
 39 40  1  0  0  0
 40 70  1  0  0  0
 40 71  1  0  0  0
 40 72  1  0  0  0
M  CHG  1  24   1
M  END
> <i_i_glide_confnum>
241

> <i_i_glide_lignum>
3085

> <i_i_glide_posenum>
389

> <i_i_glide_rotatable_bonds>
10

> <i_m_Source_File_Index>
3627

> <b_m_subgroup_collapsed>
0

> <r_i_docking_score>
-5.83346

> <r_i_glide_ecoul>
-7.22172

> <r_i_glide_eff_state_penalty>
0

> <r_i_glide_einternal>
12.9798

> <r_i_glide_emodel>
-59.8011

> <r_i_glide_energy>
-46.57

> <r_i_glide_erotb>
0.505533

> <r_i_glide_esite>
-0.0546766

> <r_i_glide_evdw>
-39.3483

> <r_i_glide_gscore>
-5.83346

> <r_i_glide_hbond>
-0.310745

> <r_i_glide_ligand_efficiency>
-0.153512

> <r_i_glide_ligand_efficiency_ln>
-1.25787

> <r_i_glide_ligand_efficiency_sa>
-0.516104

> <r_i_glide_lipo>
-1.64802

> <r_i_glide_metal>
0

> <r_i_glide_rewards>
-1.27488

> <s_i_glide_gridfile>
wee1_glide-grid

> <s_m_Source_File>
wee1_decoys_glide_SP.sdf

> <s_m_Source_Path>
/Users/zhangxujun/Desktop

> <s_m_entry_id>
3902

> <s_m_entry_name>
wee1_decoys_glide_SP.3627

> <s_m_subgroup_title>
wee1_decoys_glide_SP

> <s_m_subgroupid>
wee1_decoys_glide_SP


$$$$
