ZINC65594073_4308
                    3D
 Schrodinger Suite 2024-2.
 51 53  0  0  1  0            999 V2000
   -5.1277   49.9530   31.0991 C   0  0  0  0  0  0
   -4.2326   50.4944   29.9796 C   0  0  0  0  0  0
   -4.3402   49.6666   28.6871 C   0  0  0  0  0  0
   -3.4308   50.1139   27.6386 N   0  0  0  0  0  0
   -3.6351   51.1746   26.8365 C   0  0  0  0  0  0
   -4.6689   51.8470   26.8862 O   0  0  0  0  0  0
   -2.5438   51.5197   25.8459 C   0  0  0  0  0  0
   -2.8335   52.3801   24.7781 C   0  0  0  0  0  0
   -1.8427   52.7497   23.8727 C   0  0  0  0  0  0
   -0.5409   52.2684   24.0145 C   0  0  0  0  0  0
   -0.2430   51.3985   25.0758 C   0  0  0  0  0  0
   -1.2359   51.0248   25.9788 C   0  0  0  0  0  0
    0.4056   52.7488   23.0877 N   0  0  0  0  0  0
    1.6404   52.2886   22.8222 C   0  0  0  0  0  0
    2.1000   51.2389   23.2661 O   0  0  0  0  0  0
    2.3438   53.1637   22.0698 N   0  0  0  0  0  0
    3.8204   53.2718   21.9327 C   0  0  0  0  0  0
    4.4004   51.9949   21.2476 C   0  0  0  0  0  0
    4.2277   52.6378   19.8721 C   0  0  0  0  0  0
    4.2005   53.9795   20.6028 C   0  0  0  0  0  0
    4.4712   53.7670   23.2482 C   0  0  0  0  0  0
    5.8681   53.8627   23.2820 C   0  0  0  0  0  0
    6.5354   54.1336   24.4663 C   0  0  0  0  0  0
    5.8043   54.3368   25.6290 C   0  0  0  0  0  0
    4.4155   54.3643   25.5996 C   0  0  0  0  0  0
    3.7511   54.0965   24.4093 C   0  0  0  0  0  0
    6.7046   54.4971   27.2818 Br  0  0  0  0  0  0
   -4.9657   50.4972   32.0327 H   0  0  0  0  0  0
   -4.9132   48.8993   31.2835 H   0  0  0  0  0  0
   -6.1841   50.0363   30.8379 H   0  0  0  0  0  0
   -4.4988   51.5320   29.7716 H   0  0  0  0  0  0
   -3.1966   50.4959   30.3250 H   0  0  0  0  0  0
   -4.0993   48.6257   28.9128 H   0  0  0  0  0  0
   -5.3733   49.6391   28.3337 H   0  0  0  0  0  0
   -2.5671   49.5771   27.5888 H   0  0  0  0  0  0
   -3.8326   52.7725   24.6430 H   0  0  0  0  0  0
   -2.1025   53.4162   23.0645 H   0  0  0  0  0  0
    0.7542   51.0170   25.2345 H   0  0  0  0  0  0
   -0.9648   50.3646   26.7918 H   0  0  0  0  0  0
    0.1019   53.5352   22.5380 H   0  0  0  0  0  0
    1.8272   53.7947   21.4722 H   0  0  0  0  0  0
    5.4409   51.7887   21.5111 H   0  0  0  0  0  0
    3.8550   51.0629   21.4080 H   0  0  0  0  0  0
    5.0553   52.5011   19.1756 H   0  0  0  0  0  0
    3.2878   52.3761   19.3854 H   0  0  0  0  0  0
    3.5047   54.7215   20.2241 H   0  0  0  0  0  0
    5.1715   54.4751   20.6389 H   0  0  0  0  0  0
    6.4569   53.6840   22.3999 H   0  0  0  0  0  0
    7.6152   54.1413   24.4863 H   0  0  0  0  0  0
    3.8565   54.5469   26.5048 H   0  0  0  0  0  0
    2.6737   54.1037   24.4363 H   0  0  0  0  0  0
  1  2  1  0  0  0
  1 28  1  0  0  0
  1 29  1  0  0  0
  1 30  1  0  0  0
  2  3  1  0  0  0
  2 31  1  0  0  0
  2 32  1  0  0  0
  3  4  1  0  0  0
  3 33  1  0  0  0
  3 34  1  0  0  0
  4  5  1  0  0  0
  4 35  1  0  0  0
  5  6  2  0  0  0
  5  7  1  0  0  0
  7 12  2  0  0  0
  7  8  1  0  0  0
  8  9  2  0  0  0
  8 36  1  0  0  0
  9 10  1  0  0  0
  9 37  1  0  0  0
 10 11  2  0  0  0
 10 13  1  0  0  0
 11 12  1  0  0  0
 11 38  1  0  0  0
 12 39  1  0  0  0
 13 14  1  0  0  0
 13 40  1  0  0  0
 14 15  2  0  0  0
 14 16  1  0  0  0
 16 17  1  0  0  0
 16 41  1  0  0  0
 17 20  1  0  0  0
 17 18  1  0  0  0
 17 21  1  0  0  0
 18 19  1  0  0  0
 18 42  1  0  0  0
 18 43  1  0  0  0
 19 20  1  0  0  0
 19 44  1  0  0  0
 19 45  1  0  0  0
 20 46  1  0  0  0
 20 47  1  0  0  0
 21 26  2  0  0  0
 21 22  1  0  0  0
 22 23  2  0  0  0
 22 48  1  0  0  0
 23 24  1  0  0  0
 23 49  1  0  0  0
 24 25  2  0  0  0
 24 27  1  0  0  0
 25 26  1  0  0  0
 25 50  1  0  0  0
 26 51  1  0  0  0
M  END
> <i_i_glide_confnum>
190

> <i_i_glide_lignum>
4309

> <i_i_glide_posenum>
84

> <i_i_glide_rotatable_bonds>
9

> <i_m_Source_File_Index>
2448

> <b_m_subgroup_collapsed>
0

> <r_i_docking_score>
-5.28002

> <r_i_glide_ecoul>
-4.44962

> <r_i_glide_eff_state_penalty>
0

> <r_i_glide_einternal>
1.41122

> <r_i_glide_emodel>
-55.1726

> <r_i_glide_energy>
-41.0184

> <r_i_glide_erotb>
0.858803

> <r_i_glide_esite>
-0.133721

> <r_i_glide_evdw>
-36.5688

> <r_i_glide_gscore>
-5.28002

> <r_i_glide_hbond>
-0.446065

> <r_i_glide_ligand_efficiency>
-0.195556

> <r_i_glide_ligand_efficiency_ln>
-1.2291

> <r_i_glide_ligand_efficiency_sa>
-0.586669

> <r_i_glide_lipo>
-2.38953

> <r_i_glide_metal>
0

> <r_i_glide_rewards>
-0.673626

> <s_i_glide_gridfile>
wee1_glide-grid

> <s_m_Source_File>
wee1_decoys_glide_SP.sdf

> <s_m_Source_Path>
/Users/zhangxujun/Desktop

> <s_m_entry_id>
2723

> <s_m_entry_name>
wee1_decoys_glide_SP.2448

> <s_m_subgroup_title>
wee1_decoys_glide_SP

> <s_m_subgroupid>
wee1_decoys_glide_SP


$$$$
