ZINC40378798_4685
                    3D
 Schrodinger Suite 2024-2.
 36 38  0  0  1  0            999 V2000
    5.8864   54.4944   22.4894 C   0  0  0  0  0  0
    6.4932   54.9677   23.6482 C   0  0  0  0  0  0
    5.8721   54.8165   24.8877 C   0  0  0  0  0  0
    4.6075   54.2090   24.9766 C   0  0  0  0  0  0
    4.0002   53.7378   23.7966 C   0  0  0  0  0  0
    4.6491   53.8567   22.5637 C   0  0  0  0  0  0
    3.9013   53.2080   21.0742 S   0  0  0  0  0  0
    2.4997   52.8974   21.3673 O   0  0  0  0  0  0
    4.2966   54.0989   19.9790 O   0  0  0  0  0  0
    4.6913   51.6861   20.8012 N   0  0  0  0  0  0
    4.0238   54.1206   26.2612 N   0  0  0  0  0  0
    2.7984   53.6983   26.6408 C   0  0  0  0  0  0
    1.9363   53.2944   25.8619 O   0  0  0  0  0  0
    2.4769   53.9033   28.1446 C   0  0  2  0  0  0
    3.0243   54.7926   28.4651 H   0  0  0  0  0  0
    2.8262   52.6826   29.0465 C   0  0  0  0  0  0
    1.5231   52.4970   29.8745 C   0  0  1  0  0  0
    1.6321   51.9830   30.8309 H   0  0  0  0  0  0
    0.9737   53.9133   29.9871 C   0  0  0  0  0  0
    0.9687   54.1409   28.4823 C   0  0  2  0  0  0
    0.5762   55.1116   28.1775 H   0  0  0  0  0  0
    0.1160   52.9277   28.1026 C   0  0  0  0  0  0
    0.4587   51.9333   28.9413 C   0  0  0  0  0  0
    6.7039   55.3992   26.2912 Cl  0  0  0  0  0  0
    6.3707   54.6441   21.5337 H   0  0  0  0  0  0
    7.4389   55.4784   23.5745 H   0  0  0  0  0  0
    3.0347   53.2584   23.8108 H   0  0  0  0  0  0
    4.0991   50.9002   21.0743 H   0  0  0  0  0  0
    4.9993   51.5789   19.8245 H   0  0  0  0  0  0
    4.6209   54.4565   27.0032 H   0  0  0  0  0  0
    3.6704   52.9132   29.6974 H   0  0  0  0  0  0
    3.0660   51.7723   28.4901 H   0  0  0  0  0  0
    1.6364   54.5972   30.5199 H   0  0  0  0  0  0
   -0.0137   53.9712   30.4584 H   0  0  0  0  0  0
   -0.5846   52.8955   27.2808 H   0  0  0  0  0  0
    0.0886   50.9205   28.9551 H   0  0  0  0  0  0
  1  6  2  0  0  0
  1  2  1  0  0  0
  1 25  1  0  0  0
  2  3  2  0  0  0
  2 26  1  0  0  0
  3  4  1  0  0  0
  3 24  1  0  0  0
  4  5  2  0  0  0
  4 11  1  0  0  0
  5  6  1  0  0  0
  5 27  1  0  0  0
  6  7  1  0  0  0
  7  8  2  0  0  0
  7  9  2  0  0  0
  7 10  1  0  0  0
 10 28  1  0  0  0
 10 29  1  0  0  0
 11 12  1  0  0  0
 11 30  1  0  0  0
 12 13  2  0  0  0
 12 14  1  0  0  0
 14 15  1  0  0  0
 14 20  1  0  0  0
 14 16  1  0  0  0
 16 17  1  0  0  0
 16 31  1  0  0  0
 16 32  1  0  0  0
 17 18  1  0  0  0
 17 23  1  0  0  0
 17 19  1  0  0  0
 19 20  1  0  0  0
 19 33  1  0  0  0
 19 34  1  0  0  0
 20 21  1  0  0  0
 20 22  1  0  0  0
 22 23  2  0  0  0
 22 35  1  0  0  0
 23 36  1  0  0  0
M  END
> <i_i_glide_confnum>
2

> <i_i_glide_lignum>
4686

> <i_i_glide_posenum>
147

> <i_i_glide_rotatable_bonds>
4

> <i_m_Source_File_Index>
1986

> <b_m_subgroup_collapsed>
0

> <r_i_docking_score>
-5.86794

> <r_i_glide_ecoul>
-0.416893

> <r_i_glide_eff_state_penalty>
0

> <r_i_glide_einternal>
4.3131

> <r_i_glide_emodel>
-49.3051

> <r_i_glide_energy>
-37.1139

> <r_i_glide_erotb>
0.526966

> <r_i_glide_esite>
-0.0399632

> <r_i_glide_evdw>
-36.697

> <r_i_glide_gscore>
-5.86794

> <r_i_glide_hbond>
-0.133752

> <r_i_glide_ligand_efficiency>
-0.279426

> <r_i_glide_ligand_efficiency_ln>
-1.45084

> <r_i_glide_ligand_efficiency_sa>
-0.770914

> <r_i_glide_lipo>
-2.75973

> <r_i_glide_metal>
0

> <r_i_glide_rewards>
-1.56407

> <s_i_glide_gridfile>
wee1_glide-grid

> <s_m_Source_File>
wee1_decoys_glide_SP.sdf

> <s_m_Source_Path>
/Users/zhangxujun/Desktop

> <s_m_entry_id>
2261

> <s_m_entry_name>
wee1_decoys_glide_SP.1986

> <s_m_subgroup_title>
wee1_decoys_glide_SP

> <s_m_subgroupid>
wee1_decoys_glide_SP


$$$$
