ZINC12568954_2468
                    3D
 Schrodinger Suite 2024-2.
 63 66  0  0  1  0            999 V2000
    4.6675   56.4696   16.6634 C   0  0  0  0  0  0
    5.1644   56.1191   18.0537 C   0  0  0  0  0  0
    6.0473   56.8951   18.8068 C   0  0  0  0  0  0
    6.4227   56.1754   20.3623 S   0  0  0  0  0  0
    5.3387   54.8479   20.0457 C   0  0  0  0  0  0
    4.7568   54.9287   18.7494 C   0  0  0  0  0  0
    3.9038   53.8456   18.4164 C   0  0  0  0  0  0
    3.6455   52.8468   19.2945 N   0  0  0  0  0  0
    4.2510   52.9181   20.5060 C   0  0  0  0  0  0
    5.1045   53.8799   20.9355 N   0  0  0  0  0  0
    3.9454   51.8156   21.5198 C   0  0  0  0  0  0
    2.5129   51.5224   21.6895 N   0  0  0  0  0  0
    1.8040   52.6881   22.2566 C   0  0  0  0  0  0
    0.2954   52.3860   22.3628 C   0  0  0  0  0  0
    0.0725   51.1597   23.1477 N   0  0  0  0  0  0
    0.8106   49.9787   22.6562 C   0  0  0  0  0  0
    2.3150   50.3056   22.5096 C   0  0  0  0  0  0
   -0.7944   51.1838   24.6973 S   0  0  0  0  0  0
   -1.1728   49.8066   25.0330 O   0  0  0  0  0  0
   -1.7895   52.2610   24.6392 O   0  0  0  0  0  0
    0.3969   51.7180   25.9257 C   0  0  0  0  0  0
    0.5725   51.0040   27.1121 C   0  0  0  0  0  0
    1.4702   51.4689   28.0768 C   0  0  0  0  0  0
    2.2110   52.6451   27.8621 C   0  0  0  0  0  0
    2.0078   53.3478   26.6682 C   0  0  0  0  0  0
    1.1043   52.8969   25.7168 C   0  0  0  0  0  0
    3.2239   53.2033   28.8919 C   0  0  0  0  0  0
    4.6086   53.4188   28.2255 C   0  0  0  0  0  0
    3.4432   52.2665   30.1086 C   0  0  0  0  0  0
    2.7133   54.5615   29.4240 C   0  0  0  0  0  0
    3.2803   53.7245   17.1760 N   0  0  0  0  0  0
    6.6893   58.2153   18.4293 C   0  0  0  0  0  0
    5.0511   57.4266   16.3050 H   0  0  0  0  0  0
    4.9665   55.7220   15.9275 H   0  0  0  0  0  0
    3.5791   56.5451   16.6345 H   0  0  0  0  0  0
    4.3835   52.0970   22.4794 H   0  0  0  0  0  0
    4.4644   50.9172   21.1811 H   0  0  0  0  0  0
    1.9638   53.6004   21.6827 H   0  0  0  0  0  0
    2.2340   52.8101   23.2503 H   0  0  0  0  0  0
   -0.1654   52.2781   21.3806 H   0  0  0  0  0  0
   -0.2018   53.2039   22.8815 H   0  0  0  0  0  0
    0.6792   49.1603   23.3640 H   0  0  0  0  0  0
    0.3810   49.6673   21.7030 H   0  0  0  0  0  0
    2.7042   50.5533   23.4971 H   0  0  0  0  0  0
    2.8496   49.4481   22.0980 H   0  0  0  0  0  0
    0.0062   50.1012   27.2908 H   0  0  0  0  0  0
    1.5720   50.8967   28.9845 H   0  0  0  0  0  0
    2.5381   54.2668   26.4740 H   0  0  0  0  0  0
    0.9358   53.4912   24.8341 H   0  0  0  0  0  0
    5.3509   53.7737   28.9422 H   0  0  0  0  0  0
    4.5749   54.1608   27.4269 H   0  0  0  0  0  0
    4.9938   52.4967   27.7914 H   0  0  0  0  0  0
    2.5235   52.0994   30.6715 H   0  0  0  0  0  0
    3.8292   51.2965   29.7913 H   0  0  0  0  0  0
    4.1681   52.6812   30.8103 H   0  0  0  0  0  0
    1.7775   54.4549   29.9731 H   0  0  0  0  0  0
    3.4420   55.0174   30.0897 H   0  0  0  0  0  0
    2.5384   55.2799   28.6223 H   0  0  0  0  0  0
    3.5902   54.3089   16.4139 H   0  0  0  0  0  0
    2.8123   52.8488   16.9929 H   0  0  0  0  0  0
    7.5240   58.0686   17.7388 H   0  0  0  0  0  0
    5.9816   58.8899   17.9387 H   0  0  0  0  0  0
    7.0814   58.7626   19.2892 H   0  0  0  0  0  0
  1  2  1  0  0  0
  1 33  1  0  0  0
  1 34  1  0  0  0
  1 35  1  0  0  0
  2  6  1  0  0  0
  2  3  2  0  0  0
  3  4  1  0  0  0
  3 32  1  0  0  0
  4  5  1  0  0  0
  5 10  2  0  0  0
  5  6  1  0  0  0
  6  7  2  0  0  0
  7  8  1  0  0  0
  7 31  1  0  0  0
  8  9  2  0  0  0
  9 10  1  0  0  0
  9 11  1  0  0  0
 11 12  1  0  0  0
 11 36  1  0  0  0
 11 37  1  0  0  0
 12 17  1  0  0  0
 12 13  1  0  0  0
 13 14  1  0  0  0
 13 38  1  0  0  0
 13 39  1  0  0  0
 14 15  1  0  0  0
 14 40  1  0  0  0
 14 41  1  0  0  0
 15 16  1  0  0  0
 15 18  1  0  0  0
 16 17  1  0  0  0
 16 42  1  0  0  0
 16 43  1  0  0  0
 17 44  1  0  0  0
 17 45  1  0  0  0
 18 19  2  0  0  0
 18 20  2  0  0  0
 18 21  1  0  0  0
 21 26  2  0  0  0
 21 22  1  0  0  0
 22 23  2  0  0  0
 22 46  1  0  0  0
 23 24  1  0  0  0
 23 47  1  0  0  0
 24 25  2  0  0  0
 24 27  1  0  0  0
 25 26  1  0  0  0
 25 48  1  0  0  0
 26 49  1  0  0  0
 27 28  1  0  0  0
 27 29  1  0  0  0
 27 30  1  0  0  0
 28 50  1  0  0  0
 28 51  1  0  0  0
 28 52  1  0  0  0
 29 53  1  0  0  0
 29 54  1  0  0  0
 29 55  1  0  0  0
 30 56  1  0  0  0
 30 57  1  0  0  0
 30 58  1  0  0  0
 31 59  1  0  0  0
 31 60  1  0  0  0
 32 61  1  0  0  0
 32 62  1  0  0  0
 32 63  1  0  0  0
M  END
> <i_i_glide_confnum>
6

> <i_i_glide_lignum>
2469

> <i_i_glide_posenum>
155

> <i_i_glide_rotatable_bonds>
5

> <i_m_Source_File_Index>
3408

> <b_m_subgroup_collapsed>
0

> <r_i_docking_score>
-2.8885

> <r_i_glide_ecoul>
2.3555

> <r_i_glide_eff_state_penalty>
0

> <r_i_glide_einternal>
4.42739

> <r_i_glide_emodel>
-41.2681

> <r_i_glide_energy>
-37.6128

> <r_i_glide_erotb>
0.36067

> <r_i_glide_esite>
-0.0546954

> <r_i_glide_evdw>
-39.9683

> <r_i_glide_gscore>
-2.8885

> <r_i_glide_hbond>
0

> <r_i_glide_ligand_efficiency>
-0.0902658

> <r_i_glide_ligand_efficiency_ln>
-0.646815

> <r_i_glide_ligand_efficiency_sa>
-0.286576

> <r_i_glide_lipo>
-2.10288

> <r_i_glide_metal>
0

> <r_i_glide_rewards>
0.553495

> <s_i_glide_gridfile>
wee1_glide-grid

> <s_m_Source_File>
wee1_decoys_glide_SP.sdf

> <s_m_Source_Path>
/Users/zhangxujun/Desktop

> <s_m_entry_id>
3683

> <s_m_entry_name>
wee1_decoys_glide_SP.3408

> <s_m_subgroup_title>
wee1_decoys_glide_SP

> <s_m_subgroupid>
wee1_decoys_glide_SP


$$$$
