ZINC32134091_1828
                    3D
 Schrodinger Suite 2024-2.
 35 36  0  0  1  0            999 V2000
    0.2826   53.6966   32.3779 C   0  0  0  0  0  0
    0.5164   53.7982   30.8816 C   0  0  0  0  0  0
    1.0429   54.8137   30.4294 O   0  0  0  0  0  0
    0.0952   52.7451   30.1561 N   0  0  0  0  0  0
    0.2572   52.5317   28.7780 C   0  0  0  0  0  0
   -0.6448   51.6664   28.1577 C   0  0  0  0  0  0
   -0.5295   51.3823   26.7974 C   0  0  0  0  0  0
    0.4988   51.9538   26.0481 C   0  0  0  0  0  0
    1.4257   52.8104   26.6512 C   0  0  0  0  0  0
    1.2982   53.0932   28.0226 C   0  0  0  0  0  0
    2.4475   53.3081   25.8181 N   0  0  0  0  0  0
    3.5062   54.0966   26.1150 C   0  0  0  0  0  0
    3.7357   54.5651   27.2300 O   0  0  0  0  0  0
    4.4676   54.3719   24.9749 C   0  0  0  0  0  0
    5.7283   54.9232   25.2528 C   0  0  0  0  0  0
    6.6318   55.1917   24.2281 C   0  0  0  0  0  0
    6.3044   54.8967   22.9060 C   0  0  0  0  0  0
    5.0571   54.3351   22.6065 C   0  0  0  0  0  0
    4.1427   54.0943   23.6323 C   0  0  0  0  0  0
    4.7040   54.0457   21.2844 N   0  0  0  0  0  0
    7.1827   55.2000   21.9219 F   0  0  0  0  0  0
   -0.7863   53.6968   32.5831 H   0  0  0  0  0  0
    0.7012   54.5477   32.9059 H   0  0  0  0  0  0
    0.7051   52.7790   32.7868 H   0  0  0  0  0  0
   -0.4475   52.0502   30.6517 H   0  0  0  0  0  0
   -1.4355   51.1950   28.7243 H   0  0  0  0  0  0
   -1.2298   50.7039   26.3327 H   0  0  0  0  0  0
    0.5785   51.7103   24.9985 H   0  0  0  0  0  0
    2.0097   53.7275   28.5179 H   0  0  0  0  0  0
    2.3983   52.9895   24.8647 H   0  0  0  0  0  0
    6.0130   55.1593   26.2687 H   0  0  0  0  0  0
    7.5816   55.6455   24.4572 H   0  0  0  0  0  0
    3.1796   53.6847   23.3699 H   0  0  0  0  0  0
    5.3672   54.2451   20.5489 H   0  0  0  0  0  0
    3.7729   53.7193   21.0626 H   0  0  0  0  0  0
  1  2  1  0  0  0
  1 22  1  0  0  0
  1 23  1  0  0  0
  1 24  1  0  0  0
  2  3  2  0  0  0
  2  4  1  0  0  0
  4  5  1  0  0  0
  4 25  1  0  0  0
  5 10  2  0  0  0
  5  6  1  0  0  0
  6  7  2  0  0  0
  6 26  1  0  0  0
  7  8  1  0  0  0
  7 27  1  0  0  0
  8  9  2  0  0  0
  8 28  1  0  0  0
  9 10  1  0  0  0
  9 11  1  0  0  0
 10 29  1  0  0  0
 11 12  1  0  0  0
 11 30  1  0  0  0
 12 13  2  0  0  0
 12 14  1  0  0  0
 14 19  2  0  0  0
 14 15  1  0  0  0
 15 16  2  0  0  0
 15 31  1  0  0  0
 16 17  1  0  0  0
 16 32  1  0  0  0
 17 18  2  0  0  0
 17 21  1  0  0  0
 18 19  1  0  0  0
 18 20  1  0  0  0
 19 33  1  0  0  0
 20 34  1  0  0  0
 20 35  1  0  0  0
M  END
> <i_i_glide_confnum>
7

> <i_i_glide_lignum>
1829

> <i_i_glide_posenum>
261

> <i_i_glide_rotatable_bonds>
5

> <i_m_Source_File_Index>
3761

> <b_m_subgroup_collapsed>
0

> <r_i_docking_score>
-5.53789

> <r_i_glide_ecoul>
-3.72934

> <r_i_glide_eff_state_penalty>
0

> <r_i_glide_einternal>
0.80356

> <r_i_glide_emodel>
-51.4577

> <r_i_glide_energy>
-37.479

> <r_i_glide_erotb>
0.880789

> <r_i_glide_esite>
-0.00852201

> <r_i_glide_evdw>
-33.7497

> <r_i_glide_gscore>
-5.53789

> <r_i_glide_hbond>
-0.00458974

> <r_i_glide_ligand_efficiency>
-0.263709

> <r_i_glide_ligand_efficiency_ln>
-1.36923

> <r_i_glide_ligand_efficiency_sa>
-0.727553

> <r_i_glide_lipo>
-1.99559

> <r_i_glide_metal>
0

> <r_i_glide_rewards>
-2.16309

> <s_i_glide_gridfile>
wee1_glide-grid

> <s_m_Source_File>
wee1_decoys_glide_SP.sdf

> <s_m_Source_Path>
/Users/zhangxujun/Desktop

> <s_m_entry_id>
4036

> <s_m_entry_name>
wee1_decoys_glide_SP.3761

> <s_m_subgroup_title>
wee1_decoys_glide_SP

> <s_m_subgroupid>
wee1_decoys_glide_SP


$$$$
