ZINC08835240_4365
                    3D
 Schrodinger Suite 2024-2.
 41 44  0  0  1  0            999 V2000
   -0.4489   52.0966   29.9810 C   0  0  0  0  0  0
   -0.2790   51.9065   28.6071 C   0  0  0  0  0  0
    0.7551   52.6491   28.0274 C   0  0  0  0  0  0
    1.5616   53.5189   28.7796 C   0  0  0  0  0  0
    1.3896   53.7074   30.0902 N   0  0  0  0  0  0
    0.3853   52.9884   30.6706 C   0  0  0  0  0  0
    2.5039   54.0827   27.9670 N   0  0  0  0  0  0
    2.2453   53.5558   26.7837 C   0  0  0  0  0  0
    1.1885   52.6839   26.7424 O   0  0  0  0  0  0
    3.0031   53.7759   25.5199 C   0  0  0  0  0  0
    4.2970   54.3118   25.5426 C   0  0  0  0  0  0
    5.0143   54.4732   24.3580 C   0  0  0  0  0  0
    4.4528   54.0968   23.1385 C   0  0  0  0  0  0
    3.1543   53.5664   23.1023 C   0  0  0  0  0  0
    2.4304   53.4269   24.2921 C   0  0  0  0  0  0
    2.5933   53.1947   21.8675 N   0  0  0  0  0  0
    2.0801   52.0040   21.4265 C   0  0  0  0  0  0
    1.9041   50.6320   22.3924 S   0  0  0  0  0  0
    1.7556   52.1128   20.0992 N   0  0  0  0  0  0
    1.3444   51.2194   19.1648 C   0  0  0  0  0  0
    1.1755   50.0102   19.3408 O   0  0  0  0  0  0
    1.1272   51.8125   17.7943 C   0  0  0  0  0  0
    1.4659   51.0704   16.6558 C   0  0  0  0  0  0
    1.2860   51.6056   15.3810 C   0  0  0  0  0  0
    0.7469   52.8830   15.2217 C   0  0  0  0  0  0
    0.3934   53.6307   16.3511 C   0  0  0  0  0  0
    0.5880   53.0982   17.6265 C   0  0  0  0  0  0
   -0.2833   55.2183   16.2085 Cl  0  0  0  0  0  0
    0.5255   53.5073   13.6257 Cl  0  0  0  0  0  0
    5.3878   54.3142   21.6977 Cl  0  0  0  0  0  0
   -1.2106   51.5349   30.5008 H   0  0  0  0  0  0
   -0.8851   51.2177   28.0370 H   0  0  0  0  0  0
    0.2623   53.1246   31.7374 H   0  0  0  0  0  0
    4.7574   54.5923   26.4808 H   0  0  0  0  0  0
    6.0161   54.8799   24.3886 H   0  0  0  0  0  0
    1.4263   53.0279   24.2623 H   0  0  0  0  0  0
    2.6424   53.9284   21.1735 H   0  0  0  0  0  0
    1.8515   53.0469   19.7302 H   0  0  0  0  0  0
    1.8861   50.0796   16.7506 H   0  0  0  0  0  0
    1.5685   51.0227   14.5149 H   0  0  0  0  0  0
    0.3059   53.6957   18.4816 H   0  0  0  0  0  0
  1  6  2  0  0  0
  1  2  1  0  0  0
  1 31  1  0  0  0
  2  3  2  0  0  0
  2 32  1  0  0  0
  3  9  1  0  0  0
  3  4  1  0  0  0
  4  5  2  0  0  0
  4  7  1  0  0  0
  5  6  1  0  0  0
  6 33  1  0  0  0
  7  8  2  0  0  0
  8  9  1  0  0  0
  8 10  1  0  0  0
 10 15  2  0  0  0
 10 11  1  0  0  0
 11 12  2  0  0  0
 11 34  1  0  0  0
 12 13  1  0  0  0
 12 35  1  0  0  0
 13 14  2  0  0  0
 13 30  1  0  0  0
 14 15  1  0  0  0
 14 16  1  0  0  0
 15 36  1  0  0  0
 16 17  1  0  0  0
 16 37  1  0  0  0
 17 18  2  0  0  0
 17 19  1  0  0  0
 19 20  1  0  0  0
 19 38  1  0  0  0
 20 21  2  0  0  0
 20 22  1  0  0  0
 22 27  2  0  0  0
 22 23  1  0  0  0
 23 24  2  0  0  0
 23 39  1  0  0  0
 24 25  1  0  0  0
 24 40  1  0  0  0
 25 26  2  0  0  0
 25 29  1  0  0  0
 26 27  1  0  0  0
 26 28  1  0  0  0
 27 41  1  0  0  0
M  END
> <i_i_glide_confnum>
1

> <i_i_glide_lignum>
4366

> <i_i_glide_posenum>
329

> <i_i_glide_rotatable_bonds>
6

> <i_m_Source_File_Index>
2190

> <b_m_subgroup_collapsed>
0

> <r_i_docking_score>
-5.02471

> <r_i_glide_ecoul>
-5.55358

> <r_i_glide_eff_state_penalty>
0

> <r_i_glide_einternal>
1.75183

> <r_i_glide_emodel>
-58.009

> <r_i_glide_energy>
-43.4095

> <r_i_glide_erotb>
0.443807

> <r_i_glide_esite>
-0.0458894

> <r_i_glide_evdw>
-37.856

> <r_i_glide_gscore>
-5.02471

> <r_i_glide_hbond>
-0.338658

> <r_i_glide_ligand_efficiency>
-0.16749

> <r_i_glide_ligand_efficiency_ln>
-1.14167

> <r_i_glide_ligand_efficiency_sa>
-0.520431

> <r_i_glide_lipo>
-1.77728

> <r_i_glide_metal>
0

> <r_i_glide_rewards>
-0.580855

> <s_i_glide_gridfile>
wee1_glide-grid

> <s_m_Source_File>
wee1_decoys_glide_SP.sdf

> <s_m_Source_Path>
/Users/zhangxujun/Desktop

> <s_m_entry_id>
2465

> <s_m_entry_name>
wee1_decoys_glide_SP.2190

> <s_m_subgroup_title>
wee1_decoys_glide_SP

> <s_m_subgroupid>
wee1_decoys_glide_SP


$$$$
