ZINC39640366_2927
                    3D
 Schrodinger Suite 2024-2.
 66 70  0  0  1  0            999 V2000
    6.1869   55.3519   24.1272 C   0  0  0  0  0  0
    6.8699   54.2589   24.9495 C   0  0  0  0  0  0
    6.8697   54.5350   26.3536 O   0  0  0  0  0  0
    5.8088   54.3626   27.2022 C   0  0  0  0  0  0
    5.9129   54.4967   28.4168 O   0  0  0  0  0  0
    4.5787   54.0177   26.5476 N   0  3  0  0  0  0
    3.4013   53.6961   27.0973 C   0  0  0  0  0  0
    2.3815   53.3489   26.1962 C   0  0  0  0  0  0
    1.1788   52.8891   26.6153 C   0  0  0  0  0  0
    0.8601   52.7432   28.0303 C   0  0  0  0  0  0
   -0.2604   52.1776   28.5478 C   0  0  0  0  0  0
   -0.3552   52.0867   30.0048 C   0  0  0  0  0  0
    0.6578   52.5057   30.7937 C   0  0  0  0  0  0
    0.7044   52.3726   32.1431 O   0  0  0  0  0  0
    1.7666   53.1190   30.2888 O   0  0  0  0  0  0
    1.9129   53.1947   28.9353 C   0  0  0  0  0  0
    3.1087   53.6433   28.4828 C   0  0  0  0  0  0
   -1.3111   51.5182   27.6633 C   0  0  0  0  0  0
   -0.6981   50.4968   26.8819 O   0  0  0  0  0  0
   -1.0425   50.2607   25.6092 C   0  0  0  0  0  0
   -1.9001   50.8771   24.9697 O   0  0  0  0  0  0
   -0.1961   49.1242   25.0009 C   0  0  0  0  0  0
   -0.0077   49.2989   23.5522 N   0  0  0  0  0  0
    0.8120   50.2030   22.9751 C   0  0  0  0  0  0
    1.5101   50.9638   23.6515 O   0  0  0  0  0  0
    0.8622   50.2742   21.4184 C   0  0  0  0  0  0
    2.1529   49.5445   20.9302 C   0  0  0  0  0  0
    2.2491   49.6211   19.3813 C   0  0  2  0  0  0
    2.3157   51.1083   18.9459 C   0  0  0  0  0  0
    1.0338   51.8488   19.4140 C   0  0  2  0  0  0
    0.9259   51.7702   20.9595 C   0  0  0  0  0  0
   -0.2090   51.1766   18.7749 C   0  0  0  0  0  0
   -0.2799   49.6871   19.2040 C   0  0  1  0  0  0
    1.0045   48.9541   18.7404 C   0  0  0  0  0  0
   -0.3838   49.5946   20.7490 C   0  0  0  0  0  0
    6.4253   55.2390   23.0691 H   0  0  0  0  0  0
    5.1032   55.2968   24.2217 H   0  0  0  0  0  0
    6.5149   56.3450   24.4359 H   0  0  0  0  0  0
    7.9040   54.1753   24.6184 H   0  0  0  0  0  0
    6.4112   53.2967   24.7450 H   0  0  0  0  0  0
    4.6485   53.9834   25.5373 H   0  0  0  0  0  0
    2.5607   53.4234   25.1312 H   0  0  0  0  0  0
    0.4490   52.6355   25.8616 H   0  0  0  0  0  0
   -1.2014   51.5812   30.4524 H   0  0  0  0  0  0
    3.8396   53.9348   29.2157 H   0  0  0  0  0  0
   -1.8031   52.2801   27.0575 H   0  0  0  0  0  0
   -2.0845   51.0534   28.2755 H   0  0  0  0  0  0
   -0.6953   48.1750   25.1969 H   0  0  0  0  0  0
    0.7718   49.0564   25.5033 H   0  0  0  0  0  0
   -0.5486   48.6983   22.9497 H   0  0  0  0  0  0
    2.1608   48.5024   21.2504 H   0  0  0  0  0  0
    3.0448   49.9961   21.3692 H   0  0  0  0  0  0
    3.1410   49.1014   19.0354 H   0  0  0  0  0  0
    2.4242   51.1763   17.8615 H   0  0  0  0  0  0
    3.2066   51.5848   19.3596 H   0  0  0  0  0  0
    1.0848   52.8940   19.1056 H   0  0  0  0  0  0
    1.7852   52.2820   21.3996 H   0  0  0  0  0  0
    0.0455   52.3189   21.3002 H   0  0  0  0  0  0
   -0.1579   51.2533   17.6880 H   0  0  0  0  0  0
   -1.1183   51.6994   19.0729 H   0  0  0  0  0  0
   -1.1538   49.2191   18.7467 H   0  0  0  0  0  0
    0.9593   47.8978   19.0105 H   0  0  0  0  0  0
    1.0854   48.9814   17.6522 H   0  0  0  0  0  0
   -1.3093   50.0695   21.0824 H   0  0  0  0  0  0
   -0.4579   48.5434   21.0326 H   0  0  0  0  0  0
   -0.1769   52.0971   32.4810 H   0  0  0  0  0  0
  1  2  1  0  0  0
  1 36  1  0  0  0
  1 37  1  0  0  0
  1 38  1  0  0  0
  2  3  1  0  0  0
  2 39  1  0  0  0
  2 40  1  0  0  0
  3  4  1  0  0  0
  4  5  2  0  0  0
  4  6  1  0  0  0
  6  7  2  0  0  0
  6 41  1  0  0  0
  7 17  1  0  0  0
  7  8  1  0  0  0
  8  9  2  0  0  0
  8 42  1  0  0  0
  9 10  1  0  0  0
  9 43  1  0  0  0
 10 16  1  0  0  0
 10 11  2  0  0  0
 11 12  1  0  0  0
 11 18  1  0  0  0
 12 13  2  0  0  0
 12 44  1  0  0  0
 13 14  1  0  0  0
 13 15  1  0  0  0
 14 66  1  0  0  0
 15 16  1  0  0  0
 16 17  2  0  0  0
 17 45  1  0  0  0
 18 19  1  0  0  0
 18 46  1  0  0  0
 18 47  1  0  0  0
 19 20  1  0  0  0
 20 21  2  0  0  0
 20 22  1  0  0  0
 22 23  1  0  0  0
 22 48  1  0  0  0
 22 49  1  0  0  0
 23 24  1  0  0  0
 23 50  1  0  0  0
 24 25  2  0  0  0
 24 26  1  0  0  0
 26 31  1  0  0  0
 26 35  1  0  0  0
 26 27  1  0  0  0
 27 28  1  0  0  0
 27 51  1  0  0  0
 27 52  1  0  0  0
 28 34  1  0  0  0
 28 29  1  0  0  0
 28 53  1  0  0  0
 29 30  1  0  0  0
 29 54  1  0  0  0
 29 55  1  0  0  0
 30 31  1  0  0  0
 30 32  1  0  0  0
 30 56  1  0  0  0
 31 57  1  0  0  0
 31 58  1  0  0  0
 32 33  1  0  0  0
 32 59  1  0  0  0
 32 60  1  0  0  0
 33 34  1  0  0  0
 33 35  1  0  0  0
 33 61  1  0  0  0
 34 62  1  0  0  0
 34 63  1  0  0  0
 35 64  1  0  0  0
 35 65  1  0  0  0
M  CHG  1   6   1
M  END
> <i_i_glide_confnum>
180

> <i_i_glide_lignum>
2928

> <i_i_glide_posenum>
304

> <i_i_glide_rotatable_bonds>
11

> <i_m_Source_File_Index>
3620

> <b_m_subgroup_collapsed>
0

> <r_i_docking_score>
-4.48192

> <r_i_glide_ecoul>
-8.04401

> <r_i_glide_eff_state_penalty>
0

> <r_i_glide_einternal>
5.08221

> <r_i_glide_emodel>
-64.726

> <r_i_glide_energy>
-53.2354

> <r_i_glide_erotb>
0.694646

> <r_i_glide_esite>
-0.0569159

> <r_i_glide_evdw>
-45.1914

> <r_i_glide_gscore>
-4.48192

> <r_i_glide_hbond>
-0.24193

> <r_i_glide_ligand_efficiency>
-0.128055

> <r_i_glide_ligand_efficiency_ln>
-0.983882

> <r_i_glide_ligand_efficiency_sa>
-0.418876

> <r_i_glide_lipo>
-1.49612

> <r_i_glide_metal>
0

> <r_i_glide_rewards>
0.0845685

> <s_i_glide_gridfile>
wee1_glide-grid

> <s_m_Source_File>
wee1_decoys_glide_SP.sdf

> <s_m_Source_Path>
/Users/zhangxujun/Desktop

> <s_m_entry_id>
3895

> <s_m_entry_name>
wee1_decoys_glide_SP.3620

> <s_m_subgroup_title>
wee1_decoys_glide_SP

> <s_m_subgroupid>
wee1_decoys_glide_SP


$$$$
