ZINC34681165_270
                    3D
 Schrodinger Suite 2024-2.
 57 60  0  0  1  0            999 V2000
   -8.0672   49.3917   29.3617 C   0  0  0  0  0  0
   -7.6348   50.3533   28.4513 C   0  0  0  0  0  0
   -6.2947   50.7317   28.4265 C   0  0  0  0  0  0
   -5.3865   50.1381   29.3161 C   0  0  0  0  0  0
   -5.8328   49.1819   30.2322 C   0  0  0  0  0  0
   -7.1730   48.8063   30.2542 C   0  0  0  0  0  0
   -4.0192   50.4536   29.3779 N   0  0  0  0  0  0
   -3.2445   51.0920   28.4816 C   0  0  0  0  0  0
   -3.5982   51.4733   27.3643 O   0  0  0  0  0  0
   -2.0217   51.2966   29.0121 N   0  0  0  0  0  0
   -0.8896   51.8512   28.4039 C   0  0  0  0  0  0
    0.0839   52.4142   29.2355 C   0  0  0  0  0  0
    1.1814   53.0661   28.6669 C   0  0  0  0  0  0
    1.3083   53.1471   27.2677 C   0  0  0  0  0  0
    0.3870   52.4964   26.5189 N   0  3  0  0  0  0
   -0.6895   51.8641   27.0182 C   0  0  0  0  0  0
    2.3479   53.9081   26.6202 N   0  0  0  0  0  0
    3.1770   54.8410   27.4040 C   0  0  0  0  0  0
    4.6326   54.4141   27.5966 C   0  0  0  0  0  0
    5.1853   53.5158   26.4884 C   0  0  0  0  0  0
    4.9785   53.9199   25.0686 N   0  0  0  0  0  0
    3.6533   53.6032   24.4618 C   0  0  0  0  0  0
    2.3889   54.0805   25.1452 C   0  0  0  0  0  0
    6.0308   54.4946   24.4043 C   0  0  0  0  0  0
    6.9938   54.9451   25.0361 O   0  0  0  0  0  0
    6.0884   54.5737   22.8750 C   0  0  0  0  0  0
    6.9440   55.5183   22.2844 C   0  0  0  0  0  0
    6.9948   55.6956   20.9044 C   0  0  0  0  0  0
    6.2030   54.9052   20.0823 C   0  0  0  0  0  0
    5.4055   53.9067   20.6297 C   0  0  0  0  0  0
    5.3805   53.7150   22.0113 C   0  0  0  0  0  0
    6.2424   55.0786   18.7428 F   0  0  0  0  0  0
   -9.1072   49.0990   29.3775 H   0  0  0  0  0  0
   -8.3365   50.8045   27.7661 H   0  0  0  0  0  0
   -5.9858   51.4852   27.7196 H   0  0  0  0  0  0
   -5.1429   48.7174   30.9232 H   0  0  0  0  0  0
   -7.5158   48.0622   30.9581 H   0  0  0  0  0  0
   -3.5282   50.0165   30.1462 H   0  0  0  0  0  0
   -1.9005   51.0066   29.9729 H   0  0  0  0  0  0
   -0.0281   52.3830   30.3121 H   0  0  0  0  0  0
    1.9045   53.5172   29.3280 H   0  0  0  0  0  0
   -1.3547   51.4112   26.2954 H   0  0  0  0  0  0
    2.6923   55.1936   28.3138 H   0  0  0  0  0  0
    3.1999   55.6963   26.7518 H   0  0  0  0  0  0
    4.7286   53.8777   28.5420 H   0  0  0  0  0  0
    5.2685   55.2927   27.7068 H   0  0  0  0  0  0
    4.7799   52.5116   26.5892 H   0  0  0  0  0  0
    6.2480   53.3556   26.6849 H   0  0  0  0  0  0
    3.5501   54.0047   23.4588 H   0  0  0  0  0  0
    3.5042   52.5186   24.4414 H   0  0  0  0  0  0
    2.3465   55.1294   24.8815 H   0  0  0  0  0  0
    1.5229   53.6154   24.6785 H   0  0  0  0  0  0
    7.5839   56.1261   22.9045 H   0  0  0  0  0  0
    7.6525   56.4304   20.4670 H   0  0  0  0  0  0
    4.8382   53.2575   19.9775 H   0  0  0  0  0  0
    4.8158   52.8718   22.3735 H   0  0  0  0  0  0
    0.4956   52.5164   25.5155 H   0  0  0  0  0  0
  1  6  2  0  0  0
  1  2  1  0  0  0
  1 33  1  0  0  0
  2  3  2  0  0  0
  2 34  1  0  0  0
  3  4  1  0  0  0
  3 35  1  0  0  0
  4  5  2  0  0  0
  4  7  1  0  0  0
  5  6  1  0  0  0
  5 36  1  0  0  0
  6 37  1  0  0  0
  7  8  1  0  0  0
  7 38  1  0  0  0
  8  9  2  0  0  0
  8 10  1  0  0  0
 10 11  1  0  0  0
 10 39  1  0  0  0
 11 16  2  0  0  0
 11 12  1  0  0  0
 12 13  2  0  0  0
 12 40  1  0  0  0
 13 14  1  0  0  0
 13 41  1  0  0  0
 14 15  2  0  0  0
 14 17  1  0  0  0
 15 16  1  0  0  0
 15 57  1  0  0  0
 16 42  1  0  0  0
 17 23  1  0  0  0
 17 18  1  0  0  0
 18 19  1  0  0  0
 18 43  1  0  0  0
 18 44  1  0  0  0
 19 20  1  0  0  0
 19 45  1  0  0  0
 19 46  1  0  0  0
 20 21  1  0  0  0
 20 47  1  0  0  0
 20 48  1  0  0  0
 21 22  1  0  0  0
 21 24  1  0  0  0
 22 23  1  0  0  0
 22 49  1  0  0  0
 22 50  1  0  0  0
 23 51  1  0  0  0
 23 52  1  0  0  0
 24 25  2  0  0  0
 24 26  1  0  0  0
 26 31  2  0  0  0
 26 27  1  0  0  0
 27 28  2  0  0  0
 27 53  1  0  0  0
 28 29  1  0  0  0
 28 54  1  0  0  0
 29 30  2  0  0  0
 29 32  1  0  0  0
 30 31  1  0  0  0
 30 55  1  0  0  0
 31 56  1  0  0  0
M  CHG  1  15   1
M  END
> <i_i_glide_confnum>
849

> <i_i_glide_lignum>
271

> <i_i_glide_posenum>
108

> <i_i_glide_rotatable_bonds>
7

> <i_m_Source_File_Index>
5159

> <b_m_subgroup_collapsed>
0

> <r_i_docking_score>
-5.41765

> <r_i_glide_ecoul>
-2.96098

> <r_i_glide_eff_state_penalty>
0

> <r_i_glide_einternal>
15.4198

> <r_i_glide_emodel>
-38.4852

> <r_i_glide_energy>
-29.5908

> <r_i_glide_erotb>
0.633002

> <r_i_glide_esite>
-0.280374

> <r_i_glide_evdw>
-26.6298

> <r_i_glide_gscore>
-5.41765

> <r_i_glide_hbond>
-0.238141

> <r_i_glide_ligand_efficiency>
-0.169302

> <r_i_glide_ligand_efficiency_ln>
-1.21316

> <r_i_glide_ligand_efficiency_sa>
-0.537499

> <r_i_glide_lipo>
-2.28689

> <r_i_glide_metal>
0

> <r_i_glide_rewards>
-1.46961

> <s_i_glide_gridfile>
wee1_glide-grid

> <s_m_Source_File>
wee1_decoys_glide_SP.sdf

> <s_m_Source_Path>
/Users/zhangxujun/Desktop

> <s_m_entry_id>
5434

> <s_m_entry_name>
wee1_decoys_glide_SP.5159

> <s_m_subgroup_title>
wee1_decoys_glide_SP

> <s_m_subgroupid>
wee1_decoys_glide_SP


$$$$
