ZINC13035475_1928
                    3D
 Schrodinger Suite 2024-2.
 41 43  0  0  1  0            999 V2000
    6.1808   54.8962   21.7717 C   0  0  0  0  0  0
    5.0466   54.0928   21.8954 C   0  0  0  0  0  0
    4.6021   53.7000   23.1586 C   0  0  0  0  0  0
    5.2848   54.1227   24.3022 C   0  0  0  0  0  0
    6.4333   54.9151   24.1788 C   0  0  0  0  0  0
    6.8753   55.2983   22.9123 C   0  0  0  0  0  0
    7.1042   55.4090   25.2820 O   0  0  0  0  0  0
    6.8320   54.6912   26.4900 C   0  0  0  0  0  0
    5.3114   54.4525   26.6547 C   0  0  1  0  0  0
    4.8119   55.4210   26.6474 H   0  0  0  0  0  0
    4.8289   53.6967   25.5354 O   0  0  0  0  0  0
    4.9888   53.7382   27.9854 C   0  0  0  0  0  0
    3.6127   53.2530   28.0561 N   0  0  0  0  0  0
    2.9026   53.0511   29.1787 C   0  0  0  0  0  0
    3.3405   53.3013   30.3021 O   0  0  0  0  0  0
    1.4765   52.4948   29.0233 C   0  0  0  0  0  0
    1.3950   51.7084   27.8319 O   0  0  0  0  0  0
    0.2305   51.8178   27.1115 C   0  0  0  0  0  0
   -0.9674   51.2968   27.6056 C   0  0  0  0  0  0
   -2.1435   51.3957   26.8590 C   0  0  0  0  0  0
   -2.1407   52.0107   25.5963 C   0  0  0  0  0  0
   -0.9240   52.4968   25.1005 C   0  0  0  0  0  0
    0.2375   52.4425   25.8625 C   0  0  0  0  0  0
    1.7974   53.2958   25.1938 Br  0  0  0  0  0  0
   -3.3991   52.1857   24.8001 C   0  0  0  0  0  0
   -4.4757   51.7909   25.3036 O   0  0  0  0  0  0
    6.5210   55.2031   20.7937 H   0  0  0  0  0  0
    4.5107   53.7734   21.0132 H   0  0  0  0  0  0
    3.7305   53.0712   23.2394 H   0  0  0  0  0  0
    7.7473   55.9277   22.8155 H   0  0  0  0  0  0
    7.2227   55.2604   27.3327 H   0  0  0  0  0  0
    7.3457   53.7288   26.4640 H   0  0  0  0  0  0
    5.2270   54.4025   28.8193 H   0  0  0  0  0  0
    5.6466   52.8755   28.1041 H   0  0  0  0  0  0
    3.1945   52.9737   27.1787 H   0  0  0  0  0  0
    0.7808   53.3374   29.0270 H   0  0  0  0  0  0
    1.2376   51.8607   29.8783 H   0  0  0  0  0  0
   -0.9876   50.8150   28.5722 H   0  0  0  0  0  0
   -3.0567   50.9884   27.2711 H   0  0  0  0  0  0
   -0.8821   52.9878   24.1377 H   0  0  0  0  0  0
   -3.3006   52.7451   23.6823 O   0  5  0  0  0  0
  1  6  2  0  0  0
  1  2  1  0  0  0
  1 27  1  0  0  0
  2  3  2  0  0  0
  2 28  1  0  0  0
  3  4  1  0  0  0
  3 29  1  0  0  0
  4 11  1  0  0  0
  4  5  2  0  0  0
  5  6  1  0  0  0
  5  7  1  0  0  0
  6 30  1  0  0  0
  7  8  1  0  0  0
  8  9  1  0  0  0
  8 31  1  0  0  0
  8 32  1  0  0  0
  9 10  1  0  0  0
  9 11  1  0  0  0
  9 12  1  0  0  0
 12 13  1  0  0  0
 12 33  1  0  0  0
 12 34  1  0  0  0
 13 14  1  0  0  0
 13 35  1  0  0  0
 14 15  2  0  0  0
 14 16  1  0  0  0
 16 17  1  0  0  0
 16 36  1  0  0  0
 16 37  1  0  0  0
 17 18  1  0  0  0
 18 23  2  0  0  0
 18 19  1  0  0  0
 19 20  2  0  0  0
 19 38  1  0  0  0
 20 21  1  0  0  0
 20 39  1  0  0  0
 21 22  2  0  0  0
 21 25  1  0  0  0
 22 23  1  0  0  0
 22 40  1  0  0  0
 23 24  1  0  0  0
 25 26  2  0  0  0
 25 41  1  0  0  0
M  CHG  1  41  -1
M  END
> <i_i_glide_confnum>
10

> <i_i_glide_lignum>
1929

> <i_i_glide_posenum>
2

> <i_i_glide_rotatable_bonds>
7

> <i_m_Source_File_Index>
4544

> <b_m_subgroup_collapsed>
0

> <r_i_docking_score>
-6.69055

> <r_i_glide_ecoul>
-6.15036

> <r_i_glide_eff_state_penalty>
0

> <r_i_glide_einternal>
7.08668

> <r_i_glide_emodel>
-60.6071

> <r_i_glide_energy>
-42.1681

> <r_i_glide_erotb>
0.557967

> <r_i_glide_esite>
0

> <r_i_glide_evdw>
-36.0177

> <r_i_glide_gscore>
-6.69055

> <r_i_glide_hbond>
-0.608

> <r_i_glide_ligand_efficiency>
-0.257329

> <r_i_glide_ligand_efficiency_ln>
-1.57125

> <r_i_glide_ligand_efficiency_sa>
-0.762335

> <r_i_glide_lipo>
-2.48616

> <r_i_glide_metal>
0

> <r_i_glide_rewards>
-1.43091

> <s_i_glide_gridfile>
wee1_glide-grid

> <s_m_Source_File>
wee1_decoys_glide_SP.sdf

> <s_m_Source_Path>
/Users/zhangxujun/Desktop

> <s_m_entry_id>
4819

> <s_m_entry_name>
wee1_decoys_glide_SP.4544

> <s_m_subgroup_title>
wee1_decoys_glide_SP

> <s_m_subgroupid>
wee1_decoys_glide_SP


$$$$
