ZINC39466804_5348
                    3D
 Schrodinger Suite 2024-2.
 58 62  0  0  1  0            999 V2000
   -6.5039   51.1935   31.1545 C   0  0  0  0  0  0
   -5.3025   50.4961   31.2636 C   0  0  0  0  0  0
   -4.4943   50.3415   30.1414 C   0  0  0  0  0  0
   -4.8814   50.8934   28.9173 C   0  0  0  0  0  0
   -6.0884   51.5889   28.8132 C   0  0  0  0  0  0
   -6.9020   51.7382   29.9343 C   0  0  0  0  0  0
   -3.9726   50.7486   27.7069 C   0  0  0  0  0  0
   -4.3877   49.3149   26.6215 P   0  0  2  0  0  0
   -5.2835   48.2826   27.2067 O   0  0  0  0  0  0
   -2.8966   48.7480   26.0816 N   0  0  0  0  0  0
   -2.0797   49.6377   25.2976 N   0  3  1  0  0  0
   -0.6496   49.0880   25.1324 C   0  0  0  0  0  0
    0.2232   49.9658   24.2034 C   0  0  2  0  0  0
    1.0874   49.3464   23.9462 H   0  0  0  0  0  0
    0.8193   51.2218   24.8569 C   0  0  0  0  0  0
    1.3343   52.2321   24.1170 C   0  0  0  0  0  0
    1.2160   52.1896   22.6604 C   0  0  0  0  0  0
    0.3811   51.3089   22.0666 C   0  0  0  0  0  0
   -0.4954   50.3293   22.8576 C   0  0  2  0  0  0
   -0.6048   49.4086   22.2804 H   0  0  0  0  0  0
   -1.8881   50.9375   23.1281 C   0  0  0  0  0  0
   -2.7958   50.0201   23.9785 C   0  0  2  0  0  0
   -2.9655   49.0643   23.4781 H   0  0  0  0  0  0
   -4.1495   50.6967   24.3334 C   0  0  0  0  0  0
   -4.9635   49.9252   25.2158 O   0  0  0  0  0  0
    2.2217   53.2069   21.6275 Cl  0  0  0  0  0  0
    1.9942   53.7007   24.9618 S   0  0  0  0  0  0
    1.8560   54.8660   24.0815 O   0  0  0  0  0  0
    1.5041   53.6976   26.3434 O   0  0  0  0  0  0
    3.5935   53.2966   25.0610 O   0  0  0  0  0  0
    4.5822   54.1019   24.5947 C   0  0  0  0  0  0
    5.1930   54.9795   25.4830 C   0  0  0  0  0  0
    6.3052   55.6972   25.0681 C   0  0  0  0  0  0
    6.7771   55.5337   23.7685 C   0  0  0  0  0  0
    6.1847   54.6404   22.8846 C   0  0  0  0  0  0
    5.0801   53.9145   23.3057 C   0  0  0  0  0  0
   -7.1336   51.3068   32.0250 H   0  0  0  0  0  0
   -4.9924   50.0870   32.2151 H   0  0  0  0  0  0
   -3.5638   49.7982   30.2274 H   0  0  0  0  0  0
   -6.3954   52.0088   27.8663 H   0  0  0  0  0  0
   -7.8398   52.2689   29.8568 H   0  0  0  0  0  0
   -3.9783   51.6725   27.1312 H   0  0  0  0  0  0
   -2.9480   50.6265   28.0635 H   0  0  0  0  0  0
   -2.3611   48.2751   26.8243 H   0  0  0  0  0  0
   -0.2420   49.0067   26.1427 H   0  0  0  0  0  0
   -0.7528   48.0748   24.7421 H   0  0  0  0  0  0
    0.8748   51.2830   25.9354 H   0  0  0  0  0  0
    0.3360   51.2964   20.9865 H   0  0  0  0  0  0
   -1.7674   51.8914   23.6472 H   0  0  0  0  0  0
   -2.3807   51.1446   22.1760 H   0  0  0  0  0  0
   -3.9889   51.6799   24.7799 H   0  0  0  0  0  0
   -4.7270   50.8735   23.4244 H   0  0  0  0  0  0
    4.8199   55.0799   26.4918 H   0  0  0  0  0  0
    6.7907   56.3843   25.7426 H   0  0  0  0  0  0
    7.6377   56.0953   23.4399 H   0  0  0  0  0  0
    6.5818   54.5109   21.8886 H   0  0  0  0  0  0
    4.6441   53.1784   22.6511 H   0  0  0  0  0  0
   -2.0087   50.4809   25.8494 H   0  0  0  0  0  0
  1  6  2  0  0  0
  1  2  1  0  0  0
  1 37  1  0  0  0
  2  3  2  0  0  0
  2 38  1  0  0  0
  3  4  1  0  0  0
  3 39  1  0  0  0
  4  5  2  0  0  0
  4  7  1  0  0  0
  5  6  1  0  0  0
  5 40  1  0  0  0
  6 41  1  0  0  0
  7  8  1  0  0  0
  7 42  1  0  0  0
  7 43  1  0  0  0
  8 25  1  0  0  0
  8  9  2  0  0  0
  8 10  1  0  0  0
 10 11  1  0  0  0
 10 44  1  0  0  0
 11 22  1  0  0  0
 11 12  1  0  0  0
 11 58  1  0  0  0
 12 13  1  0  0  0
 12 45  1  0  0  0
 12 46  1  0  0  0
 13 14  1  0  0  0
 13 19  1  0  0  0
 13 15  1  0  0  0
 15 16  2  0  0  0
 15 47  1  0  0  0
 16 17  1  0  0  0
 16 27  1  0  0  0
 17 18  2  0  0  0
 17 26  1  0  0  0
 18 19  1  0  0  0
 18 48  1  0  0  0
 19 20  1  0  0  0
 19 21  1  0  0  0
 21 22  1  0  0  0
 21 49  1  0  0  0
 21 50  1  0  0  0
 22 23  1  0  0  0
 22 24  1  0  0  0
 24 25  1  0  0  0
 24 51  1  0  0  0
 24 52  1  0  0  0
 27 28  2  0  0  0
 27 29  2  0  0  0
 27 30  1  0  0  0
 30 31  1  0  0  0
 31 36  2  0  0  0
 31 32  1  0  0  0
 32 33  2  0  0  0
 32 53  1  0  0  0
 33 34  1  0  0  0
 33 54  1  0  0  0
 34 35  2  0  0  0
 34 55  1  0  0  0
 35 36  1  0  0  0
 35 56  1  0  0  0
 36 57  1  0  0  0
M  CHG  1  11   1
M  END
> <i_i_glide_confnum>
30

> <i_i_glide_lignum>
5349

> <i_i_glide_posenum>
312

> <i_i_glide_rotatable_bonds>
5

> <i_m_Source_File_Index>
1846

> <b_m_subgroup_collapsed>
0

> <r_i_docking_score>
-4.29466

> <r_i_glide_ecoul>
-4.51405

> <r_i_glide_eff_state_penalty>
0

> <r_i_glide_einternal>
9.07164

> <r_i_glide_emodel>
-43.5157

> <r_i_glide_energy>
-34.3716

> <r_i_glide_erotb>
0.39669

> <r_i_glide_esite>
-0.199107

> <r_i_glide_evdw>
-29.8575

> <r_i_glide_gscore>
-4.29466

> <r_i_glide_hbond>
-0.16

> <r_i_glide_ligand_efficiency>
-0.130141

> <r_i_glide_ligand_efficiency_ln>
-0.955111

> <r_i_glide_ligand_efficiency_sa>
-0.417433

> <r_i_glide_lipo>
-1.85229

> <r_i_glide_metal>
0

> <r_i_glide_rewards>
-0.309971

> <s_i_glide_gridfile>
wee1_glide-grid

> <s_m_Source_File>
wee1_decoys_glide_SP.sdf

> <s_m_Source_Path>
/Users/zhangxujun/Desktop

> <s_m_entry_id>
2121

> <s_m_entry_name>
wee1_decoys_glide_SP.1846

> <s_m_subgroup_title>
wee1_decoys_glide_SP

> <s_m_subgroupid>
wee1_decoys_glide_SP


$$$$
