ZINC14275800_5983
                    3D
 Schrodinger Suite 2024-2.
 54 57  0  0  1  0            999 V2000
   -0.1101   48.6355   25.6812 C   0  0  0  0  0  0
    0.3263   49.8761   24.9154 C   0  0  0  0  0  0
    0.9036   49.7084   23.6496 C   0  0  0  0  0  0
    1.3833   50.8374   22.9737 C   0  0  0  0  0  0
    1.1936   52.1274   23.5157 C   0  0  0  0  0  0
    0.5406   52.2990   24.7377 C   0  0  0  0  0  0
    0.1982   51.1590   25.4778 C   0  0  0  0  0  0
   -0.2251   51.2999   26.8176 N   0  0  0  0  0  0
    0.3313   52.0697   27.8024 C   0  0  0  0  0  0
   -0.4353   52.0965   29.2835 S   0  0  0  0  0  0
    1.5092   52.6981   27.4830 N   0  0  0  0  0  0
    2.1473   53.7743   28.0022 C   0  0  0  0  0  0
    1.7527   54.4610   28.9490 O   0  0  0  0  0  0
    3.4192   54.1364   27.2743 C   0  0  0  0  0  0
    3.4347   54.1384   25.8702 C   0  0  0  0  0  0
    4.5754   54.5006   25.1658 C   0  0  0  0  0  0
    5.7279   54.8630   25.8503 C   0  0  0  0  0  0
    5.7540   54.8267   27.2422 C   0  0  0  0  0  0
    4.6056   54.4755   27.9574 C   0  0  0  0  0  0
    4.7044   54.4976   29.6817 Cl  0  0  0  0  0  0
    7.1045   55.3871   24.9618 Cl  0  0  0  0  0  0
    1.7677   53.0553   22.7086 N   0  0  0  0  0  0
    2.3048   52.2762   21.7405 N   0  0  0  0  0  0
    2.0748   50.9408   21.8059 N   0  0  0  0  0  0
    3.1287   52.8375   20.7353 C   0  0  0  0  0  0
    3.1052   52.3260   19.4320 C   0  0  0  0  0  0
    3.9085   52.8965   18.4485 C   0  0  0  0  0  0
    4.7606   53.9623   18.7575 C   0  0  0  0  0  0
    4.7895   54.4678   20.0602 C   0  0  0  0  0  0
    3.9721   53.9148   21.0404 C   0  0  0  0  0  0
    5.6748   54.5448   17.6778 C   0  0  0  0  0  0
    7.1366   54.1102   17.8930 C   0  0  0  0  0  0
    5.5447   56.0758   17.5483 C   0  0  0  0  0  0
   -0.0665   47.7309   25.0748 H   0  0  0  0  0  0
    0.5223   48.4981   26.5586 H   0  0  0  0  0  0
   -1.1355   48.7459   26.0391 H   0  0  0  0  0  0
    1.0440   48.7231   23.2315 H   0  0  0  0  0  0
    0.3999   53.2917   25.1410 H   0  0  0  0  0  0
   -1.0026   50.7152   27.0938 H   0  0  0  0  0  0
    1.9933   52.2835   26.7004 H   0  0  0  0  0  0
    2.5518   53.8986   25.3005 H   0  0  0  0  0  0
    4.5608   54.5257   24.0887 H   0  0  0  0  0  0
    6.6551   55.1041   27.7722 H   0  0  0  0  0  0
    2.4738   51.4874   19.1699 H   0  0  0  0  0  0
    3.8949   52.4734   17.4535 H   0  0  0  0  0  0
    5.4444   55.2901   20.3142 H   0  0  0  0  0  0
    3.9986   54.3352   22.0323 H   0  0  0  0  0  0
    5.3579   54.1293   16.7194 H   0  0  0  0  0  0
    7.2184   53.0224   17.9419 H   0  0  0  0  0  0
    7.5442   54.5133   18.8220 H   0  0  0  0  0  0
    7.7749   54.4496   17.0751 H   0  0  0  0  0  0
    4.5048   56.3751   17.4103 H   0  0  0  0  0  0
    5.9239   56.5955   18.4273 H   0  0  0  0  0  0
    6.1043   56.4434   16.6879 H   0  0  0  0  0  0
  1  2  1  0  0  0
  1 34  1  0  0  0
  1 35  1  0  0  0
  1 36  1  0  0  0
  2  7  1  0  0  0
  2  3  2  0  0  0
  3  4  1  0  0  0
  3 37  1  0  0  0
  4 24  2  0  0  0
  4  5  1  0  0  0
  5  6  1  0  0  0
  5 22  2  0  0  0
  6  7  2  0  0  0
  6 38  1  0  0  0
  7  8  1  0  0  0
  8  9  1  0  0  0
  8 39  1  0  0  0
  9 10  2  0  0  0
  9 11  1  0  0  0
 11 12  1  0  0  0
 11 40  1  0  0  0
 12 13  2  0  0  0
 12 14  1  0  0  0
 14 19  2  0  0  0
 14 15  1  0  0  0
 15 16  2  0  0  0
 15 41  1  0  0  0
 16 17  1  0  0  0
 16 42  1  0  0  0
 17 18  2  0  0  0
 17 21  1  0  0  0
 18 19  1  0  0  0
 18 43  1  0  0  0
 19 20  1  0  0  0
 22 23  1  0  0  0
 23 24  1  0  0  0
 23 25  1  0  0  0
 25 30  2  0  0  0
 25 26  1  0  0  0
 26 27  2  0  0  0
 26 44  1  0  0  0
 27 28  1  0  0  0
 27 45  1  0  0  0
 28 29  2  0  0  0
 28 31  1  0  0  0
 29 30  1  0  0  0
 29 46  1  0  0  0
 30 47  1  0  0  0
 31 32  1  0  0  0
 31 33  1  0  0  0
 31 48  1  0  0  0
 32 49  1  0  0  0
 32 50  1  0  0  0
 32 51  1  0  0  0
 33 52  1  0  0  0
 33 53  1  0  0  0
 33 54  1  0  0  0
M  END
> <i_i_glide_confnum>
5

> <i_i_glide_lignum>
5984

> <i_i_glide_posenum>
234

> <i_i_glide_rotatable_bonds>
7

> <i_m_Source_File_Index>
308

> <b_m_subgroup_collapsed>
0

> <r_i_docking_score>
-5.03983

> <r_i_glide_ecoul>
-3.28489

> <r_i_glide_eff_state_penalty>
0

> <r_i_glide_einternal>
6.04994

> <r_i_glide_emodel>
-63.3094

> <r_i_glide_energy>
-51.139

> <r_i_glide_erotb>
0.410697

> <r_i_glide_esite>
-0.0756072

> <r_i_glide_evdw>
-47.8541

> <r_i_glide_gscore>
-5.03983

> <r_i_glide_hbond>
0

> <r_i_glide_ligand_efficiency>
-0.152722

> <r_i_glide_ligand_efficiency_ln>
-1.12083

> <r_i_glide_ligand_efficiency_sa>
-0.489861

> <r_i_glide_lipo>
-2.07367

> <r_i_glide_metal>
0

> <r_i_glide_rewards>
-0.415807

> <s_i_glide_gridfile>
wee1_glide-grid

> <s_m_Source_File>
wee1_decoys_glide_SP.sdf

> <s_m_Source_Path>
/Users/zhangxujun/Desktop

> <s_m_entry_id>
583

> <s_m_entry_name>
wee1_decoys_glide_SP.308

> <s_m_subgroup_title>
wee1_decoys_glide_SP

> <s_m_subgroupid>
wee1_decoys_glide_SP


$$$$
