ZINC02661624_3453
                    3D
 Schrodinger Suite 2024-2.
 57 61  0  0  1  0            999 V2000
   -3.1436   49.8162   23.9768 C   0  0  0  0  0  0
   -2.9730   49.0808   22.8066 C   0  0  0  0  0  0
   -2.2395   47.8984   22.8329 C   0  0  0  0  0  0
   -1.6784   47.4398   24.0194 C   0  0  0  0  0  0
   -1.8439   48.1704   25.1896 C   0  0  0  0  0  0
   -2.5697   49.3658   25.1722 C   0  0  0  0  0  0
   -2.7375   50.1715   26.4547 C   0  0  0  0  0  0
   -1.0200   52.0181   25.9293 C   0  0  0  0  0  0
    0.4157   52.4966   26.0510 C   0  0  0  0  0  0
    0.9428   52.9098   24.8793 N   0  0  0  0  0  0
    2.2298   53.3352   24.8765 C   0  0  0  0  0  0
    2.9660   53.4224   26.0814 C   0  0  0  0  0  0
    4.3174   53.8183   26.3628 C   0  0  0  0  0  0
    4.6130   53.6977   27.7205 C   0  0  0  0  0  0
    3.2698   53.1131   28.6856 S   0  0  0  0  0  0
    2.2671   52.9901   27.2530 C   0  0  0  0  0  0
    1.0147   52.5167   27.2727 N   0  0  0  0  0  0
    5.9923   53.9368   28.3173 C   0  0  0  0  0  0
    6.8590   54.7628   27.3437 C   0  0  0  0  0  0
    6.7644   54.2466   25.9041 C   0  0  0  0  0  0
    5.3369   54.3167   25.3360 C   0  0  0  0  0  0
    2.8379   53.6336   23.6436 N   0  0  0  0  0  0
    2.1747   53.4857   22.3468 C   0  0  0  0  0  0
    2.2495   52.0729   21.7553 C   0  0  0  0  0  0
    1.9241   50.9348   22.5067 C   0  0  0  0  0  0
    1.9458   49.6731   21.9235 C   0  0  0  0  0  0
    2.2945   49.5370   20.5848 C   0  0  0  0  0  0
    2.6409   50.6556   19.8296 C   0  0  0  0  0  0
    2.6087   51.9219   20.4122 C   0  0  0  0  0  0
    2.2988   48.3095   20.0148 F   0  0  0  0  0  0
   -2.0697   47.1872   21.6963 F   0  0  0  0  0  0
   -3.7154   50.7332   23.9523 H   0  0  0  0  0  0
   -3.4050   49.4252   21.8792 H   0  0  0  0  0  0
   -1.1090   46.5240   24.0287 H   0  0  0  0  0  0
   -1.3988   47.8068   26.1078 H   0  0  0  0  0  0
   -2.9848   49.5169   27.2899 H   0  0  0  0  0  0
   -3.5059   50.9422   26.3813 H   0  0  0  0  0  0
   -1.7322   52.8313   26.0825 H   0  0  0  0  0  0
   -1.1760   51.6028   24.9313 H   0  0  0  0  0  0
    5.9308   54.4472   29.2789 H   0  0  0  0  0  0
    6.4756   52.9755   28.4850 H   0  0  0  0  0  0
    6.5421   55.8004   27.3763 H   0  0  0  0  0  0
    7.8997   54.7525   27.6801 H   0  0  0  0  0  0
    7.4407   54.8040   25.2532 H   0  0  0  0  0  0
    7.1044   53.2137   25.8791 H   0  0  0  0  0  0
    5.3210   53.7168   24.4252 H   0  0  0  0  0  0
    5.0972   55.3394   25.0424 H   0  0  0  0  0  0
    3.7725   54.0148   23.6470 H   0  0  0  0  0  0
    2.6621   54.1948   21.6757 H   0  0  0  0  0  0
    1.1286   53.7916   22.4106 H   0  0  0  0  0  0
    1.6561   51.0012   23.5450 H   0  0  0  0  0  0
    1.6967   48.8024   22.5095 H   0  0  0  0  0  0
    2.9369   50.5365   18.7954 H   0  0  0  0  0  0
    2.8630   52.7831   19.8110 H   0  0  0  0  0  0
   -1.4484   50.8965   26.8917 N   0  3  0  0  0  0
   -0.7228   50.1936   26.9422 H   0  0  0  0  0  0
   -1.5545   51.2531   27.8303 H   0  0  0  0  0  0
  1  6  2  0  0  0
  1  2  1  0  0  0
  1 32  1  0  0  0
  2  3  2  0  0  0
  2 33  1  0  0  0
  3  4  1  0  0  0
  3 31  1  0  0  0
  4  5  2  0  0  0
  4 34  1  0  0  0
  5  6  1  0  0  0
  5 35  1  0  0  0
  6  7  1  0  0  0
  7 36  1  0  0  0
  7 37  1  0  0  0
  7 55  1  0  0  0
  8  9  1  0  0  0
  8 38  1  0  0  0
  8 39  1  0  0  0
  8 55  1  0  0  0
  9 17  2  0  0  0
  9 10  1  0  0  0
 10 11  2  0  0  0
 11 12  1  0  0  0
 11 22  1  0  0  0
 12 16  2  0  0  0
 12 13  1  0  0  0
 13 21  1  0  0  0
 13 14  2  0  0  0
 14 15  1  0  0  0
 14 18  1  0  0  0
 15 16  1  0  0  0
 16 17  1  0  0  0
 18 19  1  0  0  0
 18 40  1  0  0  0
 18 41  1  0  0  0
 19 20  1  0  0  0
 19 42  1  0  0  0
 19 43  1  0  0  0
 20 21  1  0  0  0
 20 44  1  0  0  0
 20 45  1  0  0  0
 21 46  1  0  0  0
 21 47  1  0  0  0
 22 23  1  0  0  0
 22 48  1  0  0  0
 23 24  1  0  0  0
 23 49  1  0  0  0
 23 50  1  0  0  0
 24 29  2  0  0  0
 24 25  1  0  0  0
 25 26  2  0  0  0
 25 51  1  0  0  0
 26 27  1  0  0  0
 26 52  1  0  0  0
 27 28  2  0  0  0
 27 30  1  0  0  0
 28 29  1  0  0  0
 28 53  1  0  0  0
 29 54  1  0  0  0
 55 56  1  0  0  0
 55 57  1  0  0  0
M  CHG  1  55   1
M  END
> <i_i_glide_confnum>
82

> <i_i_glide_lignum>
3454

> <i_i_glide_posenum>
176

> <i_i_glide_rotatable_bonds>
7

> <i_m_Source_File_Index>
5701

> <b_m_subgroup_collapsed>
0

> <r_i_docking_score>
-4.87381

> <r_i_glide_ecoul>
-2.91769

> <r_i_glide_eff_state_penalty>
0

> <r_i_glide_einternal>
1.93419

> <r_i_glide_emodel>
-57.1874

> <r_i_glide_energy>
-42.4526

> <r_i_glide_erotb>
0.590224

> <r_i_glide_esite>
-0.14065

> <r_i_glide_evdw>
-39.5349

> <r_i_glide_gscore>
-4.87381

> <r_i_glide_hbond>
0

> <r_i_glide_ligand_efficiency>
-0.152306

> <r_i_glide_ligand_efficiency_ln>
-1.09138

> <r_i_glide_ligand_efficiency_sa>
-0.483543

> <r_i_glide_lipo>
-2.46858

> <r_i_glide_metal>
0

> <r_i_glide_rewards>
-0.440402

> <s_i_glide_gridfile>
wee1_glide-grid

> <s_m_Source_File>
wee1_decoys_glide_SP.sdf

> <s_m_Source_Path>
/Users/zhangxujun/Desktop

> <s_m_entry_id>
5976

> <s_m_entry_name>
wee1_decoys_glide_SP.5701

> <s_m_subgroup_title>
wee1_decoys_glide_SP

> <s_m_subgroupid>
wee1_decoys_glide_SP


$$$$
