ZINC12691969_566
                    3D
 Schrodinger Suite 2024-2.
 66 69  0  0  1  0            999 V2000
    3.6405   54.8842   28.8193 C   0  0  0  0  0  0
    2.7528   53.8476   29.2279 O   0  0  0  0  0  0
    2.0346   53.1687   28.2615 C   0  0  0  0  0  0
    2.1296   53.4220   26.8843 C   0  0  0  0  0  0
    1.3890   52.6751   25.9742 C   0  0  0  0  0  0
    0.5340   51.6611   26.4207 C   0  0  0  0  0  0
    0.4322   51.4186   27.7954 C   0  0  0  0  0  0
    1.1733   52.1678   28.7050 C   0  0  0  0  0  0
   -0.2244   50.7370   25.4493 C   0  0  1  0  0  0
   -0.2917   49.7887   25.9896 H   0  0  0  0  0  0
   -1.6787   51.1692   25.1938 C   0  0  0  0  0  0
   -1.9912   52.4967   24.8674 C   0  0  0  0  0  0
   -3.3140   52.8810   24.6746 C   0  0  0  0  0  0
   -4.3356   51.9456   24.8334 C   0  0  0  0  0  0
   -4.0420   50.6284   25.1862 C   0  0  0  0  0  0
   -2.7173   50.2430   25.3684 C   0  0  0  0  0  0
    0.5320   50.3248   24.2476 N   0  0  0  0  0  0
    0.7386   51.0131   23.1092 C   0  0  0  0  0  0
    0.2451   52.1183   22.8807 O   0  0  0  0  0  0
    1.6686   50.3639   22.0666 C   0  0  0  0  0  0
    3.4874   52.1344   21.8938 C   0  0  0  0  0  0
    3.9780   53.3202   21.0546 C   0  0  0  0  0  0
    4.3610   52.8304   19.6390 C   0  0  1  0  0  0
    3.1816   52.1200   18.9213 C   0  0  0  0  0  0
    2.7105   50.9259   19.7768 C   0  0  0  0  0  0
    4.9010   54.0413   18.8459 C   0  0  0  0  0  0
    6.1173   54.2045   18.7744 O   0  0  0  0  0  0
    3.9804   54.8681   18.3049 N   0  0  0  0  0  0
    4.1609   56.0786   17.6151 C   0  0  0  0  0  0
    5.3306   56.8559   17.6708 C   0  0  0  0  0  0
    5.3933   58.0641   16.9778 C   0  0  0  0  0  0
    4.2945   58.4953   16.2394 C   0  0  0  0  0  0
    3.1284   57.7374   16.1896 C   0  0  0  0  0  0
    3.0633   56.5288   16.8785 C   0  0  0  0  0  0
    4.1589   55.2958   29.6818 H   0  0  0  0  0  0
    3.0913   55.6965   28.3451 H   0  0  0  0  0  0
    4.4055   54.5186   28.1332 H   0  0  0  0  0  0
    2.7828   54.1896   26.4992 H   0  0  0  0  0  0
    1.4969   52.8946   24.9250 H   0  0  0  0  0  0
   -0.2185   50.6365   28.1656 H   0  0  0  0  0  0
    1.0863   51.9654   29.7620 H   0  0  0  0  0  0
   -1.2047   53.2291   24.7542 H   0  0  0  0  0  0
   -3.5505   53.9020   24.4116 H   0  0  0  0  0  0
   -5.3640   52.2458   24.6902 H   0  0  0  0  0  0
   -4.8412   49.9123   25.3217 H   0  0  0  0  0  0
   -2.5002   49.2237   25.6603 H   0  0  0  0  0  0
    1.0002   49.4347   24.3408 H   0  0  0  0  0  0
    2.4760   49.7637   22.4930 H   0  0  0  0  0  0
    1.0685   49.7331   21.4077 H   0  0  0  0  0  0
    3.1236   52.4965   22.8577 H   0  0  0  0  0  0
    4.2557   51.3730   22.0400 H   0  0  0  0  0  0
    3.1541   54.0379   21.0295 H   0  0  0  0  0  0
    4.8416   53.7323   21.5819 H   0  0  0  0  0  0
    5.2046   52.1358   19.6845 H   0  0  0  0  0  0
    3.4972   51.7034   17.9603 H   0  0  0  0  0  0
    2.3095   52.7667   18.8105 H   0  0  0  0  0  0
    3.4885   50.1705   19.9156 H   0  0  0  0  0  0
    1.8283   50.4684   19.3253 H   0  0  0  0  0  0
    3.0169   54.5852   18.3998 H   0  0  0  0  0  0
    6.1864   56.5553   18.2531 H   0  0  0  0  0  0
    6.2815   58.6786   17.0250 H   0  0  0  0  0  0
    4.3431   59.4397   15.7127 H   0  0  0  0  0  0
    2.2791   58.0905   15.6271 H   0  0  0  0  0  0
    2.1500   55.9509   16.8382 H   0  0  0  0  0  0
    2.2919   51.4685   21.1670 N   0  3  1  0  0  0
    1.5663   52.1645   21.0327 H   0  0  0  0  0  0
  1  2  1  0  0  0
  1 35  1  0  0  0
  1 36  1  0  0  0
  1 37  1  0  0  0
  2  3  1  0  0  0
  3  8  2  0  0  0
  3  4  1  0  0  0
  4  5  2  0  0  0
  4 38  1  0  0  0
  5  6  1  0  0  0
  5 39  1  0  0  0
  6  7  2  0  0  0
  6  9  1  0  0  0
  7  8  1  0  0  0
  7 40  1  0  0  0
  8 41  1  0  0  0
  9 10  1  0  0  0
  9 11  1  0  0  0
  9 17  1  0  0  0
 11 16  2  0  0  0
 11 12  1  0  0  0
 12 13  2  0  0  0
 12 42  1  0  0  0
 13 14  1  0  0  0
 13 43  1  0  0  0
 14 15  2  0  0  0
 14 44  1  0  0  0
 15 16  1  0  0  0
 15 45  1  0  0  0
 16 46  1  0  0  0
 17 18  1  0  0  0
 17 47  1  0  0  0
 18 19  2  0  0  0
 18 20  1  0  0  0
 20 48  1  0  0  0
 20 49  1  0  0  0
 20 65  1  0  0  0
 21 22  1  0  0  0
 21 50  1  0  0  0
 21 51  1  0  0  0
 21 65  1  0  0  0
 22 23  1  0  0  0
 22 52  1  0  0  0
 22 53  1  0  0  0
 23 24  1  0  0  0
 23 26  1  0  0  0
 23 54  1  0  0  0
 24 25  1  0  0  0
 24 55  1  0  0  0
 24 56  1  0  0  0
 25 57  1  0  0  0
 25 58  1  0  0  0
 25 65  1  0  0  0
 26 27  2  0  0  0
 26 28  1  0  0  0
 28 29  1  0  0  0
 28 59  1  0  0  0
 29 34  2  0  0  0
 29 30  1  0  0  0
 30 31  2  0  0  0
 30 60  1  0  0  0
 31 32  1  0  0  0
 31 61  1  0  0  0
 32 33  2  0  0  0
 32 62  1  0  0  0
 33 34  1  0  0  0
 33 63  1  0  0  0
 34 64  1  0  0  0
 65 66  1  0  0  0
M  CHG  1  65   1
M  END
> <i_i_glide_confnum>
129

> <i_i_glide_lignum>
567

> <i_i_glide_posenum>
324

> <i_i_glide_rotatable_bonds>
10

> <i_m_Source_File_Index>
3730

> <b_m_subgroup_collapsed>
0

> <r_i_docking_score>
-3.96703

> <r_i_glide_ecoul>
-6.63874

> <r_i_glide_eff_state_penalty>
0

> <r_i_glide_einternal>
9.31346

> <r_i_glide_emodel>
-53.3491

> <r_i_glide_energy>
-43.9376

> <r_i_glide_erotb>
0.860839

> <r_i_glide_esite>
-0.0201147

> <r_i_glide_evdw>
-37.2989

> <r_i_glide_gscore>
-3.96703

> <r_i_glide_hbond>
-0.00938287

> <r_i_glide_ligand_efficiency>
-0.116677

> <r_i_glide_ligand_efficiency_ln>
-0.876428

> <r_i_glide_ligand_efficiency_sa>
-0.377989

> <r_i_glide_lipo>
-1.57623

> <r_i_glide_metal>
0

> <r_i_glide_rewards>
-0.361386

> <s_i_glide_gridfile>
wee1_glide-grid

> <s_m_Source_File>
wee1_decoys_glide_SP.sdf

> <s_m_Source_Path>
/Users/zhangxujun/Desktop

> <s_m_entry_id>
4005

> <s_m_entry_name>
wee1_decoys_glide_SP.3730

> <s_m_subgroup_title>
wee1_decoys_glide_SP

> <s_m_subgroupid>
wee1_decoys_glide_SP


$$$$
