ZINC36413020_3019
                    3D
 Schrodinger Suite 2024-2.
 73 76  0  0  1  0            999 V2000
   -5.1304   45.0609   27.2934 C   0  0  0  0  0  0
   -4.9066   46.5858   27.1816 C   0  0  1  0  0  0
   -5.3936   47.4317   28.3982 C   0  0  2  0  0  0
   -4.7992   47.0645   29.7843 C   0  0  0  0  0  0
   -6.0507   47.0263   30.6954 C   0  0  1  0  0  0
   -6.6352   48.4465   30.8682 C   0  0  0  0  0  0
   -7.2820   48.7176   29.4900 C   0  0  0  0  0  0
   -6.9229   47.4413   28.6907 C   0  0  2  0  0  0
   -7.0958   46.3881   29.7861 C   0  0  0  0  0  0
   -3.5051   46.8963   26.8811 N   0  0  0  0  0  0
   -2.8883   46.7235   25.7022 C   0  0  0  0  0  0
   -3.3606   46.0951   24.7539 O   0  0  0  0  0  0
   -1.6958   47.3256   25.6819 N   0  0  0  0  0  0
   -0.7718   47.3682   24.5484 C   0  0  0  0  0  0
   -0.4343   48.8112   24.1540 C   0  0  0  0  0  0
   -1.0188   49.7750   24.6600 O   0  0  0  0  0  0
    0.5428   48.9273   23.2293 N   0  0  0  0  0  0
    1.1934   50.0963   22.8037 C   0  0  0  0  0  0
    1.3939   51.1629   23.6845 C   0  0  0  0  0  0
    2.0196   52.3302   23.2636 C   0  0  0  0  0  0
    2.4425   52.4423   21.9382 C   0  0  0  0  0  0
    2.3034   51.3615   21.0670 C   0  0  0  0  0  0
    1.6932   50.1659   21.4915 C   0  0  0  0  0  0
    1.5455   49.0530   20.6776 O   0  0  0  0  0  0
    2.0722   49.0794   19.3515 C   0  0  0  0  0  0
    2.2176   53.6688   24.4325 S   0  0  0  0  0  0
    1.9621   54.8966   23.6819 O   0  0  0  0  0  0
    1.4013   53.3309   25.6040 O   0  0  0  0  0  0
    3.9164   53.7016   24.9493 N   0  0  0  0  0  0
    4.1555   54.1180   26.3624 C   0  0  0  0  0  0
    5.5138   53.7177   26.9688 C   0  0  0  0  0  0
    6.7034   54.6100   26.5662 C   0  0  0  0  0  0
    7.0964   54.5733   25.0803 C   0  0  0  0  0  0
    5.9749   54.9632   24.1167 C   0  0  0  0  0  0
    4.9284   53.8653   23.8701 C   0  0  0  0  0  0
   -6.1685   44.8245   27.5155 H   0  0  0  0  0  0
   -4.9091   44.5552   26.3535 H   0  0  0  0  0  0
   -4.5095   44.6148   28.0712 H   0  0  0  0  0  0
   -5.4956   46.9297   26.3284 H   0  0  0  0  0  0
   -5.1053   48.4626   28.1731 H   0  0  0  0  0  0
   -4.0935   47.8171   30.1445 H   0  0  0  0  0  0
   -4.3015   46.0965   29.7832 H   0  0  0  0  0  0
   -5.8878   46.5062   31.6409 H   0  0  0  0  0  0
   -5.8668   49.1794   31.1218 H   0  0  0  0  0  0
   -7.3865   48.4700   31.6590 H   0  0  0  0  0  0
   -8.3645   48.8271   29.5833 H   0  0  0  0  0  0
   -6.9061   49.6281   29.0223 H   0  0  0  0  0  0
   -7.5486   47.2967   27.8086 H   0  0  0  0  0  0
   -6.8678   45.3692   29.4849 H   0  0  0  0  0  0
   -8.0984   46.3756   30.2218 H   0  0  0  0  0  0
   -2.9859   47.3741   27.6120 H   0  0  0  0  0  0
   -1.3750   47.7582   26.5465 H   0  0  0  0  0  0
    0.1455   46.8847   24.8753 H   0  0  0  0  0  0
   -1.1698   46.8358   23.6842 H   0  0  0  0  0  0
    0.8850   48.0891   22.7890 H   0  0  0  0  0  0
    1.0584   51.0877   24.7085 H   0  0  0  0  0  0
    2.8847   53.3577   21.5726 H   0  0  0  0  0  0
    2.6687   51.4736   20.0576 H   0  0  0  0  0  0
    1.9181   48.1084   18.8805 H   0  0  0  0  0  0
    1.5678   49.8257   18.7375 H   0  0  0  0  0  0
    3.1439   49.2801   19.3409 H   0  0  0  0  0  0
    3.9921   55.1929   26.4383 H   0  0  0  0  0  0
    3.3770   53.6656   26.9741 H   0  0  0  0  0  0
    5.4205   53.7876   28.0530 H   0  0  0  0  0  0
    5.7224   52.6693   26.7727 H   0  0  0  0  0  0
    6.4877   55.6419   26.8525 H   0  0  0  0  0  0
    7.5675   54.3217   27.1662 H   0  0  0  0  0  0
    7.5013   53.5936   24.8169 H   0  0  0  0  0  0
    7.9044   55.2782   24.8997 H   0  0  0  0  0  0
    6.4313   55.2080   23.1546 H   0  0  0  0  0  0
    5.5036   55.8753   24.4818 H   0  0  0  0  0  0
    5.4936   52.9309   23.8139 H   0  0  0  0  0  0
    4.4330   53.9951   22.9113 H   0  0  0  0  0  0
  1  2  1  0  0  0
  1 36  1  0  0  0
  1 37  1  0  0  0
  1 38  1  0  0  0
  2  3  1  0  0  0
  2 10  1  0  0  0
  2 39  1  0  0  0
  3  8  1  0  0  0
  3  4  1  0  0  0
  3 40  1  0  0  0
  4  5  1  0  0  0
  4 41  1  0  0  0
  4 42  1  0  0  0
  5  9  1  0  0  0
  5  6  1  0  0  0
  5 43  1  0  0  0
  6  7  1  0  0  0
  6 44  1  0  0  0
  6 45  1  0  0  0
  7  8  1  0  0  0
  7 46  1  0  0  0
  7 47  1  0  0  0
  8  9  1  0  0  0
  8 48  1  0  0  0
  9 49  1  0  0  0
  9 50  1  0  0  0
 10 11  1  0  0  0
 10 51  1  0  0  0
 11 12  2  0  0  0
 11 13  1  0  0  0
 13 14  1  0  0  0
 13 52  1  0  0  0
 14 15  1  0  0  0
 14 53  1  0  0  0
 14 54  1  0  0  0
 15 16  2  0  0  0
 15 17  1  0  0  0
 17 18  1  0  0  0
 17 55  1  0  0  0
 18 23  2  0  0  0
 18 19  1  0  0  0
 19 20  2  0  0  0
 19 56  1  0  0  0
 20 21  1  0  0  0
 20 26  1  0  0  0
 21 22  2  0  0  0
 21 57  1  0  0  0
 22 23  1  0  0  0
 22 58  1  0  0  0
 23 24  1  0  0  0
 24 25  1  0  0  0
 25 59  1  0  0  0
 25 60  1  0  0  0
 25 61  1  0  0  0
 26 27  2  0  0  0
 26 28  2  0  0  0
 26 29  1  0  0  0
 29 35  1  0  0  0
 29 30  1  0  0  0
 30 31  1  0  0  0
 30 62  1  0  0  0
 30 63  1  0  0  0
 31 32  1  0  0  0
 31 64  1  0  0  0
 31 65  1  0  0  0
 32 33  1  0  0  0
 32 66  1  0  0  0
 32 67  1  0  0  0
 33 34  1  0  0  0
 33 68  1  0  0  0
 33 69  1  0  0  0
 34 35  1  0  0  0
 34 70  1  0  0  0
 34 71  1  0  0  0
 35 72  1  0  0  0
 35 73  1  0  0  0
M  END
> <i_i_glide_confnum>
539

> <i_i_glide_lignum>
3020

> <i_i_glide_posenum>
342

> <i_i_glide_rotatable_bonds>
11

> <i_m_Source_File_Index>
1878

> <b_m_subgroup_collapsed>
0

> <r_i_docking_score>
-4.85066

> <r_i_glide_ecoul>
-8.43406

> <r_i_glide_eff_state_penalty>
0

> <r_i_glide_einternal>
20.1569

> <r_i_glide_emodel>
-47.4919

> <r_i_glide_energy>
-46.1269

> <r_i_glide_erotb>
0.717378

> <r_i_glide_esite>
-0.321701

> <r_i_glide_evdw>
-37.6929

> <r_i_glide_gscore>
-4.85066

> <r_i_glide_hbond>
-0.387607

> <r_i_glide_ligand_efficiency>
-0.13859

> <r_i_glide_ligand_efficiency_ln>
-1.06483

> <r_i_glide_ligand_efficiency_sa>
-0.453338

> <r_i_glide_lipo>
-1.95409

> <r_i_glide_metal>
0

> <r_i_glide_rewards>
0.245109

> <s_i_glide_gridfile>
wee1_glide-grid

> <s_m_Source_File>
wee1_decoys_glide_SP.sdf

> <s_m_Source_Path>
/Users/zhangxujun/Desktop

> <s_m_entry_id>
2153

> <s_m_entry_name>
wee1_decoys_glide_SP.1878

> <s_m_subgroup_title>
wee1_decoys_glide_SP

> <s_m_subgroupid>
wee1_decoys_glide_SP


$$$$
