ZINC59384849_3550
                    3D
 Schrodinger Suite 2024-2.
 51 53  0  0  1  0            999 V2000
    3.0180   50.6824   19.9138 C   0  0  0  0  0  0
    3.6175   51.9913   20.4323 C   0  0  0  0  0  0
    3.1830   52.6959   21.5111 C   0  0  0  0  0  0
    3.8531   54.0563   21.8878 C   0  0  2  0  0  0
    3.0692   54.8096   21.9804 H   0  0  0  0  0  0
    4.6895   54.4972   20.7374 N   0  0  0  0  0  0
    5.1016   53.7461   19.6777 C   0  0  0  0  0  0
    6.1634   54.3341   18.5542 S   0  0  0  0  0  0
    4.5704   52.4966   19.6063 N   0  0  0  0  0  0
    4.5686   54.0962   23.2469 C   0  0  0  0  0  0
    5.9670   54.0620   23.3268 C   0  0  0  0  0  0
    6.6015   54.0983   24.5626 C   0  0  0  0  0  0
    5.8422   54.1468   25.7287 C   0  0  0  0  0  0
    4.4529   54.2043   25.6652 C   0  0  0  0  0  0
    3.8184   54.1868   24.4267 C   0  0  0  0  0  0
    6.7041   54.0972   27.4218 Br  0  0  0  0  0  0
    2.1696   52.1593   22.3948 C   0  0  0  0  0  0
    2.2663   51.0308   22.8816 O   0  0  0  0  0  0
    1.1448   53.0230   22.6061 N   0  0  0  0  0  0
    0.0155   52.8961   23.3884 N   0  0  0  0  0  0
    0.0313   52.2270   24.4788 C   0  0  0  0  0  0
   -1.1540   52.0156   25.3169 C   0  0  0  0  0  0
   -1.0188   51.3019   26.5081 C   0  0  0  0  0  0
   -2.1204   51.0764   27.3247 C   0  0  0  0  0  0
   -3.3966   51.5427   26.9824 C   0  0  0  0  0  0
   -3.5235   52.2668   25.7865 C   0  0  0  0  0  0
   -2.4216   52.4967   24.9650 C   0  0  0  0  0  0
   -4.5154   51.2963   27.8281 N   0  0  0  0  0  0
   -5.8692   51.5827   27.3538 C   0  0  0  0  0  0
   -4.3946   50.3299   28.9249 C   0  0  0  0  0  0
    3.5043   49.8246   20.3689 H   0  0  0  0  0  0
    1.9557   50.6094   20.1457 H   0  0  0  0  0  0
    3.1037   50.5875   18.8290 H   0  0  0  0  0  0
    5.0624   55.4351   20.7373 H   0  0  0  0  0  0
    4.9335   51.9323   18.8396 H   0  0  0  0  0  0
    6.5769   54.0051   22.4390 H   0  0  0  0  0  0
    7.6781   54.0692   24.6039 H   0  0  0  0  0  0
    3.8693   54.2474   26.5732 H   0  0  0  0  0  0
    2.7406   54.2371   24.3946 H   0  0  0  0  0  0
    1.0456   53.7328   21.8936 H   0  0  0  0  0  0
    0.9418   51.7769   24.8674 H   0  0  0  0  0  0
   -0.0619   50.9027   26.8157 H   0  0  0  0  0  0
   -1.9546   50.5031   28.2238 H   0  0  0  0  0  0
   -4.4755   52.6570   25.4651 H   0  0  0  0  0  0
   -2.5640   53.0531   24.0496 H   0  0  0  0  0  0
   -5.9643   52.6181   27.0266 H   0  0  0  0  0  0
   -6.1137   50.9436   26.5036 H   0  0  0  0  0  0
   -6.6188   51.4110   28.1282 H   0  0  0  0  0  0
   -3.5928   50.6016   29.6127 H   0  0  0  0  0  0
   -5.3141   50.2461   29.5053 H   0  0  0  0  0  0
   -4.1591   49.3392   28.5315 H   0  0  0  0  0  0
  1  2  1  0  0  0
  1 31  1  0  0  0
  1 32  1  0  0  0
  1 33  1  0  0  0
  2  9  1  0  0  0
  2  3  2  0  0  0
  3  4  1  0  0  0
  3 17  1  0  0  0
  4  5  1  0  0  0
  4  6  1  0  0  0
  4 10  1  0  0  0
  6  7  1  0  0  0
  6 34  1  0  0  0
  7  8  2  0  0  0
  7  9  1  0  0  0
  9 35  1  0  0  0
 10 15  2  0  0  0
 10 11  1  0  0  0
 11 12  2  0  0  0
 11 36  1  0  0  0
 12 13  1  0  0  0
 12 37  1  0  0  0
 13 14  2  0  0  0
 13 16  1  0  0  0
 14 15  1  0  0  0
 14 38  1  0  0  0
 15 39  1  0  0  0
 17 18  2  0  0  0
 17 19  1  0  0  0
 19 20  1  0  0  0
 19 40  1  0  0  0
 20 21  2  0  0  0
 21 22  1  0  0  0
 21 41  1  0  0  0
 22 27  2  0  0  0
 22 23  1  0  0  0
 23 24  2  0  0  0
 23 42  1  0  0  0
 24 25  1  0  0  0
 24 43  1  0  0  0
 25 26  2  0  0  0
 25 28  1  0  0  0
 26 27  1  0  0  0
 26 44  1  0  0  0
 27 45  1  0  0  0
 28 29  1  0  0  0
 28 30  1  0  0  0
 29 46  1  0  0  0
 29 47  1  0  0  0
 29 48  1  0  0  0
 30 49  1  0  0  0
 30 50  1  0  0  0
 30 51  1  0  0  0
M  END
> <i_i_glide_confnum>
3

> <i_i_glide_lignum>
3551

> <i_i_glide_posenum>
60

> <i_i_glide_rotatable_bonds>
6

> <i_m_Source_File_Index>
1984

> <b_m_subgroup_collapsed>
0

> <r_i_docking_score>
-5.30249

> <r_i_glide_ecoul>
-4.80256

> <r_i_glide_eff_state_penalty>
0

> <r_i_glide_einternal>
5.10889

> <r_i_glide_emodel>
-59.6044

> <r_i_glide_energy>
-45.0484

> <r_i_glide_erotb>
0.453026

> <r_i_glide_esite>
-0.132773

> <r_i_glide_evdw>
-40.2459

> <r_i_glide_gscore>
-5.30249

> <r_i_glide_hbond>
-0.240455

> <r_i_glide_ligand_efficiency>
-0.182844

> <r_i_glide_ligand_efficiency_ln>
-1.21413

> <r_i_glide_ligand_efficiency_sa>
-0.561756

> <r_i_glide_lipo>
-2.1491

> <r_i_glide_metal>
0

> <r_i_glide_rewards>
-0.500505

> <s_i_glide_gridfile>
wee1_glide-grid

> <s_m_Source_File>
wee1_decoys_glide_SP.sdf

> <s_m_Source_Path>
/Users/zhangxujun/Desktop

> <s_m_entry_id>
2259

> <s_m_entry_name>
wee1_decoys_glide_SP.1984

> <s_m_subgroup_title>
wee1_decoys_glide_SP

> <s_m_subgroupid>
wee1_decoys_glide_SP


$$$$
