ZINC17094941_2608
                    3D
 Schrodinger Suite 2024-2.
 55 58  0  0  1  0            999 V2000
    5.4251   53.7892   17.5869 C   0  0  0  0  0  0
    5.3871   53.9129   19.0986 C   0  0  0  0  0  0
    6.0099   54.9912   19.7267 C   0  0  0  0  0  0
    5.9888   55.0905   21.1144 C   0  0  0  0  0  0
    5.3475   54.1131   21.8832 C   0  0  0  0  0  0
    4.7278   53.0318   21.2458 C   0  0  0  0  0  0
    4.7485   52.9325   19.8584 C   0  0  0  0  0  0
    5.3359   54.2435   23.3761 C   0  0  0  0  0  0
    6.4904   54.5467   24.0987 C   0  0  0  0  0  0
    6.2432   54.6568   25.8041 S   0  0  0  0  0  0
    4.5509   54.2897   25.5938 C   0  0  0  0  0  0
    4.2139   54.0967   24.2390 C   0  0  0  0  0  0
    2.8728   53.8205   23.7637 C   0  0  0  0  0  0
    2.3450   54.4967   22.8843 O   0  0  0  0  0  0
    2.2902   52.7596   24.3457 N   0  0  0  0  0  0
    1.0122   52.1794   23.9427 C   0  0  0  0  0  0
   -0.0585   52.0263   24.9938 C   0  0  0  0  0  0
   -0.2375   53.0304   23.8796 C   0  0  0  0  0  0
    3.6610   54.1770   26.6533 N   0  0  0  0  0  0
    3.8124   54.4631   27.9641 C   0  0  0  0  0  0
    4.8447   54.8967   28.4713 O   0  0  0  0  0  0
    2.5824   54.1753   28.8713 C   0  0  1  0  0  0
    2.6717   54.8045   29.7582 H   0  0  0  0  0  0
    1.2879   54.6486   28.1308 C   0  0  0  0  0  0
   -0.0100   54.2007   28.8242 C   0  0  0  0  0  0
   -0.0684   52.7058   29.1442 C   0  0  0  0  0  0
    1.1458   52.3523   29.9938 C   0  0  0  0  0  0
    2.4562   52.6570   29.2312 C   0  0  2  0  0  0
    2.4487   52.0535   28.3193 H   0  0  0  0  0  0
    3.6507   52.1601   30.0782 C   0  0  0  0  0  0
    3.5337   52.0914   31.3219 O   0  0  0  0  0  0
    6.3341   54.2335   17.1790 H   0  0  0  0  0  0
    5.4280   52.7413   17.2822 H   0  0  0  0  0  0
    4.5610   54.2804   17.1390 H   0  0  0  0  0  0
    6.5086   55.7515   19.1418 H   0  0  0  0  0  0
    6.4691   55.9299   21.5940 H   0  0  0  0  0  0
    4.2335   52.2616   21.8193 H   0  0  0  0  0  0
    4.2779   52.0925   19.3678 H   0  0  0  0  0  0
    7.4814   54.7062   23.6981 H   0  0  0  0  0  0
    2.8691   52.1812   24.9367 H   0  0  0  0  0  0
    1.1175   51.3864   23.2004 H   0  0  0  0  0  0
    0.1431   52.3870   26.0009 H   0  0  0  0  0  0
   -0.6552   51.1136   24.9928 H   0  0  0  0  0  0
   -0.9615   52.8244   23.0914 H   0  0  0  0  0  0
   -0.1418   54.0967   24.0820 H   0  0  0  0  0  0
    2.7368   53.8744   26.3865 H   0  0  0  0  0  0
    1.2530   55.7367   28.0810 H   0  0  0  0  0  0
    1.1946   54.1913   27.1452 H   0  0  0  0  0  0
   -0.8552   54.4726   28.1906 H   0  0  0  0  0  0
   -0.0971   54.7546   29.7621 H   0  0  0  0  0  0
   -0.0871   52.1081   28.2337 H   0  0  0  0  0  0
   -0.9847   52.4709   29.6865 H   0  0  0  0  0  0
    1.0905   51.2968   30.2117 H   0  0  0  0  0  0
    1.0852   52.9073   30.9343 H   0  0  0  0  0  0
    4.7044   51.9262   29.4630 O   0  5  0  0  0  0
  1  2  1  0  0  0
  1 32  1  0  0  0
  1 33  1  0  0  0
  1 34  1  0  0  0
  2  7  2  0  0  0
  2  3  1  0  0  0
  3  4  2  0  0  0
  3 35  1  0  0  0
  4  5  1  0  0  0
  4 36  1  0  0  0
  5  6  2  0  0  0
  5  8  1  0  0  0
  6  7  1  0  0  0
  6 37  1  0  0  0
  7 38  1  0  0  0
  8 12  1  0  0  0
  8  9  2  0  0  0
  9 10  1  0  0  0
  9 39  1  0  0  0
 10 11  1  0  0  0
 11 12  2  0  0  0
 11 19  1  0  0  0
 12 13  1  0  0  0
 13 14  2  0  0  0
 13 15  1  0  0  0
 15 16  1  0  0  0
 15 40  1  0  0  0
 16 18  1  0  0  0
 16 17  1  0  0  0
 16 41  1  0  0  0
 17 18  1  0  0  0
 17 42  1  0  0  0
 17 43  1  0  0  0
 18 44  1  0  0  0
 18 45  1  0  0  0
 19 20  1  0  0  0
 19 46  1  0  0  0
 20 21  2  0  0  0
 20 22  1  0  0  0
 22 23  1  0  0  0
 22 28  1  0  0  0
 22 24  1  0  0  0
 24 25  1  0  0  0
 24 47  1  0  0  0
 24 48  1  0  0  0
 25 26  1  0  0  0
 25 49  1  0  0  0
 25 50  1  0  0  0
 26 27  1  0  0  0
 26 51  1  0  0  0
 26 52  1  0  0  0
 27 28  1  0  0  0
 27 53  1  0  0  0
 27 54  1  0  0  0
 28 29  1  0  0  0
 28 30  1  0  0  0
 30 31  2  0  0  0
 30 55  1  0  0  0
M  CHG  1  55  -1
M  END
> <i_i_glide_confnum>
173

> <i_i_glide_lignum>
2609

> <i_i_glide_posenum>
263

> <i_i_glide_rotatable_bonds>
8

> <i_m_Source_File_Index>
712

> <b_m_subgroup_collapsed>
0

> <r_i_docking_score>
-6.18489

> <r_i_glide_ecoul>
-0.841713

> <r_i_glide_eff_state_penalty>
0

> <r_i_glide_einternal>
7.10649

> <r_i_glide_emodel>
-58.5183

> <r_i_glide_energy>
-42.7547

> <r_i_glide_erotb>
0.766923

> <r_i_glide_esite>
0

> <r_i_glide_evdw>
-41.913

> <r_i_glide_gscore>
-6.18489

> <r_i_glide_hbond>
-0.123851

> <r_i_glide_ligand_efficiency>
-0.206163

> <r_i_glide_ligand_efficiency_ln>
-1.40527

> <r_i_glide_ligand_efficiency_sa>
-0.640596

> <r_i_glide_lipo>
-2.99171

> <r_i_glide_metal>
0

> <r_i_glide_rewards>
-1.61434

> <s_i_glide_gridfile>
wee1_glide-grid

> <s_m_Source_File>
wee1_decoys_glide_SP.sdf

> <s_m_Source_Path>
/Users/zhangxujun/Desktop

> <s_m_entry_id>
987

> <s_m_entry_name>
wee1_decoys_glide_SP.712

> <s_m_subgroup_title>
wee1_decoys_glide_SP

> <s_m_subgroupid>
wee1_decoys_glide_SP


$$$$
