ZINC20728439_205
                    3D
 Schrodinger Suite 2024-2.
 51 53  0  0  1  0            999 V2000
    0.3692   52.7144   31.2005 C   0  0  0  0  0  0
    0.9242   53.0684   29.9400 O   0  0  0  0  0  0
    2.0785   52.4959   29.4967 C   0  0  0  0  0  0
    2.7620   51.6974   30.1400 O   0  0  0  0  0  0
    2.5271   53.0059   28.1341 C   0  0  2  0  0  0
    3.2890   52.3268   27.7444 H   0  0  0  0  0  0
    3.1153   54.4401   28.2426 C   0  0  0  0  0  0
    4.4909   54.4847   28.9493 C   0  0  0  0  0  0
    5.8753   53.6865   28.0818 S   0  0  0  0  0  0
    5.9762   54.6420   26.5461 C   0  0  0  0  0  0
    1.3522   52.9310   27.2471 N   0  0  0  0  0  0
    1.3912   52.8489   25.9018 C   0  0  0  0  0  0
    2.3501   53.2968   25.2687 O   0  0  0  0  0  0
    0.2912   52.2968   25.3038 N   0  0  0  0  0  0
    0.2535   52.2385   23.8156 C   0  0  0  0  0  0
    0.8585   50.8907   23.3303 C   0  0  0  0  0  0
    0.1511   49.7648   24.0657 C   0  0  0  0  0  0
   -0.4803   49.9816   25.2818 C   0  0  0  0  0  0
   -0.9023   48.7448   25.6817 N   0  0  0  0  0  0
   -1.3030   48.4972   26.5884 H   0  0  0  0  0  0
   -0.5897   47.9017   24.6513 C   0  0  0  0  0  0
    0.0317   48.5080   23.6683 N   0  0  0  0  0  0
   -0.6129   51.3190   26.0020 C   0  0  2  0  0  0
   -0.2256   51.1524   27.0074 H   0  0  0  0  0  0
   -2.0791   51.7210   26.2284 C   0  0  0  0  0  0
   -2.8672   50.9831   27.1211 C   0  0  0  0  0  0
   -4.2118   51.2955   27.3017 C   0  0  0  0  0  0
   -4.7807   52.3427   26.5808 C   0  0  0  0  0  0
   -4.0151   53.0759   25.6798 C   0  0  0  0  0  0
   -2.6708   52.7613   25.5039 C   0  0  0  0  0  0
   -6.6118   52.7893   26.8419 Br  0  0  0  0  0  0
   -0.4601   53.3788   31.4425 H   0  0  0  0  0  0
   -0.0180   51.6967   31.1836 H   0  0  0  0  0  0
    1.1048   52.7921   32.0025 H   0  0  0  0  0  0
    3.2127   54.8760   27.2491 H   0  0  0  0  0  0
    2.4214   55.1029   28.7629 H   0  0  0  0  0  0
    4.7805   55.5054   29.1743 H   0  0  0  0  0  0
    4.4129   54.0079   29.9255 H   0  0  0  0  0  0
    5.0657   54.5324   25.9573 H   0  0  0  0  0  0
    6.1373   55.6962   26.7634 H   0  0  0  0  0  0
    6.8096   54.2818   25.9430 H   0  0  0  0  0  0
    0.4627   52.8234   27.7126 H   0  0  0  0  0  0
   -0.7852   52.2976   23.4943 H   0  0  0  0  0  0
    0.7025   53.1233   23.3605 H   0  0  0  0  0  0
    0.7424   50.7940   22.2507 H   0  0  0  0  0  0
    1.9317   50.8677   23.5231 H   0  0  0  0  0  0
   -0.8181   46.8513   24.7328 H   0  0  0  0  0  0
   -2.4477   50.1576   27.6791 H   0  0  0  0  0  0
   -4.8083   50.7228   27.9969 H   0  0  0  0  0  0
   -4.4624   53.8813   25.1165 H   0  0  0  0  0  0
   -2.0990   53.3227   24.7865 H   0  0  0  0  0  0
  1  2  1  0  0  0
  1 32  1  0  0  0
  1 33  1  0  0  0
  1 34  1  0  0  0
  2  3  1  0  0  0
  3  4  2  0  0  0
  3  5  1  0  0  0
  5  6  1  0  0  0
  5  7  1  0  0  0
  5 11  1  0  0  0
  7  8  1  0  0  0
  7 35  1  0  0  0
  7 36  1  0  0  0
  8  9  1  0  0  0
  8 37  1  0  0  0
  8 38  1  0  0  0
  9 10  1  0  0  0
 10 39  1  0  0  0
 10 40  1  0  0  0
 10 41  1  0  0  0
 11 12  1  0  0  0
 11 42  1  0  0  0
 12 13  2  0  0  0
 12 14  1  0  0  0
 14 23  1  0  0  0
 14 15  1  0  0  0
 15 16  1  0  0  0
 15 43  1  0  0  0
 15 44  1  0  0  0
 16 17  1  0  0  0
 16 45  1  0  0  0
 16 46  1  0  0  0
 17 22  1  0  0  0
 17 18  2  0  0  0
 18 19  1  0  0  0
 18 23  1  0  0  0
 19 20  1  0  0  0
 19 21  1  0  0  0
 21 22  2  0  0  0
 21 47  1  0  0  0
 23 24  1  0  0  0
 23 25  1  0  0  0
 25 30  2  0  0  0
 25 26  1  0  0  0
 26 27  2  0  0  0
 26 48  1  0  0  0
 27 28  1  0  0  0
 27 49  1  0  0  0
 28 29  2  0  0  0
 28 31  1  0  0  0
 29 30  1  0  0  0
 29 50  1  0  0  0
 30 51  1  0  0  0
M  END
> <i_i_glide_confnum>
104

> <i_i_glide_lignum>
206

> <i_i_glide_posenum>
284

> <i_i_glide_rotatable_bonds>
9

> <i_m_Source_File_Index>
1625

> <b_m_subgroup_collapsed>
0

> <r_i_docking_score>
-5.70946

> <r_i_glide_ecoul>
-7.127

> <r_i_glide_eff_state_penalty>
0

> <r_i_glide_einternal>
11.3047

> <r_i_glide_emodel>
-54.4165

> <r_i_glide_energy>
-43.5315

> <r_i_glide_erotb>
0.646723

> <r_i_glide_esite>
-0.164205

> <r_i_glide_evdw>
-36.4045

> <r_i_glide_gscore>
-5.70946

> <r_i_glide_hbond>
-0.456

> <r_i_glide_ligand_efficiency>
-0.203909

> <r_i_glide_ligand_efficiency_ln>
-1.31791

> <r_i_glide_ligand_efficiency_sa>
-0.619189

> <r_i_glide_lipo>
-1.75932

> <r_i_glide_metal>
0

> <r_i_glide_rewards>
-1.08738

> <s_i_glide_gridfile>
wee1_glide-grid

> <s_m_Source_File>
wee1_decoys_glide_SP.sdf

> <s_m_Source_Path>
/Users/zhangxujun/Desktop

> <s_m_entry_id>
1900

> <s_m_entry_name>
wee1_decoys_glide_SP.1625

> <s_m_subgroup_title>
wee1_decoys_glide_SP

> <s_m_subgroupid>
wee1_decoys_glide_SP


$$$$
