ZINC40051509_4903
                    3D
 Schrodinger Suite 2024-2.
 66 69  0  0  1  0            999 V2000
    4.3028   51.2966   20.7014 C   0  0  0  0  0  0
    3.1956   52.3644   20.8671 N   0  3  2  0  0  0
    3.6263   53.5636   21.7493 C   0  0  0  0  0  0
    4.9303   54.2713   21.3540 C   0  0  0  0  0  0
    5.1036   54.6358   20.0114 C   0  0  0  0  0  0
    6.2475   55.3085   19.5923 C   0  0  0  0  0  0
    7.2376   55.6348   20.5125 C   0  0  0  0  0  0
    7.0798   55.2966   21.8537 C   0  0  0  0  0  0
    5.9255   54.6126   22.2962 C   0  0  0  0  0  0
    5.7080   54.2730   23.6519 N   0  0  0  0  0  0
    6.2451   54.8264   24.7579 C   0  0  0  0  0  0
    7.1044   55.6968   24.7641 O   0  0  0  0  0  0
    5.7250   54.3308   26.0746 C   0  0  0  0  0  0
    6.6267   54.0967   27.1180 C   0  0  0  0  0  0
    6.1724   53.6967   28.3662 C   0  0  0  0  0  0
    4.8088   53.5467   28.5990 C   0  0  0  0  0  0
    3.8820   53.8099   27.5781 C   0  0  0  0  0  0
    4.3507   54.1746   26.3104 C   0  0  0  0  0  0
    2.4864   53.7332   27.7392 N   0  0  0  0  0  0
    1.7632   53.7030   28.8810 C   0  0  0  0  0  0
    2.2504   53.7911   30.0115 O   0  0  0  0  0  0
    0.2234   53.6109   28.7063 C   0  0  1  0  0  0
   -0.0893   54.5594   28.2758 H   0  0  0  0  0  0
   -0.2496   52.4274   27.8466 C   0  0  0  0  0  0
   -0.5920   51.3318   28.8365 C   0  0  0  0  0  0
   -0.4778   51.9803   30.2150 C   0  0  0  0  0  0
   -0.4379   53.3830   29.9537 O   0  0  0  0  0  0
    1.7991   51.8130   21.2746 C   0  0  0  0  0  0
    1.1347   51.1219   20.0617 C   0  0  0  0  0  0
   -0.2332   50.5098   20.4259 C   0  0  0  0  0  0
   -0.1362   49.5711   21.6453 C   0  0  0  0  0  0
    0.5051   50.2645   22.8656 C   0  0  0  0  0  0
    1.8726   50.8899   22.5219 C   0  0  0  0  0  0
    4.5890   50.9202   21.6830 H   0  0  0  0  0  0
    3.9068   50.4953   20.0816 H   0  0  0  0  0  0
    5.1461   51.7673   20.1960 H   0  0  0  0  0  0
    3.6339   53.1711   22.7647 H   0  0  0  0  0  0
    2.8015   54.2751   21.6820 H   0  0  0  0  0  0
    4.3424   54.4025   19.2806 H   0  0  0  0  0  0
    6.3672   55.5743   18.5516 H   0  0  0  0  0  0
    8.1381   56.1329   20.1816 H   0  0  0  0  0  0
    7.8995   55.5472   22.5131 H   0  0  0  0  0  0
    5.0027   53.5755   23.8205 H   0  0  0  0  0  0
    7.6885   54.2252   26.9748 H   0  0  0  0  0  0
    6.8877   53.5233   29.1552 H   0  0  0  0  0  0
    4.5023   53.2309   29.5829 H   0  0  0  0  0  0
    3.6425   54.3866   25.5220 H   0  0  0  0  0  0
    1.9587   53.7403   26.8814 H   0  0  0  0  0  0
    0.4767   52.0909   27.1051 H   0  0  0  0  0  0
   -1.1342   52.7206   27.2789 H   0  0  0  0  0  0
    0.0973   50.4973   28.7426 H   0  0  0  0  0  0
   -1.5981   50.9431   28.6673 H   0  0  0  0  0  0
    0.4374   51.6976   30.7353 H   0  0  0  0  0  0
   -1.2955   51.7128   30.8815 H   0  0  0  0  0  0
    1.1543   52.6578   21.5315 H   0  0  0  0  0  0
    1.0659   51.8071   19.2172 H   0  0  0  0  0  0
    1.7695   50.3147   19.6976 H   0  0  0  0  0  0
   -0.9449   51.3090   20.6373 H   0  0  0  0  0  0
   -0.6355   49.9665   19.5696 H   0  0  0  0  0  0
   -1.1271   49.1983   21.9097 H   0  0  0  0  0  0
    0.4549   48.6936   21.3784 H   0  0  0  0  0  0
   -0.1668   51.0390   23.2382 H   0  0  0  0  0  0
    0.6181   49.5485   23.6806 H   0  0  0  0  0  0
    2.5619   50.0667   22.3274 H   0  0  0  0  0  0
    2.3043   51.4075   23.3783 H   0  0  0  0  0  0
    3.0583   52.7543   19.9435 H   0  0  0  0  0  0
  1  2  1  0  0  0
  1 34  1  0  0  0
  1 35  1  0  0  0
  1 36  1  0  0  0
  2  3  1  0  0  0
  2 28  1  0  0  0
  2 66  1  0  0  0
  3  4  1  0  0  0
  3 37  1  0  0  0
  3 38  1  0  0  0
  4  9  2  0  0  0
  4  5  1  0  0  0
  5  6  2  0  0  0
  5 39  1  0  0  0
  6  7  1  0  0  0
  6 40  1  0  0  0
  7  8  2  0  0  0
  7 41  1  0  0  0
  8  9  1  0  0  0
  8 42  1  0  0  0
  9 10  1  0  0  0
 10 11  1  0  0  0
 10 43  1  0  0  0
 11 12  2  0  0  0
 11 13  1  0  0  0
 13 18  2  0  0  0
 13 14  1  0  0  0
 14 15  2  0  0  0
 14 44  1  0  0  0
 15 16  1  0  0  0
 15 45  1  0  0  0
 16 17  2  0  0  0
 16 46  1  0  0  0
 17 18  1  0  0  0
 17 19  1  0  0  0
 18 47  1  0  0  0
 19 20  1  0  0  0
 19 48  1  0  0  0
 20 21  2  0  0  0
 20 22  1  0  0  0
 22 23  1  0  0  0
 22 27  1  0  0  0
 22 24  1  0  0  0
 24 25  1  0  0  0
 24 49  1  0  0  0
 24 50  1  0  0  0
 25 26  1  0  0  0
 25 51  1  0  0  0
 25 52  1  0  0  0
 26 27  1  0  0  0
 26 53  1  0  0  0
 26 54  1  0  0  0
 28 33  1  0  0  0
 28 29  1  0  0  0
 28 55  1  0  0  0
 29 30  1  0  0  0
 29 56  1  0  0  0
 29 57  1  0  0  0
 30 31  1  0  0  0
 30 58  1  0  0  0
 30 59  1  0  0  0
 31 32  1  0  0  0
 31 60  1  0  0  0
 31 61  1  0  0  0
 32 33  1  0  0  0
 32 62  1  0  0  0
 32 63  1  0  0  0
 33 64  1  0  0  0
 33 65  1  0  0  0
M  CHG  1   2   1
M  END
> <i_i_glide_confnum>
217

> <i_i_glide_lignum>
4904

> <i_i_glide_posenum>
333

> <i_i_glide_rotatable_bonds>
9

> <i_m_Source_File_Index>
1338

> <b_m_subgroup_collapsed>
0

> <r_i_docking_score>
-6.63081

> <r_i_glide_ecoul>
-4.7617

> <r_i_glide_eff_state_penalty>
0

> <r_i_glide_einternal>
4.66726

> <r_i_glide_emodel>
-72.1198

> <r_i_glide_energy>
-51.9274

> <r_i_glide_erotb>
0.941314

> <r_i_glide_esite>
-0.00745388

> <r_i_glide_evdw>
-47.1657

> <r_i_glide_gscore>
-6.63081

> <r_i_glide_hbond>
-0.558175

> <r_i_glide_ligand_efficiency>
-0.207213

> <r_i_glide_ligand_efficiency_ln>
-1.48482

> <r_i_glide_ligand_efficiency_sa>
-0.657859

> <r_i_glide_lipo>
-2.75573

> <r_i_glide_metal>
0

> <r_i_glide_rewards>
-1.17823

> <s_i_glide_gridfile>
wee1_glide-grid

> <s_m_Source_File>
wee1_decoys_glide_SP.sdf

> <s_m_Source_Path>
/Users/zhangxujun/Desktop

> <s_m_entry_id>
1613

> <s_m_entry_name>
wee1_decoys_glide_SP.1338

> <s_m_subgroup_title>
wee1_decoys_glide_SP

> <s_m_subgroupid>
wee1_decoys_glide_SP


$$$$
