ZINC54940248_230
                    3D
 Schrodinger Suite 2024-2.
 51 54  0  0  1  0            999 V2000
    6.7232   55.8566   24.3714 C   0  0  0  0  0  0
    6.2250   54.3953   24.4031 C   0  0  2  0  0  0
    7.0789   53.7340   24.2305 H   0  0  0  0  0  0
    5.2188   54.0965   23.2837 C   0  0  0  0  0  0
    5.6550   54.1938   21.9592 C   0  0  0  0  0  0
    4.8042   53.8781   20.9048 C   0  0  0  0  0  0
    3.5044   53.4649   21.1734 C   0  0  0  0  0  0
    3.0430   53.3820   22.4821 C   0  0  0  0  0  0
    3.8977   53.6968   23.5342 C   0  0  0  0  0  0
    5.7736   53.9663   25.8289 N   0  3  1  0  0  0
    6.8835   53.7398   26.8680 C   0  0  0  0  0  0
    6.1193   53.5611   28.1745 C   0  0  0  0  0  0
    4.8388   54.4060   28.0516 C   0  0  1  0  0  0
    4.9057   55.2918   28.6900 H   0  0  0  0  0  0
    4.8160   54.8963   26.5936 C   0  0  0  0  0  0
    3.6126   53.6498   28.2869 N   0  0  0  0  0  0
    3.2246   53.0639   29.4415 C   0  0  0  0  0  0
    3.9043   53.0924   30.4681 O   0  0  0  0  0  0
    1.8772   52.4120   29.4213 C   0  0  0  0  0  0
    1.3299   52.1064   30.4819 O   0  0  0  0  0  0
    1.3507   52.2017   28.1868 N   0  0  0  0  0  0
    0.0644   51.8272   27.8563 C   0  0  0  0  0  0
   -0.2350   51.6249   26.6058 N   0  0  0  0  0  0
   -1.5514   51.3167   26.4579 C   0  0  0  0  0  0
   -2.1734   51.0434   25.2307 C   0  0  0  0  0  0
   -3.5376   50.7442   25.2309 C   0  0  0  0  0  0
   -4.2717   50.7133   26.4173 C   0  0  0  0  0  0
   -3.6760   50.9828   27.6501 C   0  0  0  0  0  0
   -2.3103   51.2966   27.6587 C   0  0  0  0  0  0
   -1.2553   51.6967   29.0058 S   0  0  0  0  0  0
    7.2100   56.0903   23.4240 H   0  0  0  0  0  0
    5.9044   56.5638   24.4826 H   0  0  0  0  0  0
    7.4556   56.0678   25.1461 H   0  0  0  0  0  0
    6.6686   54.4983   21.7399 H   0  0  0  0  0  0
    5.1492   53.9433   19.8831 H   0  0  0  0  0  0
    2.8412   53.2198   20.3557 H   0  0  0  0  0  0
    2.0298   53.0622   22.6779 H   0  0  0  0  0  0
    3.5160   53.5768   24.5327 H   0  0  0  0  0  0
    7.5044   54.6323   26.8703 H   0  0  0  0  0  0
    7.4970   52.8968   26.5632 H   0  0  0  0  0  0
    6.7249   53.8758   29.0256 H   0  0  0  0  0  0
    5.8974   52.4994   28.3017 H   0  0  0  0  0  0
    3.8448   54.9477   26.1034 H   0  0  0  0  0  0
    5.2742   55.8640   26.4814 H   0  0  0  0  0  0
    2.9646   53.6475   27.5179 H   0  0  0  0  0  0
    1.9456   52.3263   27.3877 H   0  0  0  0  0  0
   -1.6085   51.0549   24.3108 H   0  0  0  0  0  0
   -4.0370   50.5241   24.2984 H   0  0  0  0  0  0
   -5.3228   50.4649   26.3807 H   0  0  0  0  0  0
   -4.2414   50.9373   28.5699 H   0  0  0  0  0  0
    5.3134   53.0744   25.6877 H   0  0  0  0  0  0
  1  2  1  0  0  0
  1 31  1  0  0  0
  1 32  1  0  0  0
  1 33  1  0  0  0
  2  3  1  0  0  0
  2  4  1  0  0  0
  2 10  1  0  0  0
  4  9  2  0  0  0
  4  5  1  0  0  0
  5  6  2  0  0  0
  5 34  1  0  0  0
  6  7  1  0  0  0
  6 35  1  0  0  0
  7  8  2  0  0  0
  7 36  1  0  0  0
  8  9  1  0  0  0
  8 37  1  0  0  0
  9 38  1  0  0  0
 10 15  1  0  0  0
 10 11  1  0  0  0
 10 51  1  0  0  0
 11 12  1  0  0  0
 11 39  1  0  0  0
 11 40  1  0  0  0
 12 13  1  0  0  0
 12 41  1  0  0  0
 12 42  1  0  0  0
 13 14  1  0  0  0
 13 15  1  0  0  0
 13 16  1  0  0  0
 15 43  1  0  0  0
 15 44  1  0  0  0
 16 17  1  0  0  0
 16 45  1  0  0  0
 17 18  2  0  0  0
 17 19  1  0  0  0
 19 20  2  0  0  0
 19 21  1  0  0  0
 21 22  1  0  0  0
 21 46  1  0  0  0
 22 30  1  0  0  0
 22 23  2  0  0  0
 23 24  1  0  0  0
 24 29  2  0  0  0
 24 25  1  0  0  0
 25 26  2  0  0  0
 25 47  1  0  0  0
 26 27  1  0  0  0
 26 48  1  0  0  0
 27 28  2  0  0  0
 27 49  1  0  0  0
 28 29  1  0  0  0
 28 50  1  0  0  0
 29 30  1  0  0  0
M  CHG  1  10   1
M  END
> <i_i_glide_confnum>
111

> <i_i_glide_lignum>
231

> <i_i_glide_posenum>
257

> <i_i_glide_rotatable_bonds>
7

> <i_m_Source_File_Index>
2416

> <b_m_subgroup_collapsed>
0

> <r_i_docking_score>
-5.42087

> <r_i_glide_ecoul>
-1.89871

> <r_i_glide_eff_state_penalty>
0

> <r_i_glide_einternal>
14.3968

> <r_i_glide_emodel>
-47.5801

> <r_i_glide_energy>
-40.6422

> <r_i_glide_erotb>
0.750118

> <r_i_glide_esite>
0

> <r_i_glide_evdw>
-38.7435

> <r_i_glide_gscore>
-5.42087

> <r_i_glide_hbond>
-0.248102

> <r_i_glide_ligand_efficiency>
-0.193602

> <r_i_glide_ligand_efficiency_ln>
-1.2513

> <r_i_glide_ligand_efficiency_sa>
-0.587891

> <r_i_glide_lipo>
-2.45263

> <r_i_glide_metal>
0

> <r_i_glide_rewards>
-1.24827

> <s_i_glide_gridfile>
wee1_glide-grid

> <s_m_Source_File>
wee1_decoys_glide_SP.sdf

> <s_m_Source_Path>
/Users/zhangxujun/Desktop

> <s_m_entry_id>
2691

> <s_m_entry_name>
wee1_decoys_glide_SP.2416

> <s_m_subgroup_title>
wee1_decoys_glide_SP

> <s_m_subgroupid>
wee1_decoys_glide_SP


$$$$
