ZINC31827737_4337
                    3D
 Schrodinger Suite 2024-2.
 65 68  0  0  1  0            999 V2000
    6.2079   58.4024   17.1842 C   0  0  0  0  0  0
    6.8305   58.1273   18.5719 C   0  0  0  0  0  0
    6.3182   56.8896   19.3273 C   0  0  0  0  0  0
    6.7012   56.7281   20.4856 O   0  0  0  0  0  0
    5.4697   56.0694   18.6704 N   0  0  0  0  0  0
    4.8434   54.8767   19.0768 C   0  0  0  0  0  0
    5.0701   54.2067   20.2892 C   0  0  0  0  0  0
    4.4037   53.0088   20.5598 C   0  0  0  0  0  0
    3.5019   52.4611   19.6345 C   0  0  0  0  0  0
    3.2743   53.1513   18.4366 C   0  0  0  0  0  0
    3.9385   54.3422   18.1614 C   0  0  0  0  0  0
    2.8097   51.1117   19.9313 C   0  0  2  0  0  0
    3.6226   50.3856   19.8830 H   0  0  0  0  0  0
    1.7667   50.6653   18.8759 C   0  0  0  0  0  0
    2.2687   51.0557   21.2987 N   0  0  0  0  0  0
    1.8748   49.9478   21.9634 C   0  0  0  0  0  0
    1.9195   48.8401   21.4399 O   0  0  0  0  0  0
    1.4055   50.0808   23.4391 C   0  0  2  0  0  0
    2.2616   49.6969   23.9942 H   0  0  0  0  0  0
    0.2076   49.1682   23.7768 C   0  0  0  0  0  0
   -0.1685   49.3917   25.2524 C   0  0  0  0  0  0
   -0.4804   50.8682   25.5861 C   0  0  0  0  0  0
    0.7046   51.6880   25.2262 N   0  0  0  0  0  0
    1.1962   51.5567   23.8328 C   0  0  0  0  0  0
    1.1633   52.6359   26.1061 C   0  0  0  0  0  0
    0.6138   52.8434   27.1905 O   0  0  0  0  0  0
    2.4227   53.4356   25.7697 C   0  0  0  0  0  0
    2.5467   54.0424   24.5116 C   0  0  0  0  0  0
    3.7650   54.4971   24.0451 C   0  0  0  0  0  0
    4.8667   54.5547   24.8806 C   0  0  0  0  0  0
    4.7585   54.1391   26.2254 C   0  0  0  0  0  0
    3.5297   53.5585   26.6930 C   0  0  0  0  0  0
    3.5032   53.1078   28.0499 C   0  0  0  0  0  0
    4.6075   53.2508   28.8821 C   0  0  0  0  0  0
    5.7762   53.8343   28.4146 C   0  0  0  0  0  0
    5.8647   54.2703   27.1019 C   0  0  0  0  0  0
    6.6555   59.2968   16.7522 H   0  0  0  0  0  0
    5.1365   58.6055   17.2521 H   0  0  0  0  0  0
    6.3890   57.5899   16.4790 H   0  0  0  0  0  0
    7.9126   58.0314   18.4674 H   0  0  0  0  0  0
    6.6652   59.0028   19.2031 H   0  0  0  0  0  0
    5.2378   56.3603   17.7330 H   0  0  0  0  0  0
    5.7647   54.5836   21.0212 H   0  0  0  0  0  0
    4.6073   52.4957   21.4881 H   0  0  0  0  0  0
    2.5927   52.7753   17.6891 H   0  0  0  0  0  0
    3.7419   54.8405   17.2238 H   0  0  0  0  0  0
    2.2270   50.5542   17.8920 H   0  0  0  0  0  0
    1.3350   49.6949   19.1122 H   0  0  0  0  0  0
    0.9466   51.3770   18.8015 H   0  0  0  0  0  0
    2.2505   51.9394   21.7810 H   0  0  0  0  0  0
   -0.6711   49.4366   23.1849 H   0  0  0  0  0  0
    0.4559   48.1073   23.6753 H   0  0  0  0  0  0
   -1.0401   48.7808   25.5006 H   0  0  0  0  0  0
    0.6258   49.0255   25.9055 H   0  0  0  0  0  0
   -1.3343   51.2098   24.9997 H   0  0  0  0  0  0
   -0.7254   50.9165   26.6500 H   0  0  0  0  0  0
    2.2093   51.9337   23.7262 H   0  0  0  0  0  0
    0.4747   52.0348   23.1668 H   0  0  0  0  0  0
    1.7117   54.0646   23.8234 H   0  0  0  0  0  0
    3.8399   54.8685   23.0328 H   0  0  0  0  0  0
    5.8032   54.9545   24.5155 H   0  0  0  0  0  0
    2.6231   52.6370   28.4595 H   0  0  0  0  0  0
    4.5533   52.9001   29.9016 H   0  0  0  0  0  0
    6.6270   53.9491   29.0712 H   0  0  0  0  0  0
    6.7809   54.7134   26.7447 H   0  0  0  0  0  0
  1  2  1  0  0  0
  1 37  1  0  0  0
  1 38  1  0  0  0
  1 39  1  0  0  0
  2  3  1  0  0  0
  2 40  1  0  0  0
  2 41  1  0  0  0
  3  4  2  0  0  0
  3  5  1  0  0  0
  5  6  1  0  0  0
  5 42  1  0  0  0
  6 11  2  0  0  0
  6  7  1  0  0  0
  7  8  2  0  0  0
  7 43  1  0  0  0
  8  9  1  0  0  0
  8 44  1  0  0  0
  9 10  2  0  0  0
  9 12  1  0  0  0
 10 11  1  0  0  0
 10 45  1  0  0  0
 11 46  1  0  0  0
 12 13  1  0  0  0
 12 14  1  0  0  0
 12 15  1  0  0  0
 14 47  1  0  0  0
 14 48  1  0  0  0
 14 49  1  0  0  0
 15 16  1  0  0  0
 15 50  1  0  0  0
 16 17  2  0  0  0
 16 18  1  0  0  0
 18 19  1  0  0  0
 18 24  1  0  0  0
 18 20  1  0  0  0
 20 21  1  0  0  0
 20 51  1  0  0  0
 20 52  1  0  0  0
 21 22  1  0  0  0
 21 53  1  0  0  0
 21 54  1  0  0  0
 22 23  1  0  0  0
 22 55  1  0  0  0
 22 56  1  0  0  0
 23 24  1  0  0  0
 23 25  1  0  0  0
 24 57  1  0  0  0
 24 58  1  0  0  0
 25 26  2  0  0  0
 25 27  1  0  0  0
 27 32  2  0  0  0
 27 28  1  0  0  0
 28 29  2  0  0  0
 28 59  1  0  0  0
 29 30  1  0  0  0
 29 60  1  0  0  0
 30 31  2  0  0  0
 30 61  1  0  0  0
 31 36  1  0  0  0
 31 32  1  0  0  0
 32 33  1  0  0  0
 33 34  2  0  0  0
 33 62  1  0  0  0
 34 35  1  0  0  0
 34 63  1  0  0  0
 35 36  2  0  0  0
 35 64  1  0  0  0
 36 65  1  0  0  0
M  END
> <i_i_glide_confnum>
220

> <i_i_glide_lignum>
4338

> <i_i_glide_posenum>
30

> <i_i_glide_rotatable_bonds>
9

> <i_m_Source_File_Index>
5185

> <b_m_subgroup_collapsed>
0

> <r_i_docking_score>
-5.89212

> <r_i_glide_ecoul>
-3.81919

> <r_i_glide_eff_state_penalty>
0

> <r_i_glide_einternal>
8.93569

> <r_i_glide_emodel>
-66.2554

> <r_i_glide_energy>
-51.5549

> <r_i_glide_erotb>
0.768262

> <r_i_glide_esite>
0

> <r_i_glide_evdw>
-47.7357

> <r_i_glide_gscore>
-5.89212

> <r_i_glide_hbond>
-0.308415

> <r_i_glide_ligand_efficiency>
-0.173298

> <r_i_glide_ligand_efficiency_ln>
-1.30173

> <r_i_glide_ligand_efficiency_sa>
-0.561417

> <r_i_glide_lipo>
-2.55704

> <r_i_glide_metal>
0

> <r_i_glide_rewards>
-0.835258

> <s_i_glide_gridfile>
wee1_glide-grid

> <s_m_Source_File>
wee1_decoys_glide_SP.sdf

> <s_m_Source_Path>
/Users/zhangxujun/Desktop

> <s_m_entry_id>
5460

> <s_m_entry_name>
wee1_decoys_glide_SP.5185

> <s_m_subgroup_title>
wee1_decoys_glide_SP

> <s_m_subgroupid>
wee1_decoys_glide_SP


$$$$
