ZINC21323028_3123
                    3D
 Schrodinger Suite 2024-2.
 54 56  0  0  1  0            999 V2000
   -4.3311   49.4273   30.0536 C   0  0  0  0  0  0
   -4.9759   50.7027   29.4995 C   0  0  0  0  0  0
   -4.5934   51.2963   28.4290 N   0  0  0  0  0  0
   -3.4490   50.8810   27.7238 N   0  0  0  0  0  0
   -3.0559   51.4329   26.5176 C   0  0  0  0  0  0
   -3.3402   52.6400   26.0882 N   0  0  0  0  0  0
   -2.7194   52.7856   24.8557 N   0  0  0  0  0  0
   -2.0974   51.6613   24.5819 C   0  0  0  0  0  0
   -2.2799   50.7547   25.6023 N   0  0  0  0  0  0
   -1.7904   49.4582   25.6815 N   0  0  0  0  0  0
   -1.0819   51.4009   23.1609 S   0  0  0  0  0  0
   -0.0362   52.8967   23.2810 C   0  0  0  0  0  0
    1.2235   52.7634   24.1274 C   0  0  0  0  0  0
    1.5034   51.6979   24.6696 O   0  0  0  0  0  0
    1.9790   53.8775   24.2065 N   0  0  0  0  0  0
    3.1400   54.0048   24.9820 C   0  0  0  0  0  0
    4.3185   54.3604   24.3241 C   0  0  0  0  0  0
    5.5068   54.5028   25.0376 C   0  0  0  0  0  0
    5.5385   54.2842   26.4138 C   0  0  0  0  0  0
    4.3439   53.9553   27.0746 C   0  0  0  0  0  0
    3.1321   53.8220   26.3798 C   0  0  0  0  0  0
    1.9252   53.5468   26.9987 O   0  0  0  0  0  0
    1.8912   53.2844   28.3981 C   0  0  0  0  0  0
    6.7608   54.4131   27.0404 O   0  0  0  0  0  0
    6.8828   53.9588   28.3845 C   0  0  0  0  0  0
   -6.0664   51.2961   30.3233 C   0  0  0  0  0  0
   -6.8997   52.2962   29.7896 C   0  0  0  0  0  0
   -7.8901   52.8976   30.5588 C   0  0  0  0  0  0
   -8.0496   52.5328   31.8902 C   0  0  0  0  0  0
   -7.2433   51.5472   32.4496 C   0  0  0  0  0  0
   -6.2641   50.9291   31.6691 C   0  0  0  0  0  0
   -9.3787   53.3976   32.9440 Br  0  0  0  0  0  0
   -3.6949   49.6682   30.9061 H   0  0  0  0  0  0
   -5.0812   48.7012   30.3708 H   0  0  0  0  0  0
   -3.6959   48.9162   29.3302 H   0  0  0  0  0  0
   -3.0469   50.0093   28.0604 H   0  0  0  0  0  0
   -1.8744   48.9801   24.7983 H   0  0  0  0  0  0
   -0.8256   49.4532   25.9850 H   0  0  0  0  0  0
    0.3038   53.1361   22.2726 H   0  0  0  0  0  0
   -0.6121   53.7337   23.6769 H   0  0  0  0  0  0
    1.7573   54.6564   23.6034 H   0  0  0  0  0  0
    4.3261   54.5130   23.2526 H   0  0  0  0  0  0
    6.4171   54.7631   24.5169 H   0  0  0  0  0  0
    4.3545   53.8042   28.1386 H   0  0  0  0  0  0
    0.8685   53.0436   28.6916 H   0  0  0  0  0  0
    2.5201   52.4304   28.6624 H   0  0  0  0  0  0
    2.2076   54.1550   28.9742 H   0  0  0  0  0  0
    7.9043   54.0964   28.7337 H   0  0  0  0  0  0
    6.2298   54.5014   29.0686 H   0  0  0  0  0  0
    6.6521   52.8964   28.4603 H   0  0  0  0  0  0
   -6.7922   52.6125   28.7605 H   0  0  0  0  0  0
   -8.5252   53.6556   30.1280 H   0  0  0  0  0  0
   -7.3654   51.2683   33.4869 H   0  0  0  0  0  0
   -5.6402   50.1886   32.1501 H   0  0  0  0  0  0
  1  2  1  0  0  0
  1 33  1  0  0  0
  1 34  1  0  0  0
  1 35  1  0  0  0
  2  3  2  0  0  0
  2 26  1  0  0  0
  3  4  1  0  0  0
  4  5  1  0  0  0
  4 36  1  0  0  0
  5  9  1  0  0  0
  5  6  2  0  0  0
  6  7  1  0  0  0
  7  8  2  0  0  0
  8  9  1  0  0  0
  8 11  1  0  0  0
  9 10  1  0  0  0
 10 37  1  0  0  0
 10 38  1  0  0  0
 11 12  1  0  0  0
 12 13  1  0  0  0
 12 39  1  0  0  0
 12 40  1  0  0  0
 13 14  2  0  0  0
 13 15  1  0  0  0
 15 16  1  0  0  0
 15 41  1  0  0  0
 16 21  2  0  0  0
 16 17  1  0  0  0
 17 18  2  0  0  0
 17 42  1  0  0  0
 18 19  1  0  0  0
 18 43  1  0  0  0
 19 20  2  0  0  0
 19 24  1  0  0  0
 20 21  1  0  0  0
 20 44  1  0  0  0
 21 22  1  0  0  0
 22 23  1  0  0  0
 23 45  1  0  0  0
 23 46  1  0  0  0
 23 47  1  0  0  0
 24 25  1  0  0  0
 25 48  1  0  0  0
 25 49  1  0  0  0
 25 50  1  0  0  0
 26 31  2  0  0  0
 26 27  1  0  0  0
 27 28  2  0  0  0
 27 51  1  0  0  0
 28 29  1  0  0  0
 28 52  1  0  0  0
 29 30  2  0  0  0
 29 32  1  0  0  0
 30 31  1  0  0  0
 30 53  1  0  0  0
 31 54  1  0  0  0
M  END
> <i_i_glide_confnum>
32

> <i_i_glide_lignum>
3124

> <i_i_glide_posenum>
68

> <i_i_glide_rotatable_bonds>
10

> <i_m_Source_File_Index>
821

> <b_m_subgroup_collapsed>
0

> <r_i_docking_score>
-5.01846

> <r_i_glide_ecoul>
-4.52897

> <r_i_glide_eff_state_penalty>
0

> <r_i_glide_einternal>
9.96151

> <r_i_glide_emodel>
-58.7307

> <r_i_glide_energy>
-47.8779

> <r_i_glide_erotb>
0.531189

> <r_i_glide_esite>
-0.291976

> <r_i_glide_evdw>
-43.3489

> <r_i_glide_gscore>
-5.01846

> <r_i_glide_hbond>
-0.0597097

> <r_i_glide_ligand_efficiency>
-0.156827

> <r_i_glide_ligand_efficiency_ln>
-1.12377

> <r_i_glide_ligand_efficiency_sa>
-0.497894

> <r_i_glide_lipo>
-2.11094

> <r_i_glide_metal>
0

> <r_i_glide_rewards>
-0.24023

> <s_i_glide_gridfile>
wee1_glide-grid

> <s_m_Source_File>
wee1_decoys_glide_SP.sdf

> <s_m_Source_Path>
/Users/zhangxujun/Desktop

> <s_m_entry_id>
1096

> <s_m_entry_name>
wee1_decoys_glide_SP.821

> <s_m_subgroup_title>
wee1_decoys_glide_SP

> <s_m_subgroupid>
wee1_decoys_glide_SP


$$$$
