ZINC43218761_3394
                    3D
 Schrodinger Suite 2024-2.
 57 61  0  0  1  0            999 V2000
    0.6831   50.4027   19.1300 C   0  0  0  0  0  0
    1.7039   51.2716   18.6568 O   0  0  0  0  0  0
    1.3693   52.4834   18.0815 C   0  0  0  0  0  0
    0.0428   52.8983   17.8736 C   0  0  0  0  0  0
   -0.2329   54.1269   17.2773 C   0  0  0  0  0  0
    0.8107   54.9576   16.8817 C   0  0  0  0  0  0
    2.1300   54.5606   17.0841 C   0  0  0  0  0  0
    2.4250   53.3235   17.6820 C   0  0  0  0  0  0
    3.8755   52.8397   17.8754 C   0  0  2  0  0  0
    3.9044   51.7839   17.5979 H   0  0  0  0  0  0
    4.6222   53.1319   19.1782 C   0  0  1  0  0  0
    5.4834   52.4558   19.1864 H   0  0  0  0  0  0
    4.9713   54.5476   19.0349 C   0  0  1  0  0  0
    4.0974   55.1992   18.9296 H   0  0  0  0  0  0
    5.5043   54.8666   20.4223 C   0  0  0  0  0  0
    6.2888   55.7765   20.6981 O   0  0  0  0  0  0
    4.8281   54.0180   21.2735 N   0  0  0  0  0  0
    4.0980   53.0700   20.5914 C   0  0  0  0  0  0
    3.2960   52.2421   21.0231 O   0  0  0  0  0  0
    4.8847   54.1026   22.6947 C   0  0  0  0  0  0
    6.0944   54.3878   23.3523 C   0  0  0  0  0  0
    6.1433   54.4950   24.7395 C   0  0  0  0  0  0
    4.9918   54.2936   25.4972 C   0  0  0  0  0  0
    3.7712   53.9893   24.8767 C   0  0  0  0  0  0
    3.7294   53.9212   23.4754 C   0  0  0  0  0  0
    2.5605   53.6989   25.6830 N   0  3  0  0  0  0
    1.5090   53.4591   25.0959 O   0  0  0  0  0  0
    2.6548   53.7096   26.9072 O   0  5  0  0  0  0
    5.7416   54.5970   17.6823 C   0  0  1  0  0  0
    4.8720   53.5362   16.9052 N   0  3  0  0  0  0
    5.6555   55.9362   16.9060 C   0  0  0  0  0  0
    5.7649   55.9564   15.5052 C   0  0  0  0  0  0
    5.6844   57.1556   14.8027 C   0  0  0  0  0  0
    5.5055   58.3493   15.4951 C   0  0  0  0  0  0
    5.4168   58.3543   16.8824 C   0  0  0  0  0  0
    5.4943   57.1541   17.5856 C   0  0  0  0  0  0
    7.2287   54.0848   17.6478 C   0  0  0  0  0  0
    7.5294   53.1118   16.9145 O   0  0  0  0  0  0
    8.0562   54.6839   18.3693 O   0  5  0  0  0  0
    1.1451   49.5182   19.5684 H   0  0  0  0  0  0
    0.0808   50.8784   19.9056 H   0  0  0  0  0  0
    0.0339   50.0687   18.3194 H   0  0  0  0  0  0
   -0.7879   52.2755   18.1648 H   0  0  0  0  0  0
   -1.2555   54.4348   17.1187 H   0  0  0  0  0  0
    0.5998   55.9128   16.4226 H   0  0  0  0  0  0
    2.9123   55.2367   16.7745 H   0  0  0  0  0  0
    7.0110   54.5276   22.7961 H   0  0  0  0  0  0
    7.0827   54.7117   25.2258 H   0  0  0  0  0  0
    5.0612   54.3522   26.5745 H   0  0  0  0  0  0
    2.7871   53.7091   22.9893 H   0  0  0  0  0  0
    4.4034   53.9306   16.1044 H   0  0  0  0  0  0
    5.9277   55.0436   14.9507 H   0  0  0  0  0  0
    5.7691   57.1615   13.7260 H   0  0  0  0  0  0
    5.4442   59.2854   14.9589 H   0  0  0  0  0  0
    5.2953   59.2964   17.4025 H   0  0  0  0  0  0
    5.4361   57.1882   18.6622 H   0  0  0  0  0  0
    5.5248   52.8431   16.5512 H   0  0  0  0  0  0
  1  2  1  0  0  0
  1 40  1  0  0  0
  1 41  1  0  0  0
  1 42  1  0  0  0
  2  3  1  0  0  0
  3  8  2  0  0  0
  3  4  1  0  0  0
  4  5  2  0  0  0
  4 43  1  0  0  0
  5  6  1  0  0  0
  5 44  1  0  0  0
  6  7  2  0  0  0
  6 45  1  0  0  0
  7  8  1  0  0  0
  7 46  1  0  0  0
  8  9  1  0  0  0
  9 10  1  0  0  0
  9 30  1  0  0  0
  9 11  1  0  0  0
 11 12  1  0  0  0
 11 18  1  0  0  0
 11 13  1  0  0  0
 13 14  1  0  0  0
 13 15  1  0  0  0
 13 29  1  0  0  0
 15 16  2  0  0  0
 15 17  1  0  0  0
 17 18  1  0  0  0
 17 20  1  0  0  0
 18 19  2  0  0  0
 20 25  2  0  0  0
 20 21  1  0  0  0
 21 22  2  0  0  0
 21 47  1  0  0  0
 22 23  1  0  0  0
 22 48  1  0  0  0
 23 24  2  0  0  0
 23 49  1  0  0  0
 24 25  1  0  0  0
 24 26  1  0  0  0
 25 50  1  0  0  0
 26 27  2  0  0  0
 26 28  1  0  0  0
 29 30  1  0  0  0
 29 31  1  0  0  0
 29 37  1  0  0  0
 30 51  1  0  0  0
 30 57  1  0  0  0
 31 36  2  0  0  0
 31 32  1  0  0  0
 32 33  2  0  0  0
 32 52  1  0  0  0
 33 34  1  0  0  0
 33 53  1  0  0  0
 34 35  2  0  0  0
 34 54  1  0  0  0
 35 36  1  0  0  0
 35 55  1  0  0  0
 36 56  1  0  0  0
 37 38  2  0  0  0
 37 39  1  0  0  0
M  CHG  4  26   1  28  -1  30   1  39  -1
M  END
> <i_i_glide_confnum>
8

> <i_i_glide_lignum>
3395

> <i_i_glide_posenum>
175

> <i_i_glide_rotatable_bonds>
6

> <i_m_Source_File_Index>
3693

> <b_m_subgroup_collapsed>
0

> <r_i_docking_score>
-4.15495

> <r_i_glide_ecoul>
-0.749223

> <r_i_glide_eff_state_penalty>
0

> <r_i_glide_einternal>
0.697988

> <r_i_glide_emodel>
-48.8689

> <r_i_glide_energy>
-37.5186

> <r_i_glide_erotb>
0.256666

> <r_i_glide_esite>
-0.0390095

> <r_i_glide_evdw>
-36.7694

> <r_i_glide_gscore>
-4.15495

> <r_i_glide_hbond>
0

> <r_i_glide_ligand_efficiency>
-0.115415

> <r_i_glide_ligand_efficiency_ln>
-0.906499

> <r_i_glide_ligand_efficiency_sa>
-0.381093

> <r_i_glide_lipo>
-1.61727

> <r_i_glide_metal>
0

> <r_i_glide_rewards>
-0.804486

> <s_i_glide_gridfile>
wee1_glide-grid

> <s_m_Source_File>
wee1_decoys_glide_SP.sdf

> <s_m_Source_Path>
/Users/zhangxujun/Desktop

> <s_m_entry_id>
3968

> <s_m_entry_name>
wee1_decoys_glide_SP.3693

> <s_m_subgroup_title>
wee1_decoys_glide_SP

> <s_m_subgroupid>
wee1_decoys_glide_SP


$$$$
