ZINC12445358_5183
                    3D
 Schrodinger Suite 2024-2.
 52 55  0  0  1  0            999 V2000
    6.3645   54.9031   27.2641 C   0  0  0  0  0  0
    5.7372   54.6743   25.9011 C   0  0  0  0  0  0
    4.4793   54.0952   25.7809 C   0  0  0  0  0  0
    3.9533   53.8030   24.5143 C   0  0  0  0  0  0
    4.7285   54.1625   23.3790 C   0  0  0  0  0  0
    4.5193   54.0126   21.9597 C   0  0  0  0  0  0
    5.5051   54.6109   21.1560 C   0  0  0  0  0  0
    6.7746   55.2960   22.1720 S   0  0  0  0  0  0
    5.9757   54.7999   23.6369 C   0  0  0  0  0  0
    6.4959   55.0473   24.8409 N   0  0  0  0  0  0
    5.6341   54.6781   19.6177 C   0  0  2  0  0  0
    6.1086   53.7546   19.2830 H   0  0  0  0  0  0
    6.5189   55.8237   19.0963 C   0  0  0  0  0  0
    7.9107   55.6687   19.0783 C   0  0  0  0  0  0
    8.7297   56.7146   18.6632 C   0  0  0  0  0  0
    8.1597   57.9208   18.2618 C   0  0  0  0  0  0
    6.7773   58.0840   18.2561 C   0  0  0  0  0  0
    5.9583   57.0353   18.6701 C   0  0  0  0  0  0
    9.2809   59.3706   17.7468 Br  0  0  0  0  0  0
    4.3580   54.6543   18.9977 O   0  0  0  0  0  0
    3.4306   53.3618   21.4084 N   0  0  0  0  0  0
    3.4603   52.0548   21.0707 C   0  0  0  0  0  0
    4.4289   51.3197   21.2805 O   0  0  0  0  0  0
    2.2115   51.5191   20.4091 C   0  0  0  0  0  0
    2.3050   50.4151   19.5497 C   0  0  0  0  0  0
    1.1681   49.8983   18.9368 C   0  0  0  0  0  0
   -0.0735   50.4757   19.1875 C   0  0  0  0  0  0
   -0.1879   51.5709   20.0394 C   0  0  0  0  0  0
    0.9515   52.0956   20.6422 C   0  0  0  0  0  0
    2.6109   53.0848   24.4519 C   0  0  0  0  0  0
    1.6003   53.9729   23.9954 O   0  0  0  0  0  0
    0.3063   53.3906   24.0590 C   0  0  0  0  0  0
    5.6600   54.7146   28.0741 H   0  0  0  0  0  0
    7.2219   54.2467   27.4062 H   0  0  0  0  0  0
    6.7034   55.9314   27.3625 H   0  0  0  0  0  0
    3.9313   53.8240   26.6730 H   0  0  0  0  0  0
    8.3626   54.7421   19.4031 H   0  0  0  0  0  0
    9.8049   56.5951   18.6695 H   0  0  0  0  0  0
    6.3428   59.0223   17.9386 H   0  0  0  0  0  0
    4.8886   57.1786   18.6675 H   0  0  0  0  0  0
    3.7968   55.3231   19.3964 H   0  0  0  0  0  0
    2.6540   53.9214   21.0794 H   0  0  0  0  0  0
    3.2626   49.9607   19.3316 H   0  0  0  0  0  0
    1.2553   49.0573   18.2654 H   0  0  0  0  0  0
   -0.9544   50.0696   18.7127 H   0  0  0  0  0  0
   -1.1568   52.0117   20.2242 H   0  0  0  0  0  0
    0.8410   52.9517   21.2916 H   0  0  0  0  0  0
    2.6958   52.2219   23.7939 H   0  0  0  0  0  0
    2.3534   52.6973   25.4413 H   0  0  0  0  0  0
   -0.4355   54.0966   23.6905 H   0  0  0  0  0  0
    0.2359   52.4879   23.4491 H   0  0  0  0  0  0
    0.0314   53.1274   25.0810 H   0  0  0  0  0  0
  1  2  1  0  0  0
  1 33  1  0  0  0
  1 34  1  0  0  0
  1 35  1  0  0  0
  2 10  2  0  0  0
  2  3  1  0  0  0
  3  4  2  0  0  0
  3 36  1  0  0  0
  4  5  1  0  0  0
  4 30  1  0  0  0
  5  9  2  0  0  0
  5  6  1  0  0  0
  6  7  2  0  0  0
  6 21  1  0  0  0
  7  8  1  0  0  0
  7 11  1  0  0  0
  8  9  1  0  0  0
  9 10  1  0  0  0
 11 12  1  0  0  0
 11 13  1  0  0  0
 11 20  1  0  0  0
 13 18  2  0  0  0
 13 14  1  0  0  0
 14 15  2  0  0  0
 14 37  1  0  0  0
 15 16  1  0  0  0
 15 38  1  0  0  0
 16 17  2  0  0  0
 16 19  1  0  0  0
 17 18  1  0  0  0
 17 39  1  0  0  0
 18 40  1  0  0  0
 20 41  1  0  0  0
 21 22  1  0  0  0
 21 42  1  0  0  0
 22 23  2  0  0  0
 22 24  1  0  0  0
 24 29  2  0  0  0
 24 25  1  0  0  0
 25 26  2  0  0  0
 25 43  1  0  0  0
 26 27  1  0  0  0
 26 44  1  0  0  0
 27 28  2  0  0  0
 27 45  1  0  0  0
 28 29  1  0  0  0
 28 46  1  0  0  0
 29 47  1  0  0  0
 30 31  1  0  0  0
 30 48  1  0  0  0
 30 49  1  0  0  0
 31 32  1  0  0  0
 32 50  1  0  0  0
 32 51  1  0  0  0
 32 52  1  0  0  0
M  END
> <i_i_glide_confnum>
40

> <i_i_glide_lignum>
5184

> <i_i_glide_posenum>
123

> <i_i_glide_rotatable_bonds>
8

> <i_m_Source_File_Index>
2943

> <b_m_subgroup_collapsed>
0

> <r_i_docking_score>
-5.36208

> <r_i_glide_ecoul>
-4.49248

> <r_i_glide_eff_state_penalty>
0

> <r_i_glide_einternal>
6.76433

> <r_i_glide_emodel>
-60.7527

> <r_i_glide_energy>
-48.1821

> <r_i_glide_erotb>
0.494696

> <r_i_glide_esite>
-0.0128291

> <r_i_glide_evdw>
-43.6896

> <r_i_glide_gscore>
-5.36208

> <r_i_glide_hbond>
-0.296415

> <r_i_glide_ligand_efficiency>
-0.17297

> <r_i_glide_ligand_efficiency_ln>
-1.20931

> <r_i_glide_ligand_efficiency_sa>
-0.543365

> <r_i_glide_lipo>
-2.67155

> <r_i_glide_metal>
0

> <r_i_glide_rewards>
-0.0176217

> <s_i_glide_gridfile>
wee1_glide-grid

> <s_m_Source_File>
wee1_decoys_glide_SP.sdf

> <s_m_Source_Path>
/Users/zhangxujun/Desktop

> <s_m_entry_id>
3218

> <s_m_entry_name>
wee1_decoys_glide_SP.2943

> <s_m_subgroup_title>
wee1_decoys_glide_SP

> <s_m_subgroupid>
wee1_decoys_glide_SP


$$$$
