ZINC02143058_2876
                    3D
 Schrodinger Suite 2024-2.
 66 69  0  0  1  0            999 V2000
   -0.0709   53.7846   31.8529 C   0  0  0  0  0  0
   -0.1741   52.6726   30.8040 C   0  0  0  0  0  0
    0.7830   52.8153   29.7640 O   0  0  0  0  0  0
    2.0726   52.4541   29.9347 C   0  0  0  0  0  0
    2.5813   52.0969   31.0017 O   0  0  0  0  0  0
    2.9102   52.4950   28.6393 C   0  0  2  0  0  0
    3.1046   51.4647   28.3440 H   0  0  0  0  0  0
    4.2837   53.1592   28.8517 C   0  0  0  0  0  0
    2.2667   53.1790   27.5580 O   0  0  0  0  0  0
    1.4015   52.4979   26.7202 C   0  0  0  0  0  0
    1.1045   53.1261   25.5164 C   0  0  0  0  0  0
    0.2650   52.5233   24.5886 C   0  0  0  0  0  0
   -0.2051   51.2229   24.7960 C   0  0  0  0  0  0
    0.0619   50.5990   26.0228 C   0  0  0  0  0  0
    0.8319   51.2451   26.9891 C   0  0  0  0  0  0
   -1.0482   50.5317   23.7048 C   0  0  1  0  0  0
   -1.7999   51.2794   23.4431 H   0  0  0  0  0  0
   -0.3174   50.1721   22.3654 C   0  0  0  0  0  0
   -0.5096   48.9575   21.7695 C   0  0  0  0  0  0
   -1.2939   48.0103   22.3544 N   0  0  0  0  0  0
   -1.9482   48.1382   23.5380 C   0  0  0  0  0  0
   -2.8338   46.8970   24.1773 S   0  0  0  0  0  0
   -1.8257   49.3452   24.1632 N   0  0  0  0  0  0
    0.0965   48.4966   20.4814 C   0  0  0  0  0  0
   -0.7187   47.9659   19.4696 C   0  0  0  0  0  0
   -0.1694   47.5526   18.2580 C   0  0  0  0  0  0
    1.2024   47.6692   18.0458 C   0  0  0  0  0  0
    2.0287   48.1832   19.0399 C   0  0  0  0  0  0
    1.4781   48.5833   20.2534 C   0  0  0  0  0  0
    0.4375   51.2178   21.7095 C   0  0  0  0  0  0
   -0.0613   51.9301   20.8378 O   0  0  0  0  0  0
    1.7121   51.2987   22.1363 N   0  0  0  0  0  0
    2.6885   52.1503   21.6097 C   0  0  0  0  0  0
    3.3600   53.0136   22.4761 C   0  0  0  0  0  0
    4.3746   53.8325   21.9880 C   0  0  0  0  0  0
    4.7175   53.7838   20.6349 C   0  0  0  0  0  0
    4.0521   52.9103   19.7705 C   0  0  0  0  0  0
    3.0334   52.0961   20.2548 C   0  0  0  0  0  0
    5.8388   54.6582   20.1056 C   0  0  0  0  0  0
   -0.8953   53.6975   32.5594 H   0  0  0  0  0  0
   -0.0964   54.7756   31.3998 H   0  0  0  0  0  0
    0.8424   53.6930   32.4339 H   0  0  0  0  0  0
   -0.0918   51.6967   31.2815 H   0  0  0  0  0  0
   -1.1565   52.6968   30.3349 H   0  0  0  0  0  0
    4.8294   52.7018   29.6784 H   0  0  0  0  0  0
    4.9062   53.0510   27.9620 H   0  0  0  0  0  0
    4.1867   54.2253   29.0608 H   0  0  0  0  0  0
    1.5171   54.1009   25.3051 H   0  0  0  0  0  0
    0.0312   53.0564   23.6785 H   0  0  0  0  0  0
   -0.3149   49.6100   26.2478 H   0  0  0  0  0  0
    1.0120   50.7364   27.9223 H   0  0  0  0  0  0
   -1.4185   47.1002   21.9342 H   0  0  0  0  0  0
   -2.3682   49.4195   25.0127 H   0  0  0  0  0  0
   -1.7883   47.8950   19.6109 H   0  0  0  0  0  0
   -0.8068   47.1578   17.4791 H   0  0  0  0  0  0
    1.6320   47.3692   17.1003 H   0  0  0  0  0  0
    3.0932   48.2744   18.8658 H   0  0  0  0  0  0
    2.1414   48.9620   21.0172 H   0  0  0  0  0  0
    1.9374   50.8122   22.9902 H   0  0  0  0  0  0
    3.1074   53.0464   23.5254 H   0  0  0  0  0  0
    4.8938   54.4961   22.6638 H   0  0  0  0  0  0
    4.3237   52.8509   18.7262 H   0  0  0  0  0  0
    2.5292   51.4172   19.5828 H   0  0  0  0  0  0
    6.5587   54.9026   20.8888 H   0  0  0  0  0  0
    6.3936   54.1408   19.3212 H   0  0  0  0  0  0
    5.4391   55.5855   19.6923 H   0  0  0  0  0  0
  1  2  1  0  0  0
  1 40  1  0  0  0
  1 41  1  0  0  0
  1 42  1  0  0  0
  2  3  1  0  0  0
  2 43  1  0  0  0
  2 44  1  0  0  0
  3  4  1  0  0  0
  4  5  2  0  0  0
  4  6  1  0  0  0
  6  7  1  0  0  0
  6  8  1  0  0  0
  6  9  1  0  0  0
  8 45  1  0  0  0
  8 46  1  0  0  0
  8 47  1  0  0  0
  9 10  1  0  0  0
 10 15  2  0  0  0
 10 11  1  0  0  0
 11 12  2  0  0  0
 11 48  1  0  0  0
 12 13  1  0  0  0
 12 49  1  0  0  0
 13 14  2  0  0  0
 13 16  1  0  0  0
 14 15  1  0  0  0
 14 50  1  0  0  0
 15 51  1  0  0  0
 16 17  1  0  0  0
 16 23  1  0  0  0
 16 18  1  0  0  0
 18 19  2  0  0  0
 18 30  1  0  0  0
 19 20  1  0  0  0
 19 24  1  0  0  0
 20 21  1  0  0  0
 20 52  1  0  0  0
 21 22  2  0  0  0
 21 23  1  0  0  0
 23 53  1  0  0  0
 24 29  2  0  0  0
 24 25  1  0  0  0
 25 26  2  0  0  0
 25 54  1  0  0  0
 26 27  1  0  0  0
 26 55  1  0  0  0
 27 28  2  0  0  0
 27 56  1  0  0  0
 28 29  1  0  0  0
 28 57  1  0  0  0
 29 58  1  0  0  0
 30 31  2  0  0  0
 30 32  1  0  0  0
 32 33  1  0  0  0
 32 59  1  0  0  0
 33 38  2  0  0  0
 33 34  1  0  0  0
 34 35  2  0  0  0
 34 60  1  0  0  0
 35 36  1  0  0  0
 35 61  1  0  0  0
 36 37  2  0  0  0
 36 39  1  0  0  0
 37 38  1  0  0  0
 37 62  1  0  0  0
 38 63  1  0  0  0
 39 64  1  0  0  0
 39 65  1  0  0  0
 39 66  1  0  0  0
M  END
> <i_i_glide_confnum>
121

> <i_i_glide_lignum>
2877

> <i_i_glide_posenum>
217

> <i_i_glide_rotatable_bonds>
10

> <i_m_Source_File_Index>
1940

> <b_m_subgroup_collapsed>
0

> <r_i_docking_score>
-3.1821

> <r_i_glide_ecoul>
-4.317

> <r_i_glide_eff_state_penalty>
0

> <r_i_glide_einternal>
15.238

> <r_i_glide_emodel>
-48.5824

> <r_i_glide_energy>
-48.0204

> <r_i_glide_erotb>
0.69464

> <r_i_glide_esite>
-0.0599282

> <r_i_glide_evdw>
-43.7034

> <r_i_glide_gscore>
-3.1821

> <r_i_glide_hbond>
-0.32

> <r_i_glide_ligand_efficiency>
-0.0860027

> <r_i_glide_ligand_efficiency_ln>
-0.690123

> <r_i_glide_ligand_efficiency_sa>
-0.28658

> <r_i_glide_lipo>
-1.29983

> <r_i_glide_metal>
0

> <r_i_glide_rewards>
0.635738

> <s_i_glide_gridfile>
wee1_glide-grid

> <s_m_Source_File>
wee1_decoys_glide_SP.sdf

> <s_m_Source_Path>
/Users/zhangxujun/Desktop

> <s_m_entry_id>
2215

> <s_m_entry_name>
wee1_decoys_glide_SP.1940

> <s_m_subgroup_title>
wee1_decoys_glide_SP

> <s_m_subgroupid>
wee1_decoys_glide_SP


$$$$
