ZINC09281119_207
                    3D
 Schrodinger Suite 2024-2.
 45 49  0  0  1  0            999 V2000
    8.0353   55.6968   20.3648 C   0  0  0  0  0  0
    7.5074   55.6038   21.6481 C   0  0  0  0  0  0
    6.2696   55.0025   21.8551 C   0  0  0  0  0  0
    5.5034   54.5305   20.7811 C   0  0  0  0  0  0
    6.0280   54.6805   19.4849 C   0  0  0  0  0  0
    7.2943   55.2375   19.2814 C   0  0  0  0  0  0
    5.2511   54.2419   18.3302 C   0  0  0  0  0  0
    4.0699   53.6191   18.4265 C   0  0  0  0  0  0
    4.0717   53.9937   20.9895 C   0  0  2  0  0  0
    3.4723   54.8964   21.0713 H   0  0  0  0  0  0
    3.8119   53.0102   22.1572 C   0  0  2  0  0  0
    4.6857   52.9280   22.8054 H   0  0  0  0  0  0
    3.4319   51.6692   21.5984 C   0  0  2  0  0  0
    4.1787   50.9277   21.8864 H   0  0  0  0  0  0
    3.3950   51.7879   20.0452 C   0  0  1  0  0  0
    4.3044   51.3437   19.6553 H   0  0  0  0  0  0
    2.1551   51.2555   19.2805 C   0  0  0  0  0  0
    1.0738   51.8365   19.3565 O   0  0  0  0  0  0
    2.3044   50.1737   18.5199 N   0  0  0  0  0  0
    2.1409   51.2998   22.3260 C   0  0  0  0  0  0
    1.5926   50.2004   22.2376 O   0  0  0  0  0  0
    1.7664   52.3528   23.0974 N   0  0  0  0  0  0
    2.6261   53.4063   23.0370 C   0  0  0  0  0  0
    2.5317   54.4865   23.6214 O   0  0  0  0  0  0
    0.6032   52.3293   23.8906 C   0  0  0  0  0  0
    0.7058   52.1798   25.2789 C   0  0  0  0  0  0
   -0.4489   52.0967   26.0530 C   0  0  0  0  0  0
   -1.6988   52.1843   25.4424 C   0  0  0  0  0  0
   -1.8062   52.3382   24.0615 C   0  0  0  0  0  0
   -0.6549   52.4025   23.2815 C   0  0  0  0  0  0
   -3.2754   52.1009   26.5049 Br  0  0  0  0  0  0
    9.0115   56.1352   20.2078 H   0  0  0  0  0  0
    8.0651   55.9988   22.4815 H   0  0  0  0  0  0
    5.8834   54.9456   22.8625 H   0  0  0  0  0  0
    7.7040   55.3304   18.2851 H   0  0  0  0  0  0
    5.6517   54.4032   17.3384 H   0  0  0  0  0  0
    3.5278   53.2694   17.5572 H   0  0  0  0  0  0
    3.2295   49.8558   18.2290 H   0  0  0  0  0  0
    1.5012   49.8064   18.0358 H   0  0  0  0  0  0
    1.6725   52.1095   25.7560 H   0  0  0  0  0  0
   -0.3772   51.9662   27.1233 H   0  0  0  0  0  0
   -2.7799   52.3954   23.5983 H   0  0  0  0  0  0
   -0.7389   52.4950   22.2079 H   0  0  0  0  0  0
    3.4684   53.2971   19.7345 N   0  3  2  0  0  0
    2.5067   53.6260   19.7103 H   0  0  0  0  0  0
  1  6  2  0  0  0
  1  2  1  0  0  0
  1 32  1  0  0  0
  2  3  2  0  0  0
  2 33  1  0  0  0
  3  4  1  0  0  0
  3 34  1  0  0  0
  4  9  1  0  0  0
  4  5  2  0  0  0
  5  6  1  0  0  0
  5  7  1  0  0  0
  6 35  1  0  0  0
  7  8  2  0  0  0
  7 36  1  0  0  0
  8 37  1  0  0  0
  8 44  1  0  0  0
  9 10  1  0  0  0
  9 11  1  0  0  0
  9 44  1  0  0  0
 11 12  1  0  0  0
 11 23  1  0  0  0
 11 13  1  0  0  0
 13 14  1  0  0  0
 13 15  1  0  0  0
 13 20  1  0  0  0
 15 16  1  0  0  0
 15 17  1  0  0  0
 15 44  1  0  0  0
 17 18  2  0  0  0
 17 19  1  0  0  0
 19 38  1  0  0  0
 19 39  1  0  0  0
 20 21  2  0  0  0
 20 22  1  0  0  0
 22 23  1  0  0  0
 22 25  1  0  0  0
 23 24  2  0  0  0
 25 30  2  0  0  0
 25 26  1  0  0  0
 26 27  2  0  0  0
 26 40  1  0  0  0
 27 28  1  0  0  0
 27 41  1  0  0  0
 28 29  2  0  0  0
 28 31  1  0  0  0
 29 30  1  0  0  0
 29 42  1  0  0  0
 30 43  1  0  0  0
 44 45  1  0  0  0
M  CHG  1  44   1
M  END
> <i_i_glide_confnum>
4

> <i_i_glide_lignum>
208

> <i_i_glide_posenum>
26

> <i_i_glide_rotatable_bonds>
2

> <i_m_Source_File_Index>
5318

> <b_m_subgroup_collapsed>
0

> <r_i_docking_score>
-4.99822

> <r_i_glide_ecoul>
-6.03577

> <r_i_glide_eff_state_penalty>
0

> <r_i_glide_einternal>
1.04647

> <r_i_glide_emodel>
-51.304

> <r_i_glide_energy>
-38.0193

> <r_i_glide_erotb>
0.103421

> <r_i_glide_esite>
-0.158998

> <r_i_glide_evdw>
-31.9835

> <r_i_glide_gscore>
-4.99822

> <r_i_glide_hbond>
-0.229455

> <r_i_glide_ligand_efficiency>
-0.178508

> <r_i_glide_ligand_efficiency_ln>
-1.15374

> <r_i_glide_ligand_efficiency_sa>
-0.542055

> <r_i_glide_lipo>
-1.25525

> <r_i_glide_metal>
0

> <r_i_glide_rewards>
-0.953396

> <s_i_glide_gridfile>
wee1_glide-grid

> <s_m_Source_File>
wee1_decoys_glide_SP.sdf

> <s_m_Source_Path>
/Users/zhangxujun/Desktop

> <s_m_entry_id>
5593

> <s_m_entry_name>
wee1_decoys_glide_SP.5318

> <s_m_subgroup_title>
wee1_decoys_glide_SP

> <s_m_subgroupid>
wee1_decoys_glide_SP


$$$$
