ZINC63541407_1556
                    3D
 Schrodinger Suite 2024-2.
 49 52  0  0  1  0            999 V2000
    6.4029   53.9810   27.0441 C   0  0  0  0  0  0
    5.5688   54.5520   25.8818 C   0  0  2  0  0  0
    5.5520   55.6421   25.9737 H   0  0  0  0  0  0
    4.1399   54.0651   25.8455 C   0  0  2  0  0  0
    4.0829   53.0000   26.0803 H   0  0  0  0  0  0
    3.7418   54.2954   24.3774 C   0  0  0  0  0  0
    2.6069   54.4968   23.9393 O   0  0  0  0  0  0
    4.9031   54.2131   23.6863 N   0  0  0  0  0  0
    6.0325   54.1643   24.5579 N   0  0  0  0  0  0
    7.1043   55.0598   24.1484 C   0  0  0  0  0  0
    4.9794   53.9806   22.2880 C   0  0  0  0  0  0
    5.6098   54.8961   21.4332 C   0  0  0  0  0  0
    5.6658   54.6567   20.0629 C   0  0  0  0  0  0
    5.0929   53.5003   19.5406 C   0  0  0  0  0  0
    4.4525   52.5876   20.3728 C   0  0  0  0  0  0
    4.3865   52.8323   21.7411 C   0  0  0  0  0  0
    3.2170   54.7449   26.7883 N   0  0  0  0  0  0
    2.4375   53.9097   28.1315 S   0  0  0  0  0  0
    3.4351   53.0421   28.7666 O   0  0  0  0  0  0
    1.7257   54.9249   28.9149 O   0  0  0  0  0  0
    1.1753   52.8277   27.4543 C   0  0  0  0  0  0
    0.2227   52.2745   28.3144 C   0  0  0  0  0  0
   -0.6552   51.2963   27.8441 C   0  0  0  0  0  0
   -0.5740   50.8551   26.5201 C   0  0  0  0  0  0
    0.3035   51.4873   25.6332 C   0  0  0  0  0  0
    1.1722   52.4618   26.1060 C   0  0  0  0  0  0
    0.3549   50.9754   24.2515 C   0  0  0  0  0  0
   -0.3474   49.8679   23.9178 C   0  0  0  0  0  0
   -1.1171   49.0884   24.8777 C   0  0  0  0  0  0
   -1.5719   47.9722   24.6443 O   0  0  0  0  0  0
   -1.2451   49.6969   26.0817 N   0  0  0  0  0  0
   -1.6991   49.1217   26.7885 H   0  0  0  0  0  0
    5.9501   54.2271   28.0055 H   0  0  0  0  0  0
    6.4763   52.8966   26.9869 H   0  0  0  0  0  0
    7.4154   54.3824   27.0543 H   0  0  0  0  0  0
    7.9043   55.0295   24.8814 H   0  0  0  0  0  0
    7.5055   54.7341   23.1918 H   0  0  0  0  0  0
    6.7695   56.0938   24.0484 H   0  0  0  0  0  0
    6.0502   55.8034   21.8135 H   0  0  0  0  0  0
    6.1519   55.3633   19.4061 H   0  0  0  0  0  0
    5.1412   53.3049   18.4787 H   0  0  0  0  0  0
    4.0088   51.6966   19.9502 H   0  0  0  0  0  0
    3.8685   52.1235   22.3693 H   0  0  0  0  0  0
    2.6448   55.4790   26.3661 H   0  0  0  0  0  0
    0.2049   52.5509   29.3597 H   0  0  0  0  0  0
   -1.3328   50.8078   28.5305 H   0  0  0  0  0  0
    1.8896   52.8486   25.4222 H   0  0  0  0  0  0
    0.9218   51.5041   23.4970 H   0  0  0  0  0  0
   -0.3218   49.5034   22.9029 H   0  0  0  0  0  0
  1  2  1  0  0  0
  1 33  1  0  0  0
  1 34  1  0  0  0
  1 35  1  0  0  0
  2  3  1  0  0  0
  2  9  1  0  0  0
  2  4  1  0  0  0
  4  5  1  0  0  0
  4  6  1  0  0  0
  4 17  1  0  0  0
  6  7  2  0  0  0
  6  8  1  0  0  0
  8  9  1  0  0  0
  8 11  1  0  0  0
  9 10  1  0  0  0
 10 36  1  0  0  0
 10 37  1  0  0  0
 10 38  1  0  0  0
 11 16  2  0  0  0
 11 12  1  0  0  0
 12 13  2  0  0  0
 12 39  1  0  0  0
 13 14  1  0  0  0
 13 40  1  0  0  0
 14 15  2  0  0  0
 14 41  1  0  0  0
 15 16  1  0  0  0
 15 42  1  0  0  0
 16 43  1  0  0  0
 17 18  1  0  0  0
 17 44  1  0  0  0
 18 19  2  0  0  0
 18 20  2  0  0  0
 18 21  1  0  0  0
 21 26  2  0  0  0
 21 22  1  0  0  0
 22 23  2  0  0  0
 22 45  1  0  0  0
 23 24  1  0  0  0
 23 46  1  0  0  0
 24 31  1  0  0  0
 24 25  2  0  0  0
 25 26  1  0  0  0
 25 27  1  0  0  0
 26 47  1  0  0  0
 27 28  2  0  0  0
 27 48  1  0  0  0
 28 29  1  0  0  0
 28 49  1  0  0  0
 29 30  2  0  0  0
 29 31  1  0  0  0
 31 32  1  0  0  0
M  END
> <i_i_glide_confnum>
13

> <i_i_glide_lignum>
1557

> <i_i_glide_posenum>
378

> <i_i_glide_rotatable_bonds>
4

> <i_m_Source_File_Index>
5126

> <b_m_subgroup_collapsed>
0

> <r_i_docking_score>
-4.42545

> <r_i_glide_ecoul>
-4.84126

> <r_i_glide_eff_state_penalty>
0

> <r_i_glide_einternal>
8.18449

> <r_i_glide_emodel>
-50.7087

> <r_i_glide_energy>
-45.4198

> <r_i_glide_erotb>
0.463637

> <r_i_glide_esite>
-0.1

> <r_i_glide_evdw>
-40.5785

> <r_i_glide_gscore>
-4.42545

> <r_i_glide_hbond>
-0.140232

> <r_i_glide_ligand_efficiency>
-0.152602

> <r_i_glide_ligand_efficiency_ln>
-1.01331

> <r_i_glide_ligand_efficiency_sa>
-0.46884

> <r_i_glide_lipo>
-1.83429

> <r_i_glide_metal>
0

> <r_i_glide_rewards>
-0.0594446

> <s_i_glide_gridfile>
wee1_glide-grid

> <s_m_Source_File>
wee1_decoys_glide_SP.sdf

> <s_m_Source_Path>
/Users/zhangxujun/Desktop

> <s_m_entry_id>
5401

> <s_m_entry_name>
wee1_decoys_glide_SP.5126

> <s_m_subgroup_title>
wee1_decoys_glide_SP

> <s_m_subgroupid>
wee1_decoys_glide_SP


$$$$
