ZINC13241875_5935
                    3D
 Schrodinger Suite 2024-2.
 54 58  0  0  1  0            999 V2000
   -3.3292   47.9100   23.9475 C   0  0  0  0  0  0
   -2.9829   48.9848   24.6712 C   0  0  0  0  0  0
   -1.6778   49.1167   25.4370 C   0  0  0  0  0  0
   -0.8148   50.2130   24.9395 N   0  0  0  0  0  0
    0.0224   49.8555   23.8813 C   0  0  0  0  0  0
    0.0564   48.7252   23.3903 O   0  0  0  0  0  0
    0.7951   51.0002   23.4072 C   0  0  0  0  0  0
    1.7408   51.0723   22.3756 C   0  0  0  0  0  0
    2.2161   52.3526   22.1739 C   0  0  0  0  0  0
    1.5182   53.5190   23.2484 S   0  0  0  0  0  0
    0.5786   52.2520   23.9807 C   0  0  0  0  0  0
   -0.2843   52.4964   24.9952 N   0  0  0  0  0  0
   -0.9343   51.4997   25.4820 C   0  0  0  0  0  0
   -1.9748   51.9053   26.9100 S   0  0  0  0  0  0
   -0.8176   51.7960   28.3484 C   0  0  0  0  0  0
    0.6906   51.8888   28.0788 C   0  0  0  0  0  0
    1.2993   50.8980   27.6855 O   0  0  0  0  0  0
    1.2731   53.0878   28.2699 N   0  0  0  0  0  0
    2.6213   53.3407   27.9790 C   0  0  0  0  0  0
    2.8859   53.8585   26.7104 C   0  0  0  0  0  0
    4.2095   54.1105   26.2939 C   0  0  0  0  0  0
    4.5018   54.5911   24.9965 C   0  0  0  0  0  0
    5.8128   54.8455   24.6158 C   0  0  0  0  0  0
    6.8534   54.6307   25.5072 C   0  0  0  0  0  0
    6.6067   54.1475   26.7904 C   0  0  0  0  0  0
    5.2789   53.8702   27.2039 C   0  0  0  0  0  0
    4.9883   53.3485   28.4865 C   0  0  0  0  0  0
    3.6734   53.0724   28.8837 C   0  0  0  0  0  0
    3.4421   52.5049   30.2536 C   0  0  0  0  0  0
    4.2862   51.6968   30.7041 O   0  0  0  0  0  0
    3.2095   52.4399   21.0534 C   0  0  0  0  0  0
    3.4911   50.9523   20.7789 C   0  0  0  0  0  0
    2.3374   50.1222   21.3732 C   0  0  0  0  0  0
   -4.2738   47.8699   23.4228 H   0  0  0  0  0  0
   -2.6703   47.0554   23.8630 H   0  0  0  0  0  0
   -3.6547   49.8306   24.7346 H   0  0  0  0  0  0
   -1.1458   48.1613   25.4291 H   0  0  0  0  0  0
   -1.9131   49.2769   26.4840 H   0  0  0  0  0  0
   -1.1090   52.5491   29.0795 H   0  0  0  0  0  0
   -1.0222   50.8660   28.8717 H   0  0  0  0  0  0
    0.7413   53.8413   28.6698 H   0  0  0  0  0  0
    2.0740   54.0452   26.0228 H   0  0  0  0  0  0
    3.7031   54.7707   24.2979 H   0  0  0  0  0  0
    6.0267   55.2114   23.6231 H   0  0  0  0  0  0
    7.8633   54.8350   25.1878 H   0  0  0  0  0  0
    7.4239   53.9739   27.4749 H   0  0  0  0  0  0
    5.8119   53.1511   29.1583 H   0  0  0  0  0  0
    4.1237   52.9709   21.3231 H   0  0  0  0  0  0
    2.7848   52.9318   20.1772 H   0  0  0  0  0  0
    4.4214   50.6617   21.2669 H   0  0  0  0  0  0
    3.6225   50.7489   19.7146 H   0  0  0  0  0  0
    1.6218   49.8527   20.5973 H   0  0  0  0  0  0
    2.7061   49.1968   21.8178 H   0  0  0  0  0  0
    2.4331   52.8940   30.8823 O   0  5  0  0  0  0
  1  2  2  0  0  0
  1 34  1  0  0  0
  1 35  1  0  0  0
  2  3  1  0  0  0
  2 36  1  0  0  0
  3  4  1  0  0  0
  3 37  1  0  0  0
  3 38  1  0  0  0
  4 13  1  0  0  0
  4  5  1  0  0  0
  5  6  2  0  0  0
  5  7  1  0  0  0
  7 11  2  0  0  0
  7  8  1  0  0  0
  8 33  1  0  0  0
  8  9  2  0  0  0
  9 10  1  0  0  0
  9 31  1  0  0  0
 10 11  1  0  0  0
 11 12  1  0  0  0
 12 13  2  0  0  0
 13 14  1  0  0  0
 14 15  1  0  0  0
 15 16  1  0  0  0
 15 39  1  0  0  0
 15 40  1  0  0  0
 16 17  2  0  0  0
 16 18  1  0  0  0
 18 19  1  0  0  0
 18 41  1  0  0  0
 19 28  2  0  0  0
 19 20  1  0  0  0
 20 21  2  0  0  0
 20 42  1  0  0  0
 21 26  1  0  0  0
 21 22  1  0  0  0
 22 23  2  0  0  0
 22 43  1  0  0  0
 23 24  1  0  0  0
 23 44  1  0  0  0
 24 25  2  0  0  0
 24 45  1  0  0  0
 25 26  1  0  0  0
 25 46  1  0  0  0
 26 27  2  0  0  0
 27 28  1  0  0  0
 27 47  1  0  0  0
 28 29  1  0  0  0
 29 30  2  0  0  0
 29 54  1  0  0  0
 31 32  1  0  0  0
 31 48  1  0  0  0
 31 49  1  0  0  0
 32 33  1  0  0  0
 32 50  1  0  0  0
 32 51  1  0  0  0
 33 52  1  0  0  0
 33 53  1  0  0  0
M  CHG  1  54  -1
M  END
> <i_i_glide_confnum>
186

> <i_i_glide_lignum>
5936

> <i_i_glide_posenum>
388

> <i_i_glide_rotatable_bonds>
8

> <i_m_Source_File_Index>
1808

> <b_m_subgroup_collapsed>
0

> <r_i_docking_score>
-6.55684

> <r_i_glide_ecoul>
-4.77263

> <r_i_glide_eff_state_penalty>
0

> <r_i_glide_einternal>
7.61535

> <r_i_glide_emodel>
-73.6434

> <r_i_glide_energy>
-52.5193

> <r_i_glide_erotb>
0.591946

> <r_i_glide_esite>
-0.0381976

> <r_i_glide_evdw>
-47.7466

> <r_i_glide_gscore>
-6.55684

> <r_i_glide_hbond>
-0.231003

> <r_i_glide_ligand_efficiency>
-0.192848

> <r_i_glide_ligand_efficiency_ln>
-1.44859

> <r_i_glide_ligand_efficiency_sa>
-0.624753

> <r_i_glide_lipo>
-3.23026

> <r_i_glide_metal>
0

> <r_i_glide_rewards>
-0.546094

> <s_i_glide_gridfile>
wee1_glide-grid

> <s_m_Source_File>
wee1_decoys_glide_SP.sdf

> <s_m_Source_Path>
/Users/zhangxujun/Desktop

> <s_m_entry_id>
2083

> <s_m_entry_name>
wee1_decoys_glide_SP.1808

> <s_m_subgroup_title>
wee1_decoys_glide_SP

> <s_m_subgroupid>
wee1_decoys_glide_SP


$$$$
