ZINC00823396_308
                    3D
 Schrodinger Suite 2024-2.
 61 63  0  0  1  0            999 V2000
    0.4556   54.2778   30.9093 C   0  0  0  0  0  0
    1.1019   52.9549   30.4750 C   0  0  0  0  0  0
    1.3148   52.9237   29.0659 O   0  0  0  0  0  0
    2.4141   53.4708   28.4843 C   0  0  0  0  0  0
    3.3392   53.9715   29.1232 O   0  0  0  0  0  0
    2.3726   53.3969   27.0031 C   0  0  0  0  0  0
    3.4548   53.8335   26.1401 C   0  0  0  0  0  0
    4.7370   54.3387   26.4708 C   0  0  0  0  0  0
    5.6631   54.6520   25.4791 C   0  0  0  0  0  0
    5.3591   54.4967   24.1345 C   0  0  0  0  0  0
    4.0988   54.0414   23.7471 C   0  0  0  0  0  0
    3.1594   53.7102   24.7461 C   0  0  0  0  0  0
    1.5497   53.0995   24.4847 S   0  0  0  0  0  0
    1.3194   52.8968   26.2131 C   0  0  0  0  0  0
    0.1720   52.2800   26.7112 N   0  0  0  0  0  0
   -0.9653   51.9262   26.0785 C   0  0  0  0  0  0
   -1.2351   52.1462   24.8990 O   0  0  0  0  0  0
   -1.9971   51.2233   26.9546 C   0  0  0  0  0  0
    3.7589   53.8614   22.4255 O   0  0  0  0  0  0
    3.9374   52.5237   21.9594 C   0  0  0  0  0  0
    3.7793   52.4189   20.4283 C   0  0  1  0  0  0
    2.7879   52.7832   20.1514 H   0  0  0  0  0  0
    4.8564   53.2433   19.6932 C   0  0  0  0  0  0
    5.9790   53.6631   17.3869 C   0  0  0  0  0  0
    6.0771   52.9691   16.0089 C   0  0  0  0  0  0
    6.9976   53.7304   15.0314 C   0  0  0  0  0  0
    6.5692   55.2024   14.8724 C   0  0  0  0  0  0
    6.4451   55.9156   16.2335 C   0  0  0  0  0  0
    5.5392   55.1397   17.2127 C   0  0  0  0  0  0
    3.8775   51.0388   20.1120 O   0  0  0  0  0  0
    6.6920   54.8979   22.8299 Br  0  0  0  0  0  0
    0.2454   54.2732   31.9789 H   0  0  0  0  0  0
   -0.4900   54.4437   30.3940 H   0  0  0  0  0  0
    1.1026   55.1311   30.7045 H   0  0  0  0  0  0
    2.0301   52.7771   31.0219 H   0  0  0  0  0  0
    0.4318   52.1329   30.7311 H   0  0  0  0  0  0
    5.0333   54.4613   27.5013 H   0  0  0  0  0  0
    6.6430   55.0120   25.7611 H   0  0  0  0  0  0
    0.1943   52.1382   27.7118 H   0  0  0  0  0  0
   -2.5400   51.9474   27.5609 H   0  0  0  0  0  0
   -2.7199   50.6832   26.3401 H   0  0  0  0  0  0
   -1.5240   50.4977   27.6193 H   0  0  0  0  0  0
    4.9366   52.1674   22.2280 H   0  0  0  0  0  0
    3.2177   51.8698   22.4589 H   0  0  0  0  0  0
    4.6329   54.3101   19.7605 H   0  0  0  0  0  0
    5.8555   53.0634   20.0791 H   0  0  0  0  0  0
    6.9566   53.5934   17.8653 H   0  0  0  0  0  0
    6.3791   51.9261   16.1189 H   0  0  0  0  0  0
    5.0837   52.9148   15.5580 H   0  0  0  0  0  0
    8.0268   53.6877   15.3938 H   0  0  0  0  0  0
    7.0000   53.2354   14.0589 H   0  0  0  0  0  0
    7.2810   55.7334   14.2384 H   0  0  0  0  0  0
    5.6094   55.2478   14.3526 H   0  0  0  0  0  0
    7.4374   56.0317   16.6746 H   0  0  0  0  0  0
    6.0598   56.9269   16.0905 H   0  0  0  0  0  0
    4.5204   55.1653   16.8214 H   0  0  0  0  0  0
    5.4726   55.6536   18.1711 H   0  0  0  0  0  0
    4.2577   50.8963   19.2267 H   0  0  0  0  0  0
    4.9137   52.8972   18.1909 N   0  3  0  0  0  0
    5.1044   51.8960   18.0796 H   0  0  0  0  0  0
    4.0164   53.0524   17.7601 H   0  0  0  0  0  0
  1  2  1  0  0  0
  1 32  1  0  0  0
  1 33  1  0  0  0
  1 34  1  0  0  0
  2  3  1  0  0  0
  2 35  1  0  0  0
  2 36  1  0  0  0
  3  4  1  0  0  0
  4  5  2  0  0  0
  4  6  1  0  0  0
  6 14  2  0  0  0
  6  7  1  0  0  0
  7 12  2  0  0  0
  7  8  1  0  0  0
  8  9  2  0  0  0
  8 37  1  0  0  0
  9 10  1  0  0  0
  9 38  1  0  0  0
 10 11  2  0  0  0
 10 31  1  0  0  0
 11 12  1  0  0  0
 11 19  1  0  0  0
 12 13  1  0  0  0
 13 14  1  0  0  0
 14 15  1  0  0  0
 15 16  1  0  0  0
 15 39  1  0  0  0
 16 17  2  0  0  0
 16 18  1  0  0  0
 18 40  1  0  0  0
 18 41  1  0  0  0
 18 42  1  0  0  0
 19 20  1  0  0  0
 20 21  1  0  0  0
 20 43  1  0  0  0
 20 44  1  0  0  0
 21 22  1  0  0  0
 21 23  1  0  0  0
 21 30  1  0  0  0
 23 45  1  0  0  0
 23 46  1  0  0  0
 23 59  1  0  0  0
 24 29  1  0  0  0
 24 25  1  0  0  0
 24 47  1  0  0  0
 24 59  1  0  0  0
 25 26  1  0  0  0
 25 48  1  0  0  0
 25 49  1  0  0  0
 26 27  1  0  0  0
 26 50  1  0  0  0
 26 51  1  0  0  0
 27 28  1  0  0  0
 27 52  1  0  0  0
 27 53  1  0  0  0
 28 29  1  0  0  0
 28 54  1  0  0  0
 28 55  1  0  0  0
 29 56  1  0  0  0
 29 57  1  0  0  0
 30 58  1  0  0  0
 59 60  1  0  0  0
 59 61  1  0  0  0
M  CHG  1  59   1
M  END
> <i_i_glide_confnum>
146

> <i_i_glide_lignum>
309

> <i_i_glide_posenum>
232

> <i_i_glide_rotatable_bonds>
12

> <i_m_Source_File_Index>
3581

> <b_m_subgroup_collapsed>
0

> <r_i_docking_score>
-6.32719

> <r_i_glide_ecoul>
-10.4055

> <r_i_glide_eff_state_penalty>
0

> <r_i_glide_einternal>
7.01675

> <r_i_glide_emodel>
-69.2884

> <r_i_glide_energy>
-48.4648

> <r_i_glide_erotb>
0.620041

> <r_i_glide_esite>
-0.116193

> <r_i_glide_evdw>
-38.0592

> <r_i_glide_gscore>
-6.32719

> <r_i_glide_hbond>
-0.403446

> <r_i_glide_ligand_efficiency>
-0.204103

> <r_i_glide_ligand_efficiency_ln>
-1.42697

> <r_i_glide_ligand_efficiency_sa>
-0.641165

> <r_i_glide_lipo>
-2.65371

> <r_i_glide_metal>
0

> <r_i_glide_rewards>
-0.310091

> <s_i_glide_gridfile>
wee1_glide-grid

> <s_m_Source_File>
wee1_decoys_glide_SP.sdf

> <s_m_Source_Path>
/Users/zhangxujun/Desktop

> <s_m_entry_id>
3856

> <s_m_entry_name>
wee1_decoys_glide_SP.3581

> <s_m_subgroup_title>
wee1_decoys_glide_SP

> <s_m_subgroupid>
wee1_decoys_glide_SP


$$$$
