ZINC59020902_3037
                    3D
 Schrodinger Suite 2024-2.
 49 52  0  0  1  0            999 V2000
   -0.5784   44.8353   15.3000 C   0  0  0  0  0  0
    0.2419   45.0963   16.5557 C   0  0  0  0  0  0
    0.2707   46.2798   17.0445 N   0  0  0  0  0  0
    1.0662   46.5570   18.1683 N   0  0  0  0  0  0
    1.1225   47.7927   18.7675 C   0  0  0  0  0  0
    0.2964   48.2733   19.6578 N   0  0  0  0  0  0
    0.7635   49.4992   19.8673 C   0  0  0  0  0  0
    1.8605   49.8138   19.2039 N   0  0  0  0  0  0
    2.0795   48.7162   18.4813 N   0  0  0  0  0  0
   -0.0946   50.6151   20.9375 S   0  0  0  0  0  0
    0.9589   52.1129   20.8920 C   0  0  0  0  0  0
    1.9453   52.2493   22.0598 C   0  0  0  0  0  0
    2.0059   51.3914   22.9406 O   0  0  0  0  0  0
    2.7136   53.3550   22.0318 N   0  0  0  0  0  0
    3.6490   53.6984   22.9899 C   0  0  0  0  0  0
    3.5529   53.8078   24.3945 C   0  0  0  0  0  0
    4.7704   54.2296   24.9406 C   0  0  0  0  0  0
    5.7582   54.4170   24.0048 C   0  0  0  0  0  0
    5.2333   54.0971   22.3933 S   0  0  0  0  0  0
    7.0675   54.8361   24.6027 C   0  0  0  0  0  0
    6.7046   55.0398   26.0841 C   0  0  0  0  0  0
    5.2951   54.4716   26.3332 C   0  0  0  0  0  0
    2.4040   53.5202   25.2366 C   0  0  0  0  0  0
    1.5034   53.2880   25.9201 N   0  0  0  0  0  0
    0.9187   43.9042   17.1085 C   0  0  0  0  0  0
    0.6784   43.4872   18.4257 C   0  0  0  0  0  0
    1.3523   42.3885   18.9522 C   0  0  0  0  0  0
    2.2630   41.6935   18.1588 C   0  0  0  0  0  0
    2.5036   42.0882   16.8459 C   0  0  0  0  0  0
    1.8309   43.1883   16.3222 C   0  0  0  0  0  0
    3.1778   40.1898   18.8770 Br  0  0  0  0  0  0
    0.0418   44.4707   14.4820 H   0  0  0  0  0  0
   -1.3739   44.1150   15.4912 H   0  0  0  0  0  0
   -1.0610   45.7448   14.9393 H   0  0  0  0  0  0
    1.5763   45.7578   18.5150 H   0  0  0  0  0  0
    0.2806   52.9610   20.9483 H   0  0  0  0  0  0
    1.4723   52.2071   19.9377 H   0  0  0  0  0  0
    2.7309   53.8858   21.1716 H   0  0  0  0  0  0
    7.4620   55.7510   24.1565 H   0  0  0  0  0  0
    7.8177   54.0579   24.4815 H   0  0  0  0  0  0
    6.7104   56.0993   26.3255 H   0  0  0  0  0  0
    7.4386   54.5740   26.7446 H   0  0  0  0  0  0
    5.3514   53.5403   26.8973 H   0  0  0  0  0  0
    4.6840   55.1711   26.9061 H   0  0  0  0  0  0
   -0.0278   44.0207   19.0481 H   0  0  0  0  0  0
    1.1823   42.0834   19.9730 H   0  0  0  0  0  0
    3.2134   41.5490   16.2334 H   0  0  0  0  0  0
    2.0368   43.4895   15.3049 H   0  0  0  0  0  0
    2.8330   48.6425   17.7980 H   0  0  0  0  0  0
  1  2  1  0  0  0
  1 32  1  0  0  0
  1 33  1  0  0  0
  1 34  1  0  0  0
  2  3  2  0  0  0
  2 25  1  0  0  0
  3  4  1  0  0  0
  4  5  1  0  0  0
  4 35  1  0  0  0
  5  9  1  0  0  0
  5  6  2  0  0  0
  6  7  1  0  0  0
  7  8  2  0  0  0
  7 10  1  0  0  0
  8  9  1  0  0  0
  9 49  1  0  0  0
 10 11  1  0  0  0
 11 12  1  0  0  0
 11 36  1  0  0  0
 11 37  1  0  0  0
 12 13  2  0  0  0
 12 14  1  0  0  0
 14 15  1  0  0  0
 14 38  1  0  0  0
 15 19  1  0  0  0
 15 16  2  0  0  0
 16 17  1  0  0  0
 16 23  1  0  0  0
 17 22  1  0  0  0
 17 18  2  0  0  0
 18 19  1  0  0  0
 18 20  1  0  0  0
 20 21  1  0  0  0
 20 39  1  0  0  0
 20 40  1  0  0  0
 21 22  1  0  0  0
 21 41  1  0  0  0
 21 42  1  0  0  0
 22 43  1  0  0  0
 22 44  1  0  0  0
 23 24  3  0  0  0
 25 30  2  0  0  0
 25 26  1  0  0  0
 26 27  2  0  0  0
 26 45  1  0  0  0
 27 28  1  0  0  0
 27 46  1  0  0  0
 28 29  2  0  0  0
 28 31  1  0  0  0
 29 30  1  0  0  0
 29 47  1  0  0  0
 30 48  1  0  0  0
M  END
> <i_i_glide_confnum>
64

> <i_i_glide_lignum>
3038

> <i_i_glide_posenum>
72

> <i_i_glide_rotatable_bonds>
9

> <i_m_Source_File_Index>
333

> <b_m_subgroup_collapsed>
0

> <r_i_docking_score>
-5.11076

> <r_i_glide_ecoul>
-4.53545

> <r_i_glide_eff_state_penalty>
0

> <r_i_glide_einternal>
8.43039

> <r_i_glide_emodel>
-55.5881

> <r_i_glide_energy>
-44.3655

> <r_i_glide_erotb>
0.53871

> <r_i_glide_esite>
-0.162284

> <r_i_glide_evdw>
-39.8301

> <r_i_glide_gscore>
-5.11076

> <r_i_glide_hbond>
-0.310807

> <r_i_glide_ligand_efficiency>
-0.164863

> <r_i_glide_ligand_efficiency_ln>
-1.15263

> <r_i_glide_ligand_efficiency_sa>
-0.517899

> <r_i_glide_lipo>
-2.02823

> <r_i_glide_metal>
0

> <r_i_glide_rewards>
-0.476333

> <s_i_glide_gridfile>
wee1_glide-grid

> <s_m_Source_File>
wee1_decoys_glide_SP.sdf

> <s_m_Source_Path>
/Users/zhangxujun/Desktop

> <s_m_entry_id>
608

> <s_m_entry_name>
wee1_decoys_glide_SP.333

> <s_m_subgroup_title>
wee1_decoys_glide_SP

> <s_m_subgroupid>
wee1_decoys_glide_SP


$$$$
