ZINC13175295_1008
                    3D
 Schrodinger Suite 2024-2.
 68 72  0  0  1  0            999 V2000
    6.0759   53.5801   28.3081 C   0  0  0  0  0  0
    5.4067   54.3918   27.1780 C   0  0  1  0  0  0
    5.4073   55.4440   27.4642 H   0  0  0  0  0  0
    6.1606   54.2715   25.8593 C   0  0  0  0  0  0
    5.0691   54.2594   24.8404 C   0  0  0  0  0  0
    5.1905   54.2541   23.4496 C   0  0  0  0  0  0
    4.0574   54.0945   22.6548 C   0  0  0  0  0  0
    2.8140   53.8974   23.2508 C   0  0  0  0  0  0
    2.6980   53.8704   24.6412 C   0  0  0  0  0  0
    3.8248   54.0830   25.4557 C   0  0  0  0  0  0
    3.9922   54.0759   26.8694 N   0  0  0  0  0  0
    3.0460   54.0957   27.8607 C   0  0  0  0  0  0
    3.2801   54.5412   28.9878 O   0  0  0  0  0  0
    1.6531   53.4837   27.6497 C   0  0  0  0  0  0
    1.7575   51.7050   27.2824 S   0  0  0  0  0  0
    0.3062   51.3481   26.3211 C   0  0  0  0  0  0
   -0.9484   51.2395   26.7938 C   0  0  0  0  0  0
   -2.1191   50.7929   25.9009 C   0  0  2  0  0  0
   -2.5088   49.8623   26.3215 H   0  0  0  0  0  0
   -1.6243   50.4176   24.4688 C   0  0  0  0  0  0
   -0.3068   50.5099   24.1288 C   0  0  0  0  0  0
    0.6079   51.0154   25.0245 N   0  0  0  0  0  0
    0.2350   50.2146   22.7283 C   0  0  0  0  0  0
   -0.8608   50.4311   21.6443 C   0  0  0  0  0  0
   -2.1150   49.6179   22.0687 C   0  0  0  0  0  0
   -2.6167   49.9078   23.4961 C   0  0  0  0  0  0
   -3.7496   49.5645   23.8292 O   0  0  0  0  0  0
   -1.2119   51.9360   21.5097 C   0  0  0  0  0  0
   -0.3486   49.8343   20.3169 C   0  0  0  0  0  0
   -3.3117   51.7553   25.9604 C   0  0  0  0  0  0
   -4.3842   51.5034   26.8210 C   0  0  0  0  0  0
   -5.4577   52.3893   26.8785 C   0  0  0  0  0  0
   -5.4637   53.5447   26.0811 C   0  0  0  0  0  0
   -4.3961   53.7830   25.2183 C   0  0  0  0  0  0
   -3.3250   52.8975   25.1576 C   0  0  0  0  0  0
   -6.4637   54.4965   26.0895 O   0  0  0  0  0  0
   -7.5928   54.3088   26.9346 C   0  0  0  0  0  0
   -1.1787   51.4823   28.1770 C   0  0  0  0  0  0
   -1.2832   51.6968   29.3064 N   0  0  0  0  0  0
    7.1391   53.8132   28.3727 H   0  0  0  0  0  0
    5.6555   53.8192   29.2815 H   0  0  0  0  0  0
    5.9930   52.5063   28.1311 H   0  0  0  0  0  0
    6.8923   55.0678   25.7284 H   0  0  0  0  0  0
    6.6763   53.3100   25.7997 H   0  0  0  0  0  0
    6.1564   54.3614   22.9781 H   0  0  0  0  0  0
    4.1439   54.0995   21.5778 H   0  0  0  0  0  0
    1.9399   53.7534   22.6319 H   0  0  0  0  0  0
    1.7119   53.6854   25.0216 H   0  0  0  0  0  0
    1.1048   54.0470   26.9066 H   0  0  0  0  0  0
    1.0683   53.5851   28.5653 H   0  0  0  0  0  0
    1.5803   51.0176   24.7538 H   0  0  0  0  0  0
    1.0450   50.9030   22.4788 H   0  0  0  0  0  0
    0.6384   49.2004   22.7428 H   0  0  0  0  0  0
   -2.9436   49.7232   21.3685 H   0  0  0  0  0  0
   -1.8462   48.5610   22.0805 H   0  0  0  0  0  0
   -2.0138   52.0884   20.7871 H   0  0  0  0  0  0
   -1.5300   52.3897   22.4477 H   0  0  0  0  0  0
   -0.3479   52.4990   21.1569 H   0  0  0  0  0  0
   -1.0834   49.9527   19.5197 H   0  0  0  0  0  0
    0.5672   50.3265   19.9867 H   0  0  0  0  0  0
   -0.1336   48.7681   20.4034 H   0  0  0  0  0  0
   -4.3853   50.6238   27.4498 H   0  0  0  0  0  0
   -6.2690   52.1678   27.5545 H   0  0  0  0  0  0
   -4.3942   54.6664   24.5975 H   0  0  0  0  0  0
   -2.4993   53.1065   24.4940 H   0  0  0  0  0  0
   -8.2709   55.1544   26.8212 H   0  0  0  0  0  0
   -7.3043   54.2575   27.9854 H   0  0  0  0  0  0
   -8.1439   53.4054   26.6697 H   0  0  0  0  0  0
  1  2  1  0  0  0
  1 40  1  0  0  0
  1 41  1  0  0  0
  1 42  1  0  0  0
  2  3  1  0  0  0
  2 11  1  0  0  0
  2  4  1  0  0  0
  4  5  1  0  0  0
  4 43  1  0  0  0
  4 44  1  0  0  0
  5 10  2  0  0  0
  5  6  1  0  0  0
  6  7  2  0  0  0
  6 45  1  0  0  0
  7  8  1  0  0  0
  7 46  1  0  0  0
  8  9  2  0  0  0
  8 47  1  0  0  0
  9 10  1  0  0  0
  9 48  1  0  0  0
 10 11  1  0  0  0
 11 12  1  0  0  0
 12 13  2  0  0  0
 12 14  1  0  0  0
 14 15  1  0  0  0
 14 49  1  0  0  0
 14 50  1  0  0  0
 15 16  1  0  0  0
 16 22  1  0  0  0
 16 17  2  0  0  0
 17 18  1  0  0  0
 17 38  1  0  0  0
 18 19  1  0  0  0
 18 20  1  0  0  0
 18 30  1  0  0  0
 20 26  1  0  0  0
 20 21  2  0  0  0
 21 22  1  0  0  0
 21 23  1  0  0  0
 22 51  1  0  0  0
 23 24  1  0  0  0
 23 52  1  0  0  0
 23 53  1  0  0  0
 24 25  1  0  0  0
 24 28  1  0  0  0
 24 29  1  0  0  0
 25 26  1  0  0  0
 25 54  1  0  0  0
 25 55  1  0  0  0
 26 27  2  0  0  0
 28 56  1  0  0  0
 28 57  1  0  0  0
 28 58  1  0  0  0
 29 59  1  0  0  0
 29 60  1  0  0  0
 29 61  1  0  0  0
 30 35  2  0  0  0
 30 31  1  0  0  0
 31 32  2  0  0  0
 31 62  1  0  0  0
 32 33  1  0  0  0
 32 63  1  0  0  0
 33 34  2  0  0  0
 33 36  1  0  0  0
 34 35  1  0  0  0
 34 64  1  0  0  0
 35 65  1  0  0  0
 36 37  1  0  0  0
 37 66  1  0  0  0
 37 67  1  0  0  0
 37 68  1  0  0  0
 38 39  3  0  0  0
M  END
> <i_i_glide_confnum>
315

> <i_i_glide_lignum>
1009

> <i_i_glide_posenum>
38

> <i_i_glide_rotatable_bonds>
7

> <i_m_Source_File_Index>
294

> <b_m_subgroup_collapsed>
0

> <r_i_docking_score>
-6.0458

> <r_i_glide_ecoul>
-1.70723

> <r_i_glide_eff_state_penalty>
0

> <r_i_glide_einternal>
11.6437

> <r_i_glide_emodel>
-52.938

> <r_i_glide_energy>
-43.3967

> <r_i_glide_erotb>
0.388638

> <r_i_glide_esite>
-0.0908196

> <r_i_glide_evdw>
-41.6895

> <r_i_glide_gscore>
-6.0458

> <r_i_glide_hbond>
-0.32

> <r_i_glide_ligand_efficiency>
-0.1634

> <r_i_glide_ligand_efficiency_ln>
-1.31119

> <r_i_glide_ligand_efficiency_sa>
-0.544485

> <r_i_glide_lipo>
-3.10595

> <r_i_glide_metal>
0

> <r_i_glide_rewards>
-0.577111

> <s_i_glide_gridfile>
wee1_glide-grid

> <s_m_Source_File>
wee1_decoys_glide_SP.sdf

> <s_m_Source_Path>
/Users/zhangxujun/Desktop

> <s_m_entry_id>
569

> <s_m_entry_name>
wee1_decoys_glide_SP.294

> <s_m_subgroup_title>
wee1_decoys_glide_SP

> <s_m_subgroupid>
wee1_decoys_glide_SP


$$$$
