ZINC08883081_4158
                    3D
 Schrodinger Suite 2024-2.
 57 61  0  0  1  0            999 V2000
    1.6837   51.9736   32.0819 C   0  0  0  0  0  0
    2.8400   52.0969   31.2466 C   0  0  0  0  0  0
    2.8296   53.0703   30.3275 C   0  0  0  0  0  0
    1.7795   54.0069   30.2298 N   0  0  0  0  0  0
    0.7044   53.9811   31.0766 C   0  0  0  0  0  0
   -0.0957   54.8962   31.1870 O   0  0  0  0  0  0
    0.7025   52.8839   32.0037 C   0  0  0  0  0  0
    1.8746   55.2444   29.4421 C   0  0  0  0  0  0
    2.8901   55.1083   28.3338 C   0  0  1  0  0  0
    3.1031   56.0967   28.0815 H   0  0  0  0  0  0
    4.2135   54.5290   28.8430 C   0  0  0  0  0  0
    3.9059   53.1019   29.2660 C   0  0  2  0  0  0
    4.8163   52.6172   29.6213 H   0  0  0  0  0  0
    3.3510   52.3127   28.0816 C   0  0  0  0  0  0
    2.1661   52.9221   27.4641 N   0  0  0  0  0  0
    2.3427   54.3293   27.1297 C   0  0  0  0  0  0
    0.5420   52.2262   27.6869 S   0  0  0  0  0  0
   -0.4528   53.2976   27.7362 O   0  0  0  0  0  0
    0.6107   51.2323   28.7536 O   0  0  0  0  0  0
    0.3028   51.4095   26.1227 C   0  0  0  0  0  0
    0.2768   52.2285   24.9967 C   0  0  0  0  0  0
    0.3821   51.6688   23.7378 C   0  0  0  0  0  0
    0.5704   50.2889   23.6083 C   0  0  0  0  0  0
    0.4462   49.4567   24.7249 C   0  0  0  0  0  0
    0.3062   50.0184   25.9944 C   0  0  0  0  0  0
    0.9290   49.7237   22.3690 N   0  0  0  0  0  0
    1.8102   50.2058   21.4572 C   0  0  0  0  0  0
    1.9028   49.6766   20.3532 O   0  0  0  0  0  0
    2.5564   51.2573   21.8716 N   0  0  0  0  0  0
    3.3788   52.1525   21.1674 C   0  0  0  0  0  0
    3.5075   52.1846   19.7715 C   0  0  0  0  0  0
    4.3255   53.1394   19.1744 C   0  0  0  0  0  0
    5.0050   54.0655   19.9615 C   0  0  0  0  0  0
    4.8810   54.0418   21.3481 C   0  0  0  0  0  0
    4.0630   53.0903   21.9486 C   0  0  0  0  0  0
    6.0091   55.2499   19.2158 Cl  0  0  0  0  0  0
    1.6470   51.2120   32.8476 H   0  0  0  0  0  0
    3.6479   51.3844   31.3152 H   0  0  0  0  0  0
   -0.0953   52.8971   32.7203 H   0  0  0  0  0  0
    2.1133   56.0829   30.1002 H   0  0  0  0  0  0
    0.9060   55.4897   29.0034 H   0  0  0  0  0  0
    4.9736   54.5452   28.0604 H   0  0  0  0  0  0
    4.6150   55.1116   29.6712 H   0  0  0  0  0  0
    3.0996   51.2973   28.3869 H   0  0  0  0  0  0
    4.1129   52.2565   27.3063 H   0  0  0  0  0  0
    2.9762   54.3950   26.2461 H   0  0  0  0  0  0
    1.3598   54.7149   26.8816 H   0  0  0  0  0  0
    0.2849   53.3021   25.0944 H   0  0  0  0  0  0
    0.4087   52.3215   22.8767 H   0  0  0  0  0  0
    0.5561   48.3860   24.6331 H   0  0  0  0  0  0
    0.2929   49.3784   26.8672 H   0  0  0  0  0  0
    0.5750   48.7958   22.1868 H   0  0  0  0  0  0
    2.4714   51.4651   22.8555 H   0  0  0  0  0  0
    3.0015   51.4746   19.1339 H   0  0  0  0  0  0
    4.4408   53.1470   18.0991 H   0  0  0  0  0  0
    5.4106   54.7614   21.9536 H   0  0  0  0  0  0
    3.9616   53.0924   23.0253 H   0  0  0  0  0  0
  1  7  2  0  0  0
  1  2  1  0  0  0
  1 37  1  0  0  0
  2  3  2  0  0  0
  2 38  1  0  0  0
  3 12  1  0  0  0
  3  4  1  0  0  0
  4  5  1  0  0  0
  4  8  1  0  0  0
  5  6  2  0  0  0
  5  7  1  0  0  0
  7 39  1  0  0  0
  8  9  1  0  0  0
  8 40  1  0  0  0
  8 41  1  0  0  0
  9 10  1  0  0  0
  9 16  1  0  0  0
  9 11  1  0  0  0
 11 12  1  0  0  0
 11 42  1  0  0  0
 11 43  1  0  0  0
 12 13  1  0  0  0
 12 14  1  0  0  0
 14 15  1  0  0  0
 14 44  1  0  0  0
 14 45  1  0  0  0
 15 16  1  0  0  0
 15 17  1  0  0  0
 16 46  1  0  0  0
 16 47  1  0  0  0
 17 18  2  0  0  0
 17 19  2  0  0  0
 17 20  1  0  0  0
 20 25  2  0  0  0
 20 21  1  0  0  0
 21 22  2  0  0  0
 21 48  1  0  0  0
 22 23  1  0  0  0
 22 49  1  0  0  0
 23 24  2  0  0  0
 23 26  1  0  0  0
 24 25  1  0  0  0
 24 50  1  0  0  0
 25 51  1  0  0  0
 26 27  1  0  0  0
 26 52  1  0  0  0
 27 28  2  0  0  0
 27 29  1  0  0  0
 29 30  1  0  0  0
 29 53  1  0  0  0
 30 35  2  0  0  0
 30 31  1  0  0  0
 31 32  2  0  0  0
 31 54  1  0  0  0
 32 33  1  0  0  0
 32 55  1  0  0  0
 33 34  2  0  0  0
 33 36  1  0  0  0
 34 35  1  0  0  0
 34 56  1  0  0  0
 35 57  1  0  0  0
M  END
> <i_i_glide_confnum>
46

> <i_i_glide_lignum>
4159

> <i_i_glide_posenum>
210

> <i_i_glide_rotatable_bonds>
6

> <i_m_Source_File_Index>
5526

> <b_m_subgroup_collapsed>
0

> <r_i_docking_score>
-2.30289

> <r_i_glide_ecoul>
-2.36756

> <r_i_glide_eff_state_penalty>
0

> <r_i_glide_einternal>
6.85683

> <r_i_glide_emodel>
-25.1306

> <r_i_glide_energy>
-25.8536

> <r_i_glide_erotb>
0.409861

> <r_i_glide_esite>
-0.00905961

> <r_i_glide_evdw>
-23.486

> <r_i_glide_gscore>
-2.30289

> <r_i_glide_hbond>
0

> <r_i_glide_ligand_efficiency>
-0.067732

> <r_i_glide_ligand_efficiency_ln>
-0.508772

> <r_i_glide_ligand_efficiency_sa>
-0.219425

> <r_i_glide_lipo>
-2.00021

> <r_i_glide_metal>
0

> <r_i_glide_rewards>
0.825956

> <s_i_glide_gridfile>
wee1_glide-grid

> <s_m_Source_File>
wee1_decoys_glide_SP.sdf

> <s_m_Source_Path>
/Users/zhangxujun/Desktop

> <s_m_entry_id>
5801

> <s_m_entry_name>
wee1_decoys_glide_SP.5526

> <s_m_subgroup_title>
wee1_decoys_glide_SP

> <s_m_subgroupid>
wee1_decoys_glide_SP


$$$$
