ZINC02924714_2084
                    3D
 Schrodinger Suite 2024-2.
 51 54  0  0  1  0            999 V2000
   -2.0178   48.7088   25.1518 C   0  0  0  0  0  0
   -1.0727   49.4740   24.2449 C   0  0  0  0  0  0
    0.3075   49.3948   24.4388 C   0  0  0  0  0  0
    1.1729   50.0942   23.5980 C   0  0  0  0  0  0
    0.6657   50.8626   22.5484 C   0  0  0  0  0  0
   -0.7246   50.9774   22.3736 C   0  0  0  0  0  0
   -1.5835   50.2776   23.2229 C   0  0  0  0  0  0
   -1.4896   52.0939   21.0249 Br  0  0  0  0  0  0
    1.5854   51.5210   21.7259 N   0  0  0  0  0  0
    1.8358   51.1880   20.4406 C   0  0  0  0  0  0
    1.2593   50.2618   19.8685 O   0  0  0  0  0  0
    2.9104   51.9716   19.6498 C   0  0  0  0  0  0
    3.4177   53.1596   20.3483 N   0  0  0  0  0  0
    4.3387   53.1431   21.3227 C   0  0  0  0  0  0
    4.9232   52.1200   21.6792 O   0  0  0  0  0  0
    4.5970   54.4961   22.0099 C   0  0  0  0  0  0
    4.9964   54.3443   23.4356 N   0  0  0  0  0  0
    6.3342   54.5205   23.7658 C   0  0  0  0  0  0
    6.7642   54.4947   24.9745 N   0  0  0  0  0  0
    5.8404   54.2522   25.9415 C   0  0  0  0  0  0
    4.4749   54.0643   25.7286 C   0  0  0  0  0  0
    3.9679   54.0968   24.3482 C   0  0  0  0  0  0
    2.7932   53.9409   23.9995 O   0  0  0  0  0  0
    3.7721   53.8484   26.9352 C   0  0  0  0  0  0
    4.6389   53.8462   28.0440 C   0  0  0  0  0  0
    6.2977   54.1020   27.5975 S   0  0  0  0  0  0
    4.2225   53.5734   29.4823 C   0  0  0  0  0  0
    2.6858   53.6652   29.6011 C   0  0  0  0  0  0
    1.9734   52.9283   28.4533 C   0  0  0  0  0  0
    2.2739   53.5640   27.0772 C   0  0  0  0  0  0
   -2.3947   47.8169   24.6499 H   0  0  0  0  0  0
   -2.8711   49.3306   25.4289 H   0  0  0  0  0  0
   -1.5283   48.4110   26.0818 H   0  0  0  0  0  0
    0.7150   48.7830   25.2328 H   0  0  0  0  0  0
    2.2399   50.0046   23.7443 H   0  0  0  0  0  0
   -2.6505   50.3594   23.0833 H   0  0  0  0  0  0
    2.1700   52.2218   22.1591 H   0  0  0  0  0  0
    3.7361   51.2967   19.4245 H   0  0  0  0  0  0
    2.4880   52.2821   18.6932 H   0  0  0  0  0  0
    2.9398   54.0267   20.1226 H   0  0  0  0  0  0
    5.3563   55.0353   21.4437 H   0  0  0  0  0  0
    3.7030   55.1198   21.9457 H   0  0  0  0  0  0
    7.0354   54.6946   22.9553 H   0  0  0  0  0  0
    4.5491   52.5730   29.7725 H   0  0  0  0  0  0
    4.7008   54.2835   30.1596 H   0  0  0  0  0  0
    2.3672   53.2494   30.5571 H   0  0  0  0  0  0
    2.3768   54.7114   29.6075 H   0  0  0  0  0  0
    2.2810   51.8813   28.4450 H   0  0  0  0  0  0
    0.8955   52.9202   28.6230 H   0  0  0  0  0  0
    1.7151   54.4946   26.9703 H   0  0  0  0  0  0
    1.9157   52.9045   26.2857 H   0  0  0  0  0  0
  1  2  1  0  0  0
  1 31  1  0  0  0
  1 32  1  0  0  0
  1 33  1  0  0  0
  2  7  2  0  0  0
  2  3  1  0  0  0
  3  4  2  0  0  0
  3 34  1  0  0  0
  4  5  1  0  0  0
  4 35  1  0  0  0
  5  6  2  0  0  0
  5  9  1  0  0  0
  6  7  1  0  0  0
  6  8  1  0  0  0
  7 36  1  0  0  0
  9 10  1  0  0  0
  9 37  1  0  0  0
 10 11  2  0  0  0
 10 12  1  0  0  0
 12 13  1  0  0  0
 12 38  1  0  0  0
 12 39  1  0  0  0
 13 14  1  0  0  0
 13 40  1  0  0  0
 14 15  2  0  0  0
 14 16  1  0  0  0
 16 17  1  0  0  0
 16 41  1  0  0  0
 16 42  1  0  0  0
 17 22  1  0  0  0
 17 18  1  0  0  0
 18 19  2  0  0  0
 18 43  1  0  0  0
 19 20  1  0  0  0
 20 26  1  0  0  0
 20 21  2  0  0  0
 21 22  1  0  0  0
 21 24  1  0  0  0
 22 23  2  0  0  0
 24 30  1  0  0  0
 24 25  2  0  0  0
 25 26  1  0  0  0
 25 27  1  0  0  0
 27 28  1  0  0  0
 27 44  1  0  0  0
 27 45  1  0  0  0
 28 29  1  0  0  0
 28 46  1  0  0  0
 28 47  1  0  0  0
 29 30  1  0  0  0
 29 48  1  0  0  0
 29 49  1  0  0  0
 30 50  1  0  0  0
 30 51  1  0  0  0
M  END
> <i_i_glide_confnum>
93

> <i_i_glide_lignum>
2085

> <i_i_glide_posenum>
274

> <i_i_glide_rotatable_bonds>
7

> <i_m_Source_File_Index>
556

> <b_m_subgroup_collapsed>
0

> <r_i_docking_score>
-7.22303

> <r_i_glide_ecoul>
-6.7681

> <r_i_glide_eff_state_penalty>
0

> <r_i_glide_einternal>
6.33839

> <r_i_glide_emodel>
-74.4315

> <r_i_glide_energy>
-54.2242

> <r_i_glide_erotb>
0.509642

> <r_i_glide_esite>
-0.0107287

> <r_i_glide_evdw>
-47.4561

> <r_i_glide_gscore>
-7.22303

> <r_i_glide_hbond>
-0.32

> <r_i_glide_ligand_efficiency>
-0.240768

> <r_i_glide_ligand_efficiency_ln>
-1.64115

> <r_i_glide_ligand_efficiency_sa>
-0.748121

> <r_i_glide_lipo>
-2.26249

> <r_i_glide_metal>
0

> <r_i_glide_rewards>
-1.75144

> <s_i_glide_gridfile>
wee1_glide-grid

> <s_m_Source_File>
wee1_decoys_glide_SP.sdf

> <s_m_Source_Path>
/Users/zhangxujun/Desktop

> <s_m_entry_id>
831

> <s_m_entry_name>
wee1_decoys_glide_SP.556

> <s_m_subgroup_title>
wee1_decoys_glide_SP

> <s_m_subgroupid>
wee1_decoys_glide_SP


$$$$
