ZINC03373252_4007
                    3D
 Schrodinger Suite 2024-2.
 53 56  0  0  1  0            999 V2000
    5.4335   54.2164   27.6836 C   0  0  0  0  0  0
    6.6998   54.8964   26.5762 S   0  0  0  0  0  0
    5.9688   54.6965   24.9833 C   0  0  0  0  0  0
    6.6149   54.9904   23.8885 N   0  0  0  0  0  0
    5.9034   54.6730   22.7744 C   0  0  0  0  0  0
    6.3198   54.8968   21.4566 C   0  0  0  0  0  0
    5.5075   54.4331   20.4158 C   0  0  0  0  0  0
    4.2969   53.7747   20.6591 C   0  0  0  0  0  0
    3.8224   53.6380   21.9745 C   0  0  0  0  0  0
    4.6336   54.0956   23.0207 C   0  0  0  0  0  0
    4.3369   54.0968   24.7485 S   0  0  0  0  0  0
    3.5906   53.3221   19.5232 N   0  0  0  0  0  0
    2.5194   52.4968   19.4396 C   0  0  0  0  0  0
    2.0264   51.8987   20.3965 O   0  0  0  0  0  0
    1.8466   52.3488   18.0533 C   0  0  0  0  0  0
    0.9693   53.5919   17.7449 C   0  0  0  0  0  0
    0.2859   53.4186   16.3679 C   0  0  0  0  0  0
    1.2666   53.0872   15.2991 N   0  0  0  0  0  0
    2.1993   51.9696   15.5891 C   0  0  0  0  0  0
    2.9092   52.1822   16.9394 C   0  0  0  0  0  0
    1.6528   54.2882   14.0443 S   0  0  0  0  0  0
    2.5409   53.6699   13.0560 O   0  0  0  0  0  0
    0.3806   54.8737   13.6039 O   0  0  0  0  0  0
    2.5510   55.6253   14.8902 C   0  0  0  0  0  0
    1.7390   56.6099   15.4722 C   0  0  0  0  0  0
    2.2871   57.7329   16.0802 C   0  0  0  0  0  0
    3.6654   57.8841   16.1442 C   0  0  0  0  0  0
    4.4906   56.9117   15.5878 C   0  0  0  0  0  0
    3.9640   55.7737   14.9508 C   0  0  0  0  0  0
    4.9650   54.7807   14.3316 C   0  0  0  0  0  0
    4.6865   53.5249   14.6609 F   0  0  0  0  0  0
    4.9601   54.9066   13.0042 F   0  0  0  0  0  0
    6.2167   55.0085   14.7420 F   0  0  0  0  0  0
    5.7916   54.2680   28.7127 H   0  0  0  0  0  0
    5.2328   53.1698   27.4515 H   0  0  0  0  0  0
    4.5109   54.7944   27.6257 H   0  0  0  0  0  0
    7.2712   55.3641   21.2508 H   0  0  0  0  0  0
    5.8497   54.5643   19.3984 H   0  0  0  0  0  0
    2.8632   53.1944   22.1939 H   0  0  0  0  0  0
    3.9523   53.6468   18.6401 H   0  0  0  0  0  0
    1.2691   51.4239   18.1209 H   0  0  0  0  0  0
    0.1649   53.6997   18.4761 H   0  0  0  0  0  0
    1.5675   54.5038   17.6823 H   0  0  0  0  0  0
   -0.4726   52.6346   16.3843 H   0  0  0  0  0  0
   -0.2329   54.3382   16.0954 H   0  0  0  0  0  0
    1.6346   51.0368   15.5790 H   0  0  0  0  0  0
    2.9286   51.8901   14.7847 H   0  0  0  0  0  0
    3.5344   53.0679   16.8219 H   0  0  0  0  0  0
    3.5062   51.2962   17.1100 H   0  0  0  0  0  0
    0.6624   56.5308   15.4274 H   0  0  0  0  0  0
    1.6409   58.4984   16.4826 H   0  0  0  0  0  0
    4.0936   58.7646   16.6054 H   0  0  0  0  0  0
    5.5573   57.0729   15.6414 H   0  0  0  0  0  0
  1  2  1  0  0  0
  1 34  1  0  0  0
  1 35  1  0  0  0
  1 36  1  0  0  0
  2  3  1  0  0  0
  3 11  1  0  0  0
  3  4  2  0  0  0
  4  5  1  0  0  0
  5 10  2  0  0  0
  5  6  1  0  0  0
  6  7  2  0  0  0
  6 37  1  0  0  0
  7  8  1  0  0  0
  7 38  1  0  0  0
  8  9  2  0  0  0
  8 12  1  0  0  0
  9 10  1  0  0  0
  9 39  1  0  0  0
 10 11  1  0  0  0
 12 13  1  0  0  0
 12 40  1  0  0  0
 13 14  2  0  0  0
 13 15  1  0  0  0
 15 20  1  0  0  0
 15 16  1  0  0  0
 15 41  1  0  0  0
 16 17  1  0  0  0
 16 42  1  0  0  0
 16 43  1  0  0  0
 17 18  1  0  0  0
 17 44  1  0  0  0
 17 45  1  0  0  0
 18 19  1  0  0  0
 18 21  1  0  0  0
 19 20  1  0  0  0
 19 46  1  0  0  0
 19 47  1  0  0  0
 20 48  1  0  0  0
 20 49  1  0  0  0
 21 22  2  0  0  0
 21 23  2  0  0  0
 21 24  1  0  0  0
 24 29  2  0  0  0
 24 25  1  0  0  0
 25 26  2  0  0  0
 25 50  1  0  0  0
 26 27  1  0  0  0
 26 51  1  0  0  0
 27 28  2  0  0  0
 27 52  1  0  0  0
 28 29  1  0  0  0
 28 53  1  0  0  0
 29 30  1  0  0  0
 30 31  1  0  0  0
 30 32  1  0  0  0
 30 33  1  0  0  0
M  END
> <i_i_glide_confnum>
13

> <i_i_glide_lignum>
4008

> <i_i_glide_posenum>
254

> <i_i_glide_rotatable_bonds>
7

> <i_m_Source_File_Index>
2130

> <b_m_subgroup_collapsed>
0

> <r_i_docking_score>
-3.86728

> <r_i_glide_ecoul>
-3.62635

> <r_i_glide_eff_state_penalty>
0

> <r_i_glide_einternal>
6.68107

> <r_i_glide_emodel>
-41.6013

> <r_i_glide_energy>
-35.6183

> <r_i_glide_erotb>
0.385951

> <r_i_glide_esite>
-0.0457617

> <r_i_glide_evdw>
-31.9919

> <r_i_glide_gscore>
-3.86728

> <r_i_glide_hbond>
0

> <r_i_glide_ligand_efficiency>
-0.11719

> <r_i_glide_ligand_efficiency_ln>
-0.860063

> <r_i_glide_ligand_efficiency_sa>
-0.375892

> <r_i_glide_lipo>
-2.02581

> <r_i_glide_metal>
0

> <r_i_glide_rewards>
-0.0381094

> <s_i_glide_gridfile>
wee1_glide-grid

> <s_m_Source_File>
wee1_decoys_glide_SP.sdf

> <s_m_Source_Path>
/Users/zhangxujun/Desktop

> <s_m_entry_id>
2405

> <s_m_entry_name>
wee1_decoys_glide_SP.2130

> <s_m_subgroup_title>
wee1_decoys_glide_SP

> <s_m_subgroupid>
wee1_decoys_glide_SP


$$$$
