ZINC39677000_590
                    3D
 Schrodinger Suite 2024-2.
 74 77  0  0  1  0            999 V2000
    2.1493   55.1866   29.9369 C   0  0  0  0  0  0
    1.6125   55.2436   28.4957 C   0  0  0  0  0  0
    2.0317   54.1214   27.4989 C   0  0  1  0  0  0
    1.6002   54.4861   26.5694 H   0  0  0  0  0  0
    3.5501   54.0426   27.2769 C   0  0  0  0  0  0
    4.4126   53.5663   28.2715 C   0  0  0  0  0  0
    5.7914   53.6133   28.0815 C   0  0  0  0  0  0
    6.3119   54.0964   26.8848 C   0  0  0  0  0  0
    5.4654   54.5380   25.8733 C   0  0  0  0  0  0
    4.0868   54.5154   26.0726 C   0  0  0  0  0  0
    1.3494   52.7440   27.7608 C   0  0  0  0  0  0
    1.2123   52.3512   28.9214 O   0  0  0  0  0  0
    0.8530   52.0376   26.7100 N   0  0  0  0  0  0
    0.0458   50.8231   26.8733 C   0  0  0  0  0  0
    0.3328   50.0065   25.5954 C   0  0  2  0  0  0
    1.1740   49.3392   25.7852 H   0  0  0  0  0  0
    0.6786   51.0669   24.5023 C   0  0  0  0  0  0
    1.2986   52.2295   25.3303 C   0  0  0  0  0  0
    1.5994   50.4977   23.3951 C   0  0  0  0  0  0
    2.1004   51.6164   22.4581 C   0  0  0  0  0  0
    0.8695   52.2730   21.7914 N   0  3  0  0  0  0
   -0.2568   52.7055   22.7657 C   0  0  0  0  0  0
   -0.5780   51.5651   23.7313 C   0  0  0  0  0  0
   -0.9043   49.1215   25.2814 C   0  0  0  0  0  0
   -2.0515   49.5553   25.4179 O   0  0  0  0  0  0
   -0.6586   47.8653   24.8824 N   0  0  0  0  0  0
   -1.7062   46.8969   24.5738 C   0  0  0  0  0  0
   -2.4474   47.1741   23.2494 C   0  0  0  0  0  0
   -3.2605   45.9837   22.7461 C   0  0  0  0  0  0
   -2.7529   45.2344   21.6787 C   0  0  0  0  0  0
   -3.4591   44.1423   21.1702 C   0  0  0  0  0  0
   -4.6715   43.7751   21.7530 C   0  0  0  0  0  0
   -5.1858   44.5114   22.8178 C   0  0  0  0  0  0
   -4.4952   45.6201   23.3189 C   0  0  0  0  0  0
   -5.1212   46.4071   24.4647 C   0  0  0  0  0  0
   -2.9063   43.3618   19.9929 C   0  0  0  0  0  0
    1.7314   56.0032   30.5280 H   0  0  0  0  0  0
    1.8818   54.2585   30.4387 H   0  0  0  0  0  0
    3.2317   55.2968   29.9637 H   0  0  0  0  0  0
    1.9035   56.2097   28.0818 H   0  0  0  0  0  0
    0.5251   55.2672   28.5405 H   0  0  0  0  0  0
    4.0200   53.1866   29.2031 H   0  0  0  0  0  0
    6.4602   53.2896   28.8633 H   0  0  0  0  0  0
    7.3826   54.1218   26.7443 H   0  0  0  0  0  0
    5.8758   54.9121   24.9452 H   0  0  0  0  0  0
    3.4411   54.8891   25.2916 H   0  0  0  0  0  0
    0.2925   50.2258   27.7481 H   0  0  0  0  0  0
   -0.9914   51.1636   26.8727 H   0  0  0  0  0  0
    1.1457   53.2234   24.9218 H   0  0  0  0  0  0
    2.3786   52.0958   25.3466 H   0  0  0  0  0  0
    2.4778   50.0410   23.8501 H   0  0  0  0  0  0
    1.1175   49.6861   22.8485 H   0  0  0  0  0  0
    2.6437   52.4116   22.9712 H   0  0  0  0  0  0
    2.7185   51.2331   21.6442 H   0  0  0  0  0  0
    1.1624   53.0634   21.2293 H   0  0  0  0  0  0
    0.0515   53.6175   23.2816 H   0  0  0  0  0  0
   -1.1267   52.8966   22.1377 H   0  0  0  0  0  0
   -1.0821   50.7624   23.1896 H   0  0  0  0  0  0
   -1.3141   51.9416   24.4442 H   0  0  0  0  0  0
    0.2859   47.5152   24.9754 H   0  0  0  0  0  0
   -1.2218   45.9274   24.4825 H   0  0  0  0  0  0
   -2.3929   46.7472   25.4079 H   0  0  0  0  0  0
   -3.0860   48.0515   23.3462 H   0  0  0  0  0  0
   -1.7227   47.4599   22.4836 H   0  0  0  0  0  0
   -1.8084   45.5084   21.2322 H   0  0  0  0  0  0
   -5.2247   42.9263   21.3801 H   0  0  0  0  0  0
   -6.1333   44.2198   23.2503 H   0  0  0  0  0  0
   -6.1766   46.1636   24.5934 H   0  0  0  0  0  0
   -4.6064   46.2060   25.4042 H   0  0  0  0  0  0
   -5.0754   47.4803   24.2745 H   0  0  0  0  0  0
   -1.8190   43.2936   20.0531 H   0  0  0  0  0  0
   -3.2952   42.3438   19.9734 H   0  0  0  0  0  0
   -3.1654   43.8581   19.0575 H   0  0  0  0  0  0
    0.4825   51.6016   21.1414 H   0  0  0  0  0  0
  1  2  1  0  0  0
  1 37  1  0  0  0
  1 38  1  0  0  0
  1 39  1  0  0  0
  2  3  1  0  0  0
  2 40  1  0  0  0
  2 41  1  0  0  0
  3  4  1  0  0  0
  3  5  1  0  0  0
  3 11  1  0  0  0
  5 10  2  0  0  0
  5  6  1  0  0  0
  6  7  2  0  0  0
  6 42  1  0  0  0
  7  8  1  0  0  0
  7 43  1  0  0  0
  8  9  2  0  0  0
  8 44  1  0  0  0
  9 10  1  0  0  0
  9 45  1  0  0  0
 10 46  1  0  0  0
 11 12  2  0  0  0
 11 13  1  0  0  0
 13 18  1  0  0  0
 13 14  1  0  0  0
 14 15  1  0  0  0
 14 47  1  0  0  0
 14 48  1  0  0  0
 15 16  1  0  0  0
 15 17  1  0  0  0
 15 24  1  0  0  0
 17 23  1  0  0  0
 17 18  1  0  0  0
 17 19  1  0  0  0
 18 49  1  0  0  0
 18 50  1  0  0  0
 19 20  1  0  0  0
 19 51  1  0  0  0
 19 52  1  0  0  0
 20 21  1  0  0  0
 20 53  1  0  0  0
 20 54  1  0  0  0
 21 22  1  0  0  0
 21 55  1  0  0  0
 21 74  1  0  0  0
 22 23  1  0  0  0
 22 56  1  0  0  0
 22 57  1  0  0  0
 23 58  1  0  0  0
 23 59  1  0  0  0
 24 25  2  0  0  0
 24 26  1  0  0  0
 26 27  1  0  0  0
 26 60  1  0  0  0
 27 28  1  0  0  0
 27 61  1  0  0  0
 27 62  1  0  0  0
 28 29  1  0  0  0
 28 63  1  0  0  0
 28 64  1  0  0  0
 29 34  2  0  0  0
 29 30  1  0  0  0
 30 31  2  0  0  0
 30 65  1  0  0  0
 31 32  1  0  0  0
 31 36  1  0  0  0
 32 33  2  0  0  0
 32 66  1  0  0  0
 33 34  1  0  0  0
 33 67  1  0  0  0
 34 35  1  0  0  0
 35 68  1  0  0  0
 35 69  1  0  0  0
 35 70  1  0  0  0
 36 71  1  0  0  0
 36 72  1  0  0  0
 36 73  1  0  0  0
M  CHG  1  21   1
M  END
> <i_i_glide_confnum>
31

> <i_i_glide_lignum>
591

> <i_i_glide_posenum>
395

> <i_i_glide_rotatable_bonds>
9

> <i_m_Source_File_Index>
1592

> <b_m_subgroup_collapsed>
0

> <r_i_docking_score>
-4.56599

> <r_i_glide_ecoul>
-0.5374

> <r_i_glide_eff_state_penalty>
0

> <r_i_glide_einternal>
4.41528

> <r_i_glide_emodel>
-51.1981

> <r_i_glide_energy>
-38.4549

> <r_i_glide_erotb>
0.752958

> <r_i_glide_esite>
-0.147868

> <r_i_glide_evdw>
-37.9175

> <r_i_glide_gscore>
-4.56599

> <r_i_glide_hbond>
-0.0409746

> <r_i_glide_ligand_efficiency>
-0.134294

> <r_i_glide_ligand_efficiency_ln>
-1.00876

> <r_i_glide_ligand_efficiency_sa>
-0.43506

> <r_i_glide_lipo>
-2.52779

> <r_i_glide_metal>
0

> <r_i_glide_rewards>
-0.625832

> <s_i_glide_gridfile>
wee1_glide-grid

> <s_m_Source_File>
wee1_decoys_glide_SP.sdf

> <s_m_Source_Path>
/Users/zhangxujun/Desktop

> <s_m_entry_id>
1867

> <s_m_entry_name>
wee1_decoys_glide_SP.1592

> <s_m_subgroup_title>
wee1_decoys_glide_SP

> <s_m_subgroupid>
wee1_decoys_glide_SP


$$$$
