ZINC13166758_1961
                    3D
 Schrodinger Suite 2024-2.
 52 54  0  0  1  0            999 V2000
    2.3489   51.4321   29.2380 C   0  0  0  0  0  0
    1.6744   52.4300   28.3989 N   0  0  0  0  0  0
    1.0064   51.9449   27.1462 C   0  0  0  0  0  0
   -0.5068   52.2260   27.2591 C   0  0  0  0  0  0
   -1.2334   51.6085   26.0452 C   0  0  0  0  0  0
   -0.6453   52.1112   24.7019 C   0  0  0  0  0  0
    0.8945   51.9732   24.6265 C   0  0  0  0  0  0
    1.5653   52.6039   25.8625 C   0  0  0  0  0  0
    2.1996   54.1008   28.6402 S   0  0  0  0  0  0
    2.3029   54.3221   30.0834 O   0  0  0  0  0  0
    1.3505   54.9698   27.8360 O   0  0  0  0  0  0
    3.8780   54.1611   28.0100 C   0  0  0  0  0  0
    4.9209   53.8451   28.8814 C   0  0  0  0  0  0
    6.2419   53.8848   28.4466 C   0  0  0  0  0  0
    6.5251   54.2155   27.1274 C   0  0  0  0  0  0
    5.4902   54.5065   26.2332 C   0  0  0  0  0  0
    4.1638   54.4956   26.6842 C   0  0  0  0  0  0
    5.8312   54.8558   24.8170 C   0  0  0  0  0  0
    6.7042   55.6936   24.6032 O   0  0  0  0  0  0
    5.1400   54.1697   23.8807 N   0  0  0  0  0  0
    5.2202   54.2529   22.4777 C   0  0  0  0  0  0
    6.2555   54.8982   21.7856 C   0  0  0  0  0  0
    6.2316   54.9598   20.3948 C   0  0  0  0  0  0
    5.1856   54.3732   19.6691 C   0  0  0  0  0  0
    4.1676   53.7100   20.3701 C   0  0  0  0  0  0
    4.1852   53.6495   21.7617 C   0  0  0  0  0  0
    5.1485   54.4651   18.1702 C   0  0  0  0  0  0
    6.1585   54.9304   17.5891 O   0  0  0  0  0  0
    4.1080   54.0905   17.5834 O   0  5  0  0  0  0
    1.8077   50.4970   29.1851 H   0  0  0  0  0  0
    3.3666   51.2952   28.8801 H   0  0  0  0  0  0
    2.3944   51.7776   30.2685 H   0  0  0  0  0  0
    1.1177   50.8638   27.0519 H   0  0  0  0  0  0
   -0.9026   51.7961   28.1805 H   0  0  0  0  0  0
   -0.7030   53.2959   27.3100 H   0  0  0  0  0  0
   -1.1547   50.5211   26.0909 H   0  0  0  0  0  0
   -2.2983   51.8375   26.0931 H   0  0  0  0  0  0
   -1.1063   51.5757   23.8715 H   0  0  0  0  0  0
   -0.9144   53.1612   24.5667 H   0  0  0  0  0  0
    1.1653   50.9188   24.5461 H   0  0  0  0  0  0
    1.2648   52.4483   23.7178 H   0  0  0  0  0  0
    1.3595   53.6705   25.8320 H   0  0  0  0  0  0
    2.6494   52.4992   25.8027 H   0  0  0  0  0  0
    4.7039   53.5847   29.9051 H   0  0  0  0  0  0
    7.0527   53.6789   29.1320 H   0  0  0  0  0  0
    7.5544   54.2343   26.8067 H   0  0  0  0  0  0
    3.3552   54.7592   26.0163 H   0  0  0  0  0  0
    4.4494   53.5237   24.2265 H   0  0  0  0  0  0
    7.0926   55.3488   22.2948 H   0  0  0  0  0  0
    7.0361   55.4689   19.8804 H   0  0  0  0  0  0
    3.3477   53.2516   19.8373 H   0  0  0  0  0  0
    3.3816   53.1384   22.2708 H   0  0  0  0  0  0
  1  2  1  0  0  0
  1 30  1  0  0  0
  1 31  1  0  0  0
  1 32  1  0  0  0
  2  3  1  0  0  0
  2  9  1  0  0  0
  3  8  1  0  0  0
  3  4  1  0  0  0
  3 33  1  0  0  0
  4  5  1  0  0  0
  4 34  1  0  0  0
  4 35  1  0  0  0
  5  6  1  0  0  0
  5 36  1  0  0  0
  5 37  1  0  0  0
  6  7  1  0  0  0
  6 38  1  0  0  0
  6 39  1  0  0  0
  7  8  1  0  0  0
  7 40  1  0  0  0
  7 41  1  0  0  0
  8 42  1  0  0  0
  8 43  1  0  0  0
  9 10  2  0  0  0
  9 11  2  0  0  0
  9 12  1  0  0  0
 12 17  2  0  0  0
 12 13  1  0  0  0
 13 14  2  0  0  0
 13 44  1  0  0  0
 14 15  1  0  0  0
 14 45  1  0  0  0
 15 16  2  0  0  0
 15 46  1  0  0  0
 16 17  1  0  0  0
 16 18  1  0  0  0
 17 47  1  0  0  0
 18 19  2  0  0  0
 18 20  1  0  0  0
 20 21  1  0  0  0
 20 48  1  0  0  0
 21 26  2  0  0  0
 21 22  1  0  0  0
 22 23  2  0  0  0
 22 49  1  0  0  0
 23 24  1  0  0  0
 23 50  1  0  0  0
 24 25  2  0  0  0
 24 27  1  0  0  0
 25 26  1  0  0  0
 25 51  1  0  0  0
 26 52  1  0  0  0
 27 28  2  0  0  0
 27 29  1  0  0  0
M  CHG  1  29  -1
M  END
> <i_i_glide_confnum>
213

> <i_i_glide_lignum>
1962

> <i_i_glide_posenum>
276

> <i_i_glide_rotatable_bonds>
7

> <i_m_Source_File_Index>
2991

> <b_m_subgroup_collapsed>
0

> <r_i_docking_score>
-6.0091

> <r_i_glide_ecoul>
-2.20776

> <r_i_glide_eff_state_penalty>
0

> <r_i_glide_einternal>
9.68619

> <r_i_glide_emodel>
-54.5625

> <r_i_glide_energy>
-42.1557

> <r_i_glide_erotb>
0.686354

> <r_i_glide_esite>
-0.0445737

> <r_i_glide_evdw>
-39.948

> <r_i_glide_gscore>
-6.0091

> <r_i_glide_hbond>
0

> <r_i_glide_ligand_efficiency>
-0.20721

> <r_i_glide_ligand_efficiency_ln>
-1.37593

> <r_i_glide_ligand_efficiency_sa>
-0.636616

> <r_i_glide_lipo>
-2.7451

> <r_i_glide_metal>
0

> <r_i_glide_rewards>
-1.57722

> <s_i_glide_gridfile>
wee1_glide-grid

> <s_m_Source_File>
wee1_decoys_glide_SP.sdf

> <s_m_Source_Path>
/Users/zhangxujun/Desktop

> <s_m_entry_id>
3266

> <s_m_entry_name>
wee1_decoys_glide_SP.2991

> <s_m_subgroup_title>
wee1_decoys_glide_SP

> <s_m_subgroupid>
wee1_decoys_glide_SP


$$$$
