ZINC13395772_525
                    3D
 Schrodinger Suite 2024-2.
 54 56  0  0  1  0            999 V2000
   -0.6160   51.8765   29.4727 C   0  0  0  0  0  0
    0.3866   52.9121   28.3698 S   0  0  0  0  0  0
    0.4972   52.1159   26.7869 C   0  0  0  0  0  0
   -0.1173   50.8865   26.5454 C   0  0  0  0  0  0
   -0.0134   50.2937   25.2906 C   0  0  0  0  0  0
    0.7005   50.9221   24.2650 C   0  0  0  0  0  0
    1.3150   52.1558   24.5138 C   0  0  0  0  0  0
    1.2145   52.7487   25.7715 C   0  0  0  0  0  0
    0.7791   50.2533   22.9508 C   0  0  0  0  0  0
    1.7144   50.4704   21.9949 C   0  0  0  0  0  0
    1.7327   49.8400   20.6903 C   0  0  0  0  0  0
    2.3147   50.3816   19.7549 O   0  0  0  0  0  0
    1.0559   48.6742   20.6018 N   0  0  0  0  0  0
    0.8290   47.8351   19.4985 C   0  0  0  0  0  0
   -0.1712   46.8770   19.6711 C   0  0  0  0  0  0
   -0.5241   46.0370   18.6213 C   0  0  0  0  0  0
    0.1343   46.1346   17.3940 C   0  0  0  0  0  0
    1.1747   47.0542   17.2296 C   0  0  0  0  0  0
    1.5177   47.9076   18.2776 C   0  0  0  0  0  0
   -0.4225   45.1154   16.0201 S   0  0  0  0  0  0
   -1.8628   44.9197   16.2209 O   0  0  0  0  0  0
    0.0814   45.7300   14.7862 O   0  0  0  0  0  0
    0.3482   43.5281   16.2168 N   0  0  0  0  0  0
    1.5495   43.1527   15.4265 C   0  0  0  0  0  0
    2.8261   43.1526   16.2961 C   0  0  0  0  0  0
    2.6161   42.3798   17.6274 C   0  0  0  0  0  0
    1.3532   42.8979   18.3777 C   0  0  1  0  0  0
    1.4749   43.9459   18.6442 H   0  0  0  0  0  0
    0.1169   42.7507   17.4584 C   0  0  0  0  0  0
    1.1043   42.1938   19.7296 C   0  0  0  0  0  0
    0.0505   42.4968   20.3401 O   0  0  0  0  0  0
   -0.6839   52.3292   30.4623 H   0  0  0  0  0  0
   -0.1600   50.8967   29.5847 H   0  0  0  0  0  0
   -1.6254   51.7468   29.0809 H   0  0  0  0  0  0
   -0.6778   50.3722   27.3123 H   0  0  0  0  0  0
   -0.4887   49.3358   25.1308 H   0  0  0  0  0  0
    1.8661   52.6657   23.7365 H   0  0  0  0  0  0
    1.6903   53.7004   25.9580 H   0  0  0  0  0  0
   -0.0215   49.5489   22.7651 H   0  0  0  0  0  0
    2.5144   51.1807   22.1488 H   0  0  0  0  0  0
    0.5950   48.3801   21.4477 H   0  0  0  0  0  0
   -0.7080   46.7948   20.6063 H   0  0  0  0  0  0
   -1.3266   45.3263   18.7566 H   0  0  0  0  0  0
    1.7015   47.1340   16.2875 H   0  0  0  0  0  0
    2.3139   48.6191   18.1143 H   0  0  0  0  0  0
    1.3691   42.1720   14.9870 H   0  0  0  0  0  0
    1.6649   43.8454   14.5934 H   0  0  0  0  0  0
    3.6435   42.7090   15.7256 H   0  0  0  0  0  0
    3.1237   44.1852   16.4817 H   0  0  0  0  0  0
    2.4974   41.3233   17.3802 H   0  0  0  0  0  0
    3.5075   42.4802   18.2468 H   0  0  0  0  0  0
   -0.7904   43.1225   17.9389 H   0  0  0  0  0  0
   -0.0571   41.7104   17.1780 H   0  0  0  0  0  0
    1.9231   41.3420   20.1358 O   0  5  0  0  0  0
  1  2  1  0  0  0
  1 32  1  0  0  0
  1 33  1  0  0  0
  1 34  1  0  0  0
  2  3  1  0  0  0
  3  8  2  0  0  0
  3  4  1  0  0  0
  4  5  2  0  0  0
  4 35  1  0  0  0
  5  6  1  0  0  0
  5 36  1  0  0  0
  6  7  2  0  0  0
  6  9  1  0  0  0
  7  8  1  0  0  0
  7 37  1  0  0  0
  8 38  1  0  0  0
  9 10  2  0  0  0
  9 39  1  0  0  0
 10 11  1  0  0  0
 10 40  1  0  0  0
 11 12  2  0  0  0
 11 13  1  0  0  0
 13 14  1  0  0  0
 13 41  1  0  0  0
 14 19  2  0  0  0
 14 15  1  0  0  0
 15 16  2  0  0  0
 15 42  1  0  0  0
 16 17  1  0  0  0
 16 43  1  0  0  0
 17 18  2  0  0  0
 17 20  1  0  0  0
 18 19  1  0  0  0
 18 44  1  0  0  0
 19 45  1  0  0  0
 20 21  2  0  0  0
 20 22  2  0  0  0
 20 23  1  0  0  0
 23 29  1  0  0  0
 23 24  1  0  0  0
 24 25  1  0  0  0
 24 46  1  0  0  0
 24 47  1  0  0  0
 25 26  1  0  0  0
 25 48  1  0  0  0
 25 49  1  0  0  0
 26 27  1  0  0  0
 26 50  1  0  0  0
 26 51  1  0  0  0
 27 28  1  0  0  0
 27 29  1  0  0  0
 27 30  1  0  0  0
 29 52  1  0  0  0
 29 53  1  0  0  0
 30 31  2  0  0  0
 30 54  1  0  0  0
M  CHG  1  54  -1
M  END
> <i_i_glide_confnum>
47

> <i_i_glide_lignum>
526

> <i_i_glide_posenum>
220

> <i_i_glide_rotatable_bonds>
8

> <i_m_Source_File_Index>
5208

> <b_m_subgroup_collapsed>
0

> <r_i_docking_score>
-2.75099

> <r_i_glide_ecoul>
-3.30428

> <r_i_glide_eff_state_penalty>
0

> <r_i_glide_einternal>
5.93383

> <r_i_glide_emodel>
-38.6913

> <r_i_glide_energy>
-32.769

> <r_i_glide_erotb>
0.571647

> <r_i_glide_esite>
-0.0699258

> <r_i_glide_evdw>
-29.4648

> <r_i_glide_gscore>
-2.75099

> <r_i_glide_hbond>
-0.259124

> <r_i_glide_ligand_efficiency>
-0.0887417

> <r_i_glide_ligand_efficiency_ln>
-0.620433

> <r_i_glide_ligand_efficiency_sa>
-0.278771

> <r_i_glide_lipo>
-0.860905

> <r_i_glide_metal>
0

> <r_i_glide_rewards>
-0.163803

> <s_i_glide_gridfile>
wee1_glide-grid

> <s_m_Source_File>
wee1_decoys_glide_SP.sdf

> <s_m_Source_Path>
/Users/zhangxujun/Desktop

> <s_m_entry_id>
5483

> <s_m_entry_name>
wee1_decoys_glide_SP.5208

> <s_m_subgroup_title>
wee1_decoys_glide_SP

> <s_m_subgroupid>
wee1_decoys_glide_SP


$$$$
