ZINC33633865_939
                    3D
 Schrodinger Suite 2024-2.
 56 60  0  0  1  0            999 V2000
    4.5810   53.6930   28.5215 C   0  0  0  0  0  0
    3.8270   53.2818   29.6204 C   0  0  0  0  0  0
    2.4555   53.0782   29.4823 C   0  0  0  0  0  0
    1.8275   53.2899   28.2593 C   0  0  0  0  0  0
    2.5791   53.6954   27.1610 C   0  0  0  0  0  0
    3.9604   53.8915   27.2842 C   0  0  0  0  0  0
    4.7719   54.2611   26.0867 C   0  0  0  0  0  0
    6.1060   54.5874   25.8715 C   0  0  0  0  0  0
    6.2717   54.7430   24.4912 C   0  0  0  0  0  0
    5.0348   54.4941   23.9081 C   0  0  0  0  0  0
    4.1315   54.2478   24.8897 O   0  0  0  0  0  0
    4.4857   54.4517   22.4884 C   0  0  1  0  0  0
    3.8065   55.2942   22.3415 H   0  0  0  0  0  0
    5.5170   54.3666   21.3882 C   0  0  1  0  0  0
    6.3041   53.6967   21.7422 H   0  0  0  0  0  0
    4.6790   53.9003   20.2733 C   0  0  1  0  0  0
    3.8257   54.5449   20.0306 H   0  0  0  0  0  0
    5.6686   53.9913   19.1294 C   0  0  0  0  0  0
    5.6980   53.2970   18.1181 O   0  0  0  0  0  0
    6.4175   55.0921   19.4377 N   0  0  0  0  0  0
    6.2560   55.5052   20.7275 C   0  0  0  0  0  0
    6.7077   56.4980   21.2817 O   0  0  0  0  0  0
    7.3845   55.7263   18.5208 C   0  0  0  0  0  0
    8.6665   54.8850   18.2719 C   0  0  0  0  0  0
    9.6783   55.5668   17.3333 C   0  0  0  0  0  0
    9.0278   56.0370   16.0208 C   0  0  0  0  0  0
    7.8273   56.9605   16.2925 C   0  0  0  0  0  0
    6.7809   56.3008   17.2100 C   0  0  0  0  0  0
    4.2124   52.7277   20.9144 O   0  0  0  0  0  0
    3.8014   53.1598   22.2652 N   0  0  0  0  0  0
    2.3355   53.2466   22.2744 C   0  0  0  0  0  0
    1.6812   51.8720   22.5105 C   0  0  0  0  0  0
    2.3043   50.8142   22.4816 O   0  0  0  0  0  0
    0.3726   51.8767   22.7553 N   0  0  0  0  0  0
    1.4288   52.4967   30.9743 Br  0  0  0  0  0  0
    5.6464   53.8358   28.6319 H   0  0  0  0  0  0
    4.3041   53.1086   30.5717 H   0  0  0  0  0  0
    0.7642   53.1261   28.1597 H   0  0  0  0  0  0
    2.0815   53.8385   26.2115 H   0  0  0  0  0  0
    6.8707   54.6757   26.6291 H   0  0  0  0  0  0
    7.1873   54.9868   23.9714 H   0  0  0  0  0  0
    7.7595   56.6154   19.0342 H   0  0  0  0  0  0
    8.3907   53.9246   17.8314 H   0  0  0  0  0  0
    9.1588   54.6635   19.2213 H   0  0  0  0  0  0
   10.5006   54.8820   17.1161 H   0  0  0  0  0  0
   10.1262   56.4210   17.8452 H   0  0  0  0  0  0
    8.6995   55.1705   15.4434 H   0  0  0  0  0  0
    9.7635   56.5530   15.4027 H   0  0  0  0  0  0
    7.3608   57.2509   15.3489 H   0  0  0  0  0  0
    8.1788   57.8863   16.7531 H   0  0  0  0  0  0
    6.0032   57.0291   17.4471 H   0  0  0  0  0  0
    6.2980   55.4990   16.6483 H   0  0  0  0  0  0
    2.0241   53.8995   23.0905 H   0  0  0  0  0  0
    1.9471   53.6958   21.3647 H   0  0  0  0  0  0
   -0.0864   50.9947   22.9207 H   0  0  0  0  0  0
   -0.1441   52.7387   22.8049 H   0  0  0  0  0  0
  1  6  2  0  0  0
  1  2  1  0  0  0
  1 36  1  0  0  0
  2  3  2  0  0  0
  2 37  1  0  0  0
  3  4  1  0  0  0
  3 35  1  0  0  0
  4  5  2  0  0  0
  4 38  1  0  0  0
  5  6  1  0  0  0
  5 39  1  0  0  0
  6  7  1  0  0  0
  7 11  1  0  0  0
  7  8  2  0  0  0
  8  9  1  0  0  0
  8 40  1  0  0  0
  9 10  2  0  0  0
  9 41  1  0  0  0
 10 11  1  0  0  0
 10 12  1  0  0  0
 12 13  1  0  0  0
 12 30  1  0  0  0
 12 14  1  0  0  0
 14 15  1  0  0  0
 14 21  1  0  0  0
 14 16  1  0  0  0
 16 17  1  0  0  0
 16 18  1  0  0  0
 16 29  1  0  0  0
 18 19  2  0  0  0
 18 20  1  0  0  0
 20 21  1  0  0  0
 20 23  1  0  0  0
 21 22  2  0  0  0
 23 28  1  0  0  0
 23 24  1  0  0  0
 23 42  1  0  0  0
 24 25  1  0  0  0
 24 43  1  0  0  0
 24 44  1  0  0  0
 25 26  1  0  0  0
 25 45  1  0  0  0
 25 46  1  0  0  0
 26 27  1  0  0  0
 26 47  1  0  0  0
 26 48  1  0  0  0
 27 28  1  0  0  0
 27 49  1  0  0  0
 27 50  1  0  0  0
 28 51  1  0  0  0
 28 52  1  0  0  0
 29 30  1  0  0  0
 30 31  1  0  0  0
 31 32  1  0  0  0
 31 53  1  0  0  0
 31 54  1  0  0  0
 32 33  2  0  0  0
 32 34  1  0  0  0
 34 55  1  0  0  0
 34 56  1  0  0  0
M  END
> <i_i_glide_confnum>
71

> <i_i_glide_lignum>
940

> <i_i_glide_posenum>
304

> <i_i_glide_rotatable_bonds>
5

> <i_m_Source_File_Index>
352

> <b_m_subgroup_collapsed>
0

> <r_i_docking_score>
-5.82126

> <r_i_glide_ecoul>
-1.51028

> <r_i_glide_eff_state_penalty>
0

> <r_i_glide_einternal>
0.85112

> <r_i_glide_emodel>
-60.6755

> <r_i_glide_energy>
-45.5789

> <r_i_glide_erotb>
0.323861

> <r_i_glide_esite>
-0.019635

> <r_i_glide_evdw>
-44.0686

> <r_i_glide_gscore>
-5.82126

> <r_i_glide_hbond>
-0.207577

> <r_i_glide_ligand_efficiency>
-0.181914

> <r_i_glide_ligand_efficiency_ln>
-1.30354

> <r_i_glide_ligand_efficiency_sa>
-0.577542

> <r_i_glide_lipo>
-2.7691

> <r_i_glide_metal>
0

> <r_i_glide_rewards>
-0.718835

> <s_i_glide_gridfile>
wee1_glide-grid

> <s_m_Source_File>
wee1_decoys_glide_SP.sdf

> <s_m_Source_Path>
/Users/zhangxujun/Desktop

> <s_m_entry_id>
627

> <s_m_entry_name>
wee1_decoys_glide_SP.352

> <s_m_subgroup_title>
wee1_decoys_glide_SP

> <s_m_subgroupid>
wee1_decoys_glide_SP


$$$$
