ZINC30828785_2470
                    3D
 Schrodinger Suite 2024-2.
 52 55  0  0  1  0            999 V2000
    5.6026   51.4196   12.5385 C   0  0  0  0  0  0
    6.3739   52.4585   12.0114 C   0  0  0  0  0  0
    6.8589   53.4875   12.8228 C   0  0  0  0  0  0
    6.5333   53.4249   14.1825 C   0  0  0  0  0  0
    5.7542   52.3858   14.7368 C   0  0  0  0  0  0
    5.2831   51.3643   13.8983 C   0  0  0  0  0  0
    5.6696   52.6922   16.1255 C   0  0  0  0  0  0
    6.3846   53.8739   16.3278 C   0  0  0  0  0  0
    6.9191   54.3147   15.1439 O   0  0  0  0  0  0
    6.7254   54.5981   17.5311 C   0  0  0  0  0  0
    7.6048   55.4668   17.5044 O   0  0  0  0  0  0
    5.9983   54.2233   18.6219 N   0  0  0  0  0  0
    5.9278   54.7152   19.9064 C   0  0  0  0  0  0
    6.7045   56.0963   20.4816 S   0  0  0  0  0  0
    5.1156   53.9308   20.6833 N   0  0  0  0  0  0
    4.7808   53.9967   22.0522 C   0  0  0  0  0  0
    5.7332   54.1559   23.0646 C   0  0  0  0  0  0
    5.3345   54.2046   24.3990 C   0  0  0  0  0  0
    3.9893   54.0302   24.7673 C   0  0  0  0  0  0
    3.0557   53.8591   23.7292 C   0  0  0  0  0  0
    3.4417   53.8417   22.3919 C   0  0  0  0  0  0
    3.5868   54.0113   26.1136 N   0  0  0  0  0  0
    2.2065   53.6921   26.5221 C   0  0  0  0  0  0
    1.8373   54.1244   27.9551 C   0  0  0  0  0  0
    2.7311   53.4229   28.8968 N   0  0  0  0  0  0
    4.1209   53.1404   28.4736 C   0  0  0  0  0  0
    4.5130   54.0408   27.2706 C   0  0  0  0  0  0
    2.2617   52.8368   30.0350 C   0  0  0  0  0  0
    2.9779   52.0969   30.7218 O   0  0  0  0  0  0
    0.8394   53.1791   30.5641 C   0  0  0  0  0  0
   -0.0749   52.5323   29.8401 F   0  0  0  0  0  0
    0.6176   54.4941   30.4856 F   0  0  0  0  0  0
    0.7046   52.8077   31.8379 F   0  0  0  0  0  0
    5.2482   50.6372   11.8807 H   0  0  0  0  0  0
    6.6047   52.4611   10.9548 H   0  0  0  0  0  0
    7.4643   54.2890   12.4286 H   0  0  0  0  0  0
    4.6931   50.5516   14.3045 H   0  0  0  0  0  0
    5.1707   52.0990   16.8813 H   0  0  0  0  0  0
    5.3757   53.4495   18.4344 H   0  0  0  0  0  0
    4.5867   53.2285   20.1849 H   0  0  0  0  0  0
    6.7833   54.2573   22.8271 H   0  0  0  0  0  0
    6.1067   54.3592   25.1336 H   0  0  0  0  0  0
    2.0065   53.7126   23.9254 H   0  0  0  0  0  0
    2.6904   53.7062   21.6253 H   0  0  0  0  0  0
    1.4687   54.1119   25.8453 H   0  0  0  0  0  0
    2.1102   52.6061   26.4772 H   0  0  0  0  0  0
    0.7953   53.8348   28.0857 H   0  0  0  0  0  0
    1.9055   55.2085   28.0673 H   0  0  0  0  0  0
    4.8182   53.3705   29.2808 H   0  0  0  0  0  0
    4.2223   52.0976   28.1689 H   0  0  0  0  0  0
    4.5151   55.0794   27.6076 H   0  0  0  0  0  0
    5.5365   53.7953   26.9940 H   0  0  0  0  0  0
  1  6  2  0  0  0
  1  2  1  0  0  0
  1 34  1  0  0  0
  2  3  2  0  0  0
  2 35  1  0  0  0
  3  4  1  0  0  0
  3 36  1  0  0  0
  4  9  1  0  0  0
  4  5  2  0  0  0
  5  6  1  0  0  0
  5  7  1  0  0  0
  6 37  1  0  0  0
  7  8  2  0  0  0
  7 38  1  0  0  0
  8  9  1  0  0  0
  8 10  1  0  0  0
 10 11  2  0  0  0
 10 12  1  0  0  0
 12 13  1  0  0  0
 12 39  1  0  0  0
 13 14  2  0  0  0
 13 15  1  0  0  0
 15 16  1  0  0  0
 15 40  1  0  0  0
 16 21  2  0  0  0
 16 17  1  0  0  0
 17 18  2  0  0  0
 17 41  1  0  0  0
 18 19  1  0  0  0
 18 42  1  0  0  0
 19 20  2  0  0  0
 19 22  1  0  0  0
 20 21  1  0  0  0
 20 43  1  0  0  0
 21 44  1  0  0  0
 22 27  1  0  0  0
 22 23  1  0  0  0
 23 24  1  0  0  0
 23 45  1  0  0  0
 23 46  1  0  0  0
 24 25  1  0  0  0
 24 47  1  0  0  0
 24 48  1  0  0  0
 25 26  1  0  0  0
 25 28  1  0  0  0
 26 27  1  0  0  0
 26 49  1  0  0  0
 26 50  1  0  0  0
 27 51  1  0  0  0
 27 52  1  0  0  0
 28 29  2  0  0  0
 28 30  1  0  0  0
 30 31  1  0  0  0
 30 32  1  0  0  0
 30 33  1  0  0  0
M  END
> <i_i_glide_confnum>
402

> <i_i_glide_lignum>
2471

> <i_i_glide_posenum>
317

> <i_i_glide_rotatable_bonds>
8

> <i_m_Source_File_Index>
5871

> <b_m_subgroup_collapsed>
0

> <r_i_docking_score>
-6.34619

> <r_i_glide_ecoul>
-5.59368

> <r_i_glide_eff_state_penalty>
0

> <r_i_glide_einternal>
2.45866

> <r_i_glide_emodel>
-66.3565

> <r_i_glide_energy>
-47.8268

> <r_i_glide_erotb>
0.535181

> <r_i_glide_esite>
-0.128865

> <r_i_glide_evdw>
-42.2332

> <r_i_glide_gscore>
-6.34619

> <r_i_glide_hbond>
-0.32

> <r_i_glide_ligand_efficiency>
-0.192309

> <r_i_glide_ligand_efficiency_ln>
-1.41136

> <r_i_glide_ligand_efficiency_sa>
-0.616837

> <r_i_glide_lipo>
-2.26656

> <r_i_glide_metal>
0

> <r_i_glide_rewards>
-1.21523

> <s_i_glide_gridfile>
wee1_glide-grid

> <s_m_Source_File>
wee1_decoys_glide_SP.sdf

> <s_m_Source_Path>
/Users/zhangxujun/Desktop

> <s_m_entry_id>
6146

> <s_m_entry_name>
wee1_decoys_glide_SP.5871

> <s_m_subgroup_title>
wee1_decoys_glide_SP

> <s_m_subgroupid>
wee1_decoys_glide_SP


$$$$
