ZINC63589296_4916
                    3D
 Schrodinger Suite 2024-2.
 59 62  0  0  1  0            999 V2000
    4.9266   54.0008   28.5279 C   0  0  0  0  0  0
    5.1347   54.2258   27.0423 C   0  0  0  0  0  0
    6.3370   54.7626   26.5807 C   0  0  0  0  0  0
    6.5371   54.9607   25.2166 C   0  0  0  0  0  0
    5.5313   54.6268   24.3106 C   0  0  0  0  0  0
    4.3068   54.0975   24.7492 C   0  0  0  0  0  0
    4.1237   53.9056   26.1318 C   0  0  0  0  0  0
    3.2385   53.7339   23.7335 C   0  0  0  0  0  0
    3.2911   54.1702   22.5789 O   0  0  0  0  0  0
    2.1910   52.9495   24.2174 N   0  0  0  0  0  0
    1.5045   52.1278   23.5024 C   0  0  0  0  0  0
    1.6790   51.9204   22.0953 N   0  0  0  0  0  0
    1.5138   50.8085   21.2518 C   0  0  0  0  0  0
    2.3853   50.6931   20.1679 C   0  0  0  0  0  0
    2.3045   49.6107   19.2935 C   0  0  0  0  0  0
    1.3347   48.6130   19.4749 C   0  0  0  0  0  0
    0.4267   48.7530   20.5311 C   0  0  0  0  0  0
    0.5196   49.8324   21.4087 C   0  0  0  0  0  0
   -0.8319   47.5917   20.7767 Cl  0  0  0  0  0  0
    1.2133   47.4923   18.6725 O   0  0  0  0  0  0
    2.1129   47.3234   17.5815 C   0  0  0  0  0  0
    0.4505   51.3409   24.0584 N   0  0  0  0  0  0
    0.2195   51.1893   25.4965 C   0  0  0  0  0  0
   -0.2392   52.4906   26.1769 C   0  0  0  0  0  0
   -0.2995   52.4264   27.6894 C   0  0  0  0  0  0
    0.1908   53.2554   28.6268 C   0  0  0  0  0  0
    0.9567   54.5042   28.5094 C   0  0  0  0  0  0
    1.2102   55.2613   29.5963 C   0  0  0  0  0  0
    0.7066   54.7964   30.8809 C   0  0  0  0  0  0
    0.0855   53.5980   31.0235 C   0  0  0  0  0  0
   -0.1968   52.8190   29.8971 C   0  0  0  0  0  0
   -0.8621   51.6966   29.8200 N   0  3  0  0  0  0
   -1.0005   51.2973   28.4094 C   0  0  0  0  0  0
    3.8852   54.1644   28.8023 H   0  0  0  0  0  0
    5.2017   52.9811   28.7995 H   0  0  0  0  0  0
    5.5211   54.6980   29.1202 H   0  0  0  0  0  0
    7.1154   55.0199   27.2834 H   0  0  0  0  0  0
    7.4694   55.3649   24.8518 H   0  0  0  0  0  0
    5.7130   54.7835   23.2552 H   0  0  0  0  0  0
    3.2018   53.4870   26.5105 H   0  0  0  0  0  0
    2.2336   52.6537   21.6675 H   0  0  0  0  0  0
    3.1540   51.4338   20.0007 H   0  0  0  0  0  0
    3.0167   49.5631   18.4829 H   0  0  0  0  0  0
   -0.2229   49.8980   22.1850 H   0  0  0  0  0  0
    1.9026   46.3773   17.0823 H   0  0  0  0  0  0
    1.9886   48.1179   16.8423 H   0  0  0  0  0  0
    3.1531   47.2960   17.9106 H   0  0  0  0  0  0
    0.2211   50.5034   23.5468 H   0  0  0  0  0  0
   -0.5568   50.4323   25.6323 H   0  0  0  0  0  0
    1.1043   50.7921   25.9836 H   0  0  0  0  0  0
    0.4363   53.2964   25.9245 H   0  0  0  0  0  0
   -1.2214   52.7779   25.8017 H   0  0  0  0  0  0
    1.3338   54.8479   27.5594 H   0  0  0  0  0  0
    1.7761   56.1794   29.5171 H   0  0  0  0  0  0
    0.8625   55.4096   31.7562 H   0  0  0  0  0  0
   -0.2511   53.2959   32.0065 H   0  0  0  0  0  0
   -2.0606   51.1876   28.1822 H   0  0  0  0  0  0
   -0.4961   50.3454   28.2577 H   0  0  0  0  0  0
   -1.2645   51.1855   30.6067 H   0  0  0  0  0  0
  1  2  1  0  0  0
  1 34  1  0  0  0
  1 35  1  0  0  0
  1 36  1  0  0  0
  2  7  2  0  0  0
  2  3  1  0  0  0
  3  4  2  0  0  0
  3 37  1  0  0  0
  4  5  1  0  0  0
  4 38  1  0  0  0
  5  6  2  0  0  0
  5 39  1  0  0  0
  6  7  1  0  0  0
  6  8  1  0  0  0
  7 40  1  0  0  0
  8 10  1  0  0  0
  8  9  2  0  0  0
 10 11  2  0  0  0
 11 12  1  0  0  0
 11 22  1  0  0  0
 12 13  1  0  0  0
 12 41  1  0  0  0
 13 18  2  0  0  0
 13 14  1  0  0  0
 14 15  2  0  0  0
 14 42  1  0  0  0
 15 16  1  0  0  0
 15 43  1  0  0  0
 16 17  2  0  0  0
 16 20  1  0  0  0
 17 18  1  0  0  0
 17 19  1  0  0  0
 18 44  1  0  0  0
 20 21  1  0  0  0
 21 45  1  0  0  0
 21 46  1  0  0  0
 21 47  1  0  0  0
 22 23  1  0  0  0
 22 48  1  0  0  0
 23 24  1  0  0  0
 23 49  1  0  0  0
 23 50  1  0  0  0
 24 25  1  0  0  0
 24 51  1  0  0  0
 24 52  1  0  0  0
 25 33  1  0  0  0
 25 26  2  0  0  0
 26 31  1  0  0  0
 26 27  1  0  0  0
 27 28  2  0  0  0
 27 53  1  0  0  0
 28 29  1  0  0  0
 28 54  1  0  0  0
 29 30  2  0  0  0
 29 55  1  0  0  0
 30 31  1  0  0  0
 30 56  1  0  0  0
 31 32  2  0  0  0
 32 33  1  0  0  0
 32 59  1  0  0  0
 33 57  1  0  0  0
 33 58  1  0  0  0
M  CHG  1  32   1
M  END
> <i_i_glide_confnum>
169

> <i_i_glide_lignum>
4917

> <i_i_glide_posenum>
280

> <i_i_glide_rotatable_bonds>
9

> <i_m_Source_File_Index>
5091

> <b_m_subgroup_collapsed>
0

> <r_i_docking_score>
-5.92483

> <r_i_glide_ecoul>
-3.93466

> <r_i_glide_eff_state_penalty>
0

> <r_i_glide_einternal>
9.56363

> <r_i_glide_emodel>
-66.0448

> <r_i_glide_energy>
-48.8918

> <r_i_glide_erotb>
0.660616

> <r_i_glide_esite>
-0.0639753

> <r_i_glide_evdw>
-44.9572

> <r_i_glide_gscore>
-5.92483

> <r_i_glide_hbond>
0

> <r_i_glide_ligand_efficiency>
-0.17954

> <r_i_glide_ligand_efficiency_ln>
-1.31765

> <r_i_glide_ligand_efficiency_sa>
-0.575882

> <r_i_glide_lipo>
-3.07039

> <r_i_glide_metal>
0

> <r_i_glide_rewards>
-0.613029

> <s_i_glide_gridfile>
wee1_glide-grid

> <s_m_Source_File>
wee1_decoys_glide_SP.sdf

> <s_m_Source_Path>
/Users/zhangxujun/Desktop

> <s_m_entry_id>
5366

> <s_m_entry_name>
wee1_decoys_glide_SP.5091

> <s_m_subgroup_title>
wee1_decoys_glide_SP

> <s_m_subgroupid>
wee1_decoys_glide_SP


$$$$
