ZINC18240539_2623
                    3D
 Schrodinger Suite 2024-2.
 30 31  0  0  1  0            999 V2000
    8.5893   55.0499   15.0774 C   0  0  0  0  0  0
    8.6478   55.1923   16.5792 C   0  0  0  0  0  0
    7.6092   55.0918   17.5158 C   0  0  0  0  0  0
    8.1836   55.2921   18.7665 C   0  0  0  0  0  0
    9.5044   55.5172   18.4757 N   0  0  0  0  0  0
   10.2220   55.6965   19.1713 H   0  0  0  0  0  0
    9.7932   55.4503   17.1721 N   0  0  0  0  0  0
    7.6340   55.3252   20.0925 C   0  0  0  0  0  0
    8.3280   55.6966   21.0400 O   0  0  0  0  0  0
    6.3438   54.8969   20.1746 N   0  0  0  0  0  0
    5.5286   54.7138   21.2789 N   0  0  0  0  0  0
    6.0166   54.5015   22.4464 C   0  0  0  0  0  0
    5.2083   54.3673   23.6665 C   0  0  0  0  0  0
    3.8338   54.0972   23.5658 C   0  0  0  0  0  0
    3.0392   53.9753   24.7007 C   0  0  0  0  0  0
    3.6094   54.0973   25.9645 C   0  0  0  0  0  0
    4.9719   54.3637   26.0945 C   0  0  0  0  0  0
    5.7736   54.5137   24.9527 C   0  0  0  0  0  0
    7.1043   54.8249   25.1278 O   0  0  0  0  0  0
    5.7115   54.5135   27.8477 Br  0  0  0  0  0  0
    1.1746   53.6456   24.5096 Br  0  0  0  0  0  0
    7.5770   54.8450   14.7265 H   0  0  0  0  0  0
    8.9261   55.9574   14.5750 H   0  0  0  0  0  0
    9.2216   54.2325   14.7276 H   0  0  0  0  0  0
    6.5716   54.8925   17.2894 H   0  0  0  0  0  0
    5.8355   54.8521   19.3052 H   0  0  0  0  0  0
    7.0834   54.3881   22.6130 H   0  0  0  0  0  0
    3.3621   53.9882   22.5976 H   0  0  0  0  0  0
    2.9923   53.9882   26.8447 H   0  0  0  0  0  0
    7.6152   54.8965   24.3141 H   0  0  0  0  0  0
  1  2  1  0  0  0
  1 22  1  0  0  0
  1 23  1  0  0  0
  1 24  1  0  0  0
  2  7  2  0  0  0
  2  3  1  0  0  0
  3  4  2  0  0  0
  3 25  1  0  0  0
  4  5  1  0  0  0
  4  8  1  0  0  0
  5  6  1  0  0  0
  5  7  1  0  0  0
  8  9  2  0  0  0
  8 10  1  0  0  0
 10 11  1  0  0  0
 10 26  1  0  0  0
 11 12  2  0  0  0
 12 13  1  0  0  0
 12 27  1  0  0  0
 13 18  2  0  0  0
 13 14  1  0  0  0
 14 15  2  0  0  0
 14 28  1  0  0  0
 15 16  1  0  0  0
 15 21  1  0  0  0
 16 17  2  0  0  0
 16 29  1  0  0  0
 17 18  1  0  0  0
 17 20  1  0  0  0
 18 19  1  0  0  0
 19 30  1  0  0  0
M  END
> <i_i_glide_confnum>
13

> <i_i_glide_lignum>
2624

> <i_i_glide_posenum>
119

> <i_i_glide_rotatable_bonds>
5

> <i_m_Source_File_Index>
811

> <b_m_subgroup_collapsed>
0

> <r_i_docking_score>
-6.56366

> <r_i_glide_ecoul>
-6.4195

> <r_i_glide_eff_state_penalty>
0

> <r_i_glide_einternal>
6.75147

> <r_i_glide_emodel>
-50.1394

> <r_i_glide_energy>
-37.1342

> <r_i_glide_erotb>
0.48553

> <r_i_glide_esite>
-0.0159443

> <r_i_glide_evdw>
-30.7147

> <r_i_glide_gscore>
-6.56366

> <r_i_glide_hbond>
-0.731157

> <r_i_glide_ligand_efficiency>
-0.328183

> <r_i_glide_ligand_efficiency_ln>
-1.64267

> <r_i_glide_ligand_efficiency_sa>
-0.890826

> <r_i_glide_lipo>
-2.1412

> <r_i_glide_metal>
0

> <r_i_glide_rewards>
-1.66223

> <s_i_glide_gridfile>
wee1_glide-grid

> <s_m_Source_File>
wee1_decoys_glide_SP.sdf

> <s_m_Source_Path>
/Users/zhangxujun/Desktop

> <s_m_entry_id>
1086

> <s_m_entry_name>
wee1_decoys_glide_SP.811

> <s_m_subgroup_title>
wee1_decoys_glide_SP

> <s_m_subgroupid>
wee1_decoys_glide_SP


$$$$
