ZINC02401950_2184
                    3D
 Schrodinger Suite 2024-2.
 67 70  0  0  1  0            999 V2000
    5.2617   54.7438   17.2207 C   0  0  0  0  0  0
    4.7037   54.1697   18.5099 C   0  0  0  0  0  0
    3.6123   53.2998   18.4661 C   0  0  0  0  0  0
    3.1044   52.7598   19.6434 C   0  0  0  0  0  0
    3.6901   53.0917   20.8706 C   0  0  0  0  0  0
    4.7918   53.9476   20.9115 C   0  0  0  0  0  0
    5.2958   54.4915   19.7322 C   0  0  0  0  0  0
    3.2641   52.5364   22.0824 N   0  0  0  0  0  0
    2.0036   52.2649   22.4832 C   0  0  0  0  0  0
    0.9903   52.5744   21.8554 O   0  0  0  0  0  0
    1.9061   51.5320   23.8375 C   0  0  0  0  0  0
   -0.2859   50.3229   23.5897 C   0  0  0  0  0  0
   -1.7484   50.2650   24.0517 C   0  0  0  0  0  0
   -1.8738   49.8870   25.5439 C   0  0  2  0  0  0
   -3.3510   49.7484   25.9965 C   0  0  0  0  0  0
   -4.1039   51.0933   26.0201 C   0  0  0  0  0  0
   -3.3634   52.1309   26.8815 C   0  0  0  0  0  0
   -1.9018   52.3147   26.4301 C   0  0  0  0  0  0
   -1.1207   50.9713   26.3841 C   0  0  2  0  0  0
   -1.1213   50.5891   27.4079 H   0  0  0  0  0  0
    0.3732   51.1290   25.9462 C   0  0  2  0  0  0
    0.8626   50.1562   26.0359 H   0  0  0  0  0  0
    1.1713   52.0947   26.8618 C   0  0  0  0  0  0
    1.5835   53.3650   26.4476 C   0  0  0  0  0  0
    2.3700   54.1630   27.2747 C   0  0  0  0  0  0
    2.7209   53.7481   28.5571 C   0  0  0  0  0  0
    2.2589   52.5096   29.0234 C   0  0  0  0  0  0
    1.5025   51.6967   28.1687 C   0  0  0  0  0  0
    2.4843   52.0851   30.3159 O   0  0  0  0  0  0
    3.8412   52.0123   30.7462 C   0  0  0  0  0  0
    3.4787   54.5678   29.3604 O   0  0  0  0  0  0
    4.8260   54.7404   28.9283 C   0  0  0  0  0  0
   -1.2771   48.6119   25.6818 O   0  0  0  0  0  0
    5.2812   53.9792   16.4430 H   0  0  0  0  0  0
    6.2884   55.0913   17.3425 H   0  0  0  0  0  0
    4.6441   55.5714   16.8699 H   0  0  0  0  0  0
    3.1624   53.0315   17.5217 H   0  0  0  0  0  0
    2.2689   52.0774   19.5910 H   0  0  0  0  0  0
    5.2642   54.1984   21.8500 H   0  0  0  0  0  0
    6.1478   55.1526   19.7702 H   0  0  0  0  0  0
    3.9987   52.4120   22.7607 H   0  0  0  0  0  0
    2.2924   50.5130   23.7655 H   0  0  0  0  0  0
    2.5243   52.0590   24.5575 H   0  0  0  0  0  0
   -0.2690   50.5905   22.5341 H   0  0  0  0  0  0
    0.2448   49.3781   23.7290 H   0  0  0  0  0  0
   -2.2224   51.2249   23.8538 H   0  0  0  0  0  0
   -2.3314   49.5726   23.4431 H   0  0  0  0  0  0
   -3.8943   49.0939   25.3130 H   0  0  0  0  0  0
   -3.3953   49.3181   26.9998 H   0  0  0  0  0  0
   -5.1107   50.9434   26.4127 H   0  0  0  0  0  0
   -4.2342   51.4724   25.0058 H   0  0  0  0  0  0
   -3.3827   51.8079   27.9243 H   0  0  0  0  0  0
   -3.8884   53.0865   26.8474 H   0  0  0  0  0  0
   -1.3963   53.0120   27.0986 H   0  0  0  0  0  0
   -1.8782   52.8060   25.4572 H   0  0  0  0  0  0
    1.3171   53.7417   25.4709 H   0  0  0  0  0  0
    2.7051   55.1258   26.9282 H   0  0  0  0  0  0
    1.1618   50.7438   28.5399 H   0  0  0  0  0  0
    3.9234   51.2967   31.5625 H   0  0  0  0  0  0
    4.5199   51.6965   29.9543 H   0  0  0  0  0  0
    4.1835   52.9672   31.1383 H   0  0  0  0  0  0
    5.3820   55.2977   29.6818 H   0  0  0  0  0  0
    5.3345   53.7841   28.7913 H   0  0  0  0  0  0
    4.8846   55.2967   27.9918 H   0  0  0  0  0  0
   -1.2956   48.3863   26.6327 H   0  0  0  0  0  0
    0.4529   51.4292   24.3998 N   0  3  1  0  0  0
   -0.0465   52.2909   24.2240 H   0  0  0  0  0  0
  1  2  1  0  0  0
  1 34  1  0  0  0
  1 35  1  0  0  0
  1 36  1  0  0  0
  2  7  2  0  0  0
  2  3  1  0  0  0
  3  4  2  0  0  0
  3 37  1  0  0  0
  4  5  1  0  0  0
  4 38  1  0  0  0
  5  6  2  0  0  0
  5  8  1  0  0  0
  6  7  1  0  0  0
  6 39  1  0  0  0
  7 40  1  0  0  0
  8  9  1  0  0  0
  8 41  1  0  0  0
  9 10  2  0  0  0
  9 11  1  0  0  0
 11 42  1  0  0  0
 11 43  1  0  0  0
 11 66  1  0  0  0
 12 13  1  0  0  0
 12 44  1  0  0  0
 12 45  1  0  0  0
 12 66  1  0  0  0
 13 14  1  0  0  0
 13 46  1  0  0  0
 13 47  1  0  0  0
 14 19  1  0  0  0
 14 15  1  0  0  0
 14 33  1  0  0  0
 15 16  1  0  0  0
 15 48  1  0  0  0
 15 49  1  0  0  0
 16 17  1  0  0  0
 16 50  1  0  0  0
 16 51  1  0  0  0
 17 18  1  0  0  0
 17 52  1  0  0  0
 17 53  1  0  0  0
 18 19  1  0  0  0
 18 54  1  0  0  0
 18 55  1  0  0  0
 19 20  1  0  0  0
 19 21  1  0  0  0
 21 22  1  0  0  0
 21 23  1  0  0  0
 21 66  1  0  0  0
 23 28  2  0  0  0
 23 24  1  0  0  0
 24 25  2  0  0  0
 24 56  1  0  0  0
 25 26  1  0  0  0
 25 57  1  0  0  0
 26 27  2  0  0  0
 26 31  1  0  0  0
 27 28  1  0  0  0
 27 29  1  0  0  0
 28 58  1  0  0  0
 29 30  1  0  0  0
 30 59  1  0  0  0
 30 60  1  0  0  0
 30 61  1  0  0  0
 31 32  1  0  0  0
 32 62  1  0  0  0
 32 63  1  0  0  0
 32 64  1  0  0  0
 33 65  1  0  0  0
 66 67  1  0  0  0
M  CHG  1  66   1
M  END
> <i_i_glide_confnum>
63

> <i_i_glide_lignum>
2185

> <i_i_glide_posenum>
35

> <i_i_glide_rotatable_bonds>
8

> <i_m_Source_File_Index>
1421

> <b_m_subgroup_collapsed>
0

> <r_i_docking_score>
-4.41668

> <r_i_glide_ecoul>
-5.07211

> <r_i_glide_eff_state_penalty>
0

> <r_i_glide_einternal>
22.4861

> <r_i_glide_emodel>
-40.2969

> <r_i_glide_energy>
-39.4038

> <r_i_glide_erotb>
0.516494

> <r_i_glide_esite>
0

> <r_i_glide_evdw>
-34.3317

> <r_i_glide_gscore>
-4.41668

> <r_i_glide_hbond>
-0.456

> <r_i_glide_ligand_efficiency>
-0.138021

> <r_i_glide_ligand_efficiency_ln>
-0.989014

> <r_i_glide_ligand_efficiency_sa>
-0.43819

> <r_i_glide_lipo>
-1.57812

> <r_i_glide_metal>
0

> <r_i_glide_rewards>
-0.421655

> <s_i_glide_gridfile>
wee1_glide-grid

> <s_m_Source_File>
wee1_decoys_glide_SP.sdf

> <s_m_Source_Path>
/Users/zhangxujun/Desktop

> <s_m_entry_id>
1696

> <s_m_entry_name>
wee1_decoys_glide_SP.1421

> <s_m_subgroup_title>
wee1_decoys_glide_SP

> <s_m_subgroupid>
wee1_decoys_glide_SP


$$$$
