ZINC20010093_2044
                    3D
 Schrodinger Suite 2024-2.
 64 67  0  0  1  0            999 V2000
    3.4624   53.8530   29.3949 C   0  0  0  0  0  0
    3.0693   53.6679   27.9324 C   0  0  0  0  0  0
    3.9485   54.1451   26.9577 C   0  0  0  0  0  0
    3.6543   54.0375   25.5958 C   0  0  0  0  0  0
    2.4197   53.4770   25.2296 C   0  0  0  0  0  0
    1.5340   52.9569   26.1801 C   0  0  0  0  0  0
    1.8612   53.0454   27.5514 C   0  0  0  0  0  0
    0.9480   52.4431   28.6186 C   0  0  0  0  0  0
   -0.0093   52.2312   25.5539 S   0  0  0  0  0  0
   -1.0632   52.4968   26.5404 O   0  0  0  0  0  0
   -0.1795   52.7008   24.1725 O   0  0  0  0  0  0
    0.3073   50.4868   25.5432 N   0  0  0  0  0  0
    0.6998   49.8770   24.2494 C   0  0  0  0  0  0
   -0.5334   49.6286   23.3497 C   0  0  0  0  0  0
   -1.6182   48.8052   24.0916 C   0  0  0  0  0  0
   -1.9389   49.4209   25.4773 C   0  0  0  0  0  0
   -0.6525   49.6584   26.2981 C   0  0  0  0  0  0
   -2.8773   48.5904   23.2371 C   0  0  0  0  0  0
    4.6673   54.4966   24.5647 C   0  0  0  0  0  0
    5.5649   55.2804   24.8818 O   0  0  0  0  0  0
    4.5157   53.9385   23.3410 N   0  0  0  0  0  0
    5.1698   54.1336   22.1032 C   0  0  0  0  0  0
    6.2401   55.0372   21.9608 C   0  0  0  0  0  0
    6.7921   55.2990   20.7104 C   0  0  0  0  0  0
    6.3028   54.6473   19.5854 C   0  0  0  0  0  0
    5.2846   53.7063   19.7138 C   0  0  0  0  0  0
    4.7048   53.4143   20.9638 C   0  0  0  0  0  0
    3.6201   52.3407   21.0448 C   0  0  0  0  0  0
    2.8072   52.3291   21.9717 O   0  0  0  0  0  0
    3.6427   51.3911   20.0844 N   0  0  0  0  0  0
    2.7633   50.2354   19.8626 C   0  0  0  0  0  0
    2.3329   49.3635   21.0225 C   0  0  0  0  0  0
    1.3173   50.2370   20.3172 C   0  0  0  0  0  0
    2.6247   54.2687   29.9558 H   0  0  0  0  0  0
    3.7357   52.8968   29.8431 H   0  0  0  0  0  0
    4.2963   54.5472   29.5153 H   0  0  0  0  0  0
    4.8833   54.5936   27.2674 H   0  0  0  0  0  0
    2.1436   53.4144   24.1870 H   0  0  0  0  0  0
    0.5755   51.4734   28.2968 H   0  0  0  0  0  0
    1.4503   52.2448   29.5629 H   0  0  0  0  0  0
    0.0922   53.0904   28.8064 H   0  0  0  0  0  0
    1.5080   50.4539   23.8003 H   0  0  0  0  0  0
    1.1173   48.8963   24.4771 H   0  0  0  0  0  0
   -0.9507   50.5822   23.0232 H   0  0  0  0  0  0
   -0.2463   49.1204   22.4290 H   0  0  0  0  0  0
   -1.1702   47.8309   24.2961 H   0  0  0  0  0  0
   -2.6268   48.7791   26.0305 H   0  0  0  0  0  0
   -2.4728   50.3636   25.3550 H   0  0  0  0  0  0
   -0.1814   48.6901   26.4815 H   0  0  0  0  0  0
   -0.8233   50.0969   27.2808 H   0  0  0  0  0  0
   -3.3651   49.5370   23.0008 H   0  0  0  0  0  0
   -2.6339   48.0982   22.2946 H   0  0  0  0  0  0
   -3.6039   47.9645   23.7577 H   0  0  0  0  0  0
    3.7494   53.2831   23.2514 H   0  0  0  0  0  0
    6.6462   55.5759   22.8017 H   0  0  0  0  0  0
    7.6028   56.0058   20.6138 H   0  0  0  0  0  0
    6.7311   54.8504   18.6141 H   0  0  0  0  0  0
    4.9530   53.2072   18.8134 H   0  0  0  0  0  0
    4.3913   51.4367   19.3999 H   0  0  0  0  0  0
    2.9881   49.7299   18.9195 H   0  0  0  0  0  0
    2.6875   49.6237   22.0199 H   0  0  0  0  0  0
    2.3126   48.2854   20.8660 H   0  0  0  0  0  0
    0.5788   49.7738   19.6636 H   0  0  0  0  0  0
    0.9127   51.1129   20.8259 H   0  0  0  0  0  0
  1  2  1  0  0  0
  1 34  1  0  0  0
  1 35  1  0  0  0
  1 36  1  0  0  0
  2  7  2  0  0  0
  2  3  1  0  0  0
  3  4  2  0  0  0
  3 37  1  0  0  0
  4  5  1  0  0  0
  4 19  1  0  0  0
  5  6  2  0  0  0
  5 38  1  0  0  0
  6  7  1  0  0  0
  6  9  1  0  0  0
  7  8  1  0  0  0
  8 39  1  0  0  0
  8 40  1  0  0  0
  8 41  1  0  0  0
  9 10  2  0  0  0
  9 11  2  0  0  0
  9 12  1  0  0  0
 12 17  1  0  0  0
 12 13  1  0  0  0
 13 14  1  0  0  0
 13 42  1  0  0  0
 13 43  1  0  0  0
 14 15  1  0  0  0
 14 44  1  0  0  0
 14 45  1  0  0  0
 15 16  1  0  0  0
 15 18  1  0  0  0
 15 46  1  0  0  0
 16 17  1  0  0  0
 16 47  1  0  0  0
 16 48  1  0  0  0
 17 49  1  0  0  0
 17 50  1  0  0  0
 18 51  1  0  0  0
 18 52  1  0  0  0
 18 53  1  0  0  0
 19 20  2  0  0  0
 19 21  1  0  0  0
 21 22  1  0  0  0
 21 54  1  0  0  0
 22 27  2  0  0  0
 22 23  1  0  0  0
 23 24  2  0  0  0
 23 55  1  0  0  0
 24 25  1  0  0  0
 24 56  1  0  0  0
 25 26  2  0  0  0
 25 57  1  0  0  0
 26 27  1  0  0  0
 26 58  1  0  0  0
 27 28  1  0  0  0
 28 29  2  0  0  0
 28 30  1  0  0  0
 30 31  1  0  0  0
 30 59  1  0  0  0
 31 33  1  0  0  0
 31 32  1  0  0  0
 31 60  1  0  0  0
 32 33  1  0  0  0
 32 61  1  0  0  0
 32 62  1  0  0  0
 33 63  1  0  0  0
 33 64  1  0  0  0
M  END
> <i_i_glide_confnum>
99

> <i_i_glide_lignum>
2045

> <i_i_glide_posenum>
386

> <i_i_glide_rotatable_bonds>
8

> <i_m_Source_File_Index>
3169

> <b_m_subgroup_collapsed>
0

> <r_i_docking_score>
-4.87085

> <r_i_glide_ecoul>
-4.90511

> <r_i_glide_eff_state_penalty>
0

> <r_i_glide_einternal>
5.17723

> <r_i_glide_emodel>
-57.7628

> <r_i_glide_energy>
-46.1804

> <r_i_glide_erotb>
0.732761

> <r_i_glide_esite>
-0.115123

> <r_i_glide_evdw>
-41.2752

> <r_i_glide_gscore>
-4.87085

> <r_i_glide_hbond>
-0.134873

> <r_i_glide_ligand_efficiency>
-0.147601

> <r_i_glide_ligand_efficiency_ln>
-1.08325

> <r_i_glide_ligand_efficiency_sa>
-0.473437

> <r_i_glide_lipo>
-2.20697

> <r_i_glide_metal>
0

> <r_i_glide_rewards>
-0.347112

> <s_i_glide_gridfile>
wee1_glide-grid

> <s_m_Source_File>
wee1_decoys_glide_SP.sdf

> <s_m_Source_Path>
/Users/zhangxujun/Desktop

> <s_m_entry_id>
3444

> <s_m_entry_name>
wee1_decoys_glide_SP.3169

> <s_m_subgroup_title>
wee1_decoys_glide_SP

> <s_m_subgroupid>
wee1_decoys_glide_SP


$$$$
