ZINC64746094_760
                    3D
 Schrodinger Suite 2024-2.
 60 64  0  0  1  0            999 V2000
   -3.9310   50.7801   28.1697 C   0  0  0  0  0  0
   -2.7045   50.4969   27.2826 N   0  3  0  0  0  0
   -1.4803   51.2978   27.7436 C   0  0  0  0  0  0
   -0.2925   50.8689   26.8718 C   0  0  0  0  0  0
   -0.5151   51.1209   25.4365 N   0  0  0  0  0  0
   -1.7251   50.4357   24.9489 C   0  0  0  0  0  0
   -2.9962   50.7248   25.7869 C   0  0  0  0  0  0
    0.4138   51.7620   24.6572 C   0  0  0  0  0  0
    1.3745   52.4921   25.1575 N   0  0  0  0  0  0
    2.1766   52.9308   24.1469 N   0  0  0  0  0  0
    3.3250   53.7073   24.0590 C   0  0  0  0  0  0
    3.6323   53.6904   22.6789 C   0  0  0  0  0  0
    2.7153   53.0172   21.9910 N   0  0  0  0  0  0
    1.8572   52.5673   22.8691 C   0  0  0  0  0  0
    0.3921   51.6083   22.8945 S   0  0  0  0  0  0
    4.8146   54.2872   21.9504 C   0  0  0  0  0  0
    4.7948   54.4127   20.5515 C   0  0  0  0  0  0
    5.8756   54.9625   19.8682 C   0  0  0  0  0  0
    6.9883   55.3999   20.5772 C   0  0  0  0  0  0
    7.0262   55.2950   21.9618 C   0  0  0  0  0  0
    5.9555   54.7178   22.6439 C   0  0  0  0  0  0
    8.4945   56.0976   19.6511 Br  0  0  0  0  0  0
    3.9190   54.3207   25.1434 N   0  0  0  0  0  0
    3.8625   53.9007   26.5430 C   0  0  0  0  0  0
    5.1936   54.2128   27.2592 C   0  0  0  0  0  0
    5.5581   53.3014   28.4519 C   0  0  0  0  0  0
    4.4008   52.6737   29.2614 C   0  0  0  0  0  0
    3.2805   53.6409   29.6722 C   0  0  0  0  0  0
    2.2020   53.8132   28.5906 C   0  0  0  0  0  0
    2.6416   54.5043   27.2884 C   0  0  0  0  0  0
   -4.2016   51.8308   28.0653 H   0  0  0  0  0  0
   -4.7339   50.1236   27.8316 H   0  0  0  0  0  0
   -3.6467   50.5320   29.1961 H   0  0  0  0  0  0
   -1.3008   50.9974   28.7809 H   0  0  0  0  0  0
   -1.6979   52.3655   27.6781 H   0  0  0  0  0  0
    0.6081   51.3659   27.2279 H   0  0  0  0  0  0
   -0.0783   49.8018   26.9707 H   0  0  0  0  0  0
   -1.4725   49.3739   24.9787 H   0  0  0  0  0  0
   -1.9244   50.6608   23.9007 H   0  0  0  0  0  0
   -3.7864   50.0152   25.5272 H   0  0  0  0  0  0
   -3.3481   51.7510   25.6732 H   0  0  0  0  0  0
    3.9357   54.0899   19.9787 H   0  0  0  0  0  0
    5.8504   55.0431   18.7907 H   0  0  0  0  0  0
    7.9040   55.6301   22.4932 H   0  0  0  0  0  0
    6.0282   54.6109   23.7132 H   0  0  0  0  0  0
    4.5071   55.1284   25.0022 H   0  0  0  0  0  0
    3.7468   52.8179   26.5164 H   0  0  0  0  0  0
    6.0222   54.1529   26.5511 H   0  0  0  0  0  0
    5.1888   55.2540   27.5883 H   0  0  0  0  0  0
    6.1902   52.4960   28.0818 H   0  0  0  0  0  0
    6.1973   53.8773   29.1205 H   0  0  0  0  0  0
    3.9670   51.8498   28.6962 H   0  0  0  0  0  0
    4.7980   52.1938   30.1532 H   0  0  0  0  0  0
    2.7928   53.2410   30.5601 H   0  0  0  0  0  0
    3.6951   54.6075   29.9637 H   0  0  0  0  0  0
    1.7887   52.8338   28.3495 H   0  0  0  0  0  0
    1.3707   54.3780   29.0156 H   0  0  0  0  0  0
    2.8193   55.5579   27.5013 H   0  0  0  0  0  0
    1.7706   54.4966   26.6336 H   0  0  0  0  0  0
   -2.4293   49.5213   27.4361 H   0  0  0  0  0  0
  1  2  1  0  0  0
  1 31  1  0  0  0
  1 32  1  0  0  0
  1 33  1  0  0  0
  2  7  1  0  0  0
  2  3  1  0  0  0
  2 60  1  0  0  0
  3  4  1  0  0  0
  3 34  1  0  0  0
  3 35  1  0  0  0
  4  5  1  0  0  0
  4 36  1  0  0  0
  4 37  1  0  0  0
  5  6  1  0  0  0
  5  8  1  0  0  0
  6  7  1  0  0  0
  6 38  1  0  0  0
  6 39  1  0  0  0
  7 40  1  0  0  0
  7 41  1  0  0  0
  8 15  1  0  0  0
  8  9  2  0  0  0
  9 10  1  0  0  0
 10 14  1  0  0  0
 10 11  1  0  0  0
 11 12  2  0  0  0
 11 23  1  0  0  0
 12 13  1  0  0  0
 12 16  1  0  0  0
 13 14  2  0  0  0
 14 15  1  0  0  0
 16 21  2  0  0  0
 16 17  1  0  0  0
 17 18  2  0  0  0
 17 42  1  0  0  0
 18 19  1  0  0  0
 18 43  1  0  0  0
 19 20  2  0  0  0
 19 22  1  0  0  0
 20 21  1  0  0  0
 20 44  1  0  0  0
 21 45  1  0  0  0
 23 24  1  0  0  0
 23 46  1  0  0  0
 24 30  1  0  0  0
 24 25  1  0  0  0
 24 47  1  0  0  0
 25 26  1  0  0  0
 25 48  1  0  0  0
 25 49  1  0  0  0
 26 27  1  0  0  0
 26 50  1  0  0  0
 26 51  1  0  0  0
 27 28  1  0  0  0
 27 52  1  0  0  0
 27 53  1  0  0  0
 28 29  1  0  0  0
 28 54  1  0  0  0
 28 55  1  0  0  0
 29 30  1  0  0  0
 29 56  1  0  0  0
 29 57  1  0  0  0
 30 58  1  0  0  0
 30 59  1  0  0  0
M  CHG  1   2   1
M  END
> <i_i_glide_confnum>
111

> <i_i_glide_lignum>
761

> <i_i_glide_posenum>
239

> <i_i_glide_rotatable_bonds>
4

> <i_m_Source_File_Index>
3354

> <b_m_subgroup_collapsed>
0

> <r_i_docking_score>
-5.52731

> <r_i_glide_ecoul>
-2.62523

> <r_i_glide_eff_state_penalty>
0

> <r_i_glide_einternal>
1.20113

> <r_i_glide_emodel>
-56.3896

> <r_i_glide_energy>
-41.6156

> <r_i_glide_erotb>
0.338371

> <r_i_glide_esite>
-0.117516

> <r_i_glide_evdw>
-38.9904

> <r_i_glide_gscore>
-5.52731

> <r_i_glide_hbond>
-0.190632

> <r_i_glide_ligand_efficiency>
-0.184244

> <r_i_glide_ligand_efficiency_ln>
-1.25587

> <r_i_glide_ligand_efficiency_sa>
-0.572488

> <r_i_glide_lipo>
-2.71138

> <r_i_glide_metal>
0

> <r_i_glide_rewards>
-0.502853

> <s_i_glide_gridfile>
wee1_glide-grid

> <s_m_Source_File>
wee1_decoys_glide_SP.sdf

> <s_m_Source_Path>
/Users/zhangxujun/Desktop

> <s_m_entry_id>
3629

> <s_m_entry_name>
wee1_decoys_glide_SP.3354

> <s_m_subgroup_title>
wee1_decoys_glide_SP

> <s_m_subgroupid>
wee1_decoys_glide_SP


$$$$
