ZINC39686999_3693
                    3D
 Schrodinger Suite 2024-2.
 65 68  0  0  1  0            999 V2000
    5.9190   53.8208   28.0277 C   0  0  0  0  0  0
    4.4466   53.7047   27.6648 C   0  0  0  0  0  0
    4.0588   53.7636   26.3211 C   0  0  0  0  0  0
    2.7135   53.6283   25.9367 C   0  0  0  0  0  0
    1.7559   53.5417   26.9574 C   0  0  0  0  0  0
    2.1260   53.4772   28.2946 C   0  0  0  0  0  0
    3.4673   53.5241   28.6491 C   0  0  0  0  0  0
    3.9041   53.2981   30.4817 Br  0  0  0  0  0  0
    2.3684   53.5712   24.4552 C   0  0  0  0  0  0
    3.1293   54.1349   23.6658 O   0  0  0  0  0  0
    1.3070   52.8419   23.9994 N   0  0  0  0  0  0
    1.1353   52.6028   22.5613 C   0  0  0  0  0  0
   -0.1723   51.7879   22.4668 C   0  0  2  0  0  0
   -0.9720   52.5164   22.3344 H   0  0  0  0  0  0
   -0.2770   51.0286   23.8198 C   0  0  0  0  0  0
    0.3358   52.0696   24.7846 C   0  0  0  0  0  0
   -1.7397   50.6379   24.1559 C   0  0  0  0  0  0
   -1.8679   50.0742   25.5829 C   0  0  0  0  0  0
   -0.9900   48.8089   25.6817 N   0  3  0  0  0  0
    0.4841   49.0205   25.2716 C   0  0  0  0  0  0
    0.5286   49.6862   23.8723 C   0  0  0  0  0  0
   -0.2050   50.8849   21.2055 C   0  0  0  0  0  0
   -1.2429   50.2696   20.9720 O   0  0  0  0  0  0
    0.8584   50.8209   20.3807 N   0  0  0  0  0  0
    0.9591   49.9352   19.2197 C   0  0  1  0  0  0
   -0.0303   49.8476   18.7612 H   0  0  0  0  0  0
    1.8692   50.5688   18.1555 C   0  0  0  0  0  0
    1.4335   48.5208   19.6417 C   0  0  0  0  0  0
    1.0538   47.4261   18.6504 C   0  0  0  0  0  0
    1.9034   47.1341   17.5797 C   0  0  0  0  0  0
    1.5657   46.1473   16.6548 C   0  0  0  0  0  0
    0.3756   45.4346   16.8002 C   0  0  0  0  0  0
   -0.4757   45.7160   17.8689 C   0  0  0  0  0  0
   -0.1401   46.7060   18.7931 C   0  0  0  0  0  0
   -0.9769   46.9581   19.8267 F   0  0  0  0  0  0
    6.2709   52.8962   28.4807 H   0  0  0  0  0  0
    6.5452   54.0388   27.1644 H   0  0  0  0  0  0
    6.0653   54.6164   28.7580 H   0  0  0  0  0  0
    4.8275   53.8644   25.5651 H   0  0  0  0  0  0
    0.7042   53.5100   26.7495 H   0  0  0  0  0  0
    1.3708   53.3664   29.0586 H   0  0  0  0  0  0
    1.9995   51.9966   22.2837 H   0  0  0  0  0  0
    1.1072   53.5235   21.9736 H   0  0  0  0  0  0
   -0.4727   52.7565   25.0373 H   0  0  0  0  0  0
    0.7044   51.6097   25.6990 H   0  0  0  0  0  0
   -2.3692   51.5260   24.1038 H   0  0  0  0  0  0
   -2.1554   49.9511   23.4163 H   0  0  0  0  0  0
   -1.5210   50.7550   26.3610 H   0  0  0  0  0  0
   -2.8824   49.7526   25.8238 H   0  0  0  0  0  0
   -1.0333   48.4848   26.6534 H   0  0  0  0  0  0
    0.9473   49.5993   26.0684 H   0  0  0  0  0  0
    0.9383   48.0305   25.2813 H   0  0  0  0  0  0
    0.1806   48.9790   23.1178 H   0  0  0  0  0  0
    1.5761   49.8708   23.6242 H   0  0  0  0  0  0
    1.6436   51.4333   20.5385 H   0  0  0  0  0  0
    1.9057   49.9527   17.2582 H   0  0  0  0  0  0
    1.5148   51.5558   17.8535 H   0  0  0  0  0  0
    2.8990   50.6593   18.5030 H   0  0  0  0  0  0
    1.0126   48.2484   20.6105 H   0  0  0  0  0  0
    2.5135   48.5157   19.8021 H   0  0  0  0  0  0
    2.8246   47.6851   17.4622 H   0  0  0  0  0  0
    2.2314   45.9389   15.8280 H   0  0  0  0  0  0
    0.1113   44.6717   16.0815 H   0  0  0  0  0  0
   -1.4021   45.1721   17.9823 H   0  0  0  0  0  0
   -1.3946   48.0730   25.1215 H   0  0  0  0  0  0
  1  2  1  0  0  0
  1 36  1  0  0  0
  1 37  1  0  0  0
  1 38  1  0  0  0
  2  7  2  0  0  0
  2  3  1  0  0  0
  3  4  2  0  0  0
  3 39  1  0  0  0
  4  5  1  0  0  0
  4  9  1  0  0  0
  5  6  2  0  0  0
  5 40  1  0  0  0
  6  7  1  0  0  0
  6 41  1  0  0  0
  7  8  1  0  0  0
  9 10  2  0  0  0
  9 11  1  0  0  0
 11 16  1  0  0  0
 11 12  1  0  0  0
 12 13  1  0  0  0
 12 42  1  0  0  0
 12 43  1  0  0  0
 13 14  1  0  0  0
 13 15  1  0  0  0
 13 22  1  0  0  0
 15 21  1  0  0  0
 15 16  1  0  0  0
 15 17  1  0  0  0
 16 44  1  0  0  0
 16 45  1  0  0  0
 17 18  1  0  0  0
 17 46  1  0  0  0
 17 47  1  0  0  0
 18 19  1  0  0  0
 18 48  1  0  0  0
 18 49  1  0  0  0
 19 20  1  0  0  0
 19 50  1  0  0  0
 19 65  1  0  0  0
 20 21  1  0  0  0
 20 51  1  0  0  0
 20 52  1  0  0  0
 21 53  1  0  0  0
 21 54  1  0  0  0
 22 23  2  0  0  0
 22 24  1  0  0  0
 24 25  1  0  0  0
 24 55  1  0  0  0
 25 26  1  0  0  0
 25 27  1  0  0  0
 25 28  1  0  0  0
 27 56  1  0  0  0
 27 57  1  0  0  0
 27 58  1  0  0  0
 28 29  1  0  0  0
 28 59  1  0  0  0
 28 60  1  0  0  0
 29 34  2  0  0  0
 29 30  1  0  0  0
 30 31  2  0  0  0
 30 61  1  0  0  0
 31 32  1  0  0  0
 31 62  1  0  0  0
 32 33  2  0  0  0
 32 63  1  0  0  0
 33 34  1  0  0  0
 33 64  1  0  0  0
 34 35  1  0  0  0
M  CHG  1  19   1
M  END
> <i_i_glide_confnum>
257

> <i_i_glide_lignum>
3694

> <i_i_glide_posenum>
37

> <i_i_glide_rotatable_bonds>
7

> <i_m_Source_File_Index>
1317

> <b_m_subgroup_collapsed>
0

> <r_i_docking_score>
-5.01491

> <r_i_glide_ecoul>
-7.40822

> <r_i_glide_eff_state_penalty>
0

> <r_i_glide_einternal>
9.72222

> <r_i_glide_emodel>
-54.1261

> <r_i_glide_energy>
-42.3256

> <r_i_glide_erotb>
0.460089

> <r_i_glide_esite>
-0.104988

> <r_i_glide_evdw>
-34.9173

> <r_i_glide_gscore>
-5.01491

> <r_i_glide_hbond>
-0.2

> <r_i_glide_ligand_efficiency>
-0.151967

> <r_i_glide_ligand_efficiency_ln>
-1.11529

> <r_i_glide_ligand_efficiency_sa>
-0.487439

> <r_i_glide_lipo>
-1.72346

> <r_i_glide_metal>
0

> <r_i_glide_rewards>
-0.589449

> <s_i_glide_gridfile>
wee1_glide-grid

> <s_m_Source_File>
wee1_decoys_glide_SP.sdf

> <s_m_Source_Path>
/Users/zhangxujun/Desktop

> <s_m_entry_id>
1592

> <s_m_entry_name>
wee1_decoys_glide_SP.1317

> <s_m_subgroup_title>
wee1_decoys_glide_SP

> <s_m_subgroupid>
wee1_decoys_glide_SP


$$$$
