ZINC36065902_5695
                    3D
 Schrodinger Suite 2024-2.
 75 79  0  0  1  0            999 V2000
   -0.1765   50.4728   26.5880 C   0  0  0  0  0  0
   -0.1136   51.8793   25.9749 C   0  0  0  0  0  0
    1.0582   52.5787   26.3905 O   0  0  0  0  0  0
    1.1272   53.1895   27.6020 C   0  0  0  0  0  0
    0.2133   53.2214   28.4300 O   0  0  0  0  0  0
    2.5068   53.8256   27.8906 C   0  0  1  0  0  0
    2.4707   54.8229   27.4514 H   0  0  0  0  0  0
    2.7393   53.9919   29.4102 C   0  0  0  0  0  0
    4.1366   54.5708   29.6776 C   0  0  0  0  0  0
    5.2746   53.8417   28.9290 C   0  0  0  0  0  0
    4.9214   53.7964   27.5012 N   0  0  0  0  0  0
    3.6764   53.0387   27.2489 C   0  0  0  0  0  0
    5.7677   54.3569   26.5862 C   0  0  0  0  0  0
    6.8301   54.8958   26.9118 O   0  0  0  0  0  0
    5.4576   54.3104   25.1740 C   0  0  0  0  0  0
    6.4124   54.4941   24.1778 C   0  0  0  0  0  0
    5.7861   54.4802   22.9879 O   0  0  0  0  0  0
    4.4879   54.2909   23.3147 C   0  0  0  0  0  0
    4.2616   54.2388   24.6039 N   0  0  0  0  0  0
    3.4662   54.4246   22.2145 C   0  0  0  0  0  0
    3.5017   53.1870   21.2758 N   0  3  1  0  0  0
    2.2138   52.3520   21.5220 C   0  0  0  0  0  0
    2.0983   51.0377   20.7696 C   0  0  0  0  0  0
    2.4359   49.8371   21.4211 C   0  0  0  0  0  0
    2.3042   48.6075   20.7656 C   0  0  0  0  0  0
    1.8333   48.6111   19.4600 C   0  0  0  0  0  0
    1.4800   49.7700   18.8298 C   0  0  0  0  0  0
    1.5828   51.0068   19.4591 C   0  0  0  0  0  0
    1.0205   49.4784   17.5844 O   0  0  0  0  0  0
    1.3634   48.1329   17.3730 C   0  0  0  0  0  0
    1.6085   47.5587   18.6300 O   0  0  0  0  0  0
    3.7105   53.4876   19.7542 C   0  0  0  0  0  0
    4.6879   54.6004   19.3345 C   0  0  0  0  0  0
    5.9176   54.7277   19.9848 C   0  0  0  0  0  0
    6.8025   55.7639   19.6848 C   0  0  0  0  0  0
    6.4758   56.6699   18.6767 C   0  0  0  0  0  0
    5.2766   56.5347   17.9820 C   0  0  0  0  0  0
    4.3801   55.5058   18.2974 C   0  0  0  0  0  0
    3.1052   55.3879   17.4753 C   0  0  0  0  0  0
    8.1176   55.8826   20.4328 C   0  0  0  0  0  0
   -1.0529   49.9291   26.2406 H   0  0  0  0  0  0
   -0.2368   50.5111   27.6767 H   0  0  0  0  0  0
    0.7004   49.8823   26.3194 H   0  0  0  0  0  0
   -0.0869   51.7967   24.8885 H   0  0  0  0  0  0
   -1.0138   52.4467   26.2187 H   0  0  0  0  0  0
    1.9935   54.6589   29.8475 H   0  0  0  0  0  0
    2.6509   53.0280   29.9164 H   0  0  0  0  0  0
    4.1524   55.6314   29.4251 H   0  0  0  0  0  0
    4.3334   54.4966   30.7438 H   0  0  0  0  0  0
    6.2444   54.3035   29.1288 H   0  0  0  0  0  0
    5.3430   52.8124   29.2808 H   0  0  0  0  0  0
    3.7856   52.0957   27.7784 H   0  0  0  0  0  0
    3.5323   52.7358   26.2173 H   0  0  0  0  0  0
    7.4839   54.6459   24.1709 H   0  0  0  0  0  0
    2.4465   54.5725   22.5762 H   0  0  0  0  0  0
    3.7050   55.2965   21.6359 H   0  0  0  0  0  0
    2.1775   52.1880   22.6019 H   0  0  0  0  0  0
    1.3823   53.0103   21.2548 H   0  0  0  0  0  0
    2.8078   49.8484   22.4362 H   0  0  0  0  0  0
    2.6013   47.6970   21.2606 H   0  0  0  0  0  0
    1.2837   51.9101   18.9485 H   0  0  0  0  0  0
    2.2767   48.0805   16.7719 H   0  0  0  0  0  0
    0.5699   47.6048   16.8437 H   0  0  0  0  0  0
    4.0256   52.5365   19.3208 H   0  0  0  0  0  0
    2.7045   53.6967   19.3923 H   0  0  0  0  0  0
    6.1985   54.0210   20.7405 H   0  0  0  0  0  0
    7.1529   57.4734   18.4199 H   0  0  0  0  0  0
    5.0457   57.2396   17.1943 H   0  0  0  0  0  0
    3.1404   55.9986   16.5702 H   0  0  0  0  0  0
    2.9529   54.3568   17.1512 H   0  0  0  0  0  0
    2.2455   55.6909   18.0689 H   0  0  0  0  0  0
    8.5095   54.8973   20.6861 H   0  0  0  0  0  0
    8.8799   56.3666   19.8196 H   0  0  0  0  0  0
    7.9875   56.4552   21.3517 H   0  0  0  0  0  0
    4.2989   52.6345   21.5592 H   0  0  0  0  0  0
  1  2  1  0  0  0
  1 41  1  0  0  0
  1 42  1  0  0  0
  1 43  1  0  0  0
  2  3  1  0  0  0
  2 44  1  0  0  0
  2 45  1  0  0  0
  3  4  1  0  0  0
  4  5  2  0  0  0
  4  6  1  0  0  0
  6  7  1  0  0  0
  6 12  1  0  0  0
  6  8  1  0  0  0
  8  9  1  0  0  0
  8 46  1  0  0  0
  8 47  1  0  0  0
  9 10  1  0  0  0
  9 48  1  0  0  0
  9 49  1  0  0  0
 10 11  1  0  0  0
 10 50  1  0  0  0
 10 51  1  0  0  0
 11 12  1  0  0  0
 11 13  1  0  0  0
 12 52  1  0  0  0
 12 53  1  0  0  0
 13 14  2  0  0  0
 13 15  1  0  0  0
 15 19  1  0  0  0
 15 16  2  0  0  0
 16 17  1  0  0  0
 16 54  1  0  0  0
 17 18  1  0  0  0
 18 19  2  0  0  0
 18 20  1  0  0  0
 20 21  1  0  0  0
 20 55  1  0  0  0
 20 56  1  0  0  0
 21 22  1  0  0  0
 21 32  1  0  0  0
 21 75  1  0  0  0
 22 23  1  0  0  0
 22 57  1  0  0  0
 22 58  1  0  0  0
 23 28  2  0  0  0
 23 24  1  0  0  0
 24 25  2  0  0  0
 24 59  1  0  0  0
 25 26  1  0  0  0
 25 60  1  0  0  0
 26 31  1  0  0  0
 26 27  2  0  0  0
 27 28  1  0  0  0
 27 29  1  0  0  0
 28 61  1  0  0  0
 29 30  1  0  0  0
 30 31  1  0  0  0
 30 62  1  0  0  0
 30 63  1  0  0  0
 32 33  1  0  0  0
 32 64  1  0  0  0
 32 65  1  0  0  0
 33 38  2  0  0  0
 33 34  1  0  0  0
 34 35  2  0  0  0
 34 66  1  0  0  0
 35 36  1  0  0  0
 35 40  1  0  0  0
 36 37  2  0  0  0
 36 67  1  0  0  0
 37 38  1  0  0  0
 37 68  1  0  0  0
 38 39  1  0  0  0
 39 69  1  0  0  0
 39 70  1  0  0  0
 39 71  1  0  0  0
 40 72  1  0  0  0
 40 73  1  0  0  0
 40 74  1  0  0  0
M  CHG  1  21   1
M  END
> <i_i_glide_confnum>
47

> <i_i_glide_lignum>
5696

> <i_i_glide_posenum>
88

> <i_i_glide_rotatable_bonds>
11

> <i_m_Source_File_Index>
3575

> <b_m_subgroup_collapsed>
0

> <r_i_docking_score>
-5.87754

> <r_i_glide_ecoul>
-4.20985

> <r_i_glide_eff_state_penalty>
0

> <r_i_glide_einternal>
10.6264

> <r_i_glide_emodel>
-65.6978

> <r_i_glide_energy>
-51.2348

> <r_i_glide_erotb>
0.649897

> <r_i_glide_esite>
-0.0760614

> <r_i_glide_evdw>
-47.0249

> <r_i_glide_gscore>
-5.87754

> <r_i_glide_hbond>
-0.222518

> <r_i_glide_ligand_efficiency>
-0.150706

> <r_i_glide_ligand_efficiency_ln>
-1.26031

> <r_i_glide_ligand_efficiency_sa>
-0.511076

> <r_i_glide_lipo>
-2.17123

> <r_i_glide_metal>
0

> <r_i_glide_rewards>
-1.0749

> <s_i_glide_gridfile>
wee1_glide-grid

> <s_m_Source_File>
wee1_decoys_glide_SP.sdf

> <s_m_Source_Path>
/Users/zhangxujun/Desktop

> <s_m_entry_id>
3850

> <s_m_entry_name>
wee1_decoys_glide_SP.3575

> <s_m_subgroup_title>
wee1_decoys_glide_SP

> <s_m_subgroupid>
wee1_decoys_glide_SP


$$$$
