ZINC02618592_2994
                    3D
 Schrodinger Suite 2024-2.
 56 59  0  0  1  0            999 V2000
    6.4808   53.6108   27.4534 C   0  0  0  0  0  0
    6.3523   54.7545   26.6182 O   0  0  0  0  0  0
    5.8262   54.4969   25.3750 C   0  0  0  0  0  0
    6.7033   54.4064   24.2976 C   0  0  0  0  0  0
    6.2240   54.1893   23.0078 C   0  0  0  0  0  0
    4.8499   54.0625   22.7666 C   0  0  0  0  0  0
    3.9739   54.1593   23.8562 C   0  0  0  0  0  0
    4.4462   54.3463   25.1680 C   0  0  0  0  0  0
    3.6143   54.4073   26.2691 O   0  0  0  0  0  0
    2.3783   53.6974   26.2231 C   0  0  0  0  0  0
    4.2941   53.9430   21.3312 C   0  0  1  0  0  0
    3.2948   54.3814   21.3358 H   0  0  0  0  0  0
    5.1045   54.6780   20.2789 C   0  0  0  0  0  0
    5.5043   53.8144   19.3387 C   0  0  0  0  0  0
    5.0796   52.5428   19.6859 N   0  0  0  0  0  0
    4.2107   52.5743   20.7919 N   0  0  0  0  0  0
    3.3289   51.5785   21.0706 C   0  0  0  0  0  0
    3.3487   50.4966   20.4814 O   0  0  0  0  0  0
    2.2733   51.8277   22.1676 C   0  0  0  0  0  0
    1.3464   50.7396   22.2673 O   0  0  0  0  0  0
    0.6613   50.5028   23.4229 C   0  0  0  0  0  0
    0.8151   51.1639   24.4545 O   0  0  0  0  0  0
   -0.2619   49.3277   23.3383 C   0  0  0  0  0  0
   -0.6976   48.8148   22.1071 C   0  0  0  0  0  0
   -1.5914   47.7439   22.0627 C   0  0  0  0  0  0
   -2.0659   47.1698   23.2420 C   0  0  0  0  0  0
   -1.6412   47.6747   24.4788 C   0  0  0  0  0  0
   -0.7435   48.7433   24.5204 C   0  0  0  0  0  0
   -2.0964   47.1339   25.6827 N   0  0  0  0  0  0
   -3.1630   45.8332   23.1334 Cl  0  0  0  0  0  0
    6.1845   54.0802   18.0827 C   0  0  0  0  0  0
    6.1359   55.2651   17.3500 C   0  0  0  0  0  0
    6.8967   55.2261   16.1763 C   0  0  0  0  0  0
    7.5307   54.0055   15.9945 C   0  0  0  0  0  0
    7.1833   52.8973   17.2817 S   0  0  0  0  0  0
    6.8616   53.9128   28.4299 H   0  0  0  0  0  0
    5.5271   53.1028   27.6075 H   0  0  0  0  0  0
    7.1900   52.8968   27.0317 H   0  0  0  0  0  0
    7.7614   54.5039   24.4763 H   0  0  0  0  0  0
    6.9270   54.1482   22.1913 H   0  0  0  0  0  0
    2.9118   54.1269   23.6754 H   0  0  0  0  0  0
    1.8937   53.7623   27.1956 H   0  0  0  0  0  0
    1.6826   54.0983   25.4873 H   0  0  0  0  0  0
    2.5434   52.6406   26.0081 H   0  0  0  0  0  0
    5.2487   55.7461   20.2817 H   0  0  0  0  0  0
    4.9025   51.7189   19.0996 H   0  0  0  0  0  0
    1.7052   52.7204   21.8993 H   0  0  0  0  0  0
    2.7632   52.0026   23.1197 H   0  0  0  0  0  0
   -0.3528   49.2388   21.1737 H   0  0  0  0  0  0
   -1.9148   47.3583   21.1066 H   0  0  0  0  0  0
   -0.4274   49.1177   25.4853 H   0  0  0  0  0  0
   -1.7839   47.5430   26.5670 H   0  0  0  0  0  0
   -2.8800   46.5016   25.6754 H   0  0  0  0  0  0
    5.5678   56.1308   17.6565 H   0  0  0  0  0  0
    6.9786   56.0560   15.4872 H   0  0  0  0  0  0
    8.1722   53.7072   15.1789 H   0  0  0  0  0  0
  1  2  1  0  0  0
  1 36  1  0  0  0
  1 37  1  0  0  0
  1 38  1  0  0  0
  2  3  1  0  0  0
  3  8  2  0  0  0
  3  4  1  0  0  0
  4  5  2  0  0  0
  4 39  1  0  0  0
  5  6  1  0  0  0
  5 40  1  0  0  0
  6  7  2  0  0  0
  6 11  1  0  0  0
  7  8  1  0  0  0
  7 41  1  0  0  0
  8  9  1  0  0  0
  9 10  1  0  0  0
 10 42  1  0  0  0
 10 43  1  0  0  0
 10 44  1  0  0  0
 11 12  1  0  0  0
 11 16  1  0  0  0
 11 13  1  0  0  0
 13 14  2  0  0  0
 13 45  1  0  0  0
 14 15  1  0  0  0
 14 31  1  0  0  0
 15 16  1  0  0  0
 15 46  1  0  0  0
 16 17  1  0  0  0
 17 18  2  0  0  0
 17 19  1  0  0  0
 19 20  1  0  0  0
 19 47  1  0  0  0
 19 48  1  0  0  0
 20 21  1  0  0  0
 21 22  2  0  0  0
 21 23  1  0  0  0
 23 28  2  0  0  0
 23 24  1  0  0  0
 24 25  2  0  0  0
 24 49  1  0  0  0
 25 26  1  0  0  0
 25 50  1  0  0  0
 26 27  2  0  0  0
 26 30  1  0  0  0
 27 28  1  0  0  0
 27 29  1  0  0  0
 28 51  1  0  0  0
 29 52  1  0  0  0
 29 53  1  0  0  0
 31 35  1  0  0  0
 31 32  2  0  0  0
 32 33  1  0  0  0
 32 54  1  0  0  0
 33 34  2  0  0  0
 33 55  1  0  0  0
 34 35  1  0  0  0
 34 56  1  0  0  0
M  END
> <i_i_glide_confnum>
99

> <i_i_glide_lignum>
2995

> <i_i_glide_posenum>
235

> <i_i_glide_rotatable_bonds>
9

> <i_m_Source_File_Index>
762

> <b_m_subgroup_collapsed>
0

> <r_i_docking_score>
-5.83574

> <r_i_glide_ecoul>
-8.64697

> <r_i_glide_eff_state_penalty>
0

> <r_i_glide_einternal>
14.884

> <r_i_glide_emodel>
-63.6633

> <r_i_glide_energy>
-51.2008

> <r_i_glide_erotb>
0.571735

> <r_i_glide_esite>
-0.174889

> <r_i_glide_evdw>
-42.5538

> <r_i_glide_gscore>
-5.83574

> <r_i_glide_hbond>
-0.328754

> <r_i_glide_ligand_efficiency>
-0.171639

> <r_i_glide_ligand_efficiency_ln>
-1.28928

> <r_i_glide_ligand_efficiency_sa>
-0.556045

> <r_i_glide_lipo>
-2.38056

> <r_i_glide_metal>
0

> <r_i_glide_rewards>
-0.0985385

> <s_i_glide_gridfile>
wee1_glide-grid

> <s_m_Source_File>
wee1_decoys_glide_SP.sdf

> <s_m_Source_Path>
/Users/zhangxujun/Desktop

> <s_m_entry_id>
1037

> <s_m_entry_name>
wee1_decoys_glide_SP.762

> <s_m_subgroup_title>
wee1_decoys_glide_SP

> <s_m_subgroupid>
wee1_decoys_glide_SP


$$$$
