ZINC36217383_5402
                    3D
 Schrodinger Suite 2024-2.
 62 66  0  0  1  0            999 V2000
    0.9751   53.3089   17.3816 C   0  0  0  0  0  0
    1.6604   54.5560   16.8568 C   0  0  0  0  0  0
    1.0018   55.7868   16.8812 C   0  0  0  0  0  0
    1.6492   56.9364   16.4335 C   0  0  0  0  0  0
    2.9588   56.8621   15.9549 C   0  0  0  0  0  0
    3.6276   55.6343   15.9265 C   0  0  0  0  0  0
    2.9710   54.4831   16.3749 C   0  0  0  0  0  0
    5.0569   55.5533   15.4074 C   0  0  0  0  0  0
    6.0258   55.1443   16.4257 N   0  0  0  0  0  0
    6.3403   55.9441   17.5985 C   0  0  1  0  0  0
    5.4284   56.2755   18.0999 H   0  0  0  0  0  0
    7.1334   54.9721   18.4637 C   0  0  2  0  0  0
    8.1982   55.2159   18.4723 H   0  0  0  0  0  0
    7.0384   53.7363   17.7810 O   0  0  0  0  0  0
    6.4563   53.8274   16.5696 C   0  0  0  0  0  0
    6.3518   52.8701   15.8052 O   0  0  0  0  0  0
    6.6691   54.8965   19.9130 C   0  0  0  0  0  0
    7.4381   55.4739   20.9237 C   0  0  0  0  0  0
    7.0607   55.3210   22.2548 C   0  0  0  0  0  0
    5.9098   54.5930   22.5932 C   0  0  0  0  0  0
    5.1176   54.0575   21.5727 C   0  0  0  0  0  0
    5.4998   54.2041   20.2410 C   0  0  0  0  0  0
    5.4629   54.3756   23.9119 N   0  0  0  0  0  0
    6.0307   54.7087   25.0938 C   0  0  0  0  0  0
    7.1043   55.2947   25.2459 O   0  0  0  0  0  0
    5.2572   54.2899   26.2340 C   0  0  0  0  0  0
    3.8762   54.0998   26.3419 C   0  0  0  0  0  0
    3.4701   53.7504   27.6340 C   0  0  0  0  0  0
    4.5265   53.6980   28.5305 C   0  0  0  0  0  0
    6.0369   54.0965   27.7812 S   0  0  0  0  0  0
    7.2084   57.1765   17.2775 C   0  0  0  0  0  0
    7.9121   57.2195   16.2672 O   0  0  0  0  0  0
    7.1654   58.1683   18.1800 N   0  0  0  0  0  0
    7.9045   59.4312   18.0786 C   0  0  0  0  0  0
    9.4125   59.2932   18.2247 C   0  0  0  0  0  0
   10.2854   58.2413   18.4805 C   0  0  0  0  0  0
   11.5771   58.7658   18.4866 C   0  0  0  0  0  0
   11.4434   60.1187   18.2306 C   0  0  0  0  0  0
   10.1315   60.4391   18.0798 O   0  0  0  0  0  0
    0.1883   53.5592   18.0947 H   0  0  0  0  0  0
    0.5497   52.7279   16.5635 H   0  0  0  0  0  0
    1.6896   52.6785   17.9151 H   0  0  0  0  0  0
   -0.0050   55.8593   17.2626 H   0  0  0  0  0  0
    1.1443   57.8926   16.4671 H   0  0  0  0  0  0
    3.4514   57.7639   15.6181 H   0  0  0  0  0  0
    3.4815   53.5309   16.3536 H   0  0  0  0  0  0
    5.3602   56.5213   15.0075 H   0  0  0  0  0  0
    5.0791   54.8635   14.5631 H   0  0  0  0  0  0
    8.3435   56.0137   20.6841 H   0  0  0  0  0  0
    7.6778   55.7887   23.0032 H   0  0  0  0  0  0
    4.2171   53.5068   21.8018 H   0  0  0  0  0  0
    4.8967   53.7554   19.4642 H   0  0  0  0  0  0
    4.5946   53.8710   23.9794 H   0  0  0  0  0  0
    3.1835   54.2074   25.5188 H   0  0  0  0  0  0
    2.4421   53.5508   27.9023 H   0  0  0  0  0  0
    4.4911   53.4563   29.5819 H   0  0  0  0  0  0
    6.4425   58.1313   18.8810 H   0  0  0  0  0  0
    7.6671   59.8902   17.1158 H   0  0  0  0  0  0
    7.5040   60.0961   18.8426 H   0  0  0  0  0  0
   10.0138   57.2071   18.6392 H   0  0  0  0  0  0
   12.4960   58.2205   18.6499 H   0  0  0  0  0  0
   12.1515   60.9274   18.1286 H   0  0  0  0  0  0
  1  2  1  0  0  0
  1 40  1  0  0  0
  1 41  1  0  0  0
  1 42  1  0  0  0
  2  7  2  0  0  0
  2  3  1  0  0  0
  3  4  2  0  0  0
  3 43  1  0  0  0
  4  5  1  0  0  0
  4 44  1  0  0  0
  5  6  2  0  0  0
  5 45  1  0  0  0
  6  7  1  0  0  0
  6  8  1  0  0  0
  7 46  1  0  0  0
  8  9  1  0  0  0
  8 47  1  0  0  0
  8 48  1  0  0  0
  9 15  1  0  0  0
  9 10  1  0  0  0
 10 11  1  0  0  0
 10 12  1  0  0  0
 10 31  1  0  0  0
 12 13  1  0  0  0
 12 14  1  0  0  0
 12 17  1  0  0  0
 14 15  1  0  0  0
 15 16  2  0  0  0
 17 22  2  0  0  0
 17 18  1  0  0  0
 18 19  2  0  0  0
 18 49  1  0  0  0
 19 20  1  0  0  0
 19 50  1  0  0  0
 20 21  2  0  0  0
 20 23  1  0  0  0
 21 22  1  0  0  0
 21 51  1  0  0  0
 22 52  1  0  0  0
 23 24  1  0  0  0
 23 53  1  0  0  0
 24 25  2  0  0  0
 24 26  1  0  0  0
 26 30  1  0  0  0
 26 27  2  0  0  0
 27 28  1  0  0  0
 27 54  1  0  0  0
 28 29  2  0  0  0
 28 55  1  0  0  0
 29 30  1  0  0  0
 29 56  1  0  0  0
 31 32  2  0  0  0
 31 33  1  0  0  0
 33 34  1  0  0  0
 33 57  1  0  0  0
 34 35  1  0  0  0
 34 58  1  0  0  0
 34 59  1  0  0  0
 35 39  1  0  0  0
 35 36  2  0  0  0
 36 37  1  0  0  0
 36 60  1  0  0  0
 37 38  2  0  0  0
 37 61  1  0  0  0
 38 39  1  0  0  0
 38 62  1  0  0  0
M  END
> <i_i_glide_confnum>
225

> <i_i_glide_lignum>
5403

> <i_i_glide_posenum>
144

> <i_i_glide_rotatable_bonds>
10

> <i_m_Source_File_Index>
3741

> <b_m_subgroup_collapsed>
0

> <r_i_docking_score>
-5.29542

> <r_i_glide_ecoul>
-4.09045

> <r_i_glide_eff_state_penalty>
0

> <r_i_glide_einternal>
3.05541

> <r_i_glide_emodel>
-63.164

> <r_i_glide_energy>
-48.4092

> <r_i_glide_erotb>
0.694746

> <r_i_glide_esite>
-0.0528599

> <r_i_glide_evdw>
-44.3188

> <r_i_glide_gscore>
-5.29542

> <r_i_glide_hbond>
-0.43177

> <r_i_glide_ligand_efficiency>
-0.14312

> <r_i_glide_ligand_efficiency_ln>
-1.14845

> <r_i_glide_ligand_efficiency_sa>
-0.476906

> <r_i_glide_lipo>
-2.18375

> <r_i_glide_metal>
0

> <r_i_glide_rewards>
-0.492285

> <s_i_glide_gridfile>
wee1_glide-grid

> <s_m_Source_File>
wee1_decoys_glide_SP.sdf

> <s_m_Source_Path>
/Users/zhangxujun/Desktop

> <s_m_entry_id>
4016

> <s_m_entry_name>
wee1_decoys_glide_SP.3741

> <s_m_subgroup_title>
wee1_decoys_glide_SP

> <s_m_subgroupid>
wee1_decoys_glide_SP


$$$$
