ZINC38556197_2508
                    3D
 Schrodinger Suite 2024-2.
 47 50  0  0  1  0            999 V2000
    4.0507   52.7287   20.7986 C   0  0  0  0  0  0
    3.2143   51.8500   20.1167 C   0  0  0  0  0  0
    1.9660   51.5372   20.6439 C   0  0  0  0  0  0
    1.5349   52.0970   21.8565 C   0  0  0  0  0  0
    2.3918   52.9839   22.5262 C   0  0  0  0  0  0
    3.6436   53.2990   22.0017 C   0  0  0  0  0  0
    0.2046   51.7505   22.4287 C   0  0  0  0  0  0
   -0.3491   52.2278   23.5489 C   0  0  0  0  0  0
   -1.6401   51.4689   23.6663 C   0  0  1  0  0  0
   -2.4918   52.1446   23.5887 H   0  0  0  0  0  0
   -1.6484   50.6537   22.4820 N   0  0  0  0  0  0
   -0.5851   50.8378   21.8154 N   0  0  0  0  0  0
   -1.7797   50.5770   24.9485 C   0  0  1  0  0  0
   -2.6357   49.9153   24.8067 H   0  0  0  0  0  0
   -0.5962   49.7495   25.1706 N   0  0  0  0  0  0
   -0.0968   50.0709   26.4886 N   0  0  0  0  0  0
   -0.6960   51.3413   26.8232 C   0  0  1  0  0  0
   -0.1144   52.1377   26.3567 H   0  0  0  0  0  0
   -2.0056   51.2788   26.2096 N   0  0  0  0  0  0
   -2.7555   52.5106   26.1626 N   0  0  0  0  0  0
   -0.6932   51.6969   28.6051 S   0  0  0  0  0  0
    1.0888   51.9494   28.9023 C   0  0  0  0  0  0
    1.5167   53.3705   28.4938 C   0  0  0  0  0  0
    0.7080   54.3008   28.4811 O   0  0  0  0  0  0
    2.9150   53.5288   28.0032 C   0  0  0  0  0  0
    3.1020   54.0948   26.7338 C   0  0  0  0  0  0
    4.3820   54.3423   26.2415 C   0  0  0  0  0  0
    5.4943   54.0414   27.0215 C   0  0  0  0  0  0
    5.3235   53.4894   28.2893 C   0  0  0  0  0  0
    4.0443   53.2310   28.7910 C   0  0  0  0  0  0
    3.9042   52.4978   30.5513 Br  0  0  0  0  0  0
    5.0184   52.9710   20.3841 H   0  0  0  0  0  0
    3.5250   51.4093   19.1794 H   0  0  0  0  0  0
    1.3382   50.8499   20.0961 H   0  0  0  0  0  0
    2.0986   53.4345   23.4619 H   0  0  0  0  0  0
    4.2941   53.9842   22.5250 H   0  0  0  0  0  0
    0.0155   52.9509   24.2610 H   0  0  0  0  0  0
   -0.8418   48.7698   25.2235 H   0  0  0  0  0  0
   -0.6041   49.4300   27.1057 H   0  0  0  0  0  0
   -3.7165   52.2288   26.0275 H   0  0  0  0  0  0
   -2.7498   52.8459   27.1158 H   0  0  0  0  0  0
    1.6504   51.2081   28.3332 H   0  0  0  0  0  0
    1.2940   51.7917   29.9591 H   0  0  0  0  0  0
    2.2527   54.3428   26.1133 H   0  0  0  0  0  0
    4.5105   54.7697   25.2578 H   0  0  0  0  0  0
    6.4884   54.2313   26.6454 H   0  0  0  0  0  0
    6.1971   53.2680   28.8817 H   0  0  0  0  0  0
  1  6  2  0  0  0
  1  2  1  0  0  0
  1 32  1  0  0  0
  2  3  2  0  0  0
  2 33  1  0  0  0
  3  4  1  0  0  0
  3 34  1  0  0  0
  4  5  2  0  0  0
  4  7  1  0  0  0
  5  6  1  0  0  0
  5 35  1  0  0  0
  6 36  1  0  0  0
  7 12  1  0  0  0
  7  8  2  0  0  0
  8  9  1  0  0  0
  8 37  1  0  0  0
  9 10  1  0  0  0
  9 11  1  0  0  0
  9 13  1  0  0  0
 11 12  2  0  0  0
 13 14  1  0  0  0
 13 19  1  0  0  0
 13 15  1  0  0  0
 15 16  1  0  0  0
 15 38  1  0  0  0
 16 17  1  0  0  0
 16 39  1  0  0  0
 17 18  1  0  0  0
 17 19  1  0  0  0
 17 21  1  0  0  0
 19 20  1  0  0  0
 20 40  1  0  0  0
 20 41  1  0  0  0
 21 22  1  0  0  0
 22 23  1  0  0  0
 22 42  1  0  0  0
 22 43  1  0  0  0
 23 24  2  0  0  0
 23 25  1  0  0  0
 25 30  2  0  0  0
 25 26  1  0  0  0
 26 27  2  0  0  0
 26 44  1  0  0  0
 27 28  1  0  0  0
 27 45  1  0  0  0
 28 29  2  0  0  0
 28 46  1  0  0  0
 29 30  1  0  0  0
 29 47  1  0  0  0
 30 31  1  0  0  0
M  END
> <i_i_glide_confnum>
226

> <i_i_glide_lignum>
2509

> <i_i_glide_posenum>
259

> <i_i_glide_rotatable_bonds>
6

> <i_m_Source_File_Index>
890

> <b_m_subgroup_collapsed>
0

> <r_i_docking_score>
-5.15359

> <r_i_glide_ecoul>
-2.51806

> <r_i_glide_eff_state_penalty>
0

> <r_i_glide_einternal>
2.83372

> <r_i_glide_emodel>
-57.8165

> <r_i_glide_energy>
-44.1104

> <r_i_glide_erotb>
0.476744

> <r_i_glide_esite>
-0.239162

> <r_i_glide_evdw>
-41.5923

> <r_i_glide_gscore>
-5.15359

> <r_i_glide_hbond>
-0.16

> <r_i_glide_ligand_efficiency>
-0.184057

> <r_i_glide_ligand_efficiency_ln>
-1.1896

> <r_i_glide_ligand_efficiency_sa>
-0.558905

> <r_i_glide_lipo>
-2.2109

> <r_i_glide_metal>
0

> <r_i_glide_rewards>
-0.562948

> <s_i_glide_gridfile>
wee1_glide-grid

> <s_m_Source_File>
wee1_decoys_glide_SP.sdf

> <s_m_Source_Path>
/Users/zhangxujun/Desktop

> <s_m_entry_id>
1165

> <s_m_entry_name>
wee1_decoys_glide_SP.890

> <s_m_subgroup_title>
wee1_decoys_glide_SP

> <s_m_subgroupid>
wee1_decoys_glide_SP


$$$$
