ZINC35863310_1186
                    3D
 Schrodinger Suite 2024-2.
 70 74  0  0  1  0            999 V2000
   -0.5863   51.7491   30.4874 C   0  0  0  0  0  0
   -1.0311   51.7765   29.0230 C   0  0  0  0  0  0
   -0.0956   52.6893   28.1986 C   0  0  0  0  0  0
   -0.0955   53.8881   28.4817 O   0  0  0  0  0  0
    0.6237   52.1966   27.1548 N   0  0  0  0  0  0
    0.8733   50.7531   27.0205 C   0  0  0  0  0  0
    0.4559   50.3833   25.5900 C   0  0  0  0  0  0
    1.1044   51.2695   24.5360 C   0  0  0  0  0  0
    1.3097   50.7624   23.2525 C   0  0  0  0  0  0
    1.9678   51.5042   22.2825 C   0  0  0  0  0  0
    2.3907   52.8097   22.5564 C   0  0  0  0  0  0
    2.1061   53.3406   23.8185 C   0  0  0  0  0  0
    1.5574   52.5709   24.8646 C   0  0  0  0  0  0
    1.5364   53.0691   26.3481 C   0  0  2  0  0  0
    1.1044   54.0677   26.3421 H   0  0  0  0  0  0
    2.9384   53.3341   26.9909 C   0  0  0  0  0  0
    3.2413   52.8680   28.2852 C   0  0  0  0  0  0
    4.4780   53.1093   28.8816 C   0  0  0  0  0  0
    5.4474   53.8426   28.2055 C   0  0  0  0  0  0
    5.1715   54.3385   26.9366 C   0  0  0  0  0  0
    3.9308   54.0967   26.3449 C   0  0  0  0  0  0
    6.1060   55.0630   26.2791 F   0  0  0  0  0  0
    3.1045   53.6018   21.6686 O   0  0  0  0  0  0
    3.8111   52.9682   20.5911 C   0  0  0  0  0  0
    4.2858   53.9747   19.5598 C   0  0  0  0  0  0
    4.0847   54.0797   18.1931 C   0  0  0  0  0  0
    4.8085   55.1850   17.7523 C   0  0  0  0  0  0
    5.3856   55.7673   18.8782 C   0  0  0  0  0  0
    5.1044   54.9844   19.9649 O   0  0  0  0  0  0
    6.3051   56.8780   19.0456 C   0  0  0  0  0  0
    7.0296   56.8967   20.0454 O   0  0  0  0  0  0
    6.3730   57.8355   18.0691 N   0  0  0  0  0  0
    5.1948   58.2709   17.2774 C   0  0  0  0  0  0
    5.6418   58.5839   15.8373 C   0  0  0  0  0  0
    6.7043   59.6942   15.8792 N   0  3  0  0  0  0
    7.9180   59.2277   16.7017 C   0  0  2  0  0  0
    8.3940   58.3966   16.1750 H   0  0  0  0  0  0
    7.4797   58.8194   18.1346 C   0  0  0  0  0  0
    8.8904   60.4173   16.7128 C   0  0  0  0  0  0
   -1.0487   50.9079   31.0078 H   0  0  0  0  0  0
    0.4969   51.6967   30.6026 H   0  0  0  0  0  0
   -0.8956   52.6532   31.0104 H   0  0  0  0  0  0
   -2.0636   52.0967   28.9517 H   0  0  0  0  0  0
   -1.1424   50.7671   28.6552 H   0  0  0  0  0  0
    1.9044   50.5165   27.2817 H   0  0  0  0  0  0
    0.3188   50.0967   27.6776 H   0  0  0  0  0  0
    0.6994   49.3342   25.4120 H   0  0  0  0  0  0
   -0.6302   50.4443   25.5050 H   0  0  0  0  0  0
    0.9881   49.7587   23.0154 H   0  0  0  0  0  0
    2.1294   51.0326   21.3276 H   0  0  0  0  0  0
    2.3798   54.3681   23.9840 H   0  0  0  0  0  0
    2.5288   52.2921   28.8531 H   0  0  0  0  0  0
    4.6850   52.7206   29.8672 H   0  0  0  0  0  0
    6.4068   54.0346   28.6640 H   0  0  0  0  0  0
    3.7841   54.5368   25.3789 H   0  0  0  0  0  0
    4.6729   52.4368   20.9971 H   0  0  0  0  0  0
    3.1907   52.2516   20.0557 H   0  0  0  0  0  0
    3.5049   53.4023   17.5828 H   0  0  0  0  0  0
    4.9025   55.5112   16.7271 H   0  0  0  0  0  0
    4.3409   57.5962   17.3082 H   0  0  0  0  0  0
    4.8225   59.2124   17.6817 H   0  0  0  0  0  0
    6.0638   57.7234   15.3143 H   0  0  0  0  0  0
    4.8211   58.9947   15.2458 H   0  0  0  0  0  0
    6.3076   60.5182   16.3412 H   0  0  0  0  0  0
    7.0453   59.6967   18.6131 H   0  0  0  0  0  0
    8.3373   58.4873   18.7240 H   0  0  0  0  0  0
    9.7945   60.1768   17.2731 H   0  0  0  0  0  0
    9.2031   60.6912   15.7038 H   0  0  0  0  0  0
    8.4405   61.3000   17.1713 H   0  0  0  0  0  0
    6.9789   59.9725   14.9482 H   0  0  0  0  0  0
  1  2  1  0  0  0
  1 40  1  0  0  0
  1 41  1  0  0  0
  1 42  1  0  0  0
  2  3  1  0  0  0
  2 43  1  0  0  0
  2 44  1  0  0  0
  3  4  2  0  0  0
  3  5  1  0  0  0
  5 14  1  0  0  0
  5  6  1  0  0  0
  6  7  1  0  0  0
  6 45  1  0  0  0
  6 46  1  0  0  0
  7  8  1  0  0  0
  7 47  1  0  0  0
  7 48  1  0  0  0
  8 13  2  0  0  0
  8  9  1  0  0  0
  9 10  2  0  0  0
  9 49  1  0  0  0
 10 11  1  0  0  0
 10 50  1  0  0  0
 11 12  2  0  0  0
 11 23  1  0  0  0
 12 13  1  0  0  0
 12 51  1  0  0  0
 13 14  1  0  0  0
 14 15  1  0  0  0
 14 16  1  0  0  0
 16 21  2  0  0  0
 16 17  1  0  0  0
 17 18  2  0  0  0
 17 52  1  0  0  0
 18 19  1  0  0  0
 18 53  1  0  0  0
 19 20  2  0  0  0
 19 54  1  0  0  0
 20 21  1  0  0  0
 20 22  1  0  0  0
 21 55  1  0  0  0
 23 24  1  0  0  0
 24 25  1  0  0  0
 24 56  1  0  0  0
 24 57  1  0  0  0
 25 29  1  0  0  0
 25 26  2  0  0  0
 26 27  1  0  0  0
 26 58  1  0  0  0
 27 28  2  0  0  0
 27 59  1  0  0  0
 28 29  1  0  0  0
 28 30  1  0  0  0
 30 31  2  0  0  0
 30 32  1  0  0  0
 32 38  1  0  0  0
 32 33  1  0  0  0
 33 34  1  0  0  0
 33 60  1  0  0  0
 33 61  1  0  0  0
 34 35  1  0  0  0
 34 62  1  0  0  0
 34 63  1  0  0  0
 35 36  1  0  0  0
 35 64  1  0  0  0
 35 70  1  0  0  0
 36 37  1  0  0  0
 36 38  1  0  0  0
 36 39  1  0  0  0
 38 65  1  0  0  0
 38 66  1  0  0  0
 39 67  1  0  0  0
 39 68  1  0  0  0
 39 69  1  0  0  0
M  CHG  1  35   1
M  END
> <i_i_glide_confnum>
434

> <i_i_glide_lignum>
1187

> <i_i_glide_posenum>
356

> <i_i_glide_rotatable_bonds>
8

> <i_m_Source_File_Index>
1118

> <b_m_subgroup_collapsed>
0

> <r_i_docking_score>
-6.47907

> <r_i_glide_ecoul>
-9.14926

> <r_i_glide_eff_state_penalty>
0

> <r_i_glide_einternal>
10.6748

> <r_i_glide_emodel>
-63.9618

> <r_i_glide_energy>
-48.6353

> <r_i_glide_erotb>
0.558104

> <r_i_glide_esite>
-0.127212

> <r_i_glide_evdw>
-39.4861

> <r_i_glide_gscore>
-6.47907

> <r_i_glide_hbond>
-0.548416

> <r_i_glide_ligand_efficiency>
-0.17511

> <r_i_glide_ligand_efficiency_ln>
-1.40516

> <r_i_glide_ligand_efficiency_sa>
-0.583505

> <r_i_glide_lipo>
-2.53826

> <r_i_glide_metal>
0

> <r_i_glide_rewards>
-0.476594

> <s_i_glide_gridfile>
wee1_glide-grid

> <s_m_Source_File>
wee1_decoys_glide_SP.sdf

> <s_m_Source_Path>
/Users/zhangxujun/Desktop

> <s_m_entry_id>
1393

> <s_m_entry_name>
wee1_decoys_glide_SP.1118

> <s_m_subgroup_title>
wee1_decoys_glide_SP

> <s_m_subgroupid>
wee1_decoys_glide_SP


$$$$
