ZINC35685008_2741
                    3D
 Schrodinger Suite 2024-2.
 48 51  0  0  1  0            999 V2000
    5.1311   53.3348   28.8815 C   0  0  0  0  0  0
    3.7335   53.6540   28.4329 C   0  0  0  0  0  0
    3.2897   54.0476   27.1484 C   0  0  0  0  0  0
    1.9749   54.0945   27.0922 N   0  0  0  0  0  0
    1.5368   53.6365   28.2675 N   0  0  0  0  0  0
    2.5720   53.3792   29.1441 C   0  0  0  0  0  0
    2.3760   52.8720   30.4041 N   0  0  0  0  0  0
    1.1861   52.6705   30.8116 C   0  0  0  0  0  0
   -0.0955   52.9623   30.0170 C   0  0  0  0  0  0
    0.1850   53.0760   28.4619 C   0  0  2  0  0  0
   -0.5412   53.6965   27.9399 H   0  0  0  0  0  0
    0.1298   51.6920   27.7633 C   0  0  0  0  0  0
    1.0484   50.8968   27.9587 O   0  0  0  0  0  0
   -0.8973   51.4537   26.9167 N   0  0  0  0  0  0
   -1.0342   50.3598   26.0391 C   0  0  0  0  0  0
    0.0582   49.6747   25.4836 C   0  0  0  0  0  0
   -0.1462   48.6090   24.6127 C   0  0  0  0  0  0
   -1.4406   48.2139   24.2844 C   0  0  0  0  0  0
   -2.5487   48.8890   24.8228 C   0  0  0  0  0  0
   -2.3284   49.9694   25.6826 C   0  0  0  0  0  0
   -3.8670   48.5650   24.5637 O   0  0  0  0  0  0
   -4.1892   47.3606   23.8695 C   0  0  0  0  0  0
   -5.5160   47.2471   23.8629 F   0  0  0  0  0  0
   -3.7806   47.4020   22.6002 F   0  0  0  0  0  0
   -3.6978   46.2812   24.4836 F   0  0  0  0  0  0
    1.0100   52.1037   32.0491 O   0  0  0  0  0  0
    4.1152   54.2923   25.9135 C   0  0  0  0  0  0
    3.5741   54.0076   24.6509 C   0  0  0  0  0  0
    4.3624   54.0966   23.5067 C   0  0  0  0  0  0
    5.6906   54.4966   23.6140 C   0  0  0  0  0  0
    6.2290   54.8334   24.8521 C   0  0  0  0  0  0
    5.4427   54.7343   25.9985 C   0  0  0  0  0  0
    6.4576   54.5807   22.5044 F   0  0  0  0  0  0
    5.7429   52.9238   28.0782 H   0  0  0  0  0  0
    5.6448   54.2092   29.2814 H   0  0  0  0  0  0
    5.1049   52.5618   29.6510 H   0  0  0  0  0  0
   -0.8471   52.2001   30.2343 H   0  0  0  0  0  0
   -0.4947   53.9080   30.3805 H   0  0  0  0  0  0
   -1.6831   52.0830   26.9414 H   0  0  0  0  0  0
    1.0740   49.9529   25.7148 H   0  0  0  0  0  0
    0.7046   48.0880   24.2006 H   0  0  0  0  0  0
   -1.5597   47.3798   23.6112 H   0  0  0  0  0  0
   -3.1829   50.4810   26.1002 H   0  0  0  0  0  0
    0.0725   52.0661   32.2876 H   0  0  0  0  0  0
    2.5541   53.6649   24.5542 H   0  0  0  0  0  0
    3.9489   53.8507   22.5396 H   0  0  0  0  0  0
    7.2568   55.1578   24.9129 H   0  0  0  0  0  0
    5.8782   54.9908   26.9521 H   0  0  0  0  0  0
  1  2  1  0  0  0
  1 34  1  0  0  0
  1 35  1  0  0  0
  1 36  1  0  0  0
  2  6  2  0  0  0
  2  3  1  0  0  0
  3  4  2  0  0  0
  3 27  1  0  0  0
  4  5  1  0  0  0
  5 10  1  0  0  0
  5  6  1  0  0  0
  6  7  1  0  0  0
  7  8  2  0  0  0
  8  9  1  0  0  0
  8 26  1  0  0  0
  9 10  1  0  0  0
  9 37  1  0  0  0
  9 38  1  0  0  0
 10 11  1  0  0  0
 10 12  1  0  0  0
 12 13  2  0  0  0
 12 14  1  0  0  0
 14 15  1  0  0  0
 14 39  1  0  0  0
 15 20  2  0  0  0
 15 16  1  0  0  0
 16 17  2  0  0  0
 16 40  1  0  0  0
 17 18  1  0  0  0
 17 41  1  0  0  0
 18 19  2  0  0  0
 18 42  1  0  0  0
 19 20  1  0  0  0
 19 21  1  0  0  0
 20 43  1  0  0  0
 21 22  1  0  0  0
 22 23  1  0  0  0
 22 24  1  0  0  0
 22 25  1  0  0  0
 26 44  1  0  0  0
 27 32  2  0  0  0
 27 28  1  0  0  0
 28 29  2  0  0  0
 28 45  1  0  0  0
 29 30  1  0  0  0
 29 46  1  0  0  0
 30 31  2  0  0  0
 30 33  1  0  0  0
 31 32  1  0  0  0
 31 47  1  0  0  0
 32 48  1  0  0  0
M  END
> <i_i_glide_confnum>
14

> <i_i_glide_lignum>
2742

> <i_i_glide_posenum>
397

> <i_i_glide_rotatable_bonds>
7

> <i_m_Source_File_Index>
5317

> <b_m_subgroup_collapsed>
0

> <r_i_docking_score>
-6.60225

> <r_i_glide_ecoul>
-6.23008

> <r_i_glide_eff_state_penalty>
0

> <r_i_glide_einternal>
5.39983

> <r_i_glide_emodel>
-65.2099

> <r_i_glide_energy>
-48.8771

> <r_i_glide_erotb>
0.498225

> <r_i_glide_esite>
-0.165868

> <r_i_glide_evdw>
-42.647

> <r_i_glide_gscore>
-6.60225

> <r_i_glide_hbond>
-0.308726

> <r_i_glide_ligand_efficiency>
-0.20632

> <r_i_glide_ligand_efficiency_ln>
-1.47842

> <r_i_glide_ligand_efficiency_sa>
-0.655026

> <r_i_glide_lipo>
-2.45634

> <r_i_glide_metal>
0

> <r_i_glide_rewards>
-1.10268

> <s_i_glide_gridfile>
wee1_glide-grid

> <s_m_Source_File>
wee1_decoys_glide_SP.sdf

> <s_m_Source_Path>
/Users/zhangxujun/Desktop

> <s_m_entry_id>
5592

> <s_m_entry_name>
wee1_decoys_glide_SP.5317

> <s_m_subgroup_title>
wee1_decoys_glide_SP

> <s_m_subgroupid>
wee1_decoys_glide_SP


$$$$
