ZINC19961973_876
                    3D
 Schrodinger Suite 2024-2.
 72 75  0  0  1  0            999 V2000
    5.4112   54.4818   20.5063 C   0  0  0  0  0  0
    5.0792   54.3629   21.9835 C   0  0  0  0  0  0
    3.7634   54.1252   22.3733 C   0  0  0  0  0  0
    3.4289   54.0655   23.7225 C   0  0  0  0  0  0
    4.4111   54.2211   24.7193 C   0  0  0  0  0  0
    5.7456   54.4414   24.3230 C   0  0  0  0  0  0
    6.0690   54.5010   22.9603 C   0  0  0  0  0  0
    6.8575   54.6260   25.3500 C   0  0  0  0  0  0
    4.1370   54.1664   26.1080 N   0  0  0  0  0  0
    2.9770   53.9200   26.7515 C   0  0  0  0  0  0
    1.9084   53.6963   26.1907 O   0  0  0  0  0  0
    3.0217   53.9236   28.2891 C   0  0  0  0  0  0
    2.2212   52.7476   28.9318 C   0  0  1  0  0  0
    2.5796   51.8569   28.4213 H   0  0  0  0  0  0
    2.7546   52.4468   30.3632 C   0  0  0  0  0  0
    3.9069   52.0994   30.5945 O   0  0  0  0  0  0
    1.8587   52.4962   31.3712 N   0  0  0  0  0  0
    0.4325   52.8526   31.2601 C   0  0  0  0  0  0
    0.1503   53.6276   29.9543 C   0  0  0  0  0  0
    0.7353   52.8336   28.8669 N   0  0  0  0  0  0
   -0.0290   51.8763   28.2686 C   0  0  0  0  0  0
   -1.2170   51.6983   28.5507 O   0  0  0  0  0  0
    0.6235   50.9950   27.1898 C   0  0  0  0  0  0
   -0.3880   50.0649   26.4807 N   0  3  0  0  0  0
   -1.2550   50.8156   25.4400 C   0  0  0  0  0  0
   -2.1418   49.8076   24.6647 C   0  0  0  0  0  0
   -1.4206   48.6635   24.0803 N   0  0  0  0  0  0
   -0.5807   48.0026   25.0896 C   0  0  0  0  0  0
    0.4115   48.9687   25.7580 C   0  0  0  0  0  0
   -0.9733   48.6980   22.7689 C   0  0  0  0  0  0
   -1.5926   47.8754   21.8258 C   0  0  0  0  0  0
   -1.1129   47.8204   20.5191 C   0  0  0  0  0  0
   -0.0027   48.5711   20.1384 C   0  0  0  0  0  0
    0.5995   49.4249   21.0744 C   0  0  0  0  0  0
    0.1096   49.4942   22.3758 C   0  0  0  0  0  0
    0.4309   48.4113   18.8383 O   0  0  0  0  0  0
    1.6882   48.9607   18.4526 C   0  0  0  0  0  0
    4.7226   53.8906   19.9003 H   0  0  0  0  0  0
    6.4086   54.1129   20.2838 H   0  0  0  0  0  0
    5.3548   55.5211   20.1831 H   0  0  0  0  0  0
    2.9873   54.0171   21.6289 H   0  0  0  0  0  0
    2.3899   53.9024   23.9482 H   0  0  0  0  0  0
    7.0911   54.6817   22.6576 H   0  0  0  0  0  0
    6.9601   53.7295   25.9626 H   0  0  0  0  0  0
    7.8185   54.8336   24.8851 H   0  0  0  0  0  0
    6.6233   55.4576   26.0144 H   0  0  0  0  0  0
    4.9466   54.3132   26.6919 H   0  0  0  0  0  0
    4.0675   53.9068   28.6044 H   0  0  0  0  0  0
    2.6190   54.8800   28.6264 H   0  0  0  0  0  0
    2.2047   52.2602   32.2924 H   0  0  0  0  0  0
   -0.1554   51.9327   31.2830 H   0  0  0  0  0  0
    0.1458   53.4588   32.1203 H   0  0  0  0  0  0
   -0.8880   53.9033   29.7761 H   0  0  0  0  0  0
    0.6915   54.5738   29.9912 H   0  0  0  0  0  0
    1.1086   51.5360   26.3869 H   0  0  0  0  0  0
    1.3532   50.3440   27.6656 H   0  0  0  0  0  0
   -1.8819   51.4992   26.0143 H   0  0  0  0  0  0
   -0.5914   51.3810   24.7839 H   0  0  0  0  0  0
   -2.8348   49.3580   25.3787 H   0  0  0  0  0  0
   -2.7440   50.3129   23.9080 H   0  0  0  0  0  0
   -0.0481   47.1583   24.6531 H   0  0  0  0  0  0
   -1.2470   47.5979   25.8556 H   0  0  0  0  0  0
    1.1084   49.4293   25.0603 H   0  0  0  0  0  0
    0.9816   48.4909   26.5471 H   0  0  0  0  0  0
   -2.4407   47.2657   22.1108 H   0  0  0  0  0  0
   -1.5904   47.1718   19.7988 H   0  0  0  0  0  0
    1.4506   50.0330   20.8090 H   0  0  0  0  0  0
    0.5942   50.1558   23.0758 H   0  0  0  0  0  0
    1.8950   48.6752   17.4219 H   0  0  0  0  0  0
    1.6828   50.0515   18.4938 H   0  0  0  0  0  0
    2.5037   48.5811   19.0709 H   0  0  0  0  0  0
   -0.9729   49.5921   27.1770 H   0  0  0  0  0  0
  1  2  1  0  0  0
  1 38  1  0  0  0
  1 39  1  0  0  0
  1 40  1  0  0  0
  2  7  2  0  0  0
  2  3  1  0  0  0
  3  4  2  0  0  0
  3 41  1  0  0  0
  4  5  1  0  0  0
  4 42  1  0  0  0
  5  6  2  0  0  0
  5  9  1  0  0  0
  6  7  1  0  0  0
  6  8  1  0  0  0
  7 43  1  0  0  0
  8 44  1  0  0  0
  8 45  1  0  0  0
  8 46  1  0  0  0
  9 10  1  0  0  0
  9 47  1  0  0  0
 10 11  2  0  0  0
 10 12  1  0  0  0
 12 13  1  0  0  0
 12 48  1  0  0  0
 12 49  1  0  0  0
 13 14  1  0  0  0
 13 20  1  0  0  0
 13 15  1  0  0  0
 15 16  2  0  0  0
 15 17  1  0  0  0
 17 18  1  0  0  0
 17 50  1  0  0  0
 18 19  1  0  0  0
 18 51  1  0  0  0
 18 52  1  0  0  0
 19 20  1  0  0  0
 19 53  1  0  0  0
 19 54  1  0  0  0
 20 21  1  0  0  0
 21 22  2  0  0  0
 21 23  1  0  0  0
 23 24  1  0  0  0
 23 55  1  0  0  0
 23 56  1  0  0  0
 24 29  1  0  0  0
 24 25  1  0  0  0
 24 72  1  0  0  0
 25 26  1  0  0  0
 25 57  1  0  0  0
 25 58  1  0  0  0
 26 27  1  0  0  0
 26 59  1  0  0  0
 26 60  1  0  0  0
 27 28  1  0  0  0
 27 30  1  0  0  0
 28 29  1  0  0  0
 28 61  1  0  0  0
 28 62  1  0  0  0
 29 63  1  0  0  0
 29 64  1  0  0  0
 30 35  2  0  0  0
 30 31  1  0  0  0
 31 32  2  0  0  0
 31 65  1  0  0  0
 32 33  1  0  0  0
 32 66  1  0  0  0
 33 34  2  0  0  0
 33 36  1  0  0  0
 34 35  1  0  0  0
 34 67  1  0  0  0
 35 68  1  0  0  0
 36 37  1  0  0  0
 37 69  1  0  0  0
 37 70  1  0  0  0
 37 71  1  0  0  0
M  CHG  1  24   1
M  END
> <i_i_glide_confnum>
222

> <i_i_glide_lignum>
877

> <i_i_glide_posenum>
379

> <i_i_glide_rotatable_bonds>
9

> <i_m_Source_File_Index>
2368

> <b_m_subgroup_collapsed>
0

> <r_i_docking_score>
-5.86159

> <r_i_glide_ecoul>
-6.50716

> <r_i_glide_eff_state_penalty>
0

> <r_i_glide_einternal>
4.25953

> <r_i_glide_emodel>
-72.2563

> <r_i_glide_energy>
-54.7768

> <r_i_glide_erotb>
0.66645

> <r_i_glide_esite>
-0.192633

> <r_i_glide_evdw>
-48.2697

> <r_i_glide_gscore>
-5.86159

> <r_i_glide_hbond>
-0.357478

> <r_i_glide_ligand_efficiency>
-0.162822

> <r_i_glide_ligand_efficiency_ln>
-1.27884

> <r_i_glide_ligand_efficiency_sa>
-0.537626

> <r_i_glide_lipo>
-2.10051

> <r_i_glide_metal>
0

> <r_i_glide_rewards>
-0.487856

> <s_i_glide_gridfile>
wee1_glide-grid

> <s_m_Source_File>
wee1_decoys_glide_SP.sdf

> <s_m_Source_Path>
/Users/zhangxujun/Desktop

> <s_m_entry_id>
2643

> <s_m_entry_name>
wee1_decoys_glide_SP.2368

> <s_m_subgroup_title>
wee1_decoys_glide_SP

> <s_m_subgroupid>
wee1_decoys_glide_SP


$$$$
