ZINC12914489_4288
                    3D
 Schrodinger Suite 2024-2.
 53 56  0  0  1  0            999 V2000
    4.8639   53.9326   17.4348 C   0  0  0  0  0  0
    4.0246   53.3202   18.5499 C   0  0  0  0  0  0
    3.0932   52.3362   18.2122 C   0  0  0  0  0  0
    2.3350   51.7066   19.1959 C   0  0  0  0  0  0
    2.4783   52.0846   20.5288 C   0  0  0  0  0  0
    3.4011   53.0765   20.8888 C   0  0  0  0  0  0
    4.1949   53.6938   19.8970 C   0  0  0  0  0  0
    5.2144   54.7826   20.2536 C   0  0  0  0  0  0
    3.5839   53.4409   22.2312 N   0  0  0  0  0  0
    2.6837   53.4786   23.2368 C   0  0  0  0  0  0
    1.4808   53.2312   23.1257 O   0  0  0  0  0  0
    3.3239   53.9121   24.5651 C   0  0  0  0  0  0
    2.4583   53.9010   25.7619 N   0  0  0  0  0  0
    2.0386   52.5723   26.2264 C   0  0  0  0  0  0
    0.8503   52.6410   27.2123 C   0  0  0  0  0  0
    1.1581   53.6779   28.2746 C   0  0  0  0  0  0
    2.1302   54.6659   28.1098 C   0  0  0  0  0  0
    2.1483   55.5619   29.1890 C   0  0  0  0  0  0
    1.2058   55.2560   30.1594 C   0  0  0  0  0  0
    0.3036   53.8271   29.7761 S   0  0  0  0  0  0
    3.0519   54.6792   26.8835 C   0  0  1  0  0  0
    4.5018   54.3135   27.1783 C   0  0  0  0  0  0
    5.0289   53.4802   28.1591 C   0  0  0  0  0  0
    6.4202   53.4539   28.1780 C   0  0  0  0  0  0
    6.9894   54.2534   27.2221 C   0  0  0  0  0  0
    5.8111   54.9875   26.2280 S   0  0  0  0  0  0
    1.2364   50.3764   18.7413 S   0  0  0  0  0  0
    0.4009   50.0564   19.9043 O   0  0  0  0  0  0
    0.6364   50.7233   17.4487 O   0  0  0  0  0  0
    2.3043   49.0277   18.4817 N   0  0  0  0  0  0
    4.5681   54.9654   17.2563 H   0  0  0  0  0  0
    5.9202   53.9293   17.7067 H   0  0  0  0  0  0
    4.7764   53.3759   16.5014 H   0  0  0  0  0  0
    2.9898   52.0219   17.1832 H   0  0  0  0  0  0
    1.8948   51.5817   21.2853 H   0  0  0  0  0  0
    5.0302   55.2559   21.2169 H   0  0  0  0  0  0
    6.2264   54.3773   20.2435 H   0  0  0  0  0  0
    5.1774   55.5931   19.5255 H   0  0  0  0  0  0
    4.4968   53.8162   22.4355 H   0  0  0  0  0  0
    3.6581   54.9353   24.3904 H   0  0  0  0  0  0
    4.2065   53.2958   24.7316 H   0  0  0  0  0  0
    1.7291   51.9479   25.3877 H   0  0  0  0  0  0
    2.8873   52.0967   26.7047 H   0  0  0  0  0  0
   -0.0601   52.8799   26.6624 H   0  0  0  0  0  0
    0.6668   51.6538   27.6377 H   0  0  0  0  0  0
    2.8229   56.4029   29.2611 H   0  0  0  0  0  0
    1.0163   55.7870   31.0817 H   0  0  0  0  0  0
    3.1043   55.6967   26.5259 H   0  0  0  0  0  0
    4.4163   52.9295   28.8571 H   0  0  0  0  0  0
    7.0072   52.8984   28.8821 H   0  0  0  0  0  0
    8.0301   54.4533   27.0692 H   0  0  0  0  0  0
    2.9840   49.2022   17.7167 H   0  0  0  0  0  0
    2.7833   48.7352   19.3345 H   0  0  0  0  0  0
  1  2  1  0  0  0
  1 31  1  0  0  0
  1 32  1  0  0  0
  1 33  1  0  0  0
  2  7  2  0  0  0
  2  3  1  0  0  0
  3  4  2  0  0  0
  3 34  1  0  0  0
  4  5  1  0  0  0
  4 27  1  0  0  0
  5  6  2  0  0  0
  5 35  1  0  0  0
  6  7  1  0  0  0
  6  9  1  0  0  0
  7  8  1  0  0  0
  8 36  1  0  0  0
  8 37  1  0  0  0
  8 38  1  0  0  0
  9 10  1  0  0  0
  9 39  1  0  0  0
 10 11  2  0  0  0
 10 12  1  0  0  0
 12 13  1  0  0  0
 12 40  1  0  0  0
 12 41  1  0  0  0
 13 21  1  0  0  0
 13 14  1  0  0  0
 14 15  1  0  0  0
 14 42  1  0  0  0
 14 43  1  0  0  0
 15 16  1  0  0  0
 15 44  1  0  0  0
 15 45  1  0  0  0
 16 20  1  0  0  0
 16 17  2  0  0  0
 17 18  1  0  0  0
 17 21  1  0  0  0
 18 19  2  0  0  0
 18 46  1  0  0  0
 19 20  1  0  0  0
 19 47  1  0  0  0
 21 22  1  0  0  0
 21 48  1  0  0  0
 22 26  1  0  0  0
 22 23  2  0  0  0
 23 24  1  0  0  0
 23 49  1  0  0  0
 24 25  2  0  0  0
 24 50  1  0  0  0
 25 26  1  0  0  0
 25 51  1  0  0  0
 27 28  2  0  0  0
 27 29  2  0  0  0
 27 30  1  0  0  0
 30 52  1  0  0  0
 30 53  1  0  0  0
M  END
> <i_i_glide_confnum>
116

> <i_i_glide_lignum>
4289

> <i_i_glide_posenum>
304

> <i_i_glide_rotatable_bonds>
6

> <i_m_Source_File_Index>
5716

> <b_m_subgroup_collapsed>
0

> <r_i_docking_score>
-5.99688

> <r_i_glide_ecoul>
-3.02448

> <r_i_glide_eff_state_penalty>
0

> <r_i_glide_einternal>
2.31251

> <r_i_glide_emodel>
-57.537

> <r_i_glide_energy>
-40.007

> <r_i_glide_erotb>
0.472501

> <r_i_glide_esite>
-0.166275

> <r_i_glide_evdw>
-36.9825

> <r_i_glide_gscore>
-5.99688

> <r_i_glide_hbond>
-0.16

> <r_i_glide_ligand_efficiency>
-0.199896

> <r_i_glide_ligand_efficiency_ln>
-1.36256

> <r_i_glide_ligand_efficiency_sa>
-0.621123

> <r_i_glide_lipo>
-3.32823

> <r_i_glide_metal>
0

> <r_i_glide_rewards>
-0.512079

> <s_i_glide_gridfile>
wee1_glide-grid

> <s_m_Source_File>
wee1_decoys_glide_SP.sdf

> <s_m_Source_Path>
/Users/zhangxujun/Desktop

> <s_m_entry_id>
5991

> <s_m_entry_name>
wee1_decoys_glide_SP.5716

> <s_m_subgroup_title>
wee1_decoys_glide_SP

> <s_m_subgroupid>
wee1_decoys_glide_SP


$$$$
