ZINC67447321_1363
                    3D
 Schrodinger Suite 2024-2.
 48 51  0  0  1  0            999 V2000
    3.5684   53.0254   29.2573 C   0  0  0  0  0  0
    3.6918   53.4205   27.9158 C   0  0  0  0  0  0
    2.5567   53.2967   27.0942 C   0  0  0  0  0  0
    1.3666   52.7563   27.5856 C   0  0  0  0  0  0
    1.2766   52.3540   28.9144 C   0  0  0  0  0  0
    2.3778   52.4953   29.7518 C   0  0  0  0  0  0
    2.3055   52.0984   31.0412 F   0  0  0  0  0  0
    0.3051   52.6053   26.7639 F   0  0  0  0  0  0
    5.0431   53.9263   27.3515 C   0  0  0  0  0  0
    5.8113   54.9407   28.1787 C   0  0  0  0  0  0
    6.3527   53.5507   28.0243 C   0  0  0  0  0  0
    5.0715   54.0832   25.8907 N   0  0  0  0  0  0
    5.9992   54.5809   25.0440 C   0  0  0  0  0  0
    7.0838   55.0697   25.3757 O   0  0  0  0  0  0
    5.5926   54.4963   23.6588 C   0  0  0  0  0  0
    6.3433   54.8916   22.5527 C   0  0  0  0  0  0
    5.5486   54.6400   21.4605 N   0  0  0  0  0  0
    4.3811   54.1243   21.8472 N   0  0  0  0  0  0
    4.4228   54.0413   23.2214 N   0  0  0  0  0  0
    5.8318   54.9339   20.0557 C   0  0  0  0  0  0
    5.2175   53.9213   19.0452 C   0  0  1  0  0  0
    5.3334   52.9120   19.4495 H   0  0  0  0  0  0
    3.7048   54.1374   18.7584 C   0  0  0  0  0  0
    3.1528   53.0915   17.7733 C   0  0  0  0  0  0
    3.9343   53.0928   16.4497 C   0  0  0  0  0  0
    5.4286   52.8967   16.7606 N   0  3  0  0  0  0
    6.0027   53.9590   17.7146 C   0  0  0  0  0  0
    4.3929   53.1060   29.9404 H   0  0  0  0  0  0
    2.5831   53.5901   26.0570 H   0  0  0  0  0  0
    0.3575   51.9291   29.2917 H   0  0  0  0  0  0
    6.3261   55.7586   27.6817 H   0  0  0  0  0  0
    5.4213   55.2485   29.1498 H   0  0  0  0  0  0
    6.3282   52.8967   28.8817 H   0  0  0  0  0  0
    7.2408   53.3820   27.4135 H   0  0  0  0  0  0
    4.4892   53.3982   25.4362 H   0  0  0  0  0  0
    7.3302   55.3222   22.4592 H   0  0  0  0  0  0
    5.4914   55.9502   19.8530 H   0  0  0  0  0  0
    6.9183   54.9482   19.9538 H   0  0  0  0  0  0
    3.1046   54.0960   19.6681 H   0  0  0  0  0  0
    3.5371   55.1460   18.3746 H   0  0  0  0  0  0
    3.1985   52.0962   18.2214 H   0  0  0  0  0  0
    2.0973   53.2858   17.5775 H   0  0  0  0  0  0
    3.6460   52.2647   15.7993 H   0  0  0  0  0  0
    3.8455   54.0324   15.9017 H   0  0  0  0  0  0
    5.5187   51.9790   17.2051 H   0  0  0  0  0  0
    5.9334   54.9193   17.1989 H   0  0  0  0  0  0
    7.0565   53.7063   17.8426 H   0  0  0  0  0  0
    5.9641   52.8569   15.9041 H   0  0  0  0  0  0
  1  6  2  0  0  0
  1  2  1  0  0  0
  1 28  1  0  0  0
  2  3  2  0  0  0
  2  9  1  0  0  0
  3  4  1  0  0  0
  3 29  1  0  0  0
  4  5  2  0  0  0
  4  8  1  0  0  0
  5  6  1  0  0  0
  5 30  1  0  0  0
  6  7  1  0  0  0
  9 11  1  0  0  0
  9 10  1  0  0  0
  9 12  1  0  0  0
 10 11  1  0  0  0
 10 31  1  0  0  0
 10 32  1  0  0  0
 11 33  1  0  0  0
 11 34  1  0  0  0
 12 13  1  0  0  0
 12 35  1  0  0  0
 13 14  2  0  0  0
 13 15  1  0  0  0
 15 19  1  0  0  0
 15 16  2  0  0  0
 16 17  1  0  0  0
 16 36  1  0  0  0
 17 18  1  0  0  0
 17 20  1  0  0  0
 18 19  2  0  0  0
 20 21  1  0  0  0
 20 37  1  0  0  0
 20 38  1  0  0  0
 21 22  1  0  0  0
 21 27  1  0  0  0
 21 23  1  0  0  0
 23 24  1  0  0  0
 23 39  1  0  0  0
 23 40  1  0  0  0
 24 25  1  0  0  0
 24 41  1  0  0  0
 24 42  1  0  0  0
 25 26  1  0  0  0
 25 43  1  0  0  0
 25 44  1  0  0  0
 26 27  1  0  0  0
 26 45  1  0  0  0
 26 48  1  0  0  0
 27 46  1  0  0  0
 27 47  1  0  0  0
M  CHG  1  26   1
M  END
> <i_i_glide_confnum>
76

> <i_i_glide_lignum>
1364

> <i_i_glide_posenum>
363

> <i_i_glide_rotatable_bonds>
6

> <i_m_Source_File_Index>
4089

> <b_m_subgroup_collapsed>
0

> <r_i_docking_score>
-6.77311

> <r_i_glide_ecoul>
-7.0608

> <r_i_glide_eff_state_penalty>
0

> <r_i_glide_einternal>
6.17698

> <r_i_glide_emodel>
-63.6542

> <r_i_glide_energy>
-44.3186

> <r_i_glide_erotb>
0.877239

> <r_i_glide_esite>
-0.147384

> <r_i_glide_evdw>
-37.2578

> <r_i_glide_gscore>
-6.77311

> <r_i_glide_hbond>
-0.52

> <r_i_glide_ligand_efficiency>
-0.260504

> <r_i_glide_ligand_efficiency_ln>
-1.59064

> <r_i_glide_ligand_efficiency_sa>
-0.771743

> <r_i_glide_lipo>
-2.38175

> <r_i_glide_metal>
0

> <r_i_glide_rewards>
-1.67921

> <s_i_glide_gridfile>
wee1_glide-grid

> <s_m_Source_File>
wee1_decoys_glide_SP.sdf

> <s_m_Source_Path>
/Users/zhangxujun/Desktop

> <s_m_entry_id>
4364

> <s_m_entry_name>
wee1_decoys_glide_SP.4089

> <s_m_subgroup_title>
wee1_decoys_glide_SP

> <s_m_subgroupid>
wee1_decoys_glide_SP


$$$$
