ZINC64338127_201
                    3D
 Schrodinger Suite 2024-2.
 60 63  0  0  1  0            999 V2000
    6.6768   53.9402   26.0920 C   0  0  0  0  0  0
    5.3964   54.6450   26.5648 C   0  0  1  0  0  0
    5.4345   55.6966   26.3014 H   0  0  0  0  0  0
    4.0761   54.0257   26.1226 C   0  0  0  0  0  0
    3.4223   53.5856   27.2233 C   0  0  0  0  0  0
    2.1439   52.8751   27.4131 C   0  0  0  0  0  0
    1.7085   52.5391   28.6436 C   0  0  0  0  0  0
    2.5337   52.8981   29.7842 C   0  0  0  0  0  0
    3.7168   53.5508   29.6351 C   0  0  0  0  0  0
    4.1780   53.9039   28.3603 C   0  0  0  0  0  0
    5.2806   54.5330   28.0301 N   0  3  0  0  0  0
    3.6693   53.9632   24.7070 C   0  0  0  0  0  0
    2.3779   53.7182   24.2206 C   0  0  0  0  0  0
    2.3722   53.6964   22.4832 S   0  0  0  0  0  0
    4.0489   54.0971   22.5326 C   0  0  0  0  0  0
    4.5548   54.1710   23.7447 N   0  0  0  0  0  0
    4.7010   54.3233   21.3236 N   0  0  0  0  0  0
    5.9226   54.8891   21.1615 C   0  0  0  0  0  0
    6.5992   55.3002   22.1036 O   0  0  0  0  0  0
    6.5066   54.9074   19.7058 C   0  0  2  0  0  0
    6.9921   53.9445   19.5919 H   0  0  0  0  0  0
    7.6504   55.9735   19.4574 C   0  0  0  0  0  0
    8.8944   55.8757   20.3620 C   0  0  0  0  0  0
    8.1632   55.9585   17.9966 C   0  0  0  0  0  0
    5.4558   54.8570   18.6696 N   0  0  0  0  0  0
    4.7896   55.9160   18.1777 C   0  0  0  0  0  0
    5.1024   57.0693   18.4681 O   0  0  0  0  0  0
    3.6242   55.6387   17.2541 C   0  0  0  0  0  0
    3.0369   56.6998   16.5493 C   0  0  0  0  0  0
    1.9300   56.4838   15.7346 C   0  0  0  0  0  0
    1.3875   55.1971   15.6042 C   0  0  0  0  0  0
    1.9762   54.1393   16.2940 C   0  0  0  0  0  0
    3.0823   54.3503   17.1128 C   0  0  0  0  0  0
    0.2862   54.8886   14.8292 O   0  0  0  0  0  0
   -0.3449   55.9195   14.0777 C   0  0  0  0  0  0
    6.8156   53.9837   25.0118 H   0  0  0  0  0  0
    7.5431   54.4125   26.5462 H   0  0  0  0  0  0
    6.6859   52.8967   26.3964 H   0  0  0  0  0  0
    1.5274   52.5598   26.5877 H   0  0  0  0  0  0
    0.7826   51.9958   28.7805 H   0  0  0  0  0  0
    2.1944   52.6279   30.7746 H   0  0  0  0  0  0
    4.3035   53.7834   30.5114 H   0  0  0  0  0  0
    1.4562   53.5557   24.7523 H   0  0  0  0  0  0
    4.1971   54.0665   20.4868 H   0  0  0  0  0  0
    7.2402   56.9666   19.6394 H   0  0  0  0  0  0
    9.3604   54.8970   20.2839 H   0  0  0  0  0  0
    9.6348   56.6102   20.0509 H   0  0  0  0  0  0
    8.7103   56.0926   21.4110 H   0  0  0  0  0  0
    8.5428   54.9735   17.7268 H   0  0  0  0  0  0
    7.3906   56.2233   17.2776 H   0  0  0  0  0  0
    8.9721   56.6741   17.8514 H   0  0  0  0  0  0
    5.2455   53.9421   18.3004 H   0  0  0  0  0  0
    3.4236   57.7078   16.6416 H   0  0  0  0  0  0
    1.5050   57.3309   15.2194 H   0  0  0  0  0  0
    1.5635   53.1454   16.1972 H   0  0  0  0  0  0
    3.4887   53.4971   17.6396 H   0  0  0  0  0  0
   -1.1865   55.4976   13.5269 H   0  0  0  0  0  0
    0.3393   56.3613   13.3495 H   0  0  0  0  0  0
   -0.7376   56.7053   14.7262 H   0  0  0  0  0  0
    5.9889   54.8700   28.6800 H   0  0  0  0  0  0
  1  2  1  0  0  0
  1 36  1  0  0  0
  1 37  1  0  0  0
  1 38  1  0  0  0
  2  3  1  0  0  0
  2 11  1  0  0  0
  2  4  1  0  0  0
  4  5  2  0  0  0
  4 12  1  0  0  0
  5 10  1  0  0  0
  5  6  1  0  0  0
  6  7  2  0  0  0
  6 39  1  0  0  0
  7  8  1  0  0  0
  7 40  1  0  0  0
  8  9  2  0  0  0
  8 41  1  0  0  0
  9 10  1  0  0  0
  9 42  1  0  0  0
 10 11  2  0  0  0
 11 60  1  0  0  0
 12 16  1  0  0  0
 12 13  2  0  0  0
 13 14  1  0  0  0
 13 43  1  0  0  0
 14 15  1  0  0  0
 15 16  2  0  0  0
 15 17  1  0  0  0
 17 18  1  0  0  0
 17 44  1  0  0  0
 18 19  2  0  0  0
 18 20  1  0  0  0
 20 21  1  0  0  0
 20 22  1  0  0  0
 20 25  1  0  0  0
 22 23  1  0  0  0
 22 24  1  0  0  0
 22 45  1  0  0  0
 23 46  1  0  0  0
 23 47  1  0  0  0
 23 48  1  0  0  0
 24 49  1  0  0  0
 24 50  1  0  0  0
 24 51  1  0  0  0
 25 26  1  0  0  0
 25 52  1  0  0  0
 26 27  2  0  0  0
 26 28  1  0  0  0
 28 33  2  0  0  0
 28 29  1  0  0  0
 29 30  2  0  0  0
 29 53  1  0  0  0
 30 31  1  0  0  0
 30 54  1  0  0  0
 31 32  2  0  0  0
 31 34  1  0  0  0
 32 33  1  0  0  0
 32 55  1  0  0  0
 33 56  1  0  0  0
 34 35  1  0  0  0
 35 57  1  0  0  0
 35 58  1  0  0  0
 35 59  1  0  0  0
M  CHG  1  11   1
M  END
> <i_i_glide_confnum>
155

> <i_i_glide_lignum>
202

> <i_i_glide_posenum>
252

> <i_i_glide_rotatable_bonds>
9

> <i_m_Source_File_Index>
1952

> <b_m_subgroup_collapsed>
0

> <r_i_docking_score>
-5.04927

> <r_i_glide_ecoul>
-0.0988076

> <r_i_glide_eff_state_penalty>
0

> <r_i_glide_einternal>
8.62873

> <r_i_glide_emodel>
-53.0288

> <r_i_glide_energy>
-41.5886

> <r_i_glide_erotb>
0.656441

> <r_i_glide_esite>
0

> <r_i_glide_evdw>
-41.4898

> <r_i_glide_gscore>
-5.04927

> <r_i_glide_hbond>
0

> <r_i_glide_ligand_efficiency>
-0.153008

> <r_i_glide_ligand_efficiency_ln>
-1.12293

> <r_i_glide_ligand_efficiency_sa>
-0.490779

> <r_i_glide_lipo>
-2.95763

> <r_i_glide_metal>
0

> <r_i_glide_rewards>
-0.658771

> <s_i_glide_gridfile>
wee1_glide-grid

> <s_m_Source_File>
wee1_decoys_glide_SP.sdf

> <s_m_Source_Path>
/Users/zhangxujun/Desktop

> <s_m_entry_id>
2227

> <s_m_entry_name>
wee1_decoys_glide_SP.1952

> <s_m_subgroup_title>
wee1_decoys_glide_SP

> <s_m_subgroupid>
wee1_decoys_glide_SP


$$$$
