ZINC22411091_1622
                    3D
 Schrodinger Suite 2024-2.
 31 32  0  0  1  0            999 V2000
    1.9779   53.3031   23.8363 C   0  0  0  0  0  0
    2.2164   53.1334   22.4760 C   0  0  0  0  0  0
    3.4907   53.3832   21.9687 C   0  0  0  0  0  0
    4.5085   53.8395   22.8026 C   0  0  0  0  0  0
    4.2955   53.9706   24.1742 C   0  0  0  0  0  0
    3.0132   53.7008   24.6810 C   0  0  0  0  0  0
    5.7009   54.5181   25.1747 S   0  0  0  0  0  0
    5.5051   55.9630   25.2826 O   0  0  0  0  0  0
    6.8805   54.0956   24.4136 O   0  0  0  0  0  0
    5.5580   53.6971   26.5082 N   0  5  0  0  0  0
    4.6794   53.8756   27.5445 C   0  0  0  0  0  0
    3.7202   54.8913   27.6415 C   0  0  0  0  0  0
    2.8090   54.9335   28.6950 C   0  0  0  0  0  0
    2.8416   53.9549   29.6816 C   0  0  0  0  0  0
    3.7959   52.9457   29.6188 C   0  0  0  0  0  0
    4.7051   52.9170   28.5638 C   0  0  0  0  0  0
    3.8294   51.9864   30.5712 F   0  0  0  0  0  0
    1.8809   55.9147   28.7495 F   0  0  0  0  0  0
    3.9034   53.0133   20.2888 S   0  0  0  0  0  0
    2.7085   52.4970   19.6155 O   0  0  0  0  0  0
    4.6676   54.1466   19.7604 O   0  0  0  0  0  0
    5.0138   51.6969   20.4817 N   0  0  0  0  0  0
    0.9988   53.0955   24.2428 H   0  0  0  0  0  0
    1.4259   52.7822   21.8280 H   0  0  0  0  0  0
    5.4869   54.0366   22.3857 H   0  0  0  0  0  0
    2.7787   53.7652   25.7239 H   0  0  0  0  0  0
    3.6354   55.6176   26.8504 H   0  0  0  0  0  0
    2.1158   53.9702   30.4810 H   0  0  0  0  0  0
    5.4163   52.1032   28.5126 H   0  0  0  0  0  0
    5.1028   51.1995   19.5718 H   0  0  0  0  0  0
    5.9361   52.0512   20.7270 H   0  0  0  0  0  0
  1  6  2  0  0  0
  1  2  1  0  0  0
  1 23  1  0  0  0
  2  3  2  0  0  0
  2 24  1  0  0  0
  3  4  1  0  0  0
  3 19  1  0  0  0
  4  5  2  0  0  0
  4 25  1  0  0  0
  5  6  1  0  0  0
  5  7  1  0  0  0
  6 26  1  0  0  0
  7  8  2  0  0  0
  7  9  2  0  0  0
  7 10  1  0  0  0
 10 11  1  0  0  0
 11 16  2  0  0  0
 11 12  1  0  0  0
 12 13  2  0  0  0
 12 27  1  0  0  0
 13 14  1  0  0  0
 13 18  1  0  0  0
 14 15  2  0  0  0
 14 28  1  0  0  0
 15 16  1  0  0  0
 15 17  1  0  0  0
 16 29  1  0  0  0
 19 20  2  0  0  0
 19 21  2  0  0  0
 19 22  1  0  0  0
 22 30  1  0  0  0
 22 31  1  0  0  0
M  CHG  1  10  -1
M  END
> <i_i_glide_confnum>
7

> <i_i_glide_lignum>
1623

> <i_i_glide_posenum>
219

> <i_i_glide_rotatable_bonds>
4

> <i_m_Source_File_Index>
5264

> <b_m_subgroup_collapsed>
0

> <r_i_docking_score>
-5.58638

> <r_i_glide_ecoul>
-4.34941

> <r_i_glide_eff_state_penalty>
0

> <r_i_glide_einternal>
1.78501

> <r_i_glide_emodel>
-45.9491

> <r_i_glide_energy>
-33.7642

> <r_i_glide_erotb>
0.473037

> <r_i_glide_esite>
-0.102747

> <r_i_glide_evdw>
-29.4148

> <r_i_glide_gscore>
-5.58638

> <r_i_glide_hbond>
-0.16

> <r_i_glide_ligand_efficiency>
-0.253926

> <r_i_glide_ligand_efficiency_ln>
-1.36551

> <r_i_glide_ligand_efficiency_sa>
-0.711511

> <r_i_glide_lipo>
-2.36653

> <r_i_glide_metal>
0

> <r_i_glide_rewards>
-1.30699

> <s_i_glide_gridfile>
wee1_glide-grid

> <s_m_Source_File>
wee1_decoys_glide_SP.sdf

> <s_m_Source_Path>
/Users/zhangxujun/Desktop

> <s_m_entry_id>
5539

> <s_m_entry_name>
wee1_decoys_glide_SP.5264

> <s_m_subgroup_title>
wee1_decoys_glide_SP

> <s_m_subgroupid>
wee1_decoys_glide_SP


$$$$
