ZINC33113030_2411
                    3D
 Schrodinger Suite 2024-2.
 56 59  0  0  1  0            999 V2000
   -2.9466   50.7682   27.7023 C   0  0  0  0  0  0
   -1.5675   51.3988   27.6554 C   0  0  0  0  0  0
   -0.8874   51.6967   28.8365 C   0  0  0  0  0  0
    0.3721   52.2890   28.7893 C   0  0  0  0  0  0
    0.9759   52.5833   27.5553 C   0  0  0  0  0  0
    0.2944   52.2718   26.3628 C   0  0  0  0  0  0
   -0.9726   51.6832   26.4263 C   0  0  0  0  0  0
    0.8985   52.5684   24.9924 C   0  0  0  0  0  0
    2.2205   53.2314   27.4485 N   0  0  0  0  0  0
    3.2259   53.3332   28.3477 C   0  0  0  0  0  0
    3.2388   52.7328   29.4280 O   0  0  0  0  0  0
    4.1610   54.2655   28.0172 N   0  0  0  0  0  0
    5.3368   54.4626   28.8808 C   0  0  0  0  0  0
    6.4582   53.5562   28.3255 C   0  0  0  0  0  0
    6.7688   53.8547   26.8410 C   0  0  0  0  0  0
    5.4796   53.8841   25.9672 C   0  0  1  0  0  0
    5.0549   52.8961   25.9930 H   0  0  0  0  0  0
    4.4011   54.7476   26.6387 C   0  0  0  0  0  0
    5.7171   54.2855   24.5160 C   0  0  0  0  0  0
    6.7058   55.0574   24.1457 N   0  0  0  0  0  0
    6.7529   55.2957   22.7820 N   0  0  0  0  0  0
    5.7895   54.7225   22.1029 C   0  0  0  0  0  0
    4.6934   53.8546   23.1663 S   0  0  0  0  0  0
    5.5044   54.8920   20.6980 C   0  0  0  0  0  0
    6.0298   55.8215   20.0832 O   0  0  0  0  0  0
    4.6414   54.0036   20.1568 N   0  0  0  0  0  0
    4.0514   54.0287   18.8779 C   0  0  0  0  0  0
    3.9417   55.1851   18.0863 C   0  0  0  0  0  0
    3.3042   55.1259   16.8502 C   0  0  0  0  0  0
    2.7773   53.9181   16.4003 C   0  0  0  0  0  0
    2.8771   52.7697   17.1794 C   0  0  0  0  0  0
    3.5051   52.8283   18.4204 C   0  0  0  0  0  0
    2.1604   53.8611   15.1995 F   0  0  0  0  0  0
   -3.6577   51.3573   27.1204 H   0  0  0  0  0  0
   -2.9116   49.7683   27.2706 H   0  0  0  0  0  0
   -3.3268   50.6884   28.7233 H   0  0  0  0  0  0
   -1.3305   51.4631   29.7949 H   0  0  0  0  0  0
    0.8512   52.5266   29.7263 H   0  0  0  0  0  0
   -1.5050   51.4426   25.5178 H   0  0  0  0  0  0
    0.2758   52.2027   24.1749 H   0  0  0  0  0  0
    1.0387   53.6429   24.8630 H   0  0  0  0  0  0
    1.8792   52.0990   24.8979 H   0  0  0  0  0  0
    2.3790   53.6748   26.5578 H   0  0  0  0  0  0
    5.0990   54.3517   29.9373 H   0  0  0  0  0  0
    5.6391   55.5064   28.8015 H   0  0  0  0  0  0
    6.1706   52.5107   28.4399 H   0  0  0  0  0  0
    7.3625   53.6918   28.9209 H   0  0  0  0  0  0
    7.4754   53.1054   26.4812 H   0  0  0  0  0  0
    7.2453   54.8359   26.8296 H   0  0  0  0  0  0
    4.8535   55.7062   26.7829 H   0  0  0  0  0  0
    3.5004   54.9551   26.0612 H   0  0  0  0  0  0
    4.3630   53.2268   20.7349 H   0  0  0  0  0  0
    4.3197   56.1408   18.4180 H   0  0  0  0  0  0
    3.2144   56.0132   16.2412 H   0  0  0  0  0  0
    2.4785   51.8323   16.8207 H   0  0  0  0  0  0
    3.5843   51.9220   19.0056 H   0  0  0  0  0  0
  1  2  1  0  0  0
  1 34  1  0  0  0
  1 35  1  0  0  0
  1 36  1  0  0  0
  2  7  2  0  0  0
  2  3  1  0  0  0
  3  4  2  0  0  0
  3 37  1  0  0  0
  4  5  1  0  0  0
  4 38  1  0  0  0
  5  6  2  0  0  0
  5  9  1  0  0  0
  6  7  1  0  0  0
  6  8  1  0  0  0
  7 39  1  0  0  0
  8 40  1  0  0  0
  8 41  1  0  0  0
  8 42  1  0  0  0
  9 10  1  0  0  0
  9 43  1  0  0  0
 10 11  2  0  0  0
 10 12  1  0  0  0
 12 18  1  0  0  0
 12 13  1  0  0  0
 13 14  1  0  0  0
 13 44  1  0  0  0
 13 45  1  0  0  0
 14 15  1  0  0  0
 14 46  1  0  0  0
 14 47  1  0  0  0
 15 16  1  0  0  0
 15 48  1  0  0  0
 15 49  1  0  0  0
 16 17  1  0  0  0
 16 18  1  0  0  0
 16 19  1  0  0  0
 18 50  1  0  0  0
 18 51  1  0  0  0
 19 23  1  0  0  0
 19 20  2  0  0  0
 20 21  1  0  0  0
 21 22  2  0  0  0
 22 23  1  0  0  0
 22 24  1  0  0  0
 24 25  2  0  0  0
 24 26  1  0  0  0
 26 27  1  0  0  0
 26 52  1  0  0  0
 27 32  2  0  0  0
 27 28  1  0  0  0
 28 29  2  0  0  0
 28 53  1  0  0  0
 29 30  1  0  0  0
 29 54  1  0  0  0
 30 31  2  0  0  0
 30 33  1  0  0  0
 31 32  1  0  0  0
 31 55  1  0  0  0
 32 56  1  0  0  0
M  END
> <i_i_glide_confnum>
268

> <i_i_glide_lignum>
2412

> <i_i_glide_posenum>
134

> <i_i_glide_rotatable_bonds>
7

> <i_m_Source_File_Index>
539

> <b_m_subgroup_collapsed>
0

> <r_i_docking_score>
-5.60411

> <r_i_glide_ecoul>
-2.81135

> <r_i_glide_eff_state_penalty>
0

> <r_i_glide_einternal>
5.86019

> <r_i_glide_emodel>
-60.0624

> <r_i_glide_energy>
-47.6212

> <r_i_glide_erotb>
0.683142

> <r_i_glide_esite>
-0.000156177

> <r_i_glide_evdw>
-44.8098

> <r_i_glide_gscore>
-5.60411

> <r_i_glide_hbond>
0

> <r_i_glide_ligand_efficiency>
-0.175129

> <r_i_glide_ligand_efficiency_ln>
-1.25491

> <r_i_glide_ligand_efficiency_sa>
-0.555998

> <r_i_glide_lipo>
-2.40088

> <r_i_glide_metal>
0

> <r_i_glide_rewards>
-1.22402

> <s_i_glide_gridfile>
wee1_glide-grid

> <s_m_Source_File>
wee1_decoys_glide_SP.sdf

> <s_m_Source_Path>
/Users/zhangxujun/Desktop

> <s_m_entry_id>
814

> <s_m_entry_name>
wee1_decoys_glide_SP.539

> <s_m_subgroup_title>
wee1_decoys_glide_SP

> <s_m_subgroupid>
wee1_decoys_glide_SP


$$$$
