ZINC33058266_4545
                    3D
 Schrodinger Suite 2024-2.
 51 54  0  0  1  0            999 V2000
   -6.0356   50.3064   26.8507 C   0  0  0  0  0  0
   -4.7573   50.7737   26.1766 C   0  0  0  0  0  0
   -3.9377   51.7084   26.8105 C   0  0  0  0  0  0
   -2.7706   52.1465   26.1899 C   0  0  0  0  0  0
   -2.3905   51.6255   24.9455 C   0  0  0  0  0  0
   -3.2385   50.7097   24.3026 C   0  0  0  0  0  0
   -4.4141   50.2827   24.9175 C   0  0  0  0  0  0
   -1.1490   52.0904   24.2377 C   0  0  0  0  0  0
   -1.1195   52.0949   23.0047 O   0  0  0  0  0  0
    0.0700   52.4561   24.9863 C   0  0  0  0  0  0
    0.5521   52.1195   26.2625 C   0  0  0  0  0  0
    1.7783   52.7258   26.5958 C   0  0  0  0  0  0
    2.3144   53.4342   25.5225 C   0  0  0  0  0  0
    1.2384   53.4501   24.1606 S   0  0  0  0  0  0
    3.5460   54.0485   25.5328 N   0  0  0  0  0  0
    4.4776   54.3527   24.5276 C   0  0  0  0  0  0
    5.6845   54.9044   24.9647 C   0  0  0  0  0  0
    6.7039   55.1921   24.0608 C   0  0  0  0  0  0
    6.5385   54.9092   22.7059 C   0  0  0  0  0  0
    5.3341   54.3675   22.2555 C   0  0  0  0  0  0
    4.3081   54.0933   23.1603 C   0  0  0  0  0  0
    5.1039   54.0456   20.5760 Cl  0  0  0  0  0  0
    2.6133   52.5837   28.2182 S   0  0  0  0  0  0
    2.1806   51.3412   28.8717 O   0  0  0  0  0  0
    4.0358   52.8969   28.0315 O   0  0  0  0  0  0
    1.9425   53.9442   29.1318 C   0  0  0  0  0  0
    2.4005   55.2262   28.8376 C   0  0  0  0  0  0
    1.9416   56.3044   29.5753 C   0  0  0  0  0  0
    1.0461   56.0905   30.6107 C   0  0  0  0  0  0
    0.5513   54.8150   30.8817 C   0  0  0  0  0  0
    0.9983   53.7311   30.1368 C   0  0  0  0  0  0
   -0.0720   51.2653   27.1252 N   0  0  0  0  0  0
   -6.4381   51.0768   27.5091 H   0  0  0  0  0  0
   -6.8100   50.0917   26.1125 H   0  0  0  0  0  0
   -5.8511   49.4044   27.4345 H   0  0  0  0  0  0
   -4.2037   52.0947   27.7817 H   0  0  0  0  0  0
   -2.1575   52.8857   26.6884 H   0  0  0  0  0  0
   -2.9898   50.3122   23.3291 H   0  0  0  0  0  0
   -5.0504   49.5672   24.4160 H   0  0  0  0  0  0
    4.0119   54.0543   26.4322 H   0  0  0  0  0  0
    5.8436   55.1118   26.0131 H   0  0  0  0  0  0
    7.6163   55.6420   24.4186 H   0  0  0  0  0  0
    7.3364   55.1291   22.0098 H   0  0  0  0  0  0
    3.4108   53.6491   22.7675 H   0  0  0  0  0  0
    3.1248   55.3863   28.0546 H   0  0  0  0  0  0
    2.3015   57.2966   29.3622 H   0  0  0  0  0  0
    0.7076   56.9234   31.2055 H   0  0  0  0  0  0
   -0.1571   54.6623   31.6825 H   0  0  0  0  0  0
    0.6332   52.7375   30.3605 H   0  0  0  0  0  0
    0.3863   50.9760   27.9837 H   0  0  0  0  0  0
   -0.9044   50.7445   26.8763 H   0  0  0  0  0  0
  1  2  1  0  0  0
  1 33  1  0  0  0
  1 34  1  0  0  0
  1 35  1  0  0  0
  2  7  2  0  0  0
  2  3  1  0  0  0
  3  4  2  0  0  0
  3 36  1  0  0  0
  4  5  1  0  0  0
  4 37  1  0  0  0
  5  6  2  0  0  0
  5  8  1  0  0  0
  6  7  1  0  0  0
  6 38  1  0  0  0
  7 39  1  0  0  0
  8  9  2  0  0  0
  8 10  1  0  0  0
 10 14  1  0  0  0
 10 11  2  0  0  0
 11 12  1  0  0  0
 11 32  1  0  0  0
 12 13  2  0  0  0
 12 23  1  0  0  0
 13 14  1  0  0  0
 13 15  1  0  0  0
 15 16  1  0  0  0
 15 40  1  0  0  0
 16 21  2  0  0  0
 16 17  1  0  0  0
 17 18  2  0  0  0
 17 41  1  0  0  0
 18 19  1  0  0  0
 18 42  1  0  0  0
 19 20  2  0  0  0
 19 43  1  0  0  0
 20 21  1  0  0  0
 20 22  1  0  0  0
 21 44  1  0  0  0
 23 24  2  0  0  0
 23 25  2  0  0  0
 23 26  1  0  0  0
 26 31  2  0  0  0
 26 27  1  0  0  0
 27 28  2  0  0  0
 27 45  1  0  0  0
 28 29  1  0  0  0
 28 46  1  0  0  0
 29 30  2  0  0  0
 29 47  1  0  0  0
 30 31  1  0  0  0
 30 48  1  0  0  0
 31 49  1  0  0  0
 32 50  1  0  0  0
 32 51  1  0  0  0
M  END
> <i_i_glide_confnum>
60

> <i_i_glide_lignum>
4546

> <i_i_glide_posenum>
338

> <i_i_glide_rotatable_bonds>
6

> <i_m_Source_File_Index>
4191

> <b_m_subgroup_collapsed>
0

> <r_i_docking_score>
-6.34863

> <r_i_glide_ecoul>
-2.12942

> <r_i_glide_eff_state_penalty>
0

> <r_i_glide_einternal>
4.49898

> <r_i_glide_emodel>
-64.9422

> <r_i_glide_energy>
-48.7775

> <r_i_glide_erotb>
0.52203

> <r_i_glide_esite>
-0.0447746

> <r_i_glide_evdw>
-46.6481

> <r_i_glide_gscore>
-6.34863

> <r_i_glide_hbond>
0

> <r_i_glide_ligand_efficiency>
-0.198395

> <r_i_glide_ligand_efficiency_ln>
-1.42163

> <r_i_glide_ligand_efficiency_sa>
-0.629863

> <r_i_glide_lipo>
-3.69949

> <r_i_glide_metal>
0

> <r_i_glide_rewards>
-0.474567

> <s_i_glide_gridfile>
wee1_glide-grid

> <s_m_Source_File>
wee1_decoys_glide_SP.sdf

> <s_m_Source_Path>
/Users/zhangxujun/Desktop

> <s_m_entry_id>
4466

> <s_m_entry_name>
wee1_decoys_glide_SP.4191

> <s_m_subgroup_title>
wee1_decoys_glide_SP

> <s_m_subgroupid>
wee1_decoys_glide_SP


$$$$
