ZINC36736446_1627
                    3D
 Schrodinger Suite 2024-2.
 32 33  0  0  1  0            999 V2000
    5.0043   54.4972   27.7016 C   0  0  0  0  0  0
    3.6965   53.9131   27.2063 C   0  0  0  0  0  0
    3.2419   54.0463   25.8849 C   0  0  0  0  0  0
    2.1008   53.3165   25.5907 C   0  0  0  0  0  0
    1.5048   52.4977   26.9959 S   0  0  0  0  0  0
    2.8242   53.1135   27.9651 C   0  0  0  0  0  0
    2.8825   52.7531   29.3906 C   0  0  0  0  0  0
    3.5052   53.5285   30.1532 O   0  0  0  0  0  0
    2.3134   51.6997   29.7521 O   0  5  0  0  0  0
    1.2718   53.2373   23.9764 S   0  0  0  0  0  0
   -0.0951   52.7681   24.2228 O   0  0  0  0  0  0
    1.5448   54.4968   23.2827 O   0  0  0  0  0  0
    2.1183   51.9364   23.1214 N   0  0  0  0  0  0
    2.9380   52.0612   22.0194 C   0  0  0  0  0  0
    2.8642   51.2813   20.8664 C   0  0  0  0  0  0
    3.9046   51.6966   20.0817 N   0  0  0  0  0  0
    4.1681   51.2786   19.1900 H   0  0  0  0  0  0
    4.6303   52.6643   20.6357 N   0  0  0  0  0  0
    4.0666   52.8932   21.8013 C   0  0  0  0  0  0
    4.7103   53.9147   22.7092 C   0  0  0  0  0  0
    1.9398   50.1647   20.4383 C   0  0  0  0  0  0
    5.6374   54.8759   26.8987 H   0  0  0  0  0  0
    5.5915   53.7463   28.2314 H   0  0  0  0  0  0
    4.8388   55.2956   28.4238 H   0  0  0  0  0  0
    3.7576   54.6505   25.1560 H   0  0  0  0  0  0
    1.8828   51.0249   23.4828 H   0  0  0  0  0  0
    4.0669   54.7823   22.8507 H   0  0  0  0  0  0
    4.9279   53.4845   23.6849 H   0  0  0  0  0  0
    5.6607   54.2887   22.3221 H   0  0  0  0  0  0
    0.9329   50.5373   20.2449 H   0  0  0  0  0  0
    2.2798   49.6644   19.5296 H   0  0  0  0  0  0
    1.8613   49.3992   21.2111 H   0  0  0  0  0  0
  1  2  1  0  0  0
  1 22  1  0  0  0
  1 23  1  0  0  0
  1 24  1  0  0  0
  2  6  2  0  0  0
  2  3  1  0  0  0
  3  4  2  0  0  0
  3 25  1  0  0  0
  4  5  1  0  0  0
  4 10  1  0  0  0
  5  6  1  0  0  0
  6  7  1  0  0  0
  7  8  2  0  0  0
  7  9  1  0  0  0
 10 11  2  0  0  0
 10 12  2  0  0  0
 10 13  1  0  0  0
 13 14  1  0  0  0
 13 26  1  0  0  0
 14 19  1  0  0  0
 14 15  2  0  0  0
 15 16  1  0  0  0
 15 21  1  0  0  0
 16 17  1  0  0  0
 16 18  1  0  0  0
 18 19  2  0  0  0
 19 20  1  0  0  0
 20 27  1  0  0  0
 20 28  1  0  0  0
 20 29  1  0  0  0
 21 30  1  0  0  0
 21 31  1  0  0  0
 21 32  1  0  0  0
M  CHG  1   9  -1
M  END
> <i_i_glide_confnum>
12

> <i_i_glide_lignum>
1628

> <i_i_glide_posenum>
332

> <i_i_glide_rotatable_bonds>
4

> <i_m_Source_File_Index>
6026

> <b_m_subgroup_collapsed>
0

> <r_i_docking_score>
-6.19967

> <r_i_glide_ecoul>
-8.85476

> <r_i_glide_eff_state_penalty>
0

> <r_i_glide_einternal>
5.16252

> <r_i_glide_emodel>
-54.1262

> <r_i_glide_energy>
-38.9042

> <r_i_glide_erotb>
0.564255

> <r_i_glide_esite>
-0.0827276

> <r_i_glide_evdw>
-30.0494

> <r_i_glide_gscore>
-6.19967

> <r_i_glide_hbond>
-0.444371

> <r_i_glide_ligand_efficiency>
-0.309983

> <r_i_glide_ligand_efficiency_ln>
-1.55157

> <r_i_glide_ligand_efficiency_sa>
-0.841424

> <r_i_glide_lipo>
-1.65075

> <r_i_glide_metal>
0

> <r_i_glide_rewards>
-1.75538

> <s_i_glide_gridfile>
wee1_glide-grid

> <s_m_Source_File>
wee1_decoys_glide_SP.sdf

> <s_m_Source_Path>
/Users/zhangxujun/Desktop

> <s_m_entry_id>
6301

> <s_m_entry_name>
wee1_decoys_glide_SP.6026

> <s_m_subgroup_title>
wee1_decoys_glide_SP

> <s_m_subgroupid>
wee1_decoys_glide_SP


$$$$
