ZINC16036757_476
                    3D
 Schrodinger Suite 2024-2.
 76 80  0  0  1  0            999 V2000
    0.6153   52.7999   31.8744 C   0  0  0  0  0  0
    1.8585   52.1887   31.2278 C   0  0  0  0  0  0
    2.7190   51.7095   31.9739 O   0  0  0  0  0  0
    2.0104   52.1566   29.6676 C   0  0  1  0  0  0
    0.7684   51.6147   28.9031 C   0  0  0  0  0  0
    0.8206   52.2554   27.4984 C   0  0  0  0  0  0
    2.1234   53.0717   27.4973 C   0  0  2  0  0  0
    2.9121   52.3687   27.2481 H   0  0  0  0  0  0
    2.2957   53.5323   28.9815 C   0  0  2  0  0  0
    3.7467   54.0603   29.1198 C   0  0  0  0  0  0
    4.0249   55.2178   28.1403 C   0  0  0  0  0  0
    3.6806   54.9663   26.6279 C   0  0  2  0  0  0
    3.5040   55.9037   26.0948 H   0  0  0  0  0  0
    2.3038   54.2234   26.5041 C   0  0  1  0  0  0
    1.5482   54.8967   26.8817 H   0  0  0  0  0  0
    1.9467   53.9650   25.0311 C   0  0  0  0  0  0
    3.0475   53.1595   24.3619 C   0  0  0  0  0  0
    4.3717   53.9402   24.3853 C   0  0  0  0  0  0
    5.0432   54.1975   23.2368 C   0  0  0  0  0  0
    6.3048   54.8928   23.1178 C   0  0  0  0  0  0
    6.9099   55.2368   22.0497 N   0  0  0  0  0  0
    6.2005   54.8976   20.8837 O   0  0  0  0  0  0
    7.0122   55.2008   19.7520 C   0  0  0  0  0  0
    6.4850   54.4743   18.5095 C   0  0  0  0  0  0
    7.2579   54.2547   17.5778 O   0  0  0  0  0  0
    5.1845   54.1333   18.4808 N   0  0  0  0  0  0
    4.5129   53.4597   17.3649 C   0  0  0  0  0  0
    4.3978   54.3153   16.0816 C   0  0  0  0  0  0
    3.6806   55.6402   16.2727 C   0  0  0  0  0  0
    4.2177   56.9239   16.3338 C   0  0  0  0  0  0
    3.1492   57.7675   16.4739 N   0  0  0  0  0  0
    3.1686   58.7787   16.5428 H   0  0  0  0  0  0
    2.0481   56.9542   16.4818 C   0  0  0  0  0  0
    2.3568   55.6824   16.3842 N   0  0  0  0  0  0
    6.9788   55.2429   24.4421 C   0  0  0  0  0  0
    5.9425   55.5472   25.5432 C   0  0  0  0  0  0
    4.8845   54.4154   25.7784 C   0  0  1  0  0  0
    5.6504   53.2967   26.5076 C   0  0  0  0  0  0
    1.2863   54.6475   29.4391 C   0  0  0  0  0  0
    3.1053   51.2968   29.4111 O   0  0  0  0  0  0
   -0.2962   52.5752   31.3242 H   0  0  0  0  0  0
    0.7029   53.8773   31.9857 H   0  0  0  0  0  0
    0.4972   52.3987   32.8806 H   0  0  0  0  0  0
    0.7793   50.5305   28.8223 H   0  0  0  0  0  0
   -0.1804   51.8652   29.3742 H   0  0  0  0  0  0
    0.7738   51.5301   26.6852 H   0  0  0  0  0  0
   -0.0397   52.9174   27.3927 H   0  0  0  0  0  0
    3.9423   54.3690   30.1464 H   0  0  0  0  0  0
    4.4752   53.2752   28.9308 H   0  0  0  0  0  0
    5.0557   55.5495   28.2445 H   0  0  0  0  0  0
    3.4054   56.0383   28.4996 H   0  0  0  0  0  0
    0.9866   53.4557   24.9476 H   0  0  0  0  0  0
    1.8238   54.8972   24.4820 H   0  0  0  0  0  0
    2.7539   52.9277   23.3369 H   0  0  0  0  0  0
    3.1044   52.2106   24.8793 H   0  0  0  0  0  0
    4.5947   53.8166   22.3315 H   0  0  0  0  0  0
    6.9974   56.2725   19.5548 H   0  0  0  0  0  0
    8.0505   54.8928   19.8992 H   0  0  0  0  0  0
    4.6139   54.3579   19.2828 H   0  0  0  0  0  0
    5.0126   52.5103   17.1498 H   0  0  0  0  0  0
    3.5104   53.1962   17.7073 H   0  0  0  0  0  0
    5.3967   54.4865   15.6783 H   0  0  0  0  0  0
    3.8906   53.7262   15.3157 H   0  0  0  0  0  0
    5.2307   57.2986   16.2804 H   0  0  0  0  0  0
    1.0596   57.3809   16.5839 H   0  0  0  0  0  0
    7.6323   54.4222   24.7293 H   0  0  0  0  0  0
    7.6164   56.1142   24.3172 H   0  0  0  0  0  0
    5.4587   56.4857   25.2801 H   0  0  0  0  0  0
    6.4809   55.7633   26.4667 H   0  0  0  0  0  0
    6.1368   53.6533   27.4147 H   0  0  0  0  0  0
    4.9972   52.4963   26.8136 H   0  0  0  0  0  0
    6.4579   52.8977   25.9031 H   0  0  0  0  0  0
    1.2896   55.5434   28.8235 H   0  0  0  0  0  0
    0.2556   54.2942   29.4574 H   0  0  0  0  0  0
    1.5274   55.0139   30.4352 H   0  0  0  0  0  0
    3.2507   51.2784   28.4621 H   0  0  0  0  0  0
  1  2  1  0  0  0
  1 41  1  0  0  0
  1 42  1  0  0  0
  1 43  1  0  0  0
  2  3  2  0  0  0
  2  4  1  0  0  0
  4  9  1  0  0  0
  4  5  1  0  0  0
  4 40  1  0  0  0
  5  6  1  0  0  0
  5 44  1  0  0  0
  5 45  1  0  0  0
  6  7  1  0  0  0
  6 46  1  0  0  0
  6 47  1  0  0  0
  7  8  1  0  0  0
  7 14  1  0  0  0
  7  9  1  0  0  0
  9 10  1  0  0  0
  9 39  1  0  0  0
 10 11  1  0  0  0
 10 48  1  0  0  0
 10 49  1  0  0  0
 11 12  1  0  0  0
 11 50  1  0  0  0
 11 51  1  0  0  0
 12 13  1  0  0  0
 12 37  1  0  0  0
 12 14  1  0  0  0
 14 15  1  0  0  0
 14 16  1  0  0  0
 16 17  1  0  0  0
 16 52  1  0  0  0
 16 53  1  0  0  0
 17 18  1  0  0  0
 17 54  1  0  0  0
 17 55  1  0  0  0
 18 37  1  0  0  0
 18 19  2  0  0  0
 19 20  1  0  0  0
 19 56  1  0  0  0
 20 21  2  0  0  0
 20 35  1  0  0  0
 21 22  1  0  0  0
 22 23  1  0  0  0
 23 24  1  0  0  0
 23 57  1  0  0  0
 23 58  1  0  0  0
 24 25  2  0  0  0
 24 26  1  0  0  0
 26 27  1  0  0  0
 26 59  1  0  0  0
 27 28  1  0  0  0
 27 60  1  0  0  0
 27 61  1  0  0  0
 28 29  1  0  0  0
 28 62  1  0  0  0
 28 63  1  0  0  0
 29 34  1  0  0  0
 29 30  2  0  0  0
 30 31  1  0  0  0
 30 64  1  0  0  0
 31 32  1  0  0  0
 31 33  1  0  0  0
 33 34  2  0  0  0
 33 65  1  0  0  0
 35 36  1  0  0  0
 35 66  1  0  0  0
 35 67  1  0  0  0
 36 37  1  0  0  0
 36 68  1  0  0  0
 36 69  1  0  0  0
 37 38  1  0  0  0
 38 70  1  0  0  0
 38 71  1  0  0  0
 38 72  1  0  0  0
 39 73  1  0  0  0
 39 74  1  0  0  0
 39 75  1  0  0  0
 40 76  1  0  0  0
M  END
> <i_i_glide_confnum>
172

> <i_i_glide_lignum>
477

> <i_i_glide_posenum>
13

> <i_i_glide_rotatable_bonds>
9

> <i_m_Source_File_Index>
632

> <b_m_subgroup_collapsed>
0

> <r_i_docking_score>
-5.64239

> <r_i_glide_ecoul>
-6.55592

> <r_i_glide_eff_state_penalty>
0

> <r_i_glide_einternal>
6.47929

> <r_i_glide_emodel>
-27.5234

> <r_i_glide_energy>
-27.9326

> <r_i_glide_erotb>
0.49609

> <r_i_glide_esite>
-0.110135

> <r_i_glide_evdw>
-21.3767

> <r_i_glide_gscore>
-5.64239

> <r_i_glide_hbond>
-0.239968

> <r_i_glide_ligand_efficiency>
-0.156733

> <r_i_glide_ligand_efficiency_ln>
-1.23102

> <r_i_glide_ligand_efficiency_sa>
-0.517521

> <r_i_glide_lipo>
-3.18293

> <r_i_glide_metal>
0

> <r_i_glide_rewards>
-0.553224

> <s_i_glide_gridfile>
wee1_glide-grid

> <s_m_Source_File>
wee1_decoys_glide_SP.sdf

> <s_m_Source_Path>
/Users/zhangxujun/Desktop

> <s_m_entry_id>
907

> <s_m_entry_name>
wee1_decoys_glide_SP.632

> <s_m_subgroup_title>
wee1_decoys_glide_SP

> <s_m_subgroupid>
wee1_decoys_glide_SP


$$$$
