ZINC36309755_1086
                    3D
 Schrodinger Suite 2024-2.
 70 73  0  0  1  0            999 V2000
    1.6716   49.0165   19.4761 C   0  0  0  0  0  0
    2.4134   50.3683   19.5687 C   0  0  0  0  0  0
    2.3050   51.1035   18.2154 C   0  0  0  0  0  0
    1.8867   51.3478   20.6743 N   0  3  2  0  0  0
    2.8943   52.3432   21.3536 C   0  0  0  0  0  0
    4.1539   52.7799   20.5684 C   0  0  1  0  0  0
    3.8838   53.1520   19.5834 H   0  0  0  0  0  0
    4.8947   53.9367   21.2742 C   0  0  0  0  0  0
    5.7853   54.5369   20.3430 O   0  0  0  0  0  0
    6.7216   55.4496   20.8957 C   0  0  0  0  0  0
    7.2009   56.3659   19.7955 C   0  0  0  0  0  0
    8.3853   56.4915   19.0820 C   0  0  0  0  0  0
    8.2098   57.5497   18.1862 C   0  0  0  0  0  0
    6.9267   58.0275   18.3928 C   0  0  0  0  0  0
    6.3142   57.3020   19.3633 O   0  0  0  0  0  0
    5.0671   51.6985   20.4817 O   0  0  0  0  0  0
    0.9943   50.7881   21.7670 C   0  0  0  0  0  0
   -0.2023   51.7474   21.9421 C   0  0  0  0  0  0
   -0.7792   52.0962   20.9075 O   0  0  0  0  0  0
   -0.6189   52.1508   23.1762 N   0  0  0  0  0  0
   -1.8301   53.0017   23.2818 C   0  0  0  0  0  0
   -2.8393   52.2999   24.2143 C   0  0  0  0  0  0
   -2.1365   51.9706   25.5121 C   0  0  0  0  0  0
   -0.7493   51.8408   25.6236 C   0  0  0  0  0  0
   -0.3762   51.4621   26.9227 C   0  0  0  0  0  0
   -1.4572   51.2970   27.7757 C   0  0  0  0  0  0
   -2.9670   51.5840   26.9816 S   0  0  0  0  0  0
    0.1917   52.0265   24.4225 C   0  0  2  0  0  0
    0.7524   51.0955   24.3921 H   0  0  0  0  0  0
    1.2134   53.1828   24.5993 C   0  0  0  0  0  0
    1.8900   53.1290   25.8578 O   0  0  0  0  0  0
    3.1437   53.6972   26.0086 C   0  0  0  0  0  0
    3.8096   54.4447   25.0228 C   0  0  0  0  0  0
    5.1134   54.8887   25.2398 C   0  0  0  0  0  0
    5.7512   54.6057   26.4439 C   0  0  0  0  0  0
    5.0843   53.9093   27.4477 C   0  0  0  0  0  0
    3.7817   53.4636   27.2296 C   0  0  0  0  0  0
    7.0264   55.0120   26.6379 F   0  0  0  0  0  0
    2.0743   48.4223   18.6525 H   0  0  0  0  0  0
    1.8072   48.4144   20.3749 H   0  0  0  0  0  0
    0.6040   49.1415   19.2859 H   0  0  0  0  0  0
    3.4397   50.1232   19.8243 H   0  0  0  0  0  0
    2.7037   50.4973   17.4033 H   0  0  0  0  0  0
    1.2671   51.3320   17.9633 H   0  0  0  0  0  0
    2.8635   52.0323   18.1679 H   0  0  0  0  0  0
    2.2684   53.2125   21.5630 H   0  0  0  0  0  0
    3.2163   51.8894   22.2914 H   0  0  0  0  0  0
    4.1845   54.6976   21.6041 H   0  0  0  0  0  0
    5.4147   53.5796   22.1668 H   0  0  0  0  0  0
    6.2652   56.0375   21.6930 H   0  0  0  0  0  0
    7.5498   54.8968   21.3424 H   0  0  0  0  0  0
    9.2752   55.8886   19.2000 H   0  0  0  0  0  0
    8.9321   57.9234   17.4747 H   0  0  0  0  0  0
    6.3465   58.8277   17.9498 H   0  0  0  0  0  0
    5.1052   51.3837   19.5570 H   0  0  0  0  0  0
    1.5904   50.5268   22.6387 H   0  0  0  0  0  0
    0.5318   49.8670   21.4304 H   0  0  0  0  0  0
   -1.5466   53.9721   23.6891 H   0  0  0  0  0  0
   -2.2976   53.2140   22.3217 H   0  0  0  0  0  0
   -3.7028   52.9435   24.3849 H   0  0  0  0  0  0
   -3.2221   51.3950   23.7396 H   0  0  0  0  0  0
    0.6470   51.2875   27.2238 H   0  0  0  0  0  0
   -1.4436   50.9688   28.8062 H   0  0  0  0  0  0
    0.7270   54.1523   24.4880 H   0  0  0  0  0  0
    1.9229   53.0978   23.7838 H   0  0  0  0  0  0
    3.3437   54.6780   24.0796 H   0  0  0  0  0  0
    5.6369   55.4411   24.4743 H   0  0  0  0  0  0
    5.5845   53.7001   28.3827 H   0  0  0  0  0  0
    3.2761   52.8974   27.9976 H   0  0  0  0  0  0
    1.2522   51.9103   20.1183 H   0  0  0  0  0  0
  1  2  1  0  0  0
  1 39  1  0  0  0
  1 40  1  0  0  0
  1 41  1  0  0  0
  2  3  1  0  0  0
  2  4  1  0  0  0
  2 42  1  0  0  0
  3 43  1  0  0  0
  3 44  1  0  0  0
  3 45  1  0  0  0
  4  5  1  0  0  0
  4 17  1  0  0  0
  4 70  1  0  0  0
  5  6  1  0  0  0
  5 46  1  0  0  0
  5 47  1  0  0  0
  6  7  1  0  0  0
  6  8  1  0  0  0
  6 16  1  0  0  0
  8  9  1  0  0  0
  8 48  1  0  0  0
  8 49  1  0  0  0
  9 10  1  0  0  0
 10 11  1  0  0  0
 10 50  1  0  0  0
 10 51  1  0  0  0
 11 15  1  0  0  0
 11 12  2  0  0  0
 12 13  1  0  0  0
 12 52  1  0  0  0
 13 14  2  0  0  0
 13 53  1  0  0  0
 14 15  1  0  0  0
 14 54  1  0  0  0
 16 55  1  0  0  0
 17 18  1  0  0  0
 17 56  1  0  0  0
 17 57  1  0  0  0
 18 19  2  0  0  0
 18 20  1  0  0  0
 20 28  1  0  0  0
 20 21  1  0  0  0
 21 22  1  0  0  0
 21 58  1  0  0  0
 21 59  1  0  0  0
 22 23  1  0  0  0
 22 60  1  0  0  0
 22 61  1  0  0  0
 23 27  1  0  0  0
 23 24  2  0  0  0
 24 25  1  0  0  0
 24 28  1  0  0  0
 25 26  2  0  0  0
 25 62  1  0  0  0
 26 27  1  0  0  0
 26 63  1  0  0  0
 28 29  1  0  0  0
 28 30  1  0  0  0
 30 31  1  0  0  0
 30 64  1  0  0  0
 30 65  1  0  0  0
 31 32  1  0  0  0
 32 37  2  0  0  0
 32 33  1  0  0  0
 33 34  2  0  0  0
 33 66  1  0  0  0
 34 35  1  0  0  0
 34 67  1  0  0  0
 35 36  2  0  0  0
 35 38  1  0  0  0
 36 37  1  0  0  0
 36 68  1  0  0  0
 37 69  1  0  0  0
M  CHG  1   4   1
M  END
> <i_i_glide_confnum>
145

> <i_i_glide_lignum>
1087

> <i_i_glide_posenum>
264

> <i_i_glide_rotatable_bonds>
14

> <i_m_Source_File_Index>
410

> <b_m_subgroup_collapsed>
0

> <r_i_docking_score>
-5.26017

> <r_i_glide_ecoul>
-10.8969

> <r_i_glide_eff_state_penalty>
0

> <r_i_glide_einternal>
13.3737

> <r_i_glide_emodel>
-65.8981

> <r_i_glide_energy>
-52.8597

> <r_i_glide_erotb>
0.842957

> <r_i_glide_esite>
-0.00552078

> <r_i_glide_evdw>
-41.9628

> <r_i_glide_gscore>
-5.26017

> <r_i_glide_hbond>
0

> <r_i_glide_ligand_efficiency>
-0.146116

> <r_i_glide_ligand_efficiency_ln>
-1.14763

> <r_i_glide_ligand_efficiency_sa>
-0.482464

> <r_i_glide_lipo>
-2.22899

> <r_i_glide_metal>
0

> <r_i_glide_rewards>
-0.135941

> <s_i_glide_gridfile>
wee1_glide-grid

> <s_m_Source_File>
wee1_decoys_glide_SP.sdf

> <s_m_Source_Path>
/Users/zhangxujun/Desktop

> <s_m_entry_id>
685

> <s_m_entry_name>
wee1_decoys_glide_SP.410

> <s_m_subgroup_title>
wee1_decoys_glide_SP

> <s_m_subgroupid>
wee1_decoys_glide_SP


$$$$
