ZINC34681296_5094
                    3D
 Schrodinger Suite 2024-2.
 63 66  0  0  1  0            999 V2000
   10.1397   60.1485   14.8618 C   0  0  0  0  0  0
    9.3031   59.2173   15.7209 C   0  0  0  0  0  0
    9.9200   58.2284   16.4880 C   0  0  0  0  0  0
    9.1567   57.3857   17.2947 C   0  0  0  0  0  0
    7.7585   57.5210   17.3465 C   0  0  0  0  0  0
    7.1364   58.5102   16.5628 C   0  0  0  0  0  0
    7.9150   59.3558   15.7651 C   0  0  0  0  0  0
    5.6253   58.7150   16.5795 C   0  0  0  0  0  0
    6.9377   56.7031   18.1488 N   0  0  0  0  0  0
    7.2480   56.0932   19.3073 C   0  0  0  0  0  0
    8.3659   56.0934   19.8255 O   0  0  0  0  0  0
    6.1531   55.5391   19.8594 N   0  0  0  0  0  0
    5.9916   55.0648   21.1753 C   0  0  0  0  0  0
    4.7539   54.4966   21.5086 C   0  0  0  0  0  0
    4.5057   54.0926   22.8229 C   0  0  0  0  0  0
    5.5029   54.2200   23.8071 C   0  0  0  0  0  0
    6.6946   54.7325   23.4203 N   0  3  0  0  0  0
    6.9667   55.1688   22.1806 C   0  0  0  0  0  0
    5.3126   53.8519   25.1920 N   0  0  0  0  0  0
    6.4793   53.7085   26.0822 C   0  0  0  0  0  0
    6.6404   54.8823   27.0451 C   0  0  0  0  0  0
    5.7689   54.7794   28.3091 C   0  0  0  0  0  0
    4.3235   54.4903   28.1473 N   0  0  0  0  0  0
    3.6492   54.7205   26.8573 C   0  0  0  0  0  0
    3.9625   53.6966   25.7603 C   0  0  0  0  0  0
    3.6545   54.0316   29.2398 C   0  0  0  0  0  0
    4.1328   54.0294   30.3692 O   0  0  0  0  0  0
    2.2729   53.4587   29.0927 C   0  0  0  0  0  0
    2.1078   52.2310   28.4373 C   0  0  0  0  0  0
    0.8472   51.6432   28.3438 C   0  0  0  0  0  0
   -0.2492   52.2549   28.9406 C   0  0  0  0  0  0
   -0.0897   53.4750   29.5988 C   0  0  0  0  0  0
    1.1560   54.0935   29.6637 C   0  0  0  0  0  0
    1.2563   55.6276   30.4734 Cl  0  0  0  0  0  0
   -1.7964   51.4943   28.8728 Cl  0  0  0  0  0  0
    9.6462   61.1119   14.7296 H   0  0  0  0  0  0
   11.0992   60.3523   15.3361 H   0  0  0  0  0  0
   10.3220   59.7080   13.8820 H   0  0  0  0  0  0
   10.9936   58.1064   16.4593 H   0  0  0  0  0  0
    9.6705   56.6271   17.8642 H   0  0  0  0  0  0
    7.4357   60.1291   15.1851 H   0  0  0  0  0  0
    5.3141   59.5563   15.9561 H   0  0  0  0  0  0
    5.1094   57.8212   16.2283 H   0  0  0  0  0  0
    5.2863   58.9171   17.5952 H   0  0  0  0  0  0
    5.9639   56.7141   17.8872 H   0  0  0  0  0  0
    5.3371   55.4734   19.2699 H   0  0  0  0  0  0
    3.9742   54.3911   20.7656 H   0  0  0  0  0  0
    3.5354   53.6686   23.0365 H   0  0  0  0  0  0
    7.9590   55.5848   22.0752 H   0  0  0  0  0  0
    7.3721   53.5527   25.4804 H   0  0  0  0  0  0
    6.3408   52.7941   26.6534 H   0  0  0  0  0  0
    6.4900   55.8301   26.5315 H   0  0  0  0  0  0
    7.6727   54.8999   27.3957 H   0  0  0  0  0  0
    5.9003   55.6965   28.8786 H   0  0  0  0  0  0
    6.1995   53.9793   28.9123 H   0  0  0  0  0  0
    2.5700   54.8017   26.9779 H   0  0  0  0  0  0
    3.9434   55.6960   26.4812 H   0  0  0  0  0  0
    3.9146   52.6991   26.1892 H   0  0  0  0  0  0
    3.1774   53.7219   25.0093 H   0  0  0  0  0  0
    2.9541   51.7025   28.0222 H   0  0  0  0  0  0
    0.7225   50.6959   27.8371 H   0  0  0  0  0  0
   -0.9162   53.9549   30.0806 H   0  0  0  0  0  0
    7.4261   54.8220   24.1121 H   0  0  0  0  0  0
  1  2  1  0  0  0
  1 36  1  0  0  0
  1 37  1  0  0  0
  1 38  1  0  0  0
  2  7  2  0  0  0
  2  3  1  0  0  0
  3  4  2  0  0  0
  3 39  1  0  0  0
  4  5  1  0  0  0
  4 40  1  0  0  0
  5  6  2  0  0  0
  5  9  1  0  0  0
  6  7  1  0  0  0
  6  8  1  0  0  0
  7 41  1  0  0  0
  8 42  1  0  0  0
  8 43  1  0  0  0
  8 44  1  0  0  0
  9 10  1  0  0  0
  9 45  1  0  0  0
 10 11  2  0  0  0
 10 12  1  0  0  0
 12 13  1  0  0  0
 12 46  1  0  0  0
 13 18  2  0  0  0
 13 14  1  0  0  0
 14 15  2  0  0  0
 14 47  1  0  0  0
 15 16  1  0  0  0
 15 48  1  0  0  0
 16 17  2  0  0  0
 16 19  1  0  0  0
 17 18  1  0  0  0
 17 63  1  0  0  0
 18 49  1  0  0  0
 19 25  1  0  0  0
 19 20  1  0  0  0
 20 21  1  0  0  0
 20 50  1  0  0  0
 20 51  1  0  0  0
 21 22  1  0  0  0
 21 52  1  0  0  0
 21 53  1  0  0  0
 22 23  1  0  0  0
 22 54  1  0  0  0
 22 55  1  0  0  0
 23 24  1  0  0  0
 23 26  1  0  0  0
 24 25  1  0  0  0
 24 56  1  0  0  0
 24 57  1  0  0  0
 25 58  1  0  0  0
 25 59  1  0  0  0
 26 27  2  0  0  0
 26 28  1  0  0  0
 28 33  2  0  0  0
 28 29  1  0  0  0
 29 30  2  0  0  0
 29 60  1  0  0  0
 30 31  1  0  0  0
 30 61  1  0  0  0
 31 32  2  0  0  0
 31 35  1  0  0  0
 32 33  1  0  0  0
 32 62  1  0  0  0
 33 34  1  0  0  0
M  CHG  1  17   1
M  END
> <i_i_glide_confnum>
650

> <i_i_glide_lignum>
5095

> <i_i_glide_posenum>
160

> <i_i_glide_rotatable_bonds>
7

> <i_m_Source_File_Index>
63

> <b_m_subgroup_collapsed>
0

> <r_i_docking_score>
-6.40182

> <r_i_glide_ecoul>
-5.39522

> <r_i_glide_eff_state_penalty>
0

> <r_i_glide_einternal>
5.82092

> <r_i_glide_emodel>
-62.0571

> <r_i_glide_energy>
-45.8005

> <r_i_glide_erotb>
0.544509

> <r_i_glide_esite>
0

> <r_i_glide_evdw>
-40.4053

> <r_i_glide_gscore>
-6.40182

> <r_i_glide_hbond>
-0.310946

> <r_i_glide_ligand_efficiency>
-0.182909

> <r_i_glide_ligand_efficiency_ln>
-1.40534

> <r_i_glide_ligand_efficiency_sa>
-0.598308

> <r_i_glide_lipo>
-2.90113

> <r_i_glide_metal>
0

> <r_i_glide_rewards>
-0.904702

> <s_i_glide_gridfile>
wee1_glide-grid

> <s_m_Source_File>
wee1_decoys_glide_SP.sdf

> <s_m_Source_Path>
/Users/zhangxujun/Desktop

> <s_m_entry_id>
338

> <s_m_entry_name>
wee1_decoys_glide_SP.63

> <s_m_subgroup_title>
wee1_decoys_glide_SP

> <s_m_subgroupid>
wee1_decoys_glide_SP


$$$$
