ZINC06613772_2542
                    3D
 Schrodinger Suite 2024-2.
 36 37  0  0  1  0            999 V2000
    1.5712   52.5644   31.1712 C   0  0  0  0  0  0
    0.9866   52.3065   29.7953 C   0  0  0  0  0  0
   -0.3632   51.9789   29.6822 C   0  0  0  0  0  0
   -0.9070   51.6967   28.4334 C   0  0  0  0  0  0
   -0.1070   51.7547   27.2895 C   0  0  0  0  0  0
    1.2467   52.0810   27.4055 C   0  0  0  0  0  0
    1.7928   52.3601   28.6565 C   0  0  0  0  0  0
   -0.8500   51.3495   25.7010 S   0  0  0  0  0  0
   -2.2846   51.6267   25.8347 O   0  0  0  0  0  0
   -0.3722   50.0136   25.3293 O   0  0  0  0  0  0
   -0.2332   52.4967   24.5112 N   0  0  0  0  0  0
    1.0494   52.2216   24.0731 N   0  0  0  0  0  0
    1.4763   52.5700   22.8286 C   0  0  0  0  0  0
    0.7045   52.0631   21.4445 S   0  0  0  0  0  0
    2.6266   53.2964   22.7043 N   0  0  0  0  0  0
    3.5055   53.8332   23.6661 C   0  0  0  0  0  0
    3.1344   54.1306   24.9855 C   0  0  0  0  0  0
    4.0895   54.5671   25.8961 C   0  0  0  0  0  0
    5.4080   54.7349   25.4872 C   0  0  0  0  0  0
    5.7796   54.4962   24.1662 C   0  0  0  0  0  0
    4.8244   54.0518   23.2538 C   0  0  0  0  0  0
    6.7044   55.2966   26.7553 Br  0  0  0  0  0  0
    1.0992   53.4401   31.6180 H   0  0  0  0  0  0
    1.3659   51.7209   31.8337 H   0  0  0  0  0  0
    2.6508   52.7131   31.1401 H   0  0  0  0  0  0
   -0.9800   51.9048   30.5681 H   0  0  0  0  0  0
   -1.9460   51.4059   28.3641 H   0  0  0  0  0  0
    1.8931   52.0964   26.5448 H   0  0  0  0  0  0
    2.8437   52.5980   28.7364 H   0  0  0  0  0  0
   -0.3128   53.4687   24.8193 H   0  0  0  0  0  0
    1.7298   52.2050   24.8178 H   0  0  0  0  0  0
    2.9296   53.4394   21.7511 H   0  0  0  0  0  0
    2.1157   54.0535   25.3269 H   0  0  0  0  0  0
    3.8080   54.7805   26.9168 H   0  0  0  0  0  0
    6.8051   54.6386   23.8556 H   0  0  0  0  0  0
    5.1245   53.8435   22.2363 H   0  0  0  0  0  0
  1  2  1  0  0  0
  1 23  1  0  0  0
  1 24  1  0  0  0
  1 25  1  0  0  0
  2  7  2  0  0  0
  2  3  1  0  0  0
  3  4  2  0  0  0
  3 26  1  0  0  0
  4  5  1  0  0  0
  4 27  1  0  0  0
  5  6  2  0  0  0
  5  8  1  0  0  0
  6  7  1  0  0  0
  6 28  1  0  0  0
  7 29  1  0  0  0
  8  9  2  0  0  0
  8 10  2  0  0  0
  8 11  1  0  0  0
 11 12  1  0  0  0
 11 30  1  0  0  0
 12 13  1  0  0  0
 12 31  1  0  0  0
 13 14  2  0  0  0
 13 15  1  0  0  0
 15 16  1  0  0  0
 15 32  1  0  0  0
 16 21  2  0  0  0
 16 17  1  0  0  0
 17 18  2  0  0  0
 17 33  1  0  0  0
 18 19  1  0  0  0
 18 34  1  0  0  0
 19 20  2  0  0  0
 19 22  1  0  0  0
 20 21  1  0  0  0
 20 35  1  0  0  0
 21 36  1  0  0  0
M  END
> <i_i_glide_confnum>
92

> <i_i_glide_lignum>
2543

> <i_i_glide_posenum>
321

> <i_i_glide_rotatable_bonds>
6

> <i_m_Source_File_Index>
3755

> <b_m_subgroup_collapsed>
0

> <r_i_docking_score>
-3.72803

> <r_i_glide_ecoul>
0.59251

> <r_i_glide_eff_state_penalty>
0

> <r_i_glide_einternal>
5.7035

> <r_i_glide_emodel>
-41.8048

> <r_i_glide_energy>
-37.0145

> <r_i_glide_erotb>
0.61163

> <r_i_glide_esite>
-0.0857753

> <r_i_glide_evdw>
-37.607

> <r_i_glide_gscore>
-3.72803

> <r_i_glide_hbond>
0

> <r_i_glide_ligand_efficiency>
-0.169456

> <r_i_glide_ligand_efficiency_ln>
-0.911266

> <r_i_glide_ligand_efficiency_sa>
-0.474822

> <r_i_glide_lipo>
-2.06936

> <r_i_glide_metal>
0

> <r_i_glide_rewards>
-0.393046

> <s_i_glide_gridfile>
wee1_glide-grid

> <s_m_Source_File>
wee1_decoys_glide_SP.sdf

> <s_m_Source_Path>
/Users/zhangxujun/Desktop

> <s_m_entry_id>
4030

> <s_m_entry_name>
wee1_decoys_glide_SP.3755

> <s_m_subgroup_title>
wee1_decoys_glide_SP

> <s_m_subgroupid>
wee1_decoys_glide_SP


$$$$
