ZINC15449191_2547
                    3D
 Schrodinger Suite 2024-2.
 72 75  0  0  1  0            999 V2000
   -0.9090   48.8111   22.2870 C   0  0  0  0  0  0
   -0.5810   49.2139   23.7469 C   0  0  1  0  0  0
   -1.4985   49.6398   24.1461 H   0  0  0  0  0  0
   -0.2739   47.9768   24.6316 C   0  0  0  0  0  0
   -1.2723   46.7920   24.5812 C   0  0  0  0  0  0
   -2.6862   47.0084   25.1345 C   0  0  0  0  0  0
   -3.5113   46.0963   25.0597 O   0  0  0  0  0  0
   -2.8964   48.2210   25.6825 O   0  0  0  0  0  0
   -4.1271   48.5268   26.3158 C   0  0  0  0  0  0
    0.5402   50.3058   23.9054 C   0  0  1  0  0  0
    0.9640   50.1426   24.8955 H   0  0  0  0  0  0
    1.7636   50.1651   22.9763 C   0  0  0  0  0  0
    2.0074   51.5508   22.3815 C   0  0  0  0  0  0
    1.3847   52.5785   23.3536 C   0  0  1  0  0  0
    1.0577   53.4457   22.7737 H   0  0  0  0  0  0
    0.1064   51.8204   23.8840 C   0  0  2  0  0  0
   -0.3445   52.3351   25.2907 C   0  0  2  0  0  0
   -0.8252   53.2976   25.1417 H   0  0  0  0  0  0
    0.8268   52.5364   26.2627 C   0  0  0  0  0  0
    1.8089   53.6167   25.7539 C   0  0  2  0  0  0
    1.2331   54.4967   25.4796 H   0  0  0  0  0  0
    2.4258   53.1281   24.4079 C   0  0  2  0  0  0
    3.1032   52.3192   24.6508 H   0  0  0  0  0  0
    3.2866   54.2980   23.8525 C   0  0  1  0  0  0
    2.6752   55.2023   23.8343 H   0  0  0  0  0  0
    4.4735   54.5434   24.7927 C   0  0  0  0  0  0
    4.0148   54.9560   26.2150 C   0  0  1  0  0  0
    3.5276   55.9153   26.0707 H   0  0  0  0  0  0
    2.8938   54.0426   26.8459 C   0  0  2  0  0  0
    3.6806   52.8310   27.3660 C   0  0  0  0  0  0
    4.6726   53.0658   28.5103 C   0  0  0  0  0  0
    5.7970   53.9935   28.0215 C   0  0  2  0  0  0
    6.3301   54.3927   28.8876 H   0  0  0  0  0  0
    5.2674   55.1364   27.1414 C   0  0  0  0  0  0
    6.7423   53.2967   27.2508 O   0  0  0  0  0  0
    2.1554   54.7553   28.0221 C   0  0  0  0  0  0
    3.7565   54.1173   22.5306 O   0  0  0  0  0  0
   -1.3488   51.5282   25.8794 O   0  0  0  0  0  0
   -1.0576   52.0939   22.8791 C   0  0  0  0  0  0
   -0.1438   48.1679   21.8550 H   0  0  0  0  0  0
   -1.8512   48.2638   22.2342 H   0  0  0  0  0  0
   -1.0109   49.6713   21.6288 H   0  0  0  0  0  0
   -0.1681   48.2898   25.6739 H   0  0  0  0  0  0
    0.7040   47.5935   24.3527 H   0  0  0  0  0  0
   -0.8547   45.9885   25.1810 H   0  0  0  0  0  0
   -1.3598   46.4176   23.5619 H   0  0  0  0  0  0
   -4.1058   49.5532   26.6830 H   0  0  0  0  0  0
   -4.3030   47.8659   27.1649 H   0  0  0  0  0  0
   -4.9620   48.4331   25.6195 H   0  0  0  0  0  0
    2.6411   49.8852   23.5646 H   0  0  0  0  0  0
    1.6598   49.4137   22.1945 H   0  0  0  0  0  0
    3.0669   51.7132   22.1830 H   0  0  0  0  0  0
    1.5121   51.6170   21.4120 H   0  0  0  0  0  0
    1.3621   51.6121   26.4736 H   0  0  0  0  0  0
    0.4092   52.8335   27.2256 H   0  0  0  0  0  0
    5.1516   55.2937   24.3830 H   0  0  0  0  0  0
    5.0824   53.6407   24.8426 H   0  0  0  0  0  0
    3.0140   52.0436   27.7108 H   0  0  0  0  0  0
    4.2444   52.4966   26.5138 H   0  0  0  0  0  0
    5.0590   52.1144   28.8782 H   0  0  0  0  0  0
    4.1292   53.5418   29.3256 H   0  0  0  0  0  0
    6.0683   55.6996   26.6652 H   0  0  0  0  0  0
    4.8416   55.6967   27.9482 H   0  0  0  0  0  0
    6.2863   52.6037   26.7643 H   0  0  0  0  0  0
    2.8217   55.3392   28.6543 H   0  0  0  0  0  0
    1.3780   55.4376   27.6820 H   0  0  0  0  0  0
    1.6651   54.0355   28.6788 H   0  0  0  0  0  0
    3.0052   54.0913   21.9305 H   0  0  0  0  0  0
   -0.9677   50.6820   26.1373 H   0  0  0  0  0  0
   -1.3554   53.1413   22.8928 H   0  0  0  0  0  0
   -0.7848   51.8634   21.8512 H   0  0  0  0  0  0
   -1.9581   51.5318   23.1203 H   0  0  0  0  0  0
  1  2  1  0  0  0
  1 40  1  0  0  0
  1 41  1  0  0  0
  1 42  1  0  0  0
  2  3  1  0  0  0
  2  4  1  0  0  0
  2 10  1  0  0  0
  4  5  1  0  0  0
  4 43  1  0  0  0
  4 44  1  0  0  0
  5  6  1  0  0  0
  5 45  1  0  0  0
  5 46  1  0  0  0
  6  7  2  0  0  0
  6  8  1  0  0  0
  8  9  1  0  0  0
  9 47  1  0  0  0
  9 48  1  0  0  0
  9 49  1  0  0  0
 10 11  1  0  0  0
 10 16  1  0  0  0
 10 12  1  0  0  0
 12 13  1  0  0  0
 12 50  1  0  0  0
 12 51  1  0  0  0
 13 14  1  0  0  0
 13 52  1  0  0  0
 13 53  1  0  0  0
 14 15  1  0  0  0
 14 22  1  0  0  0
 14 16  1  0  0  0
 16 17  1  0  0  0
 16 39  1  0  0  0
 17 18  1  0  0  0
 17 19  1  0  0  0
 17 38  1  0  0  0
 19 20  1  0  0  0
 19 54  1  0  0  0
 19 55  1  0  0  0
 20 21  1  0  0  0
 20 29  1  0  0  0
 20 22  1  0  0  0
 22 23  1  0  0  0
 22 24  1  0  0  0
 24 25  1  0  0  0
 24 26  1  0  0  0
 24 37  1  0  0  0
 26 27  1  0  0  0
 26 56  1  0  0  0
 26 57  1  0  0  0
 27 28  1  0  0  0
 27 34  1  0  0  0
 27 29  1  0  0  0
 29 30  1  0  0  0
 29 36  1  0  0  0
 30 31  1  0  0  0
 30 58  1  0  0  0
 30 59  1  0  0  0
 31 32  1  0  0  0
 31 60  1  0  0  0
 31 61  1  0  0  0
 32 33  1  0  0  0
 32 34  1  0  0  0
 32 35  1  0  0  0
 34 62  1  0  0  0
 34 63  1  0  0  0
 35 64  1  0  0  0
 36 65  1  0  0  0
 36 66  1  0  0  0
 36 67  1  0  0  0
 37 68  1  0  0  0
 38 69  1  0  0  0
 39 70  1  0  0  0
 39 71  1  0  0  0
 39 72  1  0  0  0
M  END
> <i_i_glide_confnum>
67

> <i_i_glide_lignum>
2548

> <i_i_glide_posenum>
338

> <i_i_glide_rotatable_bonds>
8

> <i_m_Source_File_Index>
641

> <b_m_subgroup_collapsed>
0

> <r_i_docking_score>
-4.95576

> <r_i_glide_ecoul>
-4.28757

> <r_i_glide_eff_state_penalty>
0

> <r_i_glide_einternal>
7.26335

> <r_i_glide_emodel>
-30.7023

> <r_i_glide_energy>
-27.4449

> <r_i_glide_erotb>
0.443742

> <r_i_glide_esite>
-0.0687936

> <r_i_glide_evdw>
-23.1573

> <r_i_glide_gscore>
-4.95576

> <r_i_glide_hbond>
-0.101287

> <r_i_glide_ligand_efficiency>
-0.165192

> <r_i_glide_ligand_efficiency_ln>
-1.126

> <r_i_glide_ligand_efficiency_sa>
-0.51329

> <r_i_glide_lipo>
-2.8341

> <r_i_glide_metal>
0

> <r_i_glide_rewards>
-0.594324

> <s_i_glide_gridfile>
wee1_glide-grid

> <s_m_Source_File>
wee1_decoys_glide_SP.sdf

> <s_m_Source_Path>
/Users/zhangxujun/Desktop

> <s_m_entry_id>
916

> <s_m_entry_name>
wee1_decoys_glide_SP.641

> <s_m_subgroup_title>
wee1_decoys_glide_SP

> <s_m_subgroupid>
wee1_decoys_glide_SP


$$$$
