ZINC35485526_4292
                    3D
 Schrodinger Suite 2024-2.
 67 70  0  0  1  0            999 V2000
    4.1330   54.4574   29.0367 C   0  0  0  0  0  0
    2.6413   54.5880   29.4070 C   0  0  0  0  0  0
    2.1087   56.0101   29.1476 C   0  0  0  0  0  0
    1.7744   53.5258   28.7278 C   0  0  0  0  0  0
    1.7335   53.4348   27.3334 C   0  0  0  0  0  0
    0.9096   52.4978   26.7198 C   0  0  0  0  0  0
    0.1159   51.6499   27.4995 C   0  0  0  0  0  0
    0.1772   51.7137   28.8904 C   0  0  0  0  0  0
    1.0012   52.6557   29.5040 C   0  0  0  0  0  0
   -0.7362   50.6952   26.9304 N   0  0  0  0  0  0
   -1.5024   50.8520   25.8317 C   0  0  0  0  0  0
   -1.6480   51.9390   25.2658 O   0  0  0  0  0  0
   -2.3215   49.6074   25.3879 C   0  0  2  0  0  0
   -1.3776   48.3943   25.1588 C   0  0  0  0  0  0
   -0.4504   48.5761   23.9364 C   0  0  0  0  0  0
   -1.2281   48.9199   22.6313 C   0  0  1  0  0  0
   -2.2801   50.0465   22.8358 C   0  0  0  0  0  0
   -3.1479   49.8485   24.0967 C   0  0  0  0  0  0
   -0.3032   49.1790   21.4149 C   0  0  0  0  0  0
    0.6402   50.2793   21.6239 N   0  0  0  0  0  0
    0.4649   51.5695   21.2711 C   0  0  0  0  0  0
   -0.5492   51.9700   20.6968 O   0  0  0  0  0  0
    1.5862   52.5787   21.6283 C   0  0  2  0  0  0
    1.1051   53.5553   21.6848 H   0  0  0  0  0  0
    2.7006   52.5449   20.5520 C   0  0  0  0  0  0
    3.9040   53.3988   20.9553 C   0  0  0  0  0  0
    4.7971   53.8774   19.9914 C   0  0  0  0  0  0
    5.9043   54.6338   20.3606 C   0  0  0  0  0  0
    6.1478   54.8965   21.7035 C   0  0  0  0  0  0
    5.2657   54.4221   22.6717 C   0  0  0  0  0  0
    4.1224   53.6997   22.3144 C   0  0  0  0  0  0
    3.0729   53.3141   23.3647 C   0  0  0  0  0  0
    2.1689   52.2465   22.9354 N   0  0  0  0  0  0
    4.4984   53.4461   29.2165 H   0  0  0  0  0  0
    4.7472   55.1348   29.6313 H   0  0  0  0  0  0
    4.3112   54.6928   27.9873 H   0  0  0  0  0  0
    2.5727   54.4161   30.4792 H   0  0  0  0  0  0
    1.0831   56.1163   29.4987 H   0  0  0  0  0  0
    2.7040   56.7620   29.6678 H   0  0  0  0  0  0
    2.1200   56.2500   28.0828 H   0  0  0  0  0  0
    2.3246   54.0999   26.7204 H   0  0  0  0  0  0
    0.8801   52.4419   25.6406 H   0  0  0  0  0  0
   -0.4256   51.0551   29.5016 H   0  0  0  0  0  0
    1.0206   52.7122   30.5846 H   0  0  0  0  0  0
   -0.8955   49.8476   27.4752 H   0  0  0  0  0  0
   -2.9410   49.3715   26.2526 H   0  0  0  0  0  0
   -0.8398   48.1255   26.0720 H   0  0  0  0  0  0
   -1.9994   47.5070   25.0239 H   0  0  0  0  0  0
    0.1726   47.6967   23.7943 H   0  0  0  0  0  0
    0.2572   49.3791   24.1547 H   0  0  0  0  0  0
   -1.8212   48.0295   22.4168 H   0  0  0  0  0  0
   -2.8987   50.1515   21.9440 H   0  0  0  0  0  0
   -1.7649   51.0039   22.9237 H   0  0  0  0  0  0
   -3.8017   48.9869   23.9543 H   0  0  0  0  0  0
   -3.8768   50.6473   24.2448 H   0  0  0  0  0  0
    0.3016   48.2956   21.2119 H   0  0  0  0  0  0
   -0.8999   49.3809   20.5213 H   0  0  0  0  0  0
    1.5074   50.0579   22.0908 H   0  0  0  0  0  0
    3.0668   51.5255   20.4118 H   0  0  0  0  0  0
    2.3135   52.8789   19.5885 H   0  0  0  0  0  0
    4.6332   53.6473   18.9478 H   0  0  0  0  0  0
    6.5848   54.9980   19.5999 H   0  0  0  0  0  0
    7.0155   55.4707   21.9963 H   0  0  0  0  0  0
    5.4486   54.6560   23.7095 H   0  0  0  0  0  0
    2.4976   54.2059   23.6232 H   0  0  0  0  0  0
    3.5571   52.9863   24.2843 H   0  0  0  0  0  0
    1.4325   52.1551   23.6217 H   0  0  0  0  0  0
  1  2  1  0  0  0
  1 34  1  0  0  0
  1 35  1  0  0  0
  1 36  1  0  0  0
  2  3  1  0  0  0
  2  4  1  0  0  0
  2 37  1  0  0  0
  3 38  1  0  0  0
  3 39  1  0  0  0
  3 40  1  0  0  0
  4  9  2  0  0  0
  4  5  1  0  0  0
  5  6  2  0  0  0
  5 41  1  0  0  0
  6  7  1  0  0  0
  6 42  1  0  0  0
  7  8  2  0  0  0
  7 10  1  0  0  0
  8  9  1  0  0  0
  8 43  1  0  0  0
  9 44  1  0  0  0
 10 11  1  0  0  0
 10 45  1  0  0  0
 11 12  2  0  0  0
 11 13  1  0  0  0
 13 18  1  0  0  0
 13 14  1  0  0  0
 13 46  1  0  0  0
 14 15  1  0  0  0
 14 47  1  0  0  0
 14 48  1  0  0  0
 15 16  1  0  0  0
 15 49  1  0  0  0
 15 50  1  0  0  0
 16 17  1  0  0  0
 16 19  1  0  0  0
 16 51  1  0  0  0
 17 18  1  0  0  0
 17 52  1  0  0  0
 17 53  1  0  0  0
 18 54  1  0  0  0
 18 55  1  0  0  0
 19 20  1  0  0  0
 19 56  1  0  0  0
 19 57  1  0  0  0
 20 21  1  0  0  0
 20 58  1  0  0  0
 21 22  2  0  0  0
 21 23  1  0  0  0
 23 24  1  0  0  0
 23 33  1  0  0  0
 23 25  1  0  0  0
 25 26  1  0  0  0
 25 59  1  0  0  0
 25 60  1  0  0  0
 26 31  2  0  0  0
 26 27  1  0  0  0
 27 28  2  0  0  0
 27 61  1  0  0  0
 28 29  1  0  0  0
 28 62  1  0  0  0
 29 30  2  0  0  0
 29 63  1  0  0  0
 30 31  1  0  0  0
 30 64  1  0  0  0
 31 32  1  0  0  0
 32 33  1  0  0  0
 32 65  1  0  0  0
 32 66  1  0  0  0
 33 67  1  0  0  0
M  END
> <i_i_glide_confnum>
188

> <i_i_glide_lignum>
4293

> <i_i_glide_posenum>
302

> <i_i_glide_rotatable_bonds>
8

> <i_m_Source_File_Index>
2226

> <b_m_subgroup_collapsed>
0

> <r_i_docking_score>
-4.89728

> <r_i_glide_ecoul>
-5.88943

> <r_i_glide_eff_state_penalty>
0

> <r_i_glide_einternal>
7.7859

> <r_i_glide_emodel>
-52.7081

> <r_i_glide_energy>
-43.1853

> <r_i_glide_erotb>
0.635387

> <r_i_glide_esite>
-0.137784

> <r_i_glide_evdw>
-37.2959

> <r_i_glide_gscore>
-4.89728

> <r_i_glide_hbond>
-0.16

> <r_i_glide_ligand_efficiency>
-0.15304

> <r_i_glide_ligand_efficiency_ln>
-1.09663

> <r_i_glide_ligand_efficiency_sa>
-0.485871

> <r_i_glide_lipo>
-2.1714

> <r_i_glide_metal>
0

> <r_i_glide_rewards>
-0.315267

> <s_i_glide_gridfile>
wee1_glide-grid

> <s_m_Source_File>
wee1_decoys_glide_SP.sdf

> <s_m_Source_Path>
/Users/zhangxujun/Desktop

> <s_m_entry_id>
2501

> <s_m_entry_name>
wee1_decoys_glide_SP.2226

> <s_m_subgroup_title>
wee1_decoys_glide_SP

> <s_m_subgroupid>
wee1_decoys_glide_SP


$$$$
