ZINC39656844_377
                    3D
 Schrodinger Suite 2024-2.
 67 70  0  0  1  0            999 V2000
    4.1749   52.5170   15.4281 C   0  0  0  0  0  0
    4.0792   53.6705   16.4441 C   0  0  1  0  0  0
    4.6471   54.4995   16.0131 H   0  0  0  0  0  0
    2.6353   54.1369   16.6771 C   0  0  0  0  0  0
    1.6369   53.2176   17.0238 C   0  0  0  0  0  0
    0.3406   53.6548   17.2834 C   0  0  0  0  0  0
    0.0376   55.0132   17.2032 C   0  0  0  0  0  0
    1.0183   55.9332   16.8323 C   0  0  0  0  0  0
    2.3116   55.4960   16.5620 C   0  0  0  0  0  0
   -1.7070   55.6235   17.6623 Br  0  0  0  0  0  0
    4.7444   53.2970   17.6958 N   0  0  0  0  0  0
    5.0095   54.1411   18.7100 C   0  0  0  0  0  0
    4.8240   55.3552   18.6312 O   0  0  0  0  0  0
    5.5037   53.4673   20.0174 C   0  0  1  0  0  0
    6.3036   52.8065   19.6845 H   0  0  0  0  0  0
    6.0458   54.5612   20.9876 C   0  0  0  0  0  0
    5.6814   54.0841   22.3280 N   0  0  0  0  0  0
    4.9393   52.8338   22.2818 C   0  0  0  0  0  0
    4.4087   52.7270   20.8529 C   0  0  0  0  0  0
    4.1599   51.2811   20.3837 C   0  0  0  0  0  0
    3.1393   50.5163   21.2547 C   0  0  0  0  0  0
    1.7973   51.2738   21.1924 N   0  3  0  0  0  0
    1.9154   52.7510   21.6177 C   0  0  0  0  0  0
    3.0233   53.4105   20.7665 C   0  0  0  0  0  0
    6.0009   54.7520   23.4635 C   0  0  0  0  0  0
    6.7868   55.6949   23.4734 O   0  0  0  0  0  0
    5.2805   54.4045   24.7485 C   0  0  0  0  0  0
    3.8829   54.3752   24.7988 C   0  0  0  0  0  0
    3.2209   54.0967   25.9920 C   0  0  0  0  0  0
    3.9385   53.8841   27.1775 C   0  0  0  0  0  0
    5.3409   53.9393   27.1463 C   0  0  0  0  0  0
    5.9993   54.1972   25.9277 C   0  0  0  0  0  0
    5.9986   53.7391   28.3436 O   0  0  0  0  0  0
    7.4155   53.6972   28.3553 C   0  0  0  0  0  0
    3.3386   53.6239   28.3981 O   0  0  0  0  0  0
    1.9190   53.5452   28.4839 C   0  0  0  0  0  0
    3.7229   52.7947   14.4763 H   0  0  0  0  0  0
    5.2145   52.2550   15.2296 H   0  0  0  0  0  0
    3.6790   51.6130   15.7843 H   0  0  0  0  0  0
    1.8722   52.1677   17.1199 H   0  0  0  0  0  0
   -0.4208   52.9466   17.5702 H   0  0  0  0  0  0
    0.7836   56.9872   16.7784 H   0  0  0  0  0  0
    3.0724   56.2176   16.3039 H   0  0  0  0  0  0
    5.0035   52.3189   17.7902 H   0  0  0  0  0  0
    7.1183   54.7195   20.8721 H   0  0  0  0  0  0
    5.5010   55.5007   20.8814 H   0  0  0  0  0  0
    4.1380   52.7178   22.9969 H   0  0  0  0  0  0
    5.6529   52.0274   22.4499 H   0  0  0  0  0  0
    3.8509   51.2741   19.3377 H   0  0  0  0  0  0
    5.1033   50.7463   20.4294 H   0  0  0  0  0  0
    2.9450   49.5113   20.8767 H   0  0  0  0  0  0
    3.4143   50.4571   22.3080 H   0  0  0  0  0  0
    1.4699   51.2449   20.2324 H   0  0  0  0  0  0
    0.9434   53.2094   21.4269 H   0  0  0  0  0  0
    2.0942   52.7655   22.6918 H   0  0  0  0  0  0
    3.1131   54.4474   21.0886 H   0  0  0  0  0  0
    2.6969   53.4533   19.7288 H   0  0  0  0  0  0
    3.2974   54.5827   23.9154 H   0  0  0  0  0  0
    2.1422   54.0788   25.9795 H   0  0  0  0  0  0
    7.0771   54.2354   25.8776 H   0  0  0  0  0  0
    7.7744   53.6977   29.3799 H   0  0  0  0  0  0
    7.7694   52.7885   27.8659 H   0  0  0  0  0  0
    7.8668   54.5642   27.8760 H   0  0  0  0  0  0
    1.6317   53.3341   29.5145 H   0  0  0  0  0  0
    1.4475   54.4878   28.1992 H   0  0  0  0  0  0
    1.5239   52.7399   27.8614 H   0  0  0  0  0  0
    1.0984   50.7976   21.7511 H   0  0  0  0  0  0
  1  2  1  0  0  0
  1 37  1  0  0  0
  1 38  1  0  0  0
  1 39  1  0  0  0
  2  3  1  0  0  0
  2  4  1  0  0  0
  2 11  1  0  0  0
  4  9  2  0  0  0
  4  5  1  0  0  0
  5  6  2  0  0  0
  5 40  1  0  0  0
  6  7  1  0  0  0
  6 41  1  0  0  0
  7  8  2  0  0  0
  7 10  1  0  0  0
  8  9  1  0  0  0
  8 42  1  0  0  0
  9 43  1  0  0  0
 11 12  1  0  0  0
 11 44  1  0  0  0
 12 13  2  0  0  0
 12 14  1  0  0  0
 14 15  1  0  0  0
 14 19  1  0  0  0
 14 16  1  0  0  0
 16 17  1  0  0  0
 16 45  1  0  0  0
 16 46  1  0  0  0
 17 18  1  0  0  0
 17 25  1  0  0  0
 18 19  1  0  0  0
 18 47  1  0  0  0
 18 48  1  0  0  0
 19 24  1  0  0  0
 19 20  1  0  0  0
 20 21  1  0  0  0
 20 49  1  0  0  0
 20 50  1  0  0  0
 21 22  1  0  0  0
 21 51  1  0  0  0
 21 52  1  0  0  0
 22 23  1  0  0  0
 22 53  1  0  0  0
 22 67  1  0  0  0
 23 24  1  0  0  0
 23 54  1  0  0  0
 23 55  1  0  0  0
 24 56  1  0  0  0
 24 57  1  0  0  0
 25 26  2  0  0  0
 25 27  1  0  0  0
 27 32  2  0  0  0
 27 28  1  0  0  0
 28 29  2  0  0  0
 28 58  1  0  0  0
 29 30  1  0  0  0
 29 59  1  0  0  0
 30 31  2  0  0  0
 30 35  1  0  0  0
 31 32  1  0  0  0
 31 33  1  0  0  0
 32 60  1  0  0  0
 33 34  1  0  0  0
 34 61  1  0  0  0
 34 62  1  0  0  0
 34 63  1  0  0  0
 35 36  1  0  0  0
 36 64  1  0  0  0
 36 65  1  0  0  0
 36 66  1  0  0  0
M  CHG  1  22   1
M  END
> <i_i_glide_confnum>
195

> <i_i_glide_lignum>
378

> <i_i_glide_posenum>
330

> <i_i_glide_rotatable_bonds>
8

> <i_m_Source_File_Index>
5854

> <b_m_subgroup_collapsed>
0

> <r_i_docking_score>
-5.11923

> <r_i_glide_ecoul>
-2.49457

> <r_i_glide_eff_state_penalty>
0

> <r_i_glide_einternal>
5.29575

> <r_i_glide_emodel>
-52.0311

> <r_i_glide_energy>
-39.2393

> <r_i_glide_erotb>
0.36502

> <r_i_glide_esite>
-0.0857081

> <r_i_glide_evdw>
-36.7448

> <r_i_glide_gscore>
-5.11923

> <r_i_glide_hbond>
-0.16

> <r_i_glide_ligand_efficiency>
-0.150566

> <r_i_glide_ligand_efficiency_ln>
-1.13098

> <r_i_glide_ligand_efficiency_sa>
-0.487774

> <r_i_glide_lipo>
-2.32996

> <r_i_glide_metal>
0

> <r_i_glide_rewards>
-0.697151

> <s_i_glide_gridfile>
wee1_glide-grid

> <s_m_Source_File>
wee1_decoys_glide_SP.sdf

> <s_m_Source_Path>
/Users/zhangxujun/Desktop

> <s_m_entry_id>
6129

> <s_m_entry_name>
wee1_decoys_glide_SP.5854

> <s_m_subgroup_title>
wee1_decoys_glide_SP

> <s_m_subgroupid>
wee1_decoys_glide_SP


$$$$
