ZINC39684530_1325
                    3D
 Schrodinger Suite 2024-2.
 62 64  0  0  1  0            999 V2000
   -2.5715   50.4678   23.0960 C   0  0  0  0  0  0
   -1.1213   49.9527   23.2731 C   0  0  2  0  0  0
   -1.0151   49.0861   22.6148 H   0  0  0  0  0  0
   -0.7789   49.4549   24.7244 C   0  0  0  0  0  0
    0.6477   48.8577   24.7443 C   0  0  0  0  0  0
   -1.7501   48.3342   25.1726 C   0  0  0  0  0  0
   -0.8314   50.6097   25.7571 C   0  0  0  0  0  0
   -0.1678   50.9609   22.8037 N   0  0  0  0  0  0
    0.0741   51.3123   21.5272 C   0  0  0  0  0  0
   -0.4613   50.7527   20.5745 O   0  0  0  0  0  0
    1.0490   52.4931   21.2748 C   0  0  1  0  0  0
    0.6376   53.0149   20.4108 H   0  0  0  0  0  0
    1.1050   53.4778   22.4697 C   0  0  0  0  0  0
    2.3496   53.1606   23.1536 N   0  0  0  0  0  0
    3.1261   52.1531   22.4258 C   0  0  0  0  0  0
    2.5303   52.0703   21.0142 C   0  0  0  0  0  0
    3.3396   53.0964   20.1635 C   0  0  0  0  0  0
    2.9187   53.1179   18.6816 C   0  0  0  0  0  0
    3.1018   51.6967   18.1037 N   0  3  0  0  0  0
    2.3652   50.6071   18.9109 C   0  0  0  0  0  0
    2.8455   50.6896   20.3704 C   0  0  0  0  0  0
    2.5614   53.5566   24.4303 C   0  0  0  0  0  0
    1.6295   53.6966   25.2232 O   0  0  0  0  0  0
    3.9289   53.8794   24.8187 C   0  0  0  0  0  0
    5.0223   54.1758   23.9916 C   0  0  0  0  0  0
    6.1202   54.5100   24.7793 C   0  0  0  0  0  0
    5.6957   54.4475   26.0908 C   0  0  0  0  0  0
    4.3696   54.0865   26.1256 N   0  0  0  0  0  0
    3.6102   53.9158   27.3590 C   0  0  0  0  0  0
   -3.3033   49.7399   23.4428 H   0  0  0  0  0  0
   -2.7480   51.3841   23.6585 H   0  0  0  0  0  0
   -2.8041   50.6560   22.0472 H   0  0  0  0  0  0
    1.4094   49.5756   24.4410 H   0  0  0  0  0  0
    0.9239   48.4983   25.7372 H   0  0  0  0  0  0
    0.7041   48.0050   24.0687 H   0  0  0  0  0  0
   -2.7488   48.7161   25.3923 H   0  0  0  0  0  0
   -1.8498   47.5603   24.4091 H   0  0  0  0  0  0
   -1.4013   47.8428   26.0818 H   0  0  0  0  0  0
   -1.8245   51.0553   25.8183 H   0  0  0  0  0  0
   -0.5843   50.2534   26.7596 H   0  0  0  0  0  0
   -0.1278   51.4068   25.5171 H   0  0  0  0  0  0
    0.3587   51.4329   23.5244 H   0  0  0  0  0  0
    1.1848   54.4910   22.0820 H   0  0  0  0  0  0
    0.2077   53.4070   23.0877 H   0  0  0  0  0  0
    2.9097   51.1881   22.8819 H   0  0  0  0  0  0
    4.2106   52.2421   22.4515 H   0  0  0  0  0  0
    4.4095   52.8908   20.2221 H   0  0  0  0  0  0
    3.2346   54.0964   20.5848 H   0  0  0  0  0  0
    3.5460   53.7776   18.0782 H   0  0  0  0  0  0
    1.8737   53.3840   18.5266 H   0  0  0  0  0  0
    4.0888   51.4187   18.0827 H   0  0  0  0  0  0
    2.6357   49.6573   18.4434 H   0  0  0  0  0  0
    1.2984   50.7885   18.7778 H   0  0  0  0  0  0
    2.3931   49.8827   20.9476 H   0  0  0  0  0  0
    3.9166   50.4965   20.4069 H   0  0  0  0  0  0
    5.0228   54.1735   22.9112 H   0  0  0  0  0  0
    7.1043   54.7831   24.4249 H   0  0  0  0  0  0
    6.2302   54.6362   27.0104 H   0  0  0  0  0  0
    4.2738   53.9726   28.2235 H   0  0  0  0  0  0
    2.8683   54.7119   27.4361 H   0  0  0  0  0  0
    3.1183   52.9414   27.3545 H   0  0  0  0  0  0
    2.8023   51.6556   17.1403 H   0  0  0  0  0  0
  1  2  1  0  0  0
  1 30  1  0  0  0
  1 31  1  0  0  0
  1 32  1  0  0  0
  2  3  1  0  0  0
  2  4  1  0  0  0
  2  8  1  0  0  0
  4  5  1  0  0  0
  4  6  1  0  0  0
  4  7  1  0  0  0
  5 33  1  0  0  0
  5 34  1  0  0  0
  5 35  1  0  0  0
  6 36  1  0  0  0
  6 37  1  0  0  0
  6 38  1  0  0  0
  7 39  1  0  0  0
  7 40  1  0  0  0
  7 41  1  0  0  0
  8  9  1  0  0  0
  8 42  1  0  0  0
  9 10  2  0  0  0
  9 11  1  0  0  0
 11 12  1  0  0  0
 11 16  1  0  0  0
 11 13  1  0  0  0
 13 14  1  0  0  0
 13 43  1  0  0  0
 13 44  1  0  0  0
 14 15  1  0  0  0
 14 22  1  0  0  0
 15 16  1  0  0  0
 15 45  1  0  0  0
 15 46  1  0  0  0
 16 21  1  0  0  0
 16 17  1  0  0  0
 17 18  1  0  0  0
 17 47  1  0  0  0
 17 48  1  0  0  0
 18 19  1  0  0  0
 18 49  1  0  0  0
 18 50  1  0  0  0
 19 20  1  0  0  0
 19 51  1  0  0  0
 19 62  1  0  0  0
 20 21  1  0  0  0
 20 52  1  0  0  0
 20 53  1  0  0  0
 21 54  1  0  0  0
 21 55  1  0  0  0
 22 23  2  0  0  0
 22 24  1  0  0  0
 24 28  1  0  0  0
 24 25  2  0  0  0
 25 26  1  0  0  0
 25 56  1  0  0  0
 26 27  2  0  0  0
 26 57  1  0  0  0
 27 28  1  0  0  0
 27 58  1  0  0  0
 28 29  1  0  0  0
 29 59  1  0  0  0
 29 60  1  0  0  0
 29 61  1  0  0  0
M  CHG  1  19   1
M  END
> <i_i_glide_confnum>
185

> <i_i_glide_lignum>
1326

> <i_i_glide_posenum>
108

> <i_i_glide_rotatable_bonds>
6

> <i_m_Source_File_Index>
4726

> <b_m_subgroup_collapsed>
0

> <r_i_docking_score>
-4.03372

> <r_i_glide_ecoul>
-5.57054

> <r_i_glide_eff_state_penalty>
0

> <r_i_glide_einternal>
16.7799

> <r_i_glide_emodel>
-32.8562

> <r_i_glide_energy>
-33.518

> <r_i_glide_erotb>
0.685989

> <r_i_glide_esite>
-0.1

> <r_i_glide_evdw>
-27.9475

> <r_i_glide_gscore>
-4.03372

> <r_i_glide_hbond>
-0.2

> <r_i_glide_ligand_efficiency>
-0.149397

> <r_i_glide_ligand_efficiency_ln>
-0.938984

> <r_i_glide_ligand_efficiency_sa>
-0.448191

> <r_i_glide_lipo>
-1.39219

> <r_i_glide_metal>
0

> <r_i_glide_rewards>
-0.794562

> <s_i_glide_gridfile>
wee1_glide-grid

> <s_m_Source_File>
wee1_decoys_glide_SP.sdf

> <s_m_Source_Path>
/Users/zhangxujun/Desktop

> <s_m_entry_id>
5001

> <s_m_entry_name>
wee1_decoys_glide_SP.4726

> <s_m_subgroup_title>
wee1_decoys_glide_SP

> <s_m_subgroupid>
wee1_decoys_glide_SP


$$$$
