ZINC12562034_4032
                    3D
 Schrodinger Suite 2024-2.
 51 53  0  0  1  0            999 V2000
    3.0362   53.0886   28.9194 C   0  0  0  0  0  0
    3.3307   53.5093   27.4837 C   0  0  0  0  0  0
    4.5643   54.1040   27.1979 C   0  0  0  0  0  0
    4.8750   54.4976   25.8982 C   0  0  0  0  0  0
    3.9626   54.2901   24.8688 C   0  0  0  0  0  0
    2.7319   53.6967   25.1377 C   0  0  0  0  0  0
    2.4022   53.2971   26.4442 C   0  0  0  0  0  0
    1.1495   52.7417   26.7677 N   0  0  0  0  0  0
    0.2736   52.0972   25.9680 C   0  0  0  0  0  0
    0.4929   51.7875   24.7966 O   0  0  0  0  0  0
   -1.0688   51.8079   26.5931 C   0  0  0  0  0  0
   -2.2142   51.7770   25.7862 C   0  0  0  0  0  0
   -3.4618   51.5107   26.3417 C   0  0  0  0  0  0
   -3.5744   51.2731   27.7122 C   0  0  0  0  0  0
   -2.4419   51.2965   28.5231 C   0  0  0  0  0  0
   -1.1941   51.5612   27.9684 C   0  0  0  0  0  0
   -5.1689   50.8925   28.4353 S   0  0  0  0  0  0
   -5.2952   51.6801   29.6686 O   0  0  0  0  0  0
   -6.1672   51.0380   27.3689 O   0  0  0  0  0  0
   -5.0974   49.1717   28.8615 N   0  0  0  0  0  0
   -5.1212   48.7015   30.2602 C   0  0  0  0  0  0
   -6.1133   47.5199   30.3345 C   0  0  1  0  0  0
   -7.1137   47.8462   30.0406 H   0  0  0  0  0  0
   -5.6659   46.4975   29.4356 O   0  0  0  0  0  0
   -5.6202   46.8869   28.0553 C   0  0  1  0  0  0
   -6.6436   47.1130   27.7461 H   0  0  0  0  0  0
   -4.7414   48.1472   27.8580 C   0  0  0  0  0  0
   -5.1239   45.7020   27.2173 C   0  0  0  0  0  0
   -6.2302   46.9295   31.7439 C   0  0  0  0  0  0
    6.7045   55.4156   25.4901 I   0  0  0  0  0  0
    2.1998   53.6618   29.3194 H   0  0  0  0  0  0
    2.7625   52.0338   28.9500 H   0  0  0  0  0  0
    3.8960   53.2221   29.5762 H   0  0  0  0  0  0
    5.2874   54.2695   27.9837 H   0  0  0  0  0  0
    4.2032   54.5978   23.8617 H   0  0  0  0  0  0
    2.0395   53.5791   24.3186 H   0  0  0  0  0  0
    0.8792   52.8432   27.7321 H   0  0  0  0  0  0
   -2.1442   51.9560   24.7222 H   0  0  0  0  0  0
   -4.3335   51.4827   25.7025 H   0  0  0  0  0  0
   -2.5169   51.0643   29.5769 H   0  0  0  0  0  0
   -0.3331   51.5347   28.6208 H   0  0  0  0  0  0
   -4.1060   48.3849   30.5175 H   0  0  0  0  0  0
   -5.4024   49.5198   30.9235 H   0  0  0  0  0  0
   -4.8240   48.5705   26.8571 H   0  0  0  0  0  0
   -3.6959   47.8883   28.0401 H   0  0  0  0  0  0
   -5.0671   45.9622   26.1602 H   0  0  0  0  0  0
   -4.1301   45.3853   27.5408 H   0  0  0  0  0  0
   -5.7900   44.8439   27.3116 H   0  0  0  0  0  0
   -6.5236   47.6875   32.4696 H   0  0  0  0  0  0
   -6.9822   46.1397   31.7681 H   0  0  0  0  0  0
   -5.2941   46.4923   32.0815 H   0  0  0  0  0  0
  1  2  1  0  0  0
  1 31  1  0  0  0
  1 32  1  0  0  0
  1 33  1  0  0  0
  2  7  2  0  0  0
  2  3  1  0  0  0
  3  4  2  0  0  0
  3 34  1  0  0  0
  4  5  1  0  0  0
  4 30  1  0  0  0
  5  6  2  0  0  0
  5 35  1  0  0  0
  6  7  1  0  0  0
  6 36  1  0  0  0
  7  8  1  0  0  0
  8  9  1  0  0  0
  8 37  1  0  0  0
  9 10  2  0  0  0
  9 11  1  0  0  0
 11 16  2  0  0  0
 11 12  1  0  0  0
 12 13  2  0  0  0
 12 38  1  0  0  0
 13 14  1  0  0  0
 13 39  1  0  0  0
 14 15  2  0  0  0
 14 17  1  0  0  0
 15 16  1  0  0  0
 15 40  1  0  0  0
 16 41  1  0  0  0
 17 18  2  0  0  0
 17 19  2  0  0  0
 17 20  1  0  0  0
 20 27  1  0  0  0
 20 21  1  0  0  0
 21 22  1  0  0  0
 21 42  1  0  0  0
 21 43  1  0  0  0
 22 23  1  0  0  0
 22 24  1  0  0  0
 22 29  1  0  0  0
 24 25  1  0  0  0
 25 26  1  0  0  0
 25 27  1  0  0  0
 25 28  1  0  0  0
 27 44  1  0  0  0
 27 45  1  0  0  0
 28 46  1  0  0  0
 28 47  1  0  0  0
 28 48  1  0  0  0
 29 49  1  0  0  0
 29 50  1  0  0  0
 29 51  1  0  0  0
M  END
> <i_i_glide_confnum>
128

> <i_i_glide_lignum>
4033

> <i_i_glide_posenum>
310

> <i_i_glide_rotatable_bonds>
5

> <i_m_Source_File_Index>
1278

> <b_m_subgroup_collapsed>
0

> <r_i_docking_score>
-3.65148

> <r_i_glide_ecoul>
-3.7223

> <r_i_glide_eff_state_penalty>
0

> <r_i_glide_einternal>
3.63221

> <r_i_glide_emodel>
-44.509

> <r_i_glide_energy>
-38.5215

> <r_i_glide_erotb>
0.38763

> <r_i_glide_esite>
-0.125021

> <r_i_glide_evdw>
-34.7992

> <r_i_glide_gscore>
-3.65148

> <r_i_glide_hbond>
-0.123337

> <r_i_glide_ligand_efficiency>
-0.13041

> <r_i_glide_ligand_efficiency_ln>
-0.842869

> <r_i_glide_ligand_efficiency_sa>
-0.396002

> <r_i_glide_lipo>
-1.88604

> <r_i_glide_metal>
0

> <r_i_glide_rewards>
0.393587

> <s_i_glide_gridfile>
wee1_glide-grid

> <s_m_Source_File>
wee1_decoys_glide_SP.sdf

> <s_m_Source_Path>
/Users/zhangxujun/Desktop

> <s_m_entry_id>
1553

> <s_m_entry_name>
wee1_decoys_glide_SP.1278

> <s_m_subgroup_title>
wee1_decoys_glide_SP

> <s_m_subgroupid>
wee1_decoys_glide_SP


$$$$
