ZINC64558249_1012
                    3D
 Schrodinger Suite 2024-2.
 62 65  0  0  1  0            999 V2000
    5.2589   54.9140   24.7500 C   0  0  0  0  0  0
    3.9903   54.1560   24.3821 C   0  0  0  0  0  0
    3.6792   53.8358   23.0563 C   0  0  0  0  0  0
    2.5907   53.0022   22.7740 C   0  0  0  0  0  0
    1.8125   52.4863   23.8175 C   0  0  0  0  0  0
    2.0825   52.8971   25.1199 C   0  0  0  0  0  0
    3.1564   53.7261   25.4077 C   0  0  0  0  0  0
    0.6256   51.1474   23.5112 S   0  0  0  0  0  0
    1.1023   49.9887   24.2707 O   0  0  0  0  0  0
    0.4904   51.0438   22.0539 O   0  0  0  0  0  0
   -0.9886   51.5938   24.2126 C   0  0  0  0  0  0
   -2.0226   52.1107   23.5612 C   0  0  0  0  0  0
   -3.2100   52.1961   24.3959 C   0  0  0  0  0  0
   -4.2935   52.6947   24.0813 O   0  0  0  0  0  0
   -2.8958   51.5929   25.5871 N   0  0  0  0  0  0
   -1.4830   51.1468   25.5595 C   0  0  2  0  0  0
   -1.4736   50.0563   25.6144 H   0  0  0  0  0  0
   -0.6250   51.6371   26.7305 C   0  0  0  0  0  0
    0.3632   50.8129   27.2632 C   0  0  0  0  0  0
    1.2255   51.2947   28.2414 C   0  0  0  0  0  0
    1.0836   52.5843   28.7519 C   0  0  0  0  0  0
    0.0275   53.3734   28.2872 C   0  0  0  0  0  0
   -0.8244   52.8951   27.2896 C   0  0  0  0  0  0
    2.0567   53.1226   29.7513 C   0  0  0  0  0  0
    2.1020   54.3109   30.0801 O   0  0  0  0  0  0
    2.8698   52.1613   30.2709 O   0  0  0  0  0  0
    3.8381   52.4690   31.2587 C   0  0  0  0  0  0
   -3.7875   51.3786   26.6951 C   0  0  0  0  0  0
   -5.0754   51.9414   26.7956 C   0  0  0  0  0  0
   -5.8767   51.7075   27.9125 C   0  0  0  0  0  0
   -5.4119   50.9240   28.9704 C   0  0  0  0  0  0
   -4.1468   50.3439   28.8762 C   0  0  0  0  0  0
   -3.3583   50.5696   27.7551 C   0  0  0  0  0  0
   -6.3005   50.7127   30.2000 C   0  0  0  0  0  0
   -7.2965   49.5590   29.9830 C   0  0  0  0  0  0
   -5.5119   50.5373   31.5160 C   0  0  0  0  0  0
   -2.0927   52.4962   22.3364 O   0  5  0  0  0  0
    5.8082   55.2868   23.8935 H   0  0  0  0  0  0
    5.0484   55.7694   25.3915 H   0  0  0  0  0  0
    5.9211   54.2588   25.3151 H   0  0  0  0  0  0
    4.3077   54.1796   22.2485 H   0  0  0  0  0  0
    2.4034   52.7044   21.7529 H   0  0  0  0  0  0
    1.5206   52.5245   25.9397 H   0  0  0  0  0  0
    3.3775   53.9750   26.4358 H   0  0  0  0  0  0
    0.5047   49.8148   26.8704 H   0  0  0  0  0  0
    2.0139   50.6348   28.5732 H   0  0  0  0  0  0
   -0.1200   54.3726   28.6703 H   0  0  0  0  0  0
   -1.6321   53.5086   26.9141 H   0  0  0  0  0  0
    4.6208   51.7117   31.2651 H   0  0  0  0  0  0
    4.3056   53.4345   31.0689 H   0  0  0  0  0  0
    3.3769   52.4960   32.2452 H   0  0  0  0  0  0
   -5.4922   52.5788   26.0353 H   0  0  0  0  0  0
   -6.8590   52.1534   27.9581 H   0  0  0  0  0  0
   -3.7528   49.7118   29.6600 H   0  0  0  0  0  0
   -2.3918   50.0969   27.7346 H   0  0  0  0  0  0
   -6.8836   51.6289   30.3221 H   0  0  0  0  0  0
   -7.9033   49.7172   29.0893 H   0  0  0  0  0  0
   -7.9782   49.4617   30.8289 H   0  0  0  0  0  0
   -6.7777   48.6059   29.8684 H   0  0  0  0  0  0
   -4.7342   51.2944   31.6138 H   0  0  0  0  0  0
   -6.1645   50.6234   32.3833 H   0  0  0  0  0  0
   -5.0253   49.5643   31.5733 H   0  0  0  0  0  0
  1  2  1  0  0  0
  1 38  1  0  0  0
  1 39  1  0  0  0
  1 40  1  0  0  0
  2  7  2  0  0  0
  2  3  1  0  0  0
  3  4  2  0  0  0
  3 41  1  0  0  0
  4  5  1  0  0  0
  4 42  1  0  0  0
  5  6  2  0  0  0
  5  8  1  0  0  0
  6  7  1  0  0  0
  6 43  1  0  0  0
  7 44  1  0  0  0
  8  9  2  0  0  0
  8 10  2  0  0  0
  8 11  1  0  0  0
 11 16  1  0  0  0
 11 12  2  0  0  0
 12 13  1  0  0  0
 12 37  1  0  0  0
 13 14  2  0  0  0
 13 15  1  0  0  0
 15 16  1  0  0  0
 15 28  1  0  0  0
 16 17  1  0  0  0
 16 18  1  0  0  0
 18 23  2  0  0  0
 18 19  1  0  0  0
 19 20  2  0  0  0
 19 45  1  0  0  0
 20 21  1  0  0  0
 20 46  1  0  0  0
 21 22  2  0  0  0
 21 24  1  0  0  0
 22 23  1  0  0  0
 22 47  1  0  0  0
 23 48  1  0  0  0
 24 25  2  0  0  0
 24 26  1  0  0  0
 26 27  1  0  0  0
 27 49  1  0  0  0
 27 50  1  0  0  0
 27 51  1  0  0  0
 28 33  2  0  0  0
 28 29  1  0  0  0
 29 30  2  0  0  0
 29 52  1  0  0  0
 30 31  1  0  0  0
 30 53  1  0  0  0
 31 32  2  0  0  0
 31 34  1  0  0  0
 32 33  1  0  0  0
 32 54  1  0  0  0
 33 55  1  0  0  0
 34 35  1  0  0  0
 34 36  1  0  0  0
 34 56  1  0  0  0
 35 57  1  0  0  0
 35 58  1  0  0  0
 35 59  1  0  0  0
 36 60  1  0  0  0
 36 61  1  0  0  0
 36 62  1  0  0  0
M  CHG  1  37  -1
M  END
> <i_i_glide_confnum>
79

> <i_i_glide_lignum>
1013

> <i_i_glide_posenum>
226

> <i_i_glide_rotatable_bonds>
7

> <i_m_Source_File_Index>
2529

> <b_m_subgroup_collapsed>
0

> <r_i_docking_score>
-4.42768

> <r_i_glide_ecoul>
-2.34615

> <r_i_glide_eff_state_penalty>
0

> <r_i_glide_einternal>
6.23554

> <r_i_glide_emodel>
-46.8525

> <r_i_glide_energy>
-38.2187

> <r_i_glide_erotb>
0.401569

> <r_i_glide_esite>
-0.023465

> <r_i_glide_evdw>
-35.8725

> <r_i_glide_gscore>
-4.42768

> <r_i_glide_hbond>
-0.568677

> <r_i_glide_ligand_efficiency>
-0.122991

> <r_i_glide_ligand_efficiency_ln>
-0.966001

> <r_i_glide_ligand_efficiency_sa>
-0.406108

> <r_i_glide_lipo>
-1.78966

> <r_i_glide_metal>
0

> <r_i_glide_rewards>
-0.301903

> <s_i_glide_gridfile>
wee1_glide-grid

> <s_m_Source_File>
wee1_decoys_glide_SP.sdf

> <s_m_Source_Path>
/Users/zhangxujun/Desktop

> <s_m_entry_id>
2804

> <s_m_entry_name>
wee1_decoys_glide_SP.2529

> <s_m_subgroup_title>
wee1_decoys_glide_SP

> <s_m_subgroupid>
wee1_decoys_glide_SP


$$$$
