ZINC39691976_548
                    3D
 Schrodinger Suite 2024-2.
 53 57  0  0  1  0            999 V2000
   -1.2692   47.6574   24.8178 C   0  0  0  0  0  0
   -2.0841   48.8366   24.2504 C   0  0  0  0  0  0
   -2.9607   49.4814   25.2588 N   0  0  0  0  0  0
   -4.2346   48.9749   25.3066 C   0  0  0  0  0  0
   -4.7123   48.1607   24.5090 O   0  0  0  0  0  0
   -5.0551   49.4668   26.5205 C   0  0  2  0  0  0
   -6.0959   49.4724   26.1949 H   0  0  0  0  0  0
   -4.6339   50.8761   26.9904 C   0  0  2  0  0  0
   -5.2011   51.6551   26.4786 H   0  0  0  0  0  0
   -3.2189   51.1856   26.8452 N   0  0  0  0  0  0
   -2.4700   50.4864   26.0697 C   0  0  0  0  0  0
   -0.7023   50.8946   26.0538 S   0  0  0  0  0  0
   -0.4705   51.8662   27.5826 C   0  0  0  0  0  0
    0.9092   52.5183   27.5961 C   0  0  0  0  0  0
    1.5711   52.6302   28.8019 N   0  0  0  0  0  0
    1.1128   52.3037   29.6381 H   0  0  0  0  0  0
    2.8223   53.1395   29.0283 C   0  0  0  0  0  0
    3.2539   53.1695   30.1796 O   0  0  0  0  0  0
    3.4497   53.5854   27.7672 C   0  0  0  0  0  0
    4.7454   54.1163   27.5371 C   0  0  0  0  0  0
    4.9422   54.4138   26.1634 C   0  0  0  0  0  0
    3.5098   54.0941   25.2158 S   0  0  0  0  0  0
    2.6931   53.4942   26.6016 C   0  0  0  0  0  0
    1.4390   52.9778   26.5129 N   0  0  0  0  0  0
    6.1231   54.9232   25.4354 C   0  0  0  0  0  0
    6.0807   54.9497   24.1855 O   0  0  0  0  0  0
    7.1036   55.2959   26.1095 O   0  5  0  0  0  0
    5.7561   54.3798   28.6339 C   0  0  0  0  0  0
   -5.0845   50.9444   28.7388 S   0  0  0  0  0  0
   -5.0270   49.1751   28.9019 C   0  0  0  0  0  0
   -4.9196   48.5326   27.7174 C   0  0  0  0  0  0
   -4.8591   47.0057   27.6246 C   0  0  0  0  0  0
   -4.3615   46.3969   28.9455 C   0  0  0  0  0  0
   -5.1557   46.9567   30.1423 C   0  0  0  0  0  0
   -5.0229   48.4921   30.2652 C   0  0  0  0  0  0
   -0.6268   47.2296   24.0507 H   0  0  0  0  0  0
   -0.6269   47.9696   25.6442 H   0  0  0  0  0  0
   -1.9224   46.8645   25.1861 H   0  0  0  0  0  0
   -1.4071   49.5759   23.8188 H   0  0  0  0  0  0
   -2.6523   48.4843   23.3862 H   0  0  0  0  0  0
   -1.2276   52.6420   27.6710 H   0  0  0  0  0  0
   -0.5634   51.1758   28.4227 H   0  0  0  0  0  0
    6.4967   53.5827   28.7141 H   0  0  0  0  0  0
    6.3002   55.2977   28.4427 H   0  0  0  0  0  0
    5.3056   54.5386   29.6113 H   0  0  0  0  0  0
   -5.8409   46.6063   27.3680 H   0  0  0  0  0  0
   -4.2166   46.6735   26.8101 H   0  0  0  0  0  0
   -4.4264   45.3119   28.8816 H   0  0  0  0  0  0
   -3.3021   46.6279   29.0782 H   0  0  0  0  0  0
   -6.2090   46.6960   30.0269 H   0  0  0  0  0  0
   -4.8275   46.4968   31.0725 H   0  0  0  0  0  0
   -4.0952   48.7322   30.7833 H   0  0  0  0  0  0
   -5.8080   48.8773   30.9165 H   0  0  0  0  0  0
  1  2  1  0  0  0
  1 36  1  0  0  0
  1 37  1  0  0  0
  1 38  1  0  0  0
  2  3  1  0  0  0
  2 39  1  0  0  0
  2 40  1  0  0  0
  3 11  1  0  0  0
  3  4  1  0  0  0
  4  5  2  0  0  0
  4  6  1  0  0  0
  6  7  1  0  0  0
  6 31  1  0  0  0
  6  8  1  0  0  0
  8  9  1  0  0  0
  8 10  1  0  0  0
  8 29  1  0  0  0
 10 11  2  0  0  0
 11 12  1  0  0  0
 12 13  1  0  0  0
 13 14  1  0  0  0
 13 41  1  0  0  0
 13 42  1  0  0  0
 14 24  2  0  0  0
 14 15  1  0  0  0
 15 16  1  0  0  0
 15 17  1  0  0  0
 17 18  2  0  0  0
 17 19  1  0  0  0
 19 23  2  0  0  0
 19 20  1  0  0  0
 20 21  2  0  0  0
 20 28  1  0  0  0
 21 22  1  0  0  0
 21 25  1  0  0  0
 22 23  1  0  0  0
 23 24  1  0  0  0
 25 26  2  0  0  0
 25 27  1  0  0  0
 28 43  1  0  0  0
 28 44  1  0  0  0
 28 45  1  0  0  0
 29 30  1  0  0  0
 30 35  1  0  0  0
 30 31  2  0  0  0
 31 32  1  0  0  0
 32 33  1  0  0  0
 32 46  1  0  0  0
 32 47  1  0  0  0
 33 34  1  0  0  0
 33 48  1  0  0  0
 33 49  1  0  0  0
 34 35  1  0  0  0
 34 50  1  0  0  0
 34 51  1  0  0  0
 35 52  1  0  0  0
 35 53  1  0  0  0
M  CHG  1  27  -1
M  END
> <i_i_glide_confnum>
12

> <i_i_glide_lignum>
549

> <i_i_glide_posenum>
256

> <i_i_glide_rotatable_bonds>
5

> <i_m_Source_File_Index>
5719

> <b_m_subgroup_collapsed>
0

> <r_i_docking_score>
-5.72694

> <r_i_glide_ecoul>
-7.63029

> <r_i_glide_eff_state_penalty>
0

> <r_i_glide_einternal>
1.80761

> <r_i_glide_emodel>
-68.7159

> <r_i_glide_energy>
-49.9532

> <r_i_glide_erotb>
0.254604

> <r_i_glide_esite>
-0.113755

> <r_i_glide_evdw>
-42.3229

> <r_i_glide_gscore>
-5.72694

> <r_i_glide_hbond>
-0.433297

> <r_i_glide_ligand_efficiency>
-0.178967

> <r_i_glide_ligand_efficiency_ln>
-1.28242

> <r_i_glide_ligand_efficiency_sa>
-0.568185

> <r_i_glide_lipo>
-1.43769

> <r_i_glide_metal>
0

> <r_i_glide_rewards>
-0.736109

> <s_i_glide_gridfile>
wee1_glide-grid

> <s_m_Source_File>
wee1_decoys_glide_SP.sdf

> <s_m_Source_Path>
/Users/zhangxujun/Desktop

> <s_m_entry_id>
5994

> <s_m_entry_name>
wee1_decoys_glide_SP.5719

> <s_m_subgroup_title>
wee1_decoys_glide_SP

> <s_m_subgroupid>
wee1_decoys_glide_SP


$$$$
