ZINC13391450_1940
                    3D
 Schrodinger Suite 2024-2.
 53 56  0  0  1  0            999 V2000
    6.7372   54.9314   26.1755 C   0  0  0  0  0  0
    5.3573   54.3662   26.4927 C   0  0  0  0  0  0
    5.0799   53.9870   27.8124 C   0  0  0  0  0  0
    3.8490   53.4145   28.1561 C   0  0  0  0  0  0
    2.8634   53.2964   27.1727 C   0  0  0  0  0  0
    3.1173   53.6970   25.8622 C   0  0  0  0  0  0
    4.3815   54.1888   25.4919 C   0  0  0  0  0  0
    4.7340   54.4958   24.1555 N   0  0  0  0  0  0
    4.1683   54.0703   22.9993 C   0  0  0  0  0  0
    3.1263   53.4145   22.9449 O   0  0  0  0  0  0
    4.8952   54.4134   21.7103 C   0  0  0  0  0  0
    6.1632   55.0233   21.6907 C   0  0  0  0  0  0
    6.8043   55.2969   20.4808 C   0  0  0  0  0  0
    6.2070   54.9413   19.2725 C   0  0  0  0  0  0
    4.9561   54.3224   19.2697 C   0  0  0  0  0  0
    4.3032   54.0826   20.4802 C   0  0  0  0  0  0
    4.1761   53.7991   17.7390 S   0  0  0  0  0  0
    5.1968   53.7921   16.6840 O   0  0  0  0  0  0
    3.3968   52.5983   18.0622 O   0  0  0  0  0  0
    2.9841   55.0520   17.2938 N   0  0  0  0  0  0
    3.2895   56.3264   16.7887 C   0  0  0  0  0  0
    4.4903   57.0398   16.8301 C   0  0  0  0  0  0
    4.5555   58.3196   16.2757 C   0  0  0  0  0  0
    3.4211   58.8911   15.6967 C   0  0  0  0  0  0
    2.2132   58.1954   15.6853 C   0  0  0  0  0  0
    2.1609   56.9067   16.2155 C   0  0  0  0  0  0
    0.9915   55.9988   16.4450 C   0  0  0  0  0  0
    1.6670   54.6633   16.7761 C   0  0  1  0  0  0
    1.1123   54.1283   17.5492 H   0  0  0  0  0  0
    1.7700   53.7612   15.5246 C   0  0  0  0  0  0
    3.5967   52.9279   29.5437 C   0  0  0  0  0  0
    3.1006   51.7864   29.6851 O   0  0  0  0  0  0
    7.2040   54.3583   25.3741 H   0  0  0  0  0  0
    6.6566   55.9660   25.8400 H   0  0  0  0  0  0
    7.4023   54.8948   27.0393 H   0  0  0  0  0  0
    5.8398   54.1068   28.5737 H   0  0  0  0  0  0
    1.8989   52.8736   27.4171 H   0  0  0  0  0  0
    2.3185   53.5788   25.1484 H   0  0  0  0  0  0
    5.5919   55.0139   24.0678 H   0  0  0  0  0  0
    6.6769   55.2892   22.6033 H   0  0  0  0  0  0
    7.7820   55.7569   20.4801 H   0  0  0  0  0  0
    6.7312   55.1205   18.3448 H   0  0  0  0  0  0
    3.3302   53.6079   20.4553 H   0  0  0  0  0  0
    5.3766   56.6197   17.2747 H   0  0  0  0  0  0
    5.4785   58.8805   16.3062 H   0  0  0  0  0  0
    3.4745   59.8893   15.2860 H   0  0  0  0  0  0
    1.3310   58.6676   15.2794 H   0  0  0  0  0  0
    0.3073   55.9348   15.5982 H   0  0  0  0  0  0
    0.4070   56.3531   17.2948 H   0  0  0  0  0  0
    0.7832   53.5504   15.1108 H   0  0  0  0  0  0
    2.3674   54.2283   14.7396 H   0  0  0  0  0  0
    2.2291   52.7991   15.7544 H   0  0  0  0  0  0
    3.9029   53.6968   30.4814 O   0  5  0  0  0  0
  1  2  1  0  0  0
  1 33  1  0  0  0
  1 34  1  0  0  0
  1 35  1  0  0  0
  2  7  2  0  0  0
  2  3  1  0  0  0
  3  4  2  0  0  0
  3 36  1  0  0  0
  4  5  1  0  0  0
  4 31  1  0  0  0
  5  6  2  0  0  0
  5 37  1  0  0  0
  6  7  1  0  0  0
  6 38  1  0  0  0
  7  8  1  0  0  0
  8  9  1  0  0  0
  8 39  1  0  0  0
  9 10  2  0  0  0
  9 11  1  0  0  0
 11 16  2  0  0  0
 11 12  1  0  0  0
 12 13  2  0  0  0
 12 40  1  0  0  0
 13 14  1  0  0  0
 13 41  1  0  0  0
 14 15  2  0  0  0
 14 42  1  0  0  0
 15 16  1  0  0  0
 15 17  1  0  0  0
 16 43  1  0  0  0
 17 18  2  0  0  0
 17 19  2  0  0  0
 17 20  1  0  0  0
 20 28  1  0  0  0
 20 21  1  0  0  0
 21 26  2  0  0  0
 21 22  1  0  0  0
 22 23  2  0  0  0
 22 44  1  0  0  0
 23 24  1  0  0  0
 23 45  1  0  0  0
 24 25  2  0  0  0
 24 46  1  0  0  0
 25 26  1  0  0  0
 25 47  1  0  0  0
 26 27  1  0  0  0
 27 28  1  0  0  0
 27 48  1  0  0  0
 27 49  1  0  0  0
 28 29  1  0  0  0
 28 30  1  0  0  0
 30 50  1  0  0  0
 30 51  1  0  0  0
 30 52  1  0  0  0
 31 32  2  0  0  0
 31 53  1  0  0  0
M  CHG  1  53  -1
M  END
> <i_i_glide_confnum>
5

> <i_i_glide_lignum>
1941

> <i_i_glide_posenum>
259

> <i_i_glide_rotatable_bonds>
6

> <i_m_Source_File_Index>
5140

> <b_m_subgroup_collapsed>
0

> <r_i_docking_score>
-5.57036

> <r_i_glide_ecoul>
-5.46063

> <r_i_glide_eff_state_penalty>
0

> <r_i_glide_einternal>
2.71797

> <r_i_glide_emodel>
-60.972

> <r_i_glide_energy>
-45.2029

> <r_i_glide_erotb>
0.495951

> <r_i_glide_esite>
-0.11824

> <r_i_glide_evdw>
-39.7422

> <r_i_glide_gscore>
-5.57036

> <r_i_glide_hbond>
-0.32

> <r_i_glide_ligand_efficiency>
-0.174074

> <r_i_glide_ligand_efficiency_ln>
-1.24736

> <r_i_glide_ligand_efficiency_sa>
-0.55265

> <r_i_glide_lipo>
-2.33136

> <r_i_glide_metal>
0

> <r_i_glide_rewards>
-0.49051

> <s_i_glide_gridfile>
wee1_glide-grid

> <s_m_Source_File>
wee1_decoys_glide_SP.sdf

> <s_m_Source_Path>
/Users/zhangxujun/Desktop

> <s_m_entry_id>
5415

> <s_m_entry_name>
wee1_decoys_glide_SP.5140

> <s_m_subgroup_title>
wee1_decoys_glide_SP

> <s_m_subgroupid>
wee1_decoys_glide_SP


$$$$
