ZINC18049604_2098
                    3D
 Schrodinger Suite 2024-2.
 57 59  0  0  1  0            999 V2000
   -2.8769   52.2997   25.4147 C   0  0  0  0  0  0
   -1.5210   51.5743   25.3030 C   0  0  1  0  0  0
   -0.7818   52.1535   25.8566 H   0  0  0  0  0  0
   -1.5546   50.1488   25.9237 C   0  0  0  0  0  0
   -2.3113   49.1163   25.0491 C   0  0  1  0  0  0
   -3.3513   49.4406   24.9742 H   0  0  0  0  0  0
   -1.7342   49.1286   23.6172 C   0  0  0  0  0  0
   -1.8311   50.5066   23.0731 N   0  0  0  0  0  0
   -1.0312   51.5036   23.8342 C   0  0  0  0  0  0
   -1.8658   50.6737   21.3100 S   0  0  0  0  0  0
   -2.0410   52.0954   20.9889 O   0  0  0  0  0  0
   -2.8004   49.6735   20.7819 O   0  0  0  0  0  0
   -0.2265   50.2295   20.7378 C   0  0  0  0  0  0
   -0.0347   49.0394   20.0320 C   0  0  0  0  0  0
    1.2279   48.7106   19.5482 C   0  0  0  0  0  0
    2.3041   49.5608   19.7828 C   0  0  0  0  0  0
    2.1424   50.7454   20.5155 C   0  0  0  0  0  0
    0.8583   51.0810   20.9800 C   0  0  0  0  0  0
    3.3507   51.6041   20.7997 C   0  0  0  0  0  0
    4.4661   51.0959   20.8824 O   0  0  0  0  0  0
    3.1507   52.9255   20.9292 N   0  0  0  0  0  0
    4.2244   53.9035   21.1428 C   0  0  0  0  0  0
    4.8099   53.8413   22.5642 C   0  0  0  0  0  0
    5.8995   53.2970   22.7519 O   0  0  0  0  0  0
    4.0654   54.3830   23.5488 N   0  0  0  0  0  0
    4.4041   54.4114   24.9105 C   0  0  0  0  0  0
    3.4138   54.0291   25.8182 C   0  0  0  0  0  0
    3.6693   54.0511   27.1883 C   0  0  0  0  0  0
    4.9113   54.4696   27.6610 C   0  0  0  0  0  0
    5.9012   54.8782   26.7656 C   0  0  0  0  0  0
    5.6459   54.8745   25.3912 C   0  0  0  0  0  0
    6.5995   55.3388   24.5484 F   0  0  0  0  0  0
    7.1012   55.2975   27.2319 F   0  0  0  0  0  0
    5.1412   54.4941   28.9921 F   0  0  0  0  0  0
   -2.3028   47.7108   25.6759 C   0  0  0  0  0  0
   -3.6673   51.7697   24.8876 H   0  0  0  0  0  0
   -3.1833   52.3976   26.4560 H   0  0  0  0  0  0
   -2.8185   53.3029   24.9938 H   0  0  0  0  0  0
   -1.9856   50.1702   26.9249 H   0  0  0  0  0  0
   -0.5333   49.7965   26.0767 H   0  0  0  0  0  0
   -2.2513   48.4237   22.9675 H   0  0  0  0  0  0
   -0.6784   48.8659   23.6961 H   0  0  0  0  0  0
   -0.0037   51.1399   23.8686 H   0  0  0  0  0  0
   -1.0866   52.4782   23.3477 H   0  0  0  0  0  0
   -0.8637   48.3763   19.8343 H   0  0  0  0  0  0
    1.3748   47.8037   18.9809 H   0  0  0  0  0  0
    3.2728   49.2924   19.3799 H   0  0  0  0  0  0
    0.6960   51.9924   21.5356 H   0  0  0  0  0  0
    2.2397   53.3132   20.7250 H   0  0  0  0  0  0
    3.8458   54.8962   20.9298 H   0  0  0  0  0  0
    5.0181   53.7213   20.4159 H   0  0  0  0  0  0
    3.1498   54.7277   23.3052 H   0  0  0  0  0  0
    2.4466   53.6978   25.4693 H   0  0  0  0  0  0
    2.9053   53.7420   27.8861 H   0  0  0  0  0  0
   -1.2922   47.3931   25.9400 H   0  0  0  0  0  0
   -2.8970   47.6940   26.5912 H   0  0  0  0  0  0
   -2.7271   46.9674   24.9997 H   0  0  0  0  0  0
  1  2  1  0  0  0
  1 36  1  0  0  0
  1 37  1  0  0  0
  1 38  1  0  0  0
  2  3  1  0  0  0
  2  9  1  0  0  0
  2  4  1  0  0  0
  4  5  1  0  0  0
  4 39  1  0  0  0
  4 40  1  0  0  0
  5  6  1  0  0  0
  5  7  1  0  0  0
  5 35  1  0  0  0
  7  8  1  0  0  0
  7 41  1  0  0  0
  7 42  1  0  0  0
  8  9  1  0  0  0
  8 10  1  0  0  0
  9 43  1  0  0  0
  9 44  1  0  0  0
 10 11  2  0  0  0
 10 12  2  0  0  0
 10 13  1  0  0  0
 13 18  2  0  0  0
 13 14  1  0  0  0
 14 15  2  0  0  0
 14 45  1  0  0  0
 15 16  1  0  0  0
 15 46  1  0  0  0
 16 17  2  0  0  0
 16 47  1  0  0  0
 17 18  1  0  0  0
 17 19  1  0  0  0
 18 48  1  0  0  0
 19 20  2  0  0  0
 19 21  1  0  0  0
 21 22  1  0  0  0
 21 49  1  0  0  0
 22 23  1  0  0  0
 22 50  1  0  0  0
 22 51  1  0  0  0
 23 24  2  0  0  0
 23 25  1  0  0  0
 25 26  1  0  0  0
 25 52  1  0  0  0
 26 31  2  0  0  0
 26 27  1  0  0  0
 27 28  2  0  0  0
 27 53  1  0  0  0
 28 29  1  0  0  0
 28 54  1  0  0  0
 29 30  2  0  0  0
 29 34  1  0  0  0
 30 31  1  0  0  0
 30 33  1  0  0  0
 31 32  1  0  0  0
 35 55  1  0  0  0
 35 56  1  0  0  0
 35 57  1  0  0  0
M  END
> <i_i_glide_confnum>
137

> <i_i_glide_lignum>
2099

> <i_i_glide_posenum>
331

> <i_i_glide_rotatable_bonds>
8

> <i_m_Source_File_Index>
1965

> <b_m_subgroup_collapsed>
0

> <r_i_docking_score>
-5.20249

> <r_i_glide_ecoul>
-8.51818

> <r_i_glide_eff_state_penalty>
0

> <r_i_glide_einternal>
9.74963

> <r_i_glide_emodel>
-54.8671

> <r_i_glide_energy>
-45.7676

> <r_i_glide_erotb>
0.607881

> <r_i_glide_esite>
-0.0530445

> <r_i_glide_evdw>
-37.2494

> <r_i_glide_gscore>
-5.20249

> <r_i_glide_hbond>
-0.225764

> <r_i_glide_ligand_efficiency>
-0.157651

> <r_i_glide_ligand_efficiency_ln>
-1.15701

> <r_i_glide_ligand_efficiency_sa>
-0.505671

> <r_i_glide_lipo>
-1.68929

> <r_i_glide_metal>
0

> <r_i_glide_rewards>
-0.70207

> <s_i_glide_gridfile>
wee1_glide-grid

> <s_m_Source_File>
wee1_decoys_glide_SP.sdf

> <s_m_Source_Path>
/Users/zhangxujun/Desktop

> <s_m_entry_id>
2240

> <s_m_entry_name>
wee1_decoys_glide_SP.1965

> <s_m_subgroup_title>
wee1_decoys_glide_SP

> <s_m_subgroupid>
wee1_decoys_glide_SP


$$$$
