ZINC20549106_4772
                    3D
 Schrodinger Suite 2024-2.
 41 42  0  0  1  0            999 V2000
    3.2436   53.1100   19.0070 C   0  0  0  0  0  0
    2.8089   52.0947   20.0474 C   0  0  0  0  0  0
    2.7004   50.7479   19.7006 C   0  0  0  0  0  0
    2.3099   49.8054   20.6529 C   0  0  0  0  0  0
    2.0645   50.2137   21.9666 C   0  0  0  0  0  0
    2.1753   51.5595   22.3334 C   0  0  0  0  0  0
    2.5386   52.4967   21.3578 C   0  0  0  0  0  0
    1.9040   51.8761   23.6751 N   0  0  0  0  0  0
    1.9193   53.4820   24.4404 S   0  0  0  0  0  0
    1.1055   53.2967   25.6425 O   0  0  0  0  0  0
    1.5136   54.4796   23.4448 O   0  0  0  0  0  0
    3.6372   53.8447   24.9312 C   0  0  0  0  0  0
    4.5102   54.1920   23.8922 C   0  0  0  0  0  0
    5.8450   54.4966   24.1391 C   0  0  0  0  0  0
    6.3255   54.4721   25.4399 C   0  0  0  0  0  0
    5.4882   54.1326   26.5037 C   0  0  0  0  0  0
    4.1332   53.8074   26.2618 C   0  0  0  0  0  0
    3.2399   53.4026   27.4348 C   0  0  0  0  0  0
    6.0963   54.1291   27.9030 C   0  0  0  0  0  0
    6.7044   54.8260   23.0924 N   0  0  0  0  0  0
    2.2064   48.3404   20.2730 C   0  0  0  0  0  0
    3.9783   52.6716   18.3297 H   0  0  0  0  0  0
    2.3884   53.4457   18.4204 H   0  0  0  0  0  0
    3.7168   53.9767   19.4696 H   0  0  0  0  0  0
    2.9285   50.4354   18.6893 H   0  0  0  0  0  0
    1.7879   49.4738   22.7049 H   0  0  0  0  0  0
    2.6119   53.5461   21.5835 H   0  0  0  0  0  0
    1.6643   51.1098   24.2846 H   0  0  0  0  0  0
    4.1507   54.2377   22.8775 H   0  0  0  0  0  0
    7.3628   54.7059   25.6206 H   0  0  0  0  0  0
    2.4637   54.1508   27.5957 H   0  0  0  0  0  0
    3.7646   53.2588   28.3757 H   0  0  0  0  0  0
    2.7571   52.4490   27.2274 H   0  0  0  0  0  0
    7.1235   54.4948   27.9149 H   0  0  0  0  0  0
    5.5212   54.7709   28.5712 H   0  0  0  0  0  0
    6.0919   53.1203   28.3174 H   0  0  0  0  0  0
    6.3700   54.7627   22.1422 H   0  0  0  0  0  0
    7.6962   54.9289   23.2819 H   0  0  0  0  0  0
    2.6911   48.1362   19.3173 H   0  0  0  0  0  0
    2.7043   47.7218   21.0195 H   0  0  0  0  0  0
    1.1624   48.0328   20.2181 H   0  0  0  0  0  0
  1  2  1  0  0  0
  1 22  1  0  0  0
  1 23  1  0  0  0
  1 24  1  0  0  0
  2  7  2  0  0  0
  2  3  1  0  0  0
  3  4  2  0  0  0
  3 25  1  0  0  0
  4  5  1  0  0  0
  4 21  1  0  0  0
  5  6  2  0  0  0
  5 26  1  0  0  0
  6  7  1  0  0  0
  6  8  1  0  0  0
  7 27  1  0  0  0
  8  9  1  0  0  0
  8 28  1  0  0  0
  9 10  2  0  0  0
  9 11  2  0  0  0
  9 12  1  0  0  0
 12 17  2  0  0  0
 12 13  1  0  0  0
 13 14  2  0  0  0
 13 29  1  0  0  0
 14 15  1  0  0  0
 14 20  1  0  0  0
 15 16  2  0  0  0
 15 30  1  0  0  0
 16 17  1  0  0  0
 16 19  1  0  0  0
 17 18  1  0  0  0
 18 31  1  0  0  0
 18 32  1  0  0  0
 18 33  1  0  0  0
 19 34  1  0  0  0
 19 35  1  0  0  0
 19 36  1  0  0  0
 20 37  1  0  0  0
 20 38  1  0  0  0
 21 39  1  0  0  0
 21 40  1  0  0  0
 21 41  1  0  0  0
M  END
> <i_i_glide_confnum>
13

> <i_i_glide_lignum>
4773

> <i_i_glide_posenum>
364

> <i_i_glide_rotatable_bonds>
3

> <i_m_Source_File_Index>
721

> <b_m_subgroup_collapsed>
0

> <r_i_docking_score>
-5.79317

> <r_i_glide_ecoul>
-3.45679

> <r_i_glide_eff_state_penalty>
0

> <r_i_glide_einternal>
2.25307

> <r_i_glide_emodel>
-47.3811

> <r_i_glide_energy>
-36.5244

> <r_i_glide_erotb>
0.59705

> <r_i_glide_esite>
0

> <r_i_glide_evdw>
-33.0676

> <r_i_glide_gscore>
-5.79317

> <r_i_glide_hbond>
-0.32

> <r_i_glide_ligand_efficiency>
-0.275865

> <r_i_glide_ligand_efficiency_ln>
-1.43235

> <r_i_glide_ligand_efficiency_sa>
-0.761091

> <r_i_glide_lipo>
-2.33451

> <r_i_glide_metal>
0

> <r_i_glide_rewards>
-1.56381

> <s_i_glide_gridfile>
wee1_glide-grid

> <s_m_Source_File>
wee1_decoys_glide_SP.sdf

> <s_m_Source_Path>
/Users/zhangxujun/Desktop

> <s_m_entry_id>
996

> <s_m_entry_name>
wee1_decoys_glide_SP.721

> <s_m_subgroup_title>
wee1_decoys_glide_SP

> <s_m_subgroupid>
wee1_decoys_glide_SP


$$$$
