ZINC32126203_2112
                    3D
 Schrodinger Suite 2024-2.
 39 41  0  0  1  0            999 V2000
    4.7037   54.6457   29.5919 C   0  0  0  0  0  0
    4.0948   54.0960   28.3162 C   0  0  0  0  0  0
    3.1271   53.3412   28.3992 O   0  0  0  0  0  0
    4.6898   54.4969   27.1732 N   0  0  0  0  0  0
    4.2859   54.2511   25.8530 C   0  0  0  0  0  0
    5.2608   54.3757   24.8495 C   0  0  0  0  0  0
    4.9772   54.0966   23.5036 C   0  0  0  0  0  0
    3.6729   53.6969   23.1782 C   0  0  0  0  0  0
    2.7064   53.6394   24.1892 C   0  0  0  0  0  0
    2.9646   53.9169   25.5258 C   0  0  0  0  0  0
    1.5410   53.2393   23.6355 O   0  0  0  0  0  0
    1.8833   52.9645   22.3419 C   0  0  0  0  0  0
    3.1114   53.2926   21.9985 N   0  0  0  0  0  0
    0.8992   52.4983   21.4876 N   0  0  0  0  0  0
   -0.3027   51.9660   21.8045 C   0  0  0  0  0  0
   -1.1230   51.7337   20.9187 O   0  0  0  0  0  0
   -0.6772   51.6736   23.2395 C   0  0  0  0  0  0
   -1.8012   52.3034   23.7945 C   0  0  0  0  0  0
   -2.1608   52.0750   25.1214 C   0  0  0  0  0  0
   -1.4128   51.1997   25.9054 C   0  0  0  0  0  0
   -0.2995   50.5570   25.3665 C   0  0  0  0  0  0
    0.0713   50.7807   24.0326 C   0  0  0  0  0  0
    1.1933   50.1661   23.5268 O   0  0  0  0  0  0
    0.9493   48.8974   22.9384 C   0  0  0  0  0  0
    0.7040   49.3784   26.4762 Br  0  0  0  0  0  0
   -3.6622   52.9766   25.8663 Br  0  0  0  0  0  0
    5.7899   54.5619   29.5717 H   0  0  0  0  0  0
    4.3090   54.1201   30.4622 H   0  0  0  0  0  0
    4.4461   55.6965   29.6783 H   0  0  0  0  0  0
    5.5627   54.9896   27.2710 H   0  0  0  0  0  0
    6.2706   54.6537   25.1167 H   0  0  0  0  0  0
    5.7461   54.1568   22.7479 H   0  0  0  0  0  0
    2.1753   53.8319   26.2563 H   0  0  0  0  0  0
    1.1220   52.5682   20.5075 H   0  0  0  0  0  0
   -2.3940   52.9885   23.2048 H   0  0  0  0  0  0
   -1.6919   51.0172   26.9340 H   0  0  0  0  0  0
    1.8681   48.5148   22.4917 H   0  0  0  0  0  0
    0.6152   48.1738   23.6837 H   0  0  0  0  0  0
    0.2004   48.9518   22.1460 H   0  0  0  0  0  0
  1  2  1  0  0  0
  1 27  1  0  0  0
  1 28  1  0  0  0
  1 29  1  0  0  0
  2  3  2  0  0  0
  2  4  1  0  0  0
  4  5  1  0  0  0
  4 30  1  0  0  0
  5 10  2  0  0  0
  5  6  1  0  0  0
  6  7  2  0  0  0
  6 31  1  0  0  0
  7  8  1  0  0  0
  7 32  1  0  0  0
  8 13  1  0  0  0
  8  9  2  0  0  0
  9 10  1  0  0  0
  9 11  1  0  0  0
 10 33  1  0  0  0
 11 12  1  0  0  0
 12 13  2  0  0  0
 12 14  1  0  0  0
 14 15  1  0  0  0
 14 34  1  0  0  0
 15 16  2  0  0  0
 15 17  1  0  0  0
 17 22  2  0  0  0
 17 18  1  0  0  0
 18 19  2  0  0  0
 18 35  1  0  0  0
 19 20  1  0  0  0
 19 26  1  0  0  0
 20 21  2  0  0  0
 20 36  1  0  0  0
 21 22  1  0  0  0
 21 25  1  0  0  0
 22 23  1  0  0  0
 23 24  1  0  0  0
 24 37  1  0  0  0
 24 38  1  0  0  0
 24 39  1  0  0  0
M  END
> <i_i_glide_confnum>
23

> <i_i_glide_lignum>
2113

> <i_i_glide_posenum>
328

> <i_i_glide_rotatable_bonds>
6

> <i_m_Source_File_Index>
2276

> <b_m_subgroup_collapsed>
0

> <r_i_docking_score>
-2.40889

> <r_i_glide_ecoul>
-0.63225

> <r_i_glide_eff_state_penalty>
0

> <r_i_glide_einternal>
7.05258

> <r_i_glide_emodel>
-36.8059

> <r_i_glide_energy>
-38.108

> <r_i_glide_erotb>
0.347879

> <r_i_glide_esite>
-0.0146133

> <r_i_glide_evdw>
-37.4758

> <r_i_glide_gscore>
-2.40889

> <r_i_glide_hbond>
0

> <r_i_glide_ligand_efficiency>
-0.0926495

> <r_i_glide_ligand_efficiency_ln>
-0.565719

> <r_i_glide_ligand_efficiency_sa>
-0.274474

> <r_i_glide_lipo>
-1.77504

> <r_i_glide_metal>
0

> <r_i_glide_rewards>
1.00151

> <s_i_glide_gridfile>
wee1_glide-grid

> <s_m_Source_File>
wee1_decoys_glide_SP.sdf

> <s_m_Source_Path>
/Users/zhangxujun/Desktop

> <s_m_entry_id>
2551

> <s_m_entry_name>
wee1_decoys_glide_SP.2276

> <s_m_subgroup_title>
wee1_decoys_glide_SP

> <s_m_subgroupid>
wee1_decoys_glide_SP


$$$$
