ZINC38959984_329
                    3D
 Schrodinger Suite 2024-2.
 60 64  0  0  1  0            999 V2000
   -0.4406   51.1607   24.7447 C   0  0  0  0  0  0
   -0.3618   52.5014   24.3831 C   0  0  0  0  0  0
    0.6594   52.9329   23.5389 C   0  0  0  0  0  0
    1.6093   52.0315   23.0418 C   0  0  0  0  0  0
    1.5003   50.6811   23.4099 C   0  0  0  0  0  0
    0.4874   50.2463   24.2593 C   0  0  0  0  0  0
    2.6460   52.4726   22.1931 N   0  0  0  0  0  0
    3.2740   53.7976   22.1769 C   0  0  2  0  0  0
    2.5170   54.5813   22.2133 H   0  0  0  0  0  0
    3.9048   53.8556   20.8697 N   0  0  0  0  0  0
    4.4392   52.5182   20.6896 N   0  0  0  0  0  0
    3.5343   51.6298   21.3949 C   0  0  2  0  0  0
    4.1467   51.0465   22.0813 H   0  0  0  0  0  0
    2.7138   50.3697   20.3513 S   0  0  0  0  0  0
    2.2943   51.2052   18.7908 C   0  0  0  0  0  0
    0.9580   51.9561   18.8099 C   0  0  0  0  0  0
    0.0088   51.5305   19.4730 O   0  0  0  0  0  0
    0.8930   53.0557   18.0359 N   0  0  0  0  0  0
   -0.2814   53.6134   17.6822 N   0  0  0  0  0  0
   -0.1467   54.7217   17.0807 C   0  0  0  0  0  0
   -1.2929   55.4099   16.5627 C   0  0  0  0  0  0
   -1.3094   56.6925   16.1431 C   0  0  0  0  0  0
   -0.2583   57.7243   16.0979 C   0  0  0  0  0  0
   -0.5246   58.9656   15.6488 C   0  0  0  0  0  0
   -1.8763   59.2544   15.1953 C   0  0  0  0  0  0
   -2.8600   58.3168   15.2221 C   0  0  0  0  0  0
   -2.5954   57.0252   15.6979 C   0  0  0  0  0  0
   -3.4048   55.9975   15.8054 N   0  3  0  0  0  0
   -2.6829   54.8382   16.3568 C   0  0  0  0  0  0
    4.2344   54.0398   23.3676 C   0  0  0  0  0  0
    5.6124   54.2361   23.1889 C   0  0  0  0  0  0
    6.4469   54.4717   24.2780 C   0  0  0  0  0  0
    5.9238   54.5051   25.5677 C   0  0  0  0  0  0
    4.5525   54.3140   25.7845 C   0  0  0  0  0  0
    3.7236   54.0938   24.6729 C   0  0  0  0  0  0
    3.9929   54.3324   27.1583 N   0  3  0  0  0  0
    2.7814   54.1951   27.3009 O   0  0  0  0  0  0
    4.7612   54.4884   28.1037 O   0  5  0  0  0  0
   -1.2252   50.8241   25.4077 H   0  0  0  0  0  0
   -1.0870   53.2054   24.7632 H   0  0  0  0  0  0
    0.7075   53.9781   23.2797 H   0  0  0  0  0  0
    2.2191   49.9523   23.0653 H   0  0  0  0  0  0
    0.4304   49.2059   24.5472 H   0  0  0  0  0  0
    3.1143   53.9086   20.2393 H   0  0  0  0  0  0
    4.5043   52.3295   19.6959 H   0  0  0  0  0  0
    3.1196   51.8400   18.4697 H   0  0  0  0  0  0
    2.2174   50.4267   18.0313 H   0  0  0  0  0  0
    1.7159   53.4524   17.6059 H   0  0  0  0  0  0
    0.7994   55.2325   16.9103 H   0  0  0  0  0  0
    0.7477   57.5307   16.4445 H   0  0  0  0  0  0
    0.2462   59.7255   15.6376 H   0  0  0  0  0  0
   -2.0973   60.2423   14.8173 H   0  0  0  0  0  0
   -3.8449   58.5879   14.8678 H   0  0  0  0  0  0
   -2.7171   54.0321   15.6216 H   0  0  0  0  0  0
   -3.1763   54.5226   17.2762 H   0  0  0  0  0  0
    6.0510   54.2098   22.2026 H   0  0  0  0  0  0
    7.5032   54.6197   24.1165 H   0  0  0  0  0  0
    6.5925   54.6728   26.4002 H   0  0  0  0  0  0
    2.6664   53.9576   24.8321 H   0  0  0  0  0  0
   -4.3884   55.9906   15.5480 H   0  0  0  0  0  0
  1  6  2  0  0  0
  1  2  1  0  0  0
  1 39  1  0  0  0
  2  3  2  0  0  0
  2 40  1  0  0  0
  3  4  1  0  0  0
  3 41  1  0  0  0
  4  5  2  0  0  0
  4  7  1  0  0  0
  5  6  1  0  0  0
  5 42  1  0  0  0
  6 43  1  0  0  0
  7 12  1  0  0  0
  7  8  1  0  0  0
  8  9  1  0  0  0
  8 10  1  0  0  0
  8 30  1  0  0  0
 10 11  1  0  0  0
 10 44  1  0  0  0
 11 12  1  0  0  0
 11 45  1  0  0  0
 12 13  1  0  0  0
 12 14  1  0  0  0
 14 15  1  0  0  0
 15 16  1  0  0  0
 15 46  1  0  0  0
 15 47  1  0  0  0
 16 17  2  0  0  0
 16 18  1  0  0  0
 18 19  1  0  0  0
 18 48  1  0  0  0
 19 20  2  0  0  0
 20 21  1  0  0  0
 20 49  1  0  0  0
 21 29  1  0  0  0
 21 22  2  0  0  0
 22 27  1  0  0  0
 22 23  1  0  0  0
 23 24  2  0  0  0
 23 50  1  0  0  0
 24 25  1  0  0  0
 24 51  1  0  0  0
 25 26  2  0  0  0
 25 52  1  0  0  0
 26 27  1  0  0  0
 26 53  1  0  0  0
 27 28  2  0  0  0
 28 29  1  0  0  0
 28 60  1  0  0  0
 29 54  1  0  0  0
 29 55  1  0  0  0
 30 35  2  0  0  0
 30 31  1  0  0  0
 31 32  2  0  0  0
 31 56  1  0  0  0
 32 33  1  0  0  0
 32 57  1  0  0  0
 33 34  2  0  0  0
 33 58  1  0  0  0
 34 35  1  0  0  0
 34 36  1  0  0  0
 35 59  1  0  0  0
 36 37  2  0  0  0
 36 38  1  0  0  0
M  CHG  3  28   1  36   1  38  -1
M  END
> <i_i_glide_confnum>
248

> <i_i_glide_lignum>
330

> <i_i_glide_posenum>
296

> <i_i_glide_rotatable_bonds>
9

> <i_m_Source_File_Index>
5899

> <b_m_subgroup_collapsed>
0

> <r_i_docking_score>
-5.61059

> <r_i_glide_ecoul>
-7.24423

> <r_i_glide_eff_state_penalty>
0

> <r_i_glide_einternal>
11.3827

> <r_i_glide_emodel>
-65.816

> <r_i_glide_energy>
-51.3966

> <r_i_glide_erotb>
0.566319

> <r_i_glide_esite>
-0.0594924

> <r_i_glide_evdw>
-44.1524

> <r_i_glide_gscore>
-5.61059

> <r_i_glide_hbond>
-0.135863

> <r_i_glide_ligand_efficiency>
-0.15585

> <r_i_glide_ligand_efficiency_ln>
-1.22408

> <r_i_glide_ligand_efficiency_sa>
-0.514604

> <r_i_glide_lipo>
-2.08093

> <r_i_glide_metal>
0

> <r_i_glide_rewards>
-0.606365

> <s_i_glide_gridfile>
wee1_glide-grid

> <s_m_Source_File>
wee1_decoys_glide_SP.sdf

> <s_m_Source_Path>
/Users/zhangxujun/Desktop

> <s_m_entry_id>
6174

> <s_m_entry_name>
wee1_decoys_glide_SP.5899

> <s_m_subgroup_title>
wee1_decoys_glide_SP

> <s_m_subgroupid>
wee1_decoys_glide_SP


$$$$
