ZINC36648091_5716
                    3D
 Schrodinger Suite 2024-2.
 67 70  0  0  1  0            999 V2000
    5.5257   54.3702   20.7228 C   0  0  0  0  0  0
    5.5140   54.4491   22.2436 C   0  0  0  0  0  0
    6.6530   54.9007   22.9174 C   0  0  0  0  0  0
    6.6872   55.0128   24.3075 C   0  0  0  0  0  0
    5.5980   54.6660   25.1073 C   0  0  0  0  0  0
    4.4508   54.2100   24.4455 C   0  0  0  0  0  0
    4.3995   54.0967   23.0315 C   0  0  0  0  0  0
    3.2244   53.6215   22.5368 N   0  0  0  0  0  0
    2.3706   53.2892   23.4707 C   0  0  0  0  0  0
    2.9104   53.6964   25.1060 S   0  0  0  0  0  0
    1.1411   52.6438   23.1664 N   0  0  0  0  0  0
    0.7006   52.7021   21.7505 C   0  0  0  0  0  0
    1.0658   51.5079   20.8351 C   0  0  0  0  0  0
    2.5213   51.5052   20.3122 C   0  0  0  0  0  0
    2.7035   50.5846   19.0758 N   0  3  0  0  0  0
    2.2703   49.1224   19.3146 C   0  0  0  0  0  0
    2.0827   51.1667   17.7871 C   0  0  0  0  0  0
    0.3994   51.9483   24.0986 C   0  0  0  0  0  0
    0.7276   51.8592   25.2841 O   0  0  0  0  0  0
   -0.9227   51.2118   23.6839 C   0  0  2  0  0  0
   -0.8733   50.9970   22.6226 H   0  0  0  0  0  0
   -2.1841   52.0642   23.9842 C   0  0  0  0  0  0
   -2.4636   52.2363   25.4868 C   0  0  0  0  0  0
   -2.6130   50.8463   26.1439 C   0  0  0  0  0  0
   -1.4521   49.8726   25.8252 C   0  0  0  0  0  0
   -1.0044   49.8893   24.3965 N   0  0  0  0  0  0
   -1.2059   48.4054   23.4449 S   0  0  0  0  0  0
   -0.5946   48.5768   22.1209 O   0  0  0  0  0  0
   -0.8958   47.2445   24.2873 O   0  0  0  0  0  0
   -2.9931   48.4150   23.1987 C   0  0  0  0  0  0
   -3.6502   48.8925   22.0723 C   0  0  0  0  0  0
   -5.0412   48.7567   22.1673 C   0  0  0  0  0  0
   -5.4365   48.1596   23.3555 C   0  0  0  0  0  0
   -4.0881   47.7464   24.3678 S   0  0  0  0  0  0
    5.6934   54.7830   26.6172 C   0  0  0  0  0  0
    5.4648   53.3335   20.3916 H   0  0  0  0  0  0
    6.4192   54.8212   20.2907 H   0  0  0  0  0  0
    4.6611   54.8939   20.3120 H   0  0  0  0  0  0
    7.5333   55.1836   22.3581 H   0  0  0  0  0  0
    7.5873   55.3801   24.7668 H   0  0  0  0  0  0
   -0.3713   52.8898   21.7113 H   0  0  0  0  0  0
    1.1092   53.6013   21.2905 H   0  0  0  0  0  0
    0.8679   50.5656   21.3409 H   0  0  0  0  0  0
    0.3794   51.5456   19.9922 H   0  0  0  0  0  0
    2.8534   52.4919   19.9796 H   0  0  0  0  0  0
    3.2258   51.1376   21.0611 H   0  0  0  0  0  0
    1.1805   49.0853   19.3540 H   0  0  0  0  0  0
    2.6645   48.5363   18.4795 H   0  0  0  0  0  0
    2.7029   48.7953   20.2590 H   0  0  0  0  0  0
    0.9997   51.2284   17.8982 H   0  0  0  0  0  0
    2.5279   52.1518   17.6282 H   0  0  0  0  0  0
    2.3407   50.4997   16.9632 H   0  0  0  0  0  0
   -2.1995   52.9910   23.4095 H   0  0  0  0  0  0
   -3.0429   51.5111   23.5967 H   0  0  0  0  0  0
   -1.6650   52.8025   25.9699 H   0  0  0  0  0  0
   -3.3752   52.8162   25.6332 H   0  0  0  0  0  0
   -2.7154   50.9453   27.2266 H   0  0  0  0  0  0
   -3.5475   50.3939   25.8077 H   0  0  0  0  0  0
   -0.5838   50.0495   26.4596 H   0  0  0  0  0  0
   -1.7557   48.8560   26.0824 H   0  0  0  0  0  0
   -3.1440   49.3261   21.2213 H   0  0  0  0  0  0
   -5.7304   49.0773   21.3965 H   0  0  0  0  0  0
   -6.4426   47.9331   23.6821 H   0  0  0  0  0  0
    5.7074   53.7907   27.0692 H   0  0  0  0  0  0
    6.5767   55.3349   26.9424 H   0  0  0  0  0  0
    4.8121   55.2955   27.0039 H   0  0  0  0  0  0
    3.7024   50.5406   18.8678 H   0  0  0  0  0  0
  1  2  1  0  0  0
  1 36  1  0  0  0
  1 37  1  0  0  0
  1 38  1  0  0  0
  2  7  2  0  0  0
  2  3  1  0  0  0
  3  4  2  0  0  0
  3 39  1  0  0  0
  4  5  1  0  0  0
  4 40  1  0  0  0
  5  6  2  0  0  0
  5 35  1  0  0  0
  6 10  1  0  0  0
  6  7  1  0  0  0
  7  8  1  0  0  0
  8  9  2  0  0  0
  9 10  1  0  0  0
  9 11  1  0  0  0
 11 12  1  0  0  0
 11 18  1  0  0  0
 12 13  1  0  0  0
 12 41  1  0  0  0
 12 42  1  0  0  0
 13 14  1  0  0  0
 13 43  1  0  0  0
 13 44  1  0  0  0
 14 15  1  0  0  0
 14 45  1  0  0  0
 14 46  1  0  0  0
 15 16  1  0  0  0
 15 17  1  0  0  0
 15 67  1  0  0  0
 16 47  1  0  0  0
 16 48  1  0  0  0
 16 49  1  0  0  0
 17 50  1  0  0  0
 17 51  1  0  0  0
 17 52  1  0  0  0
 18 19  2  0  0  0
 18 20  1  0  0  0
 20 21  1  0  0  0
 20 26  1  0  0  0
 20 22  1  0  0  0
 22 23  1  0  0  0
 22 53  1  0  0  0
 22 54  1  0  0  0
 23 24  1  0  0  0
 23 55  1  0  0  0
 23 56  1  0  0  0
 24 25  1  0  0  0
 24 57  1  0  0  0
 24 58  1  0  0  0
 25 26  1  0  0  0
 25 59  1  0  0  0
 25 60  1  0  0  0
 26 27  1  0  0  0
 27 28  2  0  0  0
 27 29  2  0  0  0
 27 30  1  0  0  0
 30 34  1  0  0  0
 30 31  2  0  0  0
 31 32  1  0  0  0
 31 61  1  0  0  0
 32 33  2  0  0  0
 32 62  1  0  0  0
 33 34  1  0  0  0
 33 63  1  0  0  0
 35 64  1  0  0  0
 35 65  1  0  0  0
 35 66  1  0  0  0
M  CHG  1  15   1
M  END
> <i_i_glide_confnum>
122

> <i_i_glide_lignum>
5717

> <i_i_glide_posenum>
343

> <i_i_glide_rotatable_bonds>
9

> <i_m_Source_File_Index>
4185

> <b_m_subgroup_collapsed>
0

> <r_i_docking_score>
-4.80146

> <r_i_glide_ecoul>
-3.41106

> <r_i_glide_eff_state_penalty>
0

> <r_i_glide_einternal>
1.87065

> <r_i_glide_emodel>
-55.4891

> <r_i_glide_energy>
-41.9742

> <r_i_glide_erotb>
0.604213

> <r_i_glide_esite>
-0.181906

> <r_i_glide_evdw>
-38.5632

> <r_i_glide_gscore>
-4.80146

> <r_i_glide_hbond>
-0.2

> <r_i_glide_ligand_efficiency>
-0.141219

> <r_i_glide_ligand_efficiency_ln>
-1.06078

> <r_i_glide_ligand_efficiency_sa>
-0.457496

> <r_i_glide_lipo>
-2.30912

> <r_i_glide_metal>
0

> <r_i_glide_rewards>
-0.274825

> <s_i_glide_gridfile>
wee1_glide-grid

> <s_m_Source_File>
wee1_decoys_glide_SP.sdf

> <s_m_Source_Path>
/Users/zhangxujun/Desktop

> <s_m_entry_id>
4460

> <s_m_entry_name>
wee1_decoys_glide_SP.4185

> <s_m_subgroup_title>
wee1_decoys_glide_SP

> <s_m_subgroupid>
wee1_decoys_glide_SP


$$$$
