ZINC05172511_1374
                    3D
 Schrodinger Suite 2024-2.
 51 53  0  0  1  0            999 V2000
    1.1489   53.2241   27.0938 C   0  0  0  0  0  0
    2.3820   53.6110   26.2734 C   0  0  0  0  0  0
    3.6232   53.8516   26.9001 C   0  0  0  0  0  0
    4.7565   54.1344   26.1008 C   0  0  0  0  0  0
    4.5993   54.1878   24.7007 C   0  0  0  0  0  0
    3.3995   53.9862   24.1079 N   0  0  0  0  0  0
    2.3215   53.6980   24.8721 C   0  0  0  0  0  0
    1.0442   53.4684   24.0799 C   0  0  0  0  0  0
    5.9747   54.4951   23.5977 S   0  0  0  0  0  0
    5.3896   54.3809   21.8685 C   0  0  0  0  0  0
    6.0882   55.3270   20.8836 C   0  0  0  0  0  0
    6.7035   56.3220   21.2814 O   0  0  0  0  0  0
    5.9339   55.0164   19.5776 N   0  0  0  0  0  0
    6.2898   55.9501   18.5960 N   0  0  0  0  0  0
    7.5376   56.0779   18.1056 C   0  0  0  0  0  0
    8.5092   55.3445   18.2949 O   0  0  0  0  0  0
    7.5185   57.4317   17.3914 C   0  0  0  0  0  0
    8.2492   57.3631   16.0187 C   0  0  0  0  0  0
    9.7938   57.3414   16.0992 C   0  0  0  0  0  0
   10.3462   58.4689   16.9933 C   0  0  0  0  0  0
    9.6936   58.4710   18.3895 C   0  0  0  0  0  0
    8.1536   58.5362   18.2893 C   0  0  0  0  0  0
    6.0905   57.6003   17.2692 N   0  0  0  0  0  0
    5.3705   56.6806   17.9241 C   0  0  0  0  0  0
    4.1567   56.4982   17.8517 O   0  0  0  0  0  0
    6.0691   54.3375   26.7129 C   0  0  0  0  0  0
    7.1039   54.4955   27.1984 N   0  0  0  0  0  0
    3.7303   53.8038   28.4323 C   0  0  0  0  0  0
    0.3232   52.8461   26.4934 H   0  0  0  0  0  0
    1.4031   52.4239   27.7900 H   0  0  0  0  0  0
    0.7935   54.0706   27.6828 H   0  0  0  0  0  0
    0.2414   54.0945   24.4635 H   0  0  0  0  0  0
    1.1643   53.7069   23.0215 H   0  0  0  0  0  0
    0.7395   52.4241   24.1527 H   0  0  0  0  0  0
    5.5065   53.3474   21.5401 H   0  0  0  0  0  0
    4.3259   54.6108   21.8203 H   0  0  0  0  0  0
    5.4055   54.2366   19.2150 H   0  0  0  0  0  0
    7.8787   56.5132   15.4407 H   0  0  0  0  0  0
    7.9001   58.1906   15.3981 H   0  0  0  0  0  0
   10.1282   56.3765   16.4834 H   0  0  0  0  0  0
   10.2181   57.4198   15.0982 H   0  0  0  0  0  0
   11.4286   58.3701   17.0872 H   0  0  0  0  0  0
   10.1715   59.4317   16.5105 H   0  0  0  0  0  0
    9.9947   57.5756   18.9359 H   0  0  0  0  0  0
   10.0648   59.3129   18.9736 H   0  0  0  0  0  0
    7.8110   59.5141   17.9427 H   0  0  0  0  0  0
    7.6991   58.5160   19.2817 H   0  0  0  0  0  0
    5.7038   58.4943   16.9926 H   0  0  0  0  0  0
    2.7834   53.9969   28.9326 H   0  0  0  0  0  0
    4.1140   52.8358   28.7561 H   0  0  0  0  0  0
    4.4028   54.5775   28.8048 H   0  0  0  0  0  0
  1  2  1  0  0  0
  1 29  1  0  0  0
  1 30  1  0  0  0
  1 31  1  0  0  0
  2  7  2  0  0  0
  2  3  1  0  0  0
  3  4  2  0  0  0
  3 28  1  0  0  0
  4  5  1  0  0  0
  4 26  1  0  0  0
  5  6  2  0  0  0
  5  9  1  0  0  0
  6  7  1  0  0  0
  7  8  1  0  0  0
  8 32  1  0  0  0
  8 33  1  0  0  0
  8 34  1  0  0  0
  9 10  1  0  0  0
 10 11  1  0  0  0
 10 35  1  0  0  0
 10 36  1  0  0  0
 11 12  2  0  0  0
 11 13  1  0  0  0
 13 14  1  0  0  0
 13 37  1  0  0  0
 14 24  1  0  0  0
 14 15  1  0  0  0
 15 16  2  0  0  0
 15 17  1  0  0  0
 17 22  1  0  0  0
 17 18  1  0  0  0
 17 23  1  0  0  0
 18 19  1  0  0  0
 18 38  1  0  0  0
 18 39  1  0  0  0
 19 20  1  0  0  0
 19 40  1  0  0  0
 19 41  1  0  0  0
 20 21  1  0  0  0
 20 42  1  0  0  0
 20 43  1  0  0  0
 21 22  1  0  0  0
 21 44  1  0  0  0
 21 45  1  0  0  0
 22 46  1  0  0  0
 22 47  1  0  0  0
 23 24  1  0  0  0
 23 48  1  0  0  0
 24 25  2  0  0  0
 26 27  3  0  0  0
 28 49  1  0  0  0
 28 50  1  0  0  0
 28 51  1  0  0  0
M  END
> <i_i_glide_confnum>
38

> <i_i_glide_lignum>
1375

> <i_i_glide_posenum>
123

> <i_i_glide_rotatable_bonds>
6

> <i_m_Source_File_Index>
5825

> <b_m_subgroup_collapsed>
0

> <r_i_docking_score>
-5.84907

> <r_i_glide_ecoul>
-2.60676

> <r_i_glide_eff_state_penalty>
0

> <r_i_glide_einternal>
5.06155

> <r_i_glide_emodel>
-55.6646

> <r_i_glide_energy>
-42.1403

> <r_i_glide_erotb>
0.486745

> <r_i_glide_esite>
-0.0187445

> <r_i_glide_evdw>
-39.5335

> <r_i_glide_gscore>
-5.84907

> <r_i_glide_hbond>
-0.206503

> <r_i_glide_ligand_efficiency>
-0.208895

> <r_i_glide_ligand_efficiency_ln>
-1.35014

> <r_i_glide_ligand_efficiency_sa>
-0.634329

> <r_i_glide_lipo>
-2.14345

> <r_i_glide_metal>
0

> <r_i_glide_rewards>
-1.59943

> <s_i_glide_gridfile>
wee1_glide-grid

> <s_m_Source_File>
wee1_decoys_glide_SP.sdf

> <s_m_Source_Path>
/Users/zhangxujun/Desktop

> <s_m_entry_id>
6100

> <s_m_entry_name>
wee1_decoys_glide_SP.5825

> <s_m_subgroup_title>
wee1_decoys_glide_SP

> <s_m_subgroupid>
wee1_decoys_glide_SP


$$$$
