ZINC08451820_4616
                    3D
 Schrodinger Suite 2024-2.
 62 65  0  0  1  0            999 V2000
    1.9368   53.8884   27.7825 C   0  0  0  0  0  0
    3.4260   54.0958   27.5751 C   0  0  0  0  0  0
    4.2737   54.2114   28.6760 C   0  0  0  0  0  0
    5.6419   54.3898   28.4814 C   0  0  0  0  0  0
    6.1725   54.4534   27.1961 C   0  0  0  0  0  0
    5.3384   54.3463   26.0823 C   0  0  0  0  0  0
    3.9566   54.1576   26.2831 C   0  0  0  0  0  0
    5.9739   54.4381   24.8301 N   0  0  0  0  0  0
    5.4257   54.4947   23.6017 C   0  0  0  0  0  0
    4.2143   54.4769   23.3729 O   0  0  0  0  0  0
    6.4515   54.6349   22.4552 C   0  0  0  0  0  0
    5.8300   54.6411   21.1049 N   0  0  0  0  0  0
    5.1042   53.6278   20.5828 C   0  0  0  0  0  0
    4.9677   52.5026   21.0685 O   0  0  0  0  0  0
    4.5197   54.2197   19.4115 C   0  0  0  0  0  0
    3.5259   53.7054   18.6412 C   0  0  0  0  0  0
    2.6894   52.4958   18.8154 C   0  0  0  0  0  0
    2.3052   51.7616   17.6917 C   0  0  0  0  0  0
    1.5303   50.6093   17.8230 C   0  0  0  0  0  0
    1.1430   50.1506   19.0914 C   0  0  0  0  0  0
    1.5082   50.8859   20.2273 C   0  0  0  0  0  0
    2.2458   52.0706   20.0704 C   0  0  0  0  0  0
    1.1318   50.3867   21.4625 O   0  0  0  0  0  0
    1.7899   50.8815   22.6220 C   0  0  0  0  0  0
    0.4233   48.9908   19.3039 O   0  0  0  0  0  0
    0.0932   48.1419   18.2122 C   0  0  0  0  0  0
   -0.5898   46.9093   18.7803 C   0  0  0  0  0  0
   -1.8894   47.0087   19.2822 C   0  0  0  0  0  0
   -2.5015   45.9030   19.8670 C   0  0  0  0  0  0
   -1.8166   44.6922   19.9538 C   0  0  0  0  0  0
   -0.5149   44.5683   19.4441 C   0  0  0  0  0  0
    0.0878   45.6876   18.8500 C   0  0  0  0  0  0
    0.2232   43.2718   19.5508 C   0  0  0  0  0  0
    1.1039   43.0160   18.7027 O   0  0  0  0  0  0
    5.1579   55.3813   19.2321 N   0  0  0  0  0  0
    5.9329   55.6995   20.2733 C   0  0  0  0  0  0
    6.6534   56.6944   20.3854 O   0  0  0  0  0  0
    1.7595   53.1764   28.5901 H   0  0  0  0  0  0
    1.4593   53.4774   26.8911 H   0  0  0  0  0  0
    1.4532   54.8296   28.0453 H   0  0  0  0  0  0
    3.8768   54.1690   29.6807 H   0  0  0  0  0  0
    6.3033   54.4970   29.3269 H   0  0  0  0  0  0
    7.2375   54.5913   27.0826 H   0  0  0  0  0  0
    3.2724   54.0561   25.4576 H   0  0  0  0  0  0
    6.9794   54.4814   24.8657 H   0  0  0  0  0  0
    6.9998   55.5639   22.6251 H   0  0  0  0  0  0
    7.2008   53.8481   22.5161 H   0  0  0  0  0  0
    3.2488   54.2911   17.7755 H   0  0  0  0  0  0
    2.6334   52.0610   16.7069 H   0  0  0  0  0  0
    1.2792   50.0632   16.9281 H   0  0  0  0  0  0
    2.4876   52.6704   20.9336 H   0  0  0  0  0  0
    1.5431   50.2522   23.4783 H   0  0  0  0  0  0
    2.8716   50.8563   22.4860 H   0  0  0  0  0  0
    1.4813   51.9015   22.8552 H   0  0  0  0  0  0
   -0.5799   48.6519   17.5207 H   0  0  0  0  0  0
    0.9871   47.8556   17.6547 H   0  0  0  0  0  0
   -2.4187   47.9508   19.2380 H   0  0  0  0  0  0
   -3.5027   45.9897   20.2632 H   0  0  0  0  0  0
   -2.3072   43.8484   20.4192 H   0  0  0  0  0  0
    1.0967   45.6155   18.4671 H   0  0  0  0  0  0
    5.0876   55.9388   18.3937 H   0  0  0  0  0  0
   -0.0956   42.4968   20.4821 O   0  5  0  0  0  0
  1  2  1  0  0  0
  1 38  1  0  0  0
  1 39  1  0  0  0
  1 40  1  0  0  0
  2  7  2  0  0  0
  2  3  1  0  0  0
  3  4  2  0  0  0
  3 41  1  0  0  0
  4  5  1  0  0  0
  4 42  1  0  0  0
  5  6  2  0  0  0
  5 43  1  0  0  0
  6  7  1  0  0  0
  6  8  1  0  0  0
  7 44  1  0  0  0
  8  9  1  0  0  0
  8 45  1  0  0  0
  9 10  2  0  0  0
  9 11  1  0  0  0
 11 12  1  0  0  0
 11 46  1  0  0  0
 11 47  1  0  0  0
 12 36  1  0  0  0
 12 13  1  0  0  0
 13 14  2  0  0  0
 13 15  1  0  0  0
 15 16  2  0  0  0
 15 35  1  0  0  0
 16 17  1  0  0  0
 16 48  1  0  0  0
 17 22  2  0  0  0
 17 18  1  0  0  0
 18 19  2  0  0  0
 18 49  1  0  0  0
 19 20  1  0  0  0
 19 50  1  0  0  0
 20 21  2  0  0  0
 20 25  1  0  0  0
 21 22  1  0  0  0
 21 23  1  0  0  0
 22 51  1  0  0  0
 23 24  1  0  0  0
 24 52  1  0  0  0
 24 53  1  0  0  0
 24 54  1  0  0  0
 25 26  1  0  0  0
 26 27  1  0  0  0
 26 55  1  0  0  0
 26 56  1  0  0  0
 27 32  2  0  0  0
 27 28  1  0  0  0
 28 29  2  0  0  0
 28 57  1  0  0  0
 29 30  1  0  0  0
 29 58  1  0  0  0
 30 31  2  0  0  0
 30 59  1  0  0  0
 31 32  1  0  0  0
 31 33  1  0  0  0
 32 60  1  0  0  0
 33 34  2  0  0  0
 33 62  1  0  0  0
 35 36  1  0  0  0
 35 61  1  0  0  0
 36 37  2  0  0  0
M  CHG  1  62  -1
M  END
> <i_i_glide_confnum>
139

> <i_i_glide_lignum>
4617

> <i_i_glide_posenum>
230

> <i_i_glide_rotatable_bonds>
10

> <i_m_Source_File_Index>
3815

> <b_m_subgroup_collapsed>
0

> <r_i_docking_score>
-5.89904

> <r_i_glide_ecoul>
-7.70759

> <r_i_glide_eff_state_penalty>
0

> <r_i_glide_einternal>
8.7505

> <r_i_glide_emodel>
-72.7027

> <r_i_glide_energy>
-50.7309

> <r_i_glide_erotb>
0.619925

> <r_i_glide_esite>
-0.0490204

> <r_i_glide_evdw>
-43.0233

> <r_i_glide_gscore>
-5.89904

> <r_i_glide_hbond>
-0.477303

> <r_i_glide_ligand_efficiency>
-0.155238

> <r_i_glide_ligand_efficiency_ln>
-1.27201

> <r_i_glide_ligand_efficiency_sa>
-0.521906

> <r_i_glide_lipo>
-2.07248

> <r_i_glide_metal>
0

> <r_i_glide_rewards>
-0.612862

> <s_i_glide_gridfile>
wee1_glide-grid

> <s_m_Source_File>
wee1_decoys_glide_SP.sdf

> <s_m_Source_Path>
/Users/zhangxujun/Desktop

> <s_m_entry_id>
4090

> <s_m_entry_name>
wee1_decoys_glide_SP.3815

> <s_m_subgroup_title>
wee1_decoys_glide_SP

> <s_m_subgroupid>
wee1_decoys_glide_SP


$$$$
