ZINC09325319_3107
                    3D
 Schrodinger Suite 2024-2.
 63 66  0  0  1  0            999 V2000
   11.1904   49.9587   16.5883 C   0  0  0  0  0  0
   10.0740   51.0077   16.7222 C   0  0  0  0  0  0
   10.6317   52.4429   16.8427 C   0  0  0  0  0  0
    9.4953   53.4748   17.0213 C   0  0  0  0  0  0
    8.4992   53.3490   15.9194 N   0  0  0  0  0  0
    7.9533   51.9779   15.7113 C   0  0  0  0  0  0
    9.1024   50.9659   15.5247 C   0  0  0  0  0  0
    7.3038   54.6562   15.8219 S   0  0  0  0  0  0
    6.4308   54.3976   14.6707 O   0  0  0  0  0  0
    8.0151   55.9345   15.9497 O   0  0  0  0  0  0
    6.3027   54.4599   17.2936 C   0  0  0  0  0  0
    5.2824   53.5114   17.3082 C   0  0  0  0  0  0
    4.5554   53.2970   18.4730 C   0  0  0  0  0  0
    4.8400   54.0157   19.6412 C   0  0  0  0  0  0
    5.8376   55.0086   19.5946 C   0  0  0  0  0  0
    6.5694   55.2233   18.4299 C   0  0  0  0  0  0
    4.1001   53.6769   20.9214 C   0  0  0  0  0  0
    3.1474   52.8942   20.9103 O   0  0  0  0  0  0
    4.6181   54.2266   22.0395 N   0  0  0  0  0  0
    4.2036   54.0961   23.3613 C   0  0  0  0  0  0
    4.9833   54.3961   24.4992 C   0  0  0  0  0  0
    4.2665   54.1663   25.6964 C   0  0  0  0  0  0
    2.9810   53.6627   25.4705 C   0  0  0  0  0  0
    2.5993   53.5603   23.7907 S   0  0  0  0  0  0
    2.0264   53.2123   26.5674 C   0  0  0  0  0  0
    2.6258   53.5325   27.8742 N   0  0  0  0  0  0
    4.0662   53.2948   28.0525 C   0  0  0  0  0  0
    4.8043   54.2798   27.1270 C   0  0  0  0  0  0
    1.8576   53.7485   29.0229 C   0  0  0  0  0  0
    2.3094   54.1835   30.0819 O   0  0  0  0  0  0
    0.5592   53.4034   28.8495 O   0  0  0  0  0  0
   -0.3092   53.3273   29.9696 C   0  0  0  0  0  0
    6.3289   54.9367   24.4889 C   0  0  0  0  0  0
    6.7479   55.6965   25.3574 O   0  0  0  0  0  0
    7.1044   54.5538   23.4790 N   0  0  0  0  0  0
   11.8130   50.1441   15.7128 H   0  0  0  0  0  0
   11.8382   49.9630   17.4665 H   0  0  0  0  0  0
   10.7764   48.9541   16.4946 H   0  0  0  0  0  0
    9.5017   50.7898   17.6274 H   0  0  0  0  0  0
   11.2335   52.6896   15.9658 H   0  0  0  0  0  0
   11.3318   52.5066   17.6775 H   0  0  0  0  0  0
    9.9180   54.4804   17.0282 H   0  0  0  0  0  0
    9.0146   53.2145   17.9659 H   0  0  0  0  0  0
    7.4295   51.6688   16.6161 H   0  0  0  0  0  0
    7.3108   51.9644   14.8306 H   0  0  0  0  0  0
    8.7060   49.9582   15.4009 H   0  0  0  0  0  0
    9.6390   51.1595   14.5934 H   0  0  0  0  0  0
    5.0733   52.9100   16.4350 H   0  0  0  0  0  0
    3.8006   52.5206   18.4642 H   0  0  0  0  0  0
    6.0826   55.6129   20.4557 H   0  0  0  0  0  0
    7.3524   55.9680   18.4182 H   0  0  0  0  0  0
    5.4899   54.7155   21.9209 H   0  0  0  0  0  0
    1.8277   52.1418   26.5085 H   0  0  0  0  0  0
    1.0576   53.6927   26.4500 H   0  0  0  0  0  0
    4.4048   53.3984   29.0845 H   0  0  0  0  0  0
    4.2838   52.2663   27.7658 H   0  0  0  0  0  0
    4.7180   55.2968   27.5017 H   0  0  0  0  0  0
    5.8688   54.0496   27.1722 H   0  0  0  0  0  0
   -1.2574   52.8820   29.6795 H   0  0  0  0  0  0
   -0.4955   54.3174   30.3853 H   0  0  0  0  0  0
    0.1167   52.7006   30.7540 H   0  0  0  0  0  0
    8.0656   54.8967   23.4627 H   0  0  0  0  0  0
    6.8450   53.7617   22.9136 H   0  0  0  0  0  0
  1  2  1  0  0  0
  1 36  1  0  0  0
  1 37  1  0  0  0
  1 38  1  0  0  0
  2  7  1  0  0  0
  2  3  1  0  0  0
  2 39  1  0  0  0
  3  4  1  0  0  0
  3 40  1  0  0  0
  3 41  1  0  0  0
  4  5  1  0  0  0
  4 42  1  0  0  0
  4 43  1  0  0  0
  5  6  1  0  0  0
  5  8  1  0  0  0
  6  7  1  0  0  0
  6 44  1  0  0  0
  6 45  1  0  0  0
  7 46  1  0  0  0
  7 47  1  0  0  0
  8  9  2  0  0  0
  8 10  2  0  0  0
  8 11  1  0  0  0
 11 16  2  0  0  0
 11 12  1  0  0  0
 12 13  2  0  0  0
 12 48  1  0  0  0
 13 14  1  0  0  0
 13 49  1  0  0  0
 14 15  2  0  0  0
 14 17  1  0  0  0
 15 16  1  0  0  0
 15 50  1  0  0  0
 16 51  1  0  0  0
 17 18  2  0  0  0
 17 19  1  0  0  0
 19 20  1  0  0  0
 19 52  1  0  0  0
 20 24  1  0  0  0
 20 21  2  0  0  0
 21 22  1  0  0  0
 21 33  1  0  0  0
 22 28  1  0  0  0
 22 23  2  0  0  0
 23 24  1  0  0  0
 23 25  1  0  0  0
 25 26  1  0  0  0
 25 53  1  0  0  0
 25 54  1  0  0  0
 26 27  1  0  0  0
 26 29  1  0  0  0
 27 28  1  0  0  0
 27 55  1  0  0  0
 27 56  1  0  0  0
 28 57  1  0  0  0
 28 58  1  0  0  0
 29 30  2  0  0  0
 29 31  1  0  0  0
 31 32  1  0  0  0
 32 59  1  0  0  0
 32 60  1  0  0  0
 32 61  1  0  0  0
 33 34  2  0  0  0
 33 35  1  0  0  0
 35 62  1  0  0  0
 35 63  1  0  0  0
M  END
> <i_i_glide_confnum>
82

> <i_i_glide_lignum>
3108

> <i_i_glide_posenum>
295

> <i_i_glide_rotatable_bonds>
8

> <i_m_Source_File_Index>
4723

> <b_m_subgroup_collapsed>
0

> <r_i_docking_score>
-7.18942

> <r_i_glide_ecoul>
-9.28284

> <r_i_glide_eff_state_penalty>
0

> <r_i_glide_einternal>
6.02368

> <r_i_glide_emodel>
-74.3558

> <r_i_glide_energy>
-54.1857

> <r_i_glide_erotb>
0.454952

> <r_i_glide_esite>
0

> <r_i_glide_evdw>
-44.9029

> <r_i_glide_gscore>
-7.18942

> <r_i_glide_hbond>
-0.85724

> <r_i_glide_ligand_efficiency>
-0.205412

> <r_i_glide_ligand_efficiency_ln>
-1.57824

> <r_i_glide_ligand_efficiency_sa>
-0.671916

> <r_i_glide_lipo>
-2.17734

> <r_i_glide_metal>
0

> <r_i_glide_rewards>
-0.972222

> <s_i_glide_gridfile>
wee1_glide-grid

> <s_m_Source_File>
wee1_decoys_glide_SP.sdf

> <s_m_Source_Path>
/Users/zhangxujun/Desktop

> <s_m_entry_id>
4998

> <s_m_entry_name>
wee1_decoys_glide_SP.4723

> <s_m_subgroup_title>
wee1_decoys_glide_SP

> <s_m_subgroupid>
wee1_decoys_glide_SP


$$$$
