ZINC03027411_3238
                    3D
 Schrodinger Suite 2024-2.
 36 37  0  0  1  0            999 V2000
    1.0992   55.4866   30.0813 C   0  0  0  0  0  0
    2.3026   56.0455   29.6817 C   0  0  0  0  0  0
    3.2455   55.2546   29.0365 C   0  0  0  0  0  0
    2.9943   53.9117   28.7387 C   0  0  0  0  0  0
    1.7450   53.3690   29.0931 C   0  0  0  0  0  0
    0.8101   54.1602   29.7741 C   0  0  0  0  0  0
    1.4106   51.9685   28.7884 N   0  3  0  0  0  0
    0.2525   51.7036   28.4819 O   0  0  0  0  0  0
    2.3030   51.1368   28.8816 O   0  5  0  0  0  0
    3.9231   53.1118   28.0925 O   0  0  0  0  0  0
    5.3169   53.4602   28.1076 C   0  0  0  0  0  0
    5.7391   54.2354   26.8485 C   0  0  0  0  0  0
    6.7801   54.8969   26.8819 O   0  0  0  0  0  0
    4.9716   54.0964   25.7497 N   0  0  0  0  0  0
    5.4004   54.4824   24.5321 N   0  0  0  0  0  0
    4.6775   54.0639   23.5729 C   0  0  0  0  0  0
    5.0053   54.2420   22.1413 C   0  0  0  0  0  0
    4.1078   53.7019   21.2070 C   0  0  0  0  0  0
    4.3373   53.8057   19.8369 C   0  0  0  0  0  0
    5.4671   54.4657   19.3681 C   0  0  0  0  0  0
    6.3756   55.0147   20.2685 C   0  0  0  0  0  0
    6.1606   54.8979   21.6476 C   0  0  0  0  0  0
    7.1042   55.4481   22.4816 O   0  0  0  0  0  0
    7.9262   55.8980   19.5915 Br  0  0  0  0  0  0
    3.1048   53.0430   18.6041 Br  0  0  0  0  0  0
    0.3770   56.0894   30.6107 H   0  0  0  0  0  0
    2.5103   57.0824   29.8984 H   0  0  0  0  0  0
    4.1830   55.6961   28.7600 H   0  0  0  0  0  0
   -0.1411   53.7427   30.0745 H   0  0  0  0  0  0
    5.6085   53.9973   29.0113 H   0  0  0  0  0  0
    5.8839   52.5291   28.1264 H   0  0  0  0  0  0
    4.1345   53.5320   25.7703 H   0  0  0  0  0  0
    3.7524   53.5158   23.7506 H   0  0  0  0  0  0
    3.2114   53.1884   21.5271 H   0  0  0  0  0  0
    5.6406   54.5447   18.3045 H   0  0  0  0  0  0
    7.9506   55.6065   22.0550 H   0  0  0  0  0  0
  1  6  2  0  0  0
  1  2  1  0  0  0
  1 26  1  0  0  0
  2  3  2  0  0  0
  2 27  1  0  0  0
  3  4  1  0  0  0
  3 28  1  0  0  0
  4  5  2  0  0  0
  4 10  1  0  0  0
  5  6  1  0  0  0
  5  7  1  0  0  0
  6 29  1  0  0  0
  7  8  2  0  0  0
  7  9  1  0  0  0
 10 11  1  0  0  0
 11 12  1  0  0  0
 11 30  1  0  0  0
 11 31  1  0  0  0
 12 13  2  0  0  0
 12 14  1  0  0  0
 14 15  1  0  0  0
 14 32  1  0  0  0
 15 16  2  0  0  0
 16 17  1  0  0  0
 16 33  1  0  0  0
 17 22  2  0  0  0
 17 18  1  0  0  0
 18 19  2  0  0  0
 18 34  1  0  0  0
 19 20  1  0  0  0
 19 25  1  0  0  0
 20 21  2  0  0  0
 20 35  1  0  0  0
 21 22  1  0  0  0
 21 24  1  0  0  0
 22 23  1  0  0  0
 23 36  1  0  0  0
M  CHG  2   7   1   9  -1
M  END
> <i_i_glide_confnum>
23

> <i_i_glide_lignum>
3239

> <i_i_glide_posenum>
73

> <i_i_glide_rotatable_bonds>
8

> <i_m_Source_File_Index>
6043

> <b_m_subgroup_collapsed>
0

> <r_i_docking_score>
-5.85958

> <r_i_glide_ecoul>
-4.01857

> <r_i_glide_eff_state_penalty>
0

> <r_i_glide_einternal>
3.42768

> <r_i_glide_emodel>
-58.404

> <r_i_glide_energy>
-43.3502

> <r_i_glide_erotb>
0.542225

> <r_i_glide_esite>
-0.00164696

> <r_i_glide_evdw>
-39.3316

> <r_i_glide_gscore>
-5.85958

> <r_i_glide_hbond>
-0.207231

> <r_i_glide_ligand_efficiency>
-0.234383

> <r_i_glide_ligand_efficiency_ln>
-1.3889

> <r_i_glide_ligand_efficiency_sa>
-0.68534

> <r_i_glide_lipo>
-2.40874

> <r_i_glide_metal>
0

> <r_i_glide_rewards>
-1.21482

> <s_i_glide_gridfile>
wee1_glide-grid

> <s_m_Source_File>
wee1_decoys_glide_SP.sdf

> <s_m_Source_Path>
/Users/zhangxujun/Desktop

> <s_m_entry_id>
6318

> <s_m_entry_name>
wee1_decoys_glide_SP.6043

> <s_m_subgroup_title>
wee1_decoys_glide_SP

> <s_m_subgroupid>
wee1_decoys_glide_SP


$$$$
