ZINC12557557_2752
                    3D
 Schrodinger Suite 2024-2.
 48 51  0  0  1  0            999 V2000
    5.0523   52.2876   21.0476 C   0  0  0  0  0  0
    4.7680   53.7938   21.1644 C   0  0  2  0  0  0
    4.6327   54.1568   20.1403 H   0  0  0  0  0  0
    5.9011   54.6421   21.7836 C   0  0  0  0  0  0
    6.1719   54.3091   23.2740 C   0  0  0  0  0  0
    4.8471   54.1754   24.0338 C   0  0  0  0  0  0
    3.6249   54.0122   23.3804 C   0  0  0  0  0  0
    2.2452   53.8490   24.4210 S   0  0  0  0  0  0
    3.2845   54.0147   25.8068 C   0  0  0  0  0  0
    4.6575   54.1765   25.4545 C   0  0  0  0  0  0
    5.5332   54.3072   26.5611 C   0  0  0  0  0  0
    5.0835   54.2530   27.8401 N   0  0  0  0  0  0
    3.7537   54.0717   28.0179 C   0  0  0  0  0  0
    2.8125   53.9810   27.0485 N   0  0  0  0  0  0
    3.2130   53.8838   29.6841 S   0  0  0  0  0  0
    1.4138   53.5453   29.6803 C   0  0  0  0  0  0
    1.1043   52.2313   28.9528 C   0  0  0  0  0  0
    1.9068   51.2976   28.8824 O   0  0  0  0  0  0
   -0.1150   52.2634   28.3752 O   0  0  0  0  0  0
   -0.5193   51.2471   27.4627 C   0  0  1  0  0  0
   -0.2311   50.2621   27.8382 H   0  0  0  0  0  0
   -2.0553   51.3320   27.3895 C   0  0  0  0  0  0
   -2.4871   50.4961   26.1769 C   0  0  0  0  0  0
   -1.1861   50.8244   24.8696 S   0  0  0  0  0  0
   -1.6403   51.8790   23.9572 O   0  0  0  0  0  0
   -0.6962   49.5469   24.3455 O   0  0  0  0  0  0
    0.0476   51.5556   26.0686 C   0  0  0  0  0  0
    6.9051   54.4896   26.4126 N   0  0  0  0  0  0
    3.4414   54.0836   21.8856 C   0  0  0  0  0  0
    5.3182   51.8548   22.0136 H   0  0  0  0  0  0
    4.1846   51.7476   20.6622 H   0  0  0  0  0  0
    5.8647   52.0972   20.3486 H   0  0  0  0  0  0
    6.8213   54.4994   21.2183 H   0  0  0  0  0  0
    5.6524   55.6979   21.6828 H   0  0  0  0  0  0
    6.7849   55.1013   23.7006 H   0  0  0  0  0  0
    6.7513   53.3884   23.3597 H   0  0  0  0  0  0
    0.8848   54.3625   29.1911 H   0  0  0  0  0  0
    1.0507   53.4663   30.7037 H   0  0  0  0  0  0
   -2.3913   52.3643   27.2783 H   0  0  0  0  0  0
   -2.5100   50.9261   28.2965 H   0  0  0  0  0  0
   -3.4931   50.6305   25.7830 H   0  0  0  0  0  0
   -2.3868   49.4450   26.4688 H   0  0  0  0  0  0
    1.0789   51.2931   25.8505 H   0  0  0  0  0  0
   -0.0553   52.6285   25.9098 H   0  0  0  0  0  0
    7.3098   54.4527   25.4888 H   0  0  0  0  0  0
    7.4660   54.5327   27.2506 H   0  0  0  0  0  0
    2.6503   53.4147   21.5422 H   0  0  0  0  0  0
    3.1040   55.0930   21.6685 H   0  0  0  0  0  0
  1  2  1  0  0  0
  1 30  1  0  0  0
  1 31  1  0  0  0
  1 32  1  0  0  0
  2  3  1  0  0  0
  2 29  1  0  0  0
  2  4  1  0  0  0
  4  5  1  0  0  0
  4 33  1  0  0  0
  4 34  1  0  0  0
  5  6  1  0  0  0
  5 35  1  0  0  0
  5 36  1  0  0  0
  6 10  1  0  0  0
  6  7  2  0  0  0
  7  8  1  0  0  0
  7 29  1  0  0  0
  8  9  1  0  0  0
  9 14  2  0  0  0
  9 10  1  0  0  0
 10 11  2  0  0  0
 11 12  1  0  0  0
 11 28  1  0  0  0
 12 13  2  0  0  0
 13 14  1  0  0  0
 13 15  1  0  0  0
 15 16  1  0  0  0
 16 17  1  0  0  0
 16 37  1  0  0  0
 16 38  1  0  0  0
 17 18  2  0  0  0
 17 19  1  0  0  0
 19 20  1  0  0  0
 20 21  1  0  0  0
 20 27  1  0  0  0
 20 22  1  0  0  0
 22 23  1  0  0  0
 22 39  1  0  0  0
 22 40  1  0  0  0
 23 24  1  0  0  0
 23 41  1  0  0  0
 23 42  1  0  0  0
 24 25  2  0  0  0
 24 26  2  0  0  0
 24 27  1  0  0  0
 27 43  1  0  0  0
 27 44  1  0  0  0
 28 45  1  0  0  0
 28 46  1  0  0  0
 29 47  1  0  0  0
 29 48  1  0  0  0
M  END
> <i_i_glide_confnum>
77

> <i_i_glide_lignum>
2753

> <i_i_glide_posenum>
371

> <i_i_glide_rotatable_bonds>
5

> <i_m_Source_File_Index>
299

> <b_m_subgroup_collapsed>
0

> <r_i_docking_score>
-5.7145

> <r_i_glide_ecoul>
-3.10909

> <r_i_glide_eff_state_penalty>
0

> <r_i_glide_einternal>
0.948037

> <r_i_glide_emodel>
-66.2942

> <r_i_glide_energy>
-48.5603

> <r_i_glide_erotb>
0.434459

> <r_i_glide_esite>
-0.0326128

> <r_i_glide_evdw>
-45.4512

> <r_i_glide_gscore>
-5.7145

> <r_i_glide_hbond>
-0.0155689

> <r_i_glide_ligand_efficiency>
-0.211648

> <r_i_glide_ligand_efficiency_ln>
-1.33024

> <r_i_glide_ligand_efficiency_sa>
-0.634944

> <r_i_glide_lipo>
-2.32595

> <r_i_glide_metal>
0

> <r_i_glide_rewards>
-1.0359

> <s_i_glide_gridfile>
wee1_glide-grid

> <s_m_Source_File>
wee1_decoys_glide_SP.sdf

> <s_m_Source_Path>
/Users/zhangxujun/Desktop

> <s_m_entry_id>
574

> <s_m_entry_name>
wee1_decoys_glide_SP.299

> <s_m_subgroup_title>
wee1_decoys_glide_SP

> <s_m_subgroupid>
wee1_decoys_glide_SP


$$$$
