ZINC04177830_3108
                    3D
 Schrodinger Suite 2024-2.
 62 64  0  0  1  0            999 V2000
   -7.1126   46.7886   31.8304 C   0  0  0  0  0  0
   -6.3585   47.8411   31.0015 C   0  0  0  0  0  0
   -6.7423   49.2299   31.3627 N   0  0  0  0  0  0
   -6.4171   49.7253   32.7283 C   0  0  0  0  0  0
   -7.6312   50.3493   33.4299 C   0  0  0  0  0  0
   -7.0412   50.3809   30.0351 S   0  0  0  0  0  0
   -7.4263   51.6790   30.6011 O   0  0  0  0  0  0
   -7.9010   49.7171   29.0481 O   0  0  0  0  0  0
   -5.4760   50.6700   29.2174 C   0  0  0  0  0  0
   -4.2741   50.4967   29.8995 C   0  0  0  0  0  0
   -3.0801   50.8429   29.2800 C   0  0  0  0  0  0
   -3.0506   51.2968   27.9544 C   0  0  0  0  0  0
   -4.2665   51.4197   27.2654 C   0  0  0  0  0  0
   -5.4728   51.1230   27.8973 C   0  0  0  0  0  0
   -1.7504   51.6963   27.2822 C   0  0  0  0  0  0
   -1.7235   51.8685   26.0620 O   0  0  0  0  0  0
   -0.7007   51.9034   28.1174 N   0  0  0  0  0  0
    0.5818   52.3853   27.8336 C   0  0  0  0  0  0
    1.6014   52.6943   28.7716 C   0  0  0  0  0  0
    2.7899   53.1327   28.1182 C   0  0  0  0  0  0
    2.6073   53.2991   26.7479 C   0  0  0  0  0  0
    1.1039   52.6964   26.1981 S   0  0  0  0  0  0
    3.6057   53.9133   25.7950 C   0  0  0  0  0  0
    4.8692   54.2235   26.4917 N   0  0  0  0  0  0
    4.8046   54.6563   27.9008 C   0  0  0  0  0  0
    4.1342   53.5345   28.7378 C   0  0  0  0  0  0
    6.0446   54.4599   25.7539 C   0  0  0  0  0  0
    7.1041   54.8968   26.2085 O   0  0  0  0  0  0
    5.8893   54.0918   24.4523 O   0  0  0  0  0  0
    6.9748   53.9808   23.5456 C   0  0  0  0  0  0
    7.1043   55.2601   22.7186 C   0  0  0  0  0  0
    1.5147   52.4963   30.2118 C   0  0  0  0  0  0
    2.4821   52.1428   30.8827 O   0  0  0  0  0  0
    0.3139   52.6891   30.7670 N   0  0  0  0  0  0
   -6.8960   45.7830   31.4717 H   0  0  0  0  0  0
   -6.8325   46.8178   32.8821 H   0  0  0  0  0  0
   -8.1913   46.9319   31.7622 H   0  0  0  0  0  0
   -6.6029   47.6850   29.9501 H   0  0  0  0  0  0
   -5.2752   47.7385   31.0653 H   0  0  0  0  0  0
   -6.0751   48.8826   33.3289 H   0  0  0  0  0  0
   -5.5664   50.4056   32.6843 H   0  0  0  0  0  0
   -7.4099   50.5160   34.4822 H   0  0  0  0  0  0
   -7.9023   51.3154   33.0082 H   0  0  0  0  0  0
   -8.5045   49.6998   33.3718 H   0  0  0  0  0  0
   -4.2413   50.1333   30.9154 H   0  0  0  0  0  0
   -2.1758   50.6996   29.8541 H   0  0  0  0  0  0
   -4.2887   51.7712   26.2431 H   0  0  0  0  0  0
   -6.4037   51.2523   27.3638 H   0  0  0  0  0  0
   -0.8562   51.6503   29.0808 H   0  0  0  0  0  0
    3.2065   54.8320   25.3638 H   0  0  0  0  0  0
    3.7642   53.2507   24.9441 H   0  0  0  0  0  0
    5.7961   54.8656   28.3089 H   0  0  0  0  0  0
    4.2335   55.5795   27.9685 H   0  0  0  0  0  0
    4.7932   52.6687   28.8184 H   0  0  0  0  0  0
    4.0136   53.8999   29.7570 H   0  0  0  0  0  0
    6.7607   53.1439   22.8817 H   0  0  0  0  0  0
    7.9043   53.7344   24.0600 H   0  0  0  0  0  0
    7.9043   55.1685   21.9847 H   0  0  0  0  0  0
    7.3465   56.0968   23.3691 H   0  0  0  0  0  0
    6.1835   55.4871   22.1820 H   0  0  0  0  0  0
    0.1586   52.4652   31.7438 H   0  0  0  0  0  0
   -0.4159   53.1512   30.2500 H   0  0  0  0  0  0
  1  2  1  0  0  0
  1 35  1  0  0  0
  1 36  1  0  0  0
  1 37  1  0  0  0
  2  3  1  0  0  0
  2 38  1  0  0  0
  2 39  1  0  0  0
  3  4  1  0  0  0
  3  6  1  0  0  0
  4  5  1  0  0  0
  4 40  1  0  0  0
  4 41  1  0  0  0
  5 42  1  0  0  0
  5 43  1  0  0  0
  5 44  1  0  0  0
  6  7  2  0  0  0
  6  8  2  0  0  0
  6  9  1  0  0  0
  9 14  2  0  0  0
  9 10  1  0  0  0
 10 11  2  0  0  0
 10 45  1  0  0  0
 11 12  1  0  0  0
 11 46  1  0  0  0
 12 13  2  0  0  0
 12 15  1  0  0  0
 13 14  1  0  0  0
 13 47  1  0  0  0
 14 48  1  0  0  0
 15 16  2  0  0  0
 15 17  1  0  0  0
 17 18  1  0  0  0
 17 49  1  0  0  0
 18 22  1  0  0  0
 18 19  2  0  0  0
 19 20  1  0  0  0
 19 32  1  0  0  0
 20 26  1  0  0  0
 20 21  2  0  0  0
 21 22  1  0  0  0
 21 23  1  0  0  0
 23 24  1  0  0  0
 23 50  1  0  0  0
 23 51  1  0  0  0
 24 25  1  0  0  0
 24 27  1  0  0  0
 25 26  1  0  0  0
 25 52  1  0  0  0
 25 53  1  0  0  0
 26 54  1  0  0  0
 26 55  1  0  0  0
 27 28  2  0  0  0
 27 29  1  0  0  0
 29 30  1  0  0  0
 30 31  1  0  0  0
 30 56  1  0  0  0
 30 57  1  0  0  0
 31 58  1  0  0  0
 31 59  1  0  0  0
 31 60  1  0  0  0
 32 33  2  0  0  0
 32 34  1  0  0  0
 34 61  1  0  0  0
 34 62  1  0  0  0
M  END
> <i_i_glide_confnum>
24

> <i_i_glide_lignum>
3109

> <i_i_glide_posenum>
330

> <i_i_glide_rotatable_bonds>
11

> <i_m_Source_File_Index>
3043

> <b_m_subgroup_collapsed>
0

> <r_i_docking_score>
-5.87466

> <r_i_glide_ecoul>
-8.8819

> <r_i_glide_eff_state_penalty>
0

> <r_i_glide_einternal>
7.27934

> <r_i_glide_emodel>
-69.4164

> <r_i_glide_energy>
-54.9645

> <r_i_glide_erotb>
0.554033

> <r_i_glide_esite>
-0.170154

> <r_i_glide_evdw>
-46.0826

> <r_i_glide_gscore>
-5.87466

> <r_i_glide_hbond>
-0.62253

> <r_i_glide_ligand_efficiency>
-0.172784

> <r_i_glide_ligand_efficiency_ln>
-1.29788

> <r_i_glide_ligand_efficiency_sa>
-0.559754

> <r_i_glide_lipo>
-1.92336

> <r_i_glide_metal>
0

> <r_i_glide_rewards>
-0.0762351

> <s_i_glide_gridfile>
wee1_glide-grid

> <s_m_Source_File>
wee1_decoys_glide_SP.sdf

> <s_m_Source_Path>
/Users/zhangxujun/Desktop

> <s_m_entry_id>
3318

> <s_m_entry_name>
wee1_decoys_glide_SP.3043

> <s_m_subgroup_title>
wee1_decoys_glide_SP

> <s_m_subgroupid>
wee1_decoys_glide_SP


$$$$
