ZINC09324312_3706
                    3D
 Schrodinger Suite 2024-2.
 43 46  0  0  1  0            999 V2000
    5.9800   54.4987   27.3862 C   0  0  0  0  0  0
    4.6668   54.4378   27.8512 C   0  0  0  0  0  0
    3.5857   54.3194   26.9748 C   0  0  0  0  0  0
    3.8628   54.2586   25.6022 C   0  0  0  0  0  0
    5.1998   54.3187   25.1227 C   0  0  0  0  0  0
    6.2667   54.4501   26.0206 C   0  0  0  0  0  0
    5.3371   54.2247   23.7767 N   0  0  0  0  0  0
    4.1757   54.0970   23.1875 C   0  0  0  0  0  0
    2.7699   54.0942   24.2298 S   0  0  0  0  0  0
    3.9651   53.8921   21.8319 N   0  0  0  0  0  0
    4.8388   54.1826   20.8443 C   0  0  0  0  0  0
    5.9040   54.7795   21.0191 O   0  0  0  0  0  0
    4.4109   53.7417   19.4381 C   0  0  0  0  0  0
    5.6922   53.9411   18.1530 S   0  0  0  0  0  0
    5.3366   55.6010   17.7017 C   0  0  0  0  0  0
    6.1693   56.6021   17.8631 N   0  0  0  0  0  0
    5.6698   57.8067   17.3861 N   0  0  0  0  0  0
    4.4787   57.6851   16.8548 C   0  0  0  0  0  0
    3.8432   56.0587   16.9270 S   0  0  0  0  0  0
    3.8175   58.7854   16.3313 N   0  0  0  0  0  0
    2.6373   58.8150   15.6816 C   0  0  0  0  0  0
    1.9633   57.8306   15.3769 O   0  0  0  0  0  0
    2.3041   60.0963   15.4447 N   0  0  0  0  0  0
    1.1251   60.6465   14.9058 C   0  0  0  0  0  0
    1.0670   62.0431   14.8933 C   0  0  0  0  0  0
   -0.0602   62.6928   14.3986 C   0  0  0  0  0  0
   -1.1315   61.9441   13.9143 C   0  0  0  0  0  0
   -1.0823   60.5520   13.9197 C   0  0  0  0  0  0
    0.0438   59.8985   14.4121 C   0  0  0  0  0  0
   -2.5314   62.7495   13.3054 Cl  0  0  0  0  0  0
    6.7906   54.5897   28.0975 H   0  0  0  0  0  0
    4.4883   54.4831   28.9155 H   0  0  0  0  0  0
    2.5706   54.2709   27.3458 H   0  0  0  0  0  0
    7.2815   54.4882   25.6575 H   0  0  0  0  0  0
    3.0321   53.6218   21.5612 H   0  0  0  0  0  0
    4.1776   52.6776   19.4744 H   0  0  0  0  0  0
    3.4967   54.2550   19.1525 H   0  0  0  0  0  0
    4.2748   59.6772   16.4813 H   0  0  0  0  0  0
    2.9692   60.7863   15.7892 H   0  0  0  0  0  0
    1.8936   62.6285   15.2770 H   0  0  0  0  0  0
   -0.1014   63.7723   14.3923 H   0  0  0  0  0  0
   -1.9159   59.9780   13.5411 H   0  0  0  0  0  0
    0.0509   58.8194   14.4055 H   0  0  0  0  0  0
  1  6  2  0  0  0
  1  2  1  0  0  0
  1 31  1  0  0  0
  2  3  2  0  0  0
  2 32  1  0  0  0
  3  4  1  0  0  0
  3 33  1  0  0  0
  4  9  1  0  0  0
  4  5  2  0  0  0
  5  6  1  0  0  0
  5  7  1  0  0  0
  6 34  1  0  0  0
  7  8  2  0  0  0
  8  9  1  0  0  0
  8 10  1  0  0  0
 10 11  1  0  0  0
 10 35  1  0  0  0
 11 12  2  0  0  0
 11 13  1  0  0  0
 13 14  1  0  0  0
 13 36  1  0  0  0
 13 37  1  0  0  0
 14 15  1  0  0  0
 15 19  1  0  0  0
 15 16  2  0  0  0
 16 17  1  0  0  0
 17 18  2  0  0  0
 18 19  1  0  0  0
 18 20  1  0  0  0
 20 21  1  0  0  0
 20 38  1  0  0  0
 21 22  2  0  0  0
 21 23  1  0  0  0
 23 24  1  0  0  0
 23 39  1  0  0  0
 24 29  2  0  0  0
 24 25  1  0  0  0
 25 26  2  0  0  0
 25 40  1  0  0  0
 26 27  1  0  0  0
 26 41  1  0  0  0
 27 28  2  0  0  0
 27 30  1  0  0  0
 28 29  1  0  0  0
 28 42  1  0  0  0
 29 43  1  0  0  0
M  END
> <i_i_glide_confnum>
1

> <i_i_glide_lignum>
3707

> <i_i_glide_posenum>
285

> <i_i_glide_rotatable_bonds>
9

> <i_m_Source_File_Index>
1911

> <b_m_subgroup_collapsed>
0

> <r_i_docking_score>
-5.57544

> <r_i_glide_ecoul>
-7.44101

> <r_i_glide_eff_state_penalty>
0

> <r_i_glide_einternal>
2.84361

> <r_i_glide_emodel>
-65.1031

> <r_i_glide_energy>
-46.1192

> <r_i_glide_erotb>
0.623152

> <r_i_glide_esite>
-0.267562

> <r_i_glide_evdw>
-38.6782

> <r_i_glide_gscore>
-5.57544

> <r_i_glide_hbond>
-0.304

> <r_i_glide_ligand_efficiency>
-0.185848

> <r_i_glide_ligand_efficiency_ln>
-1.2668

> <r_i_glide_ligand_efficiency_sa>
-0.577473

> <r_i_glide_lipo>
-2.19911

> <r_i_glide_metal>
0

> <r_i_glide_rewards>
-0.377862

> <s_i_glide_gridfile>
wee1_glide-grid

> <s_m_Source_File>
wee1_decoys_glide_SP.sdf

> <s_m_Source_Path>
/Users/zhangxujun/Desktop

> <s_m_entry_id>
2186

> <s_m_entry_name>
wee1_decoys_glide_SP.1911

> <s_m_subgroup_title>
wee1_decoys_glide_SP

> <s_m_subgroupid>
wee1_decoys_glide_SP


$$$$
