ZINC04697941_1369
                    3D
 Schrodinger Suite 2024-2.
 39 41  0  0  1  0            999 V2000
   -1.6614   51.5203   25.7016 C   0  0  0  0  0  0
   -0.3133   52.2095   25.6109 C   0  0  0  0  0  0
    0.6737   52.4351   26.6011 C   0  0  0  0  0  0
    1.8065   53.0556   26.0322 C   0  0  0  0  0  0
    1.7175   53.3211   24.6712 C   0  0  0  0  0  0
    0.1531   52.8955   24.0807 S   0  0  0  0  0  0
    2.8588   53.9342   23.8484 C   0  0  1  0  0  0
    2.5477   54.9389   23.5642 H   0  0  0  0  0  0
    4.0651   54.0950   24.7984 C   0  0  0  0  0  0
    3.9890   53.8400   26.1274 C   0  0  0  0  0  0
    2.9079   53.3652   26.7990 O   0  0  0  0  0  0
    5.0016   53.9662   27.0394 N   0  0  0  0  0  0
    5.3134   54.5310   24.2631 C   0  0  0  0  0  0
    6.3360   54.8959   23.8665 N   0  0  0  0  0  0
    3.1666   53.2548   22.4995 C   0  0  0  0  0  0
    3.9053   53.9427   21.5300 C   0  0  0  0  0  0
    4.1504   53.3695   20.2837 C   0  0  0  0  0  0
    3.6487   52.1054   19.9841 C   0  0  0  0  0  0
    2.9212   51.3810   20.9384 C   0  0  0  0  0  0
    2.7041   51.9653   22.1936 C   0  0  0  0  0  0
    2.3766   50.0362   20.6299 N   0  3  0  0  0  0
    2.3138   49.6811   19.4580 O   0  0  0  0  0  0
    1.9906   49.3344   21.5616 O   0  5  0  0  0  0
    0.5720   52.0756   28.0204 C   0  0  0  0  0  0
    1.5434   51.8454   28.7471 O   0  0  0  0  0  0
   -0.7158   52.0544   28.4175 O   0  0  0  0  0  0
   -1.0663   51.6971   29.7413 C   0  0  0  0  0  0
   -1.6671   50.7123   26.4361 H   0  0  0  0  0  0
   -2.4512   52.2190   25.9825 H   0  0  0  0  0  0
   -1.9534   51.0669   24.7522 H   0  0  0  0  0  0
    5.9013   54.3250   26.7563 H   0  0  0  0  0  0
    4.9651   53.4396   27.8999 H   0  0  0  0  0  0
    4.2799   54.9342   21.7325 H   0  0  0  0  0  0
    4.7134   53.9128   19.5391 H   0  0  0  0  0  0
    3.8397   51.6971   19.0007 H   0  0  0  0  0  0
    2.1648   51.3987   22.9380 H   0  0  0  0  0  0
   -2.1116   51.3974   29.7677 H   0  0  0  0  0  0
   -0.4956   50.8433   30.0818 H   0  0  0  0  0  0
   -0.8974   52.5229   30.4330 H   0  0  0  0  0  0
  1  2  1  0  0  0
  1 28  1  0  0  0
  1 29  1  0  0  0
  1 30  1  0  0  0
  2  6  1  0  0  0
  2  3  2  0  0  0
  3  4  1  0  0  0
  3 24  1  0  0  0
  4 11  1  0  0  0
  4  5  2  0  0  0
  5  6  1  0  0  0
  5  7  1  0  0  0
  7  8  1  0  0  0
  7  9  1  0  0  0
  7 15  1  0  0  0
  9 10  2  0  0  0
  9 13  1  0  0  0
 10 11  1  0  0  0
 10 12  1  0  0  0
 12 31  1  0  0  0
 12 32  1  0  0  0
 13 14  3  0  0  0
 15 20  2  0  0  0
 15 16  1  0  0  0
 16 17  2  0  0  0
 16 33  1  0  0  0
 17 18  1  0  0  0
 17 34  1  0  0  0
 18 19  2  0  0  0
 18 35  1  0  0  0
 19 20  1  0  0  0
 19 21  1  0  0  0
 20 36  1  0  0  0
 21 22  2  0  0  0
 21 23  1  0  0  0
 24 25  2  0  0  0
 24 26  1  0  0  0
 26 27  1  0  0  0
 27 37  1  0  0  0
 27 38  1  0  0  0
 27 39  1  0  0  0
M  CHG  2  21   1  23  -1
M  END
> <i_i_glide_confnum>
4

> <i_i_glide_lignum>
1370

> <i_i_glide_posenum>
391

> <i_i_glide_rotatable_bonds>
5

> <i_m_Source_File_Index>
3366

> <b_m_subgroup_collapsed>
0

> <r_i_docking_score>
-4.71318

> <r_i_glide_ecoul>
-1.16896

> <r_i_glide_eff_state_penalty>
0

> <r_i_glide_einternal>
3.66682

> <r_i_glide_emodel>
-47.3662

> <r_i_glide_energy>
-38.2065

> <r_i_glide_erotb>
0.279918

> <r_i_glide_esite>
-0.0697121

> <r_i_glide_evdw>
-37.0375

> <r_i_glide_gscore>
-4.71318

> <r_i_glide_hbond>
0

> <r_i_glide_ligand_efficiency>
-0.181276

> <r_i_glide_ligand_efficiency_ln>
-1.10687

> <r_i_glide_ligand_efficiency_sa>
-0.53703

> <r_i_glide_lipo>
-1.53264

> <r_i_glide_metal>
0

> <r_i_glide_rewards>
-1.36353

> <s_i_glide_gridfile>
wee1_glide-grid

> <s_m_Source_File>
wee1_decoys_glide_SP.sdf

> <s_m_Source_Path>
/Users/zhangxujun/Desktop

> <s_m_entry_id>
3641

> <s_m_entry_name>
wee1_decoys_glide_SP.3366

> <s_m_subgroup_title>
wee1_decoys_glide_SP

> <s_m_subgroupid>
wee1_decoys_glide_SP


$$$$
