ZINC58376881_2784
                    3D
 Schrodinger Suite 2024-2.
 58 61  0  0  1  0            999 V2000
    5.1823   54.7179   29.2818 C   0  0  0  0  0  0
    4.0265   53.7738   29.6813 C   0  0  2  0  0  0
    4.3050   53.2191   30.5756 H   0  0  0  0  0  0
    3.5823   52.7497   28.6162 C   0  0  0  0  0  0
    3.0354   53.4103   27.4172 N   0  0  0  0  0  0
    1.8665   54.1854   27.9033 C   0  0  0  0  0  0
    2.2756   55.2070   29.0102 C   0  0  2  0  0  0
    2.9663   55.9523   28.6220 H   0  0  0  0  0  0
    2.8606   54.4751   30.0816 O   0  0  0  0  0  0
    1.1068   55.9724   29.6173 C   0  0  0  0  0  0
    3.8150   53.7658   26.3067 C   0  0  0  0  0  0
    5.2186   53.6967   26.3567 C   0  0  0  0  0  0
    6.0199   54.0966   25.2933 C   0  0  0  0  0  0
    5.4405   54.4906   24.0947 C   0  0  0  0  0  0
    4.0406   54.4964   23.9885 C   0  0  0  0  0  0
    3.2405   54.1203   25.0707 C   0  0  0  0  0  0
    1.9002   54.0966   24.8839 F   0  0  0  0  0  0
    6.3303   54.8969   23.0833 N   0  0  0  0  0  0
    6.1993   54.9159   21.7428 C   0  0  0  0  0  0
    7.0490   55.4983   21.0731 O   0  0  0  0  0  0
    5.1446   54.2511   21.2279 N   0  0  0  0  0  0
    4.7436   54.1405   19.8879 C   0  0  0  0  0  0
    5.1016   55.0498   18.8781 C   0  0  0  0  0  0
    4.6429   54.8700   17.5726 C   0  0  0  0  0  0
    3.8582   53.7530   17.2577 C   0  0  0  0  0  0
    3.4550   52.8856   18.2725 C   0  0  0  0  0  0
    3.8909   53.0782   19.5815 C   0  0  0  0  0  0
    2.4606   51.8947   17.7456 C   0  0  0  0  0  0
    2.5494   52.0966   16.2415 C   0  0  0  0  0  0
    3.2490   53.3723   16.0444 N   0  0  0  0  0  0
    3.5277   53.8423   14.7992 C   0  0  0  0  0  0
    4.2169   54.8398   14.5870 O   0  0  0  0  0  0
    2.9548   53.1107   13.5807 C   0  0  0  0  0  0
    6.1103   54.1667   29.1391 H   0  0  0  0  0  0
    4.9971   55.2967   28.3824 H   0  0  0  0  0  0
    5.3894   55.4256   30.0817 H   0  0  0  0  0  0
    2.7824   52.1436   29.0461 H   0  0  0  0  0  0
    4.3547   52.0060   28.4376 H   0  0  0  0  0  0
    1.4104   54.6998   27.0663 H   0  0  0  0  0  0
    1.1403   53.4713   28.2964 H   0  0  0  0  0  0
    0.7044   56.6669   28.8826 H   0  0  0  0  0  0
    0.3217   55.2970   29.9625 H   0  0  0  0  0  0
    1.4316   56.5677   30.4719 H   0  0  0  0  0  0
    5.7269   53.3172   27.2245 H   0  0  0  0  0  0
    7.0947   54.0520   25.3973 H   0  0  0  0  0  0
    3.5444   54.8175   23.0851 H   0  0  0  0  0  0
    7.2354   55.2034   23.4096 H   0  0  0  0  0  0
    4.6192   53.6868   21.8765 H   0  0  0  0  0  0
    5.7163   55.9112   19.0883 H   0  0  0  0  0  0
    4.9234   55.5952   16.8242 H   0  0  0  0  0  0
    3.5647   52.4008   20.3571 H   0  0  0  0  0  0
    1.4575   52.1474   18.0898 H   0  0  0  0  0  0
    2.6481   50.8540   18.0165 H   0  0  0  0  0  0
    1.6224   51.9375   15.6895 H   0  0  0  0  0  0
    3.2394   51.3345   15.8720 H   0  0  0  0  0  0
    3.3353   52.0903   13.5319 H   0  0  0  0  0  0
    3.2425   53.6193   12.6601 H   0  0  0  0  0  0
    1.8659   53.0831   13.6227 H   0  0  0  0  0  0
  1  2  1  0  0  0
  1 34  1  0  0  0
  1 35  1  0  0  0
  1 36  1  0  0  0
  2  3  1  0  0  0
  2  9  1  0  0  0
  2  4  1  0  0  0
  4  5  1  0  0  0
  4 37  1  0  0  0
  4 38  1  0  0  0
  5  6  1  0  0  0
  5 11  1  0  0  0
  6  7  1  0  0  0
  6 39  1  0  0  0
  6 40  1  0  0  0
  7  8  1  0  0  0
  7  9  1  0  0  0
  7 10  1  0  0  0
 10 41  1  0  0  0
 10 42  1  0  0  0
 10 43  1  0  0  0
 11 16  2  0  0  0
 11 12  1  0  0  0
 12 13  2  0  0  0
 12 44  1  0  0  0
 13 14  1  0  0  0
 13 45  1  0  0  0
 14 15  2  0  0  0
 14 18  1  0  0  0
 15 16  1  0  0  0
 15 46  1  0  0  0
 16 17  1  0  0  0
 18 19  1  0  0  0
 18 47  1  0  0  0
 19 20  2  0  0  0
 19 21  1  0  0  0
 21 22  1  0  0  0
 21 48  1  0  0  0
 22 27  2  0  0  0
 22 23  1  0  0  0
 23 24  2  0  0  0
 23 49  1  0  0  0
 24 25  1  0  0  0
 24 50  1  0  0  0
 25 30  1  0  0  0
 25 26  2  0  0  0
 26 27  1  0  0  0
 26 28  1  0  0  0
 27 51  1  0  0  0
 28 29  1  0  0  0
 28 52  1  0  0  0
 28 53  1  0  0  0
 29 30  1  0  0  0
 29 54  1  0  0  0
 29 55  1  0  0  0
 30 31  1  0  0  0
 31 32  2  0  0  0
 31 33  1  0  0  0
 33 56  1  0  0  0
 33 57  1  0  0  0
 33 58  1  0  0  0
M  END
> <i_i_glide_confnum>
224

> <i_i_glide_lignum>
2785

> <i_i_glide_posenum>
238

> <i_i_glide_rotatable_bonds>
6

> <i_m_Source_File_Index>
6090

> <b_m_subgroup_collapsed>
0

> <r_i_docking_score>
-5.26386

> <r_i_glide_ecoul>
-4.21098

> <r_i_glide_eff_state_penalty>
0

> <r_i_glide_einternal>
5.06925

> <r_i_glide_emodel>
-51.2593

> <r_i_glide_energy>
-40.2137

> <r_i_glide_erotb>
0.545567

> <r_i_glide_esite>
-0.0150951

> <r_i_glide_evdw>
-36.0028

> <r_i_glide_gscore>
-5.26386

> <r_i_glide_hbond>
-0.32

> <r_i_glide_ligand_efficiency>
-0.169802

> <r_i_glide_ligand_efficiency_ln>
-1.18716

> <r_i_glide_ligand_efficiency_sa>
-0.533413

> <r_i_glide_lipo>
-2.51954

> <r_i_glide_metal>
0

> <r_i_glide_rewards>
-0.52301

> <s_i_glide_gridfile>
wee1_glide-grid

> <s_m_Source_File>
wee1_decoys_glide_SP.sdf

> <s_m_Source_Path>
/Users/zhangxujun/Desktop

> <s_m_entry_id>
6365

> <s_m_entry_name>
wee1_decoys_glide_SP.6090

> <s_m_subgroup_title>
wee1_decoys_glide_SP

> <s_m_subgroupid>
wee1_decoys_glide_SP


$$$$
