ZINC40157373_89
                    3D
 Schrodinger Suite 2024-2.
 62 65  0  0  1  0            999 V2000
    5.0904   52.0772   20.8063 C   0  0  0  0  0  0
    4.3961   53.4575   20.8017 C   0  0  0  0  0  0
    3.8394   53.7678   19.3971 C   0  0  0  0  0  0
    3.3487   53.6494   21.9601 C   0  0  1  0  0  0
    2.7346   54.5027   21.6818 H   0  0  0  0  0  0
    2.3621   52.4814   22.1413 C   0  0  0  0  0  0
    1.8157   51.7833   21.0857 N   0  0  0  0  0  0
    2.0416   51.9710   20.1205 H   0  0  0  0  0  0
    0.9962   50.8075   21.6010 C   0  0  0  0  0  0
    0.2123   49.8014   21.0300 C   0  0  0  0  0  0
   -0.4958   48.9844   21.9168 C   0  0  0  0  0  0
   -0.4230   49.1561   23.3002 C   0  0  0  0  0  0
    0.3620   50.1637   23.8655 C   0  0  0  0  0  0
    1.0802   51.0042   23.0017 C   0  0  0  0  0  0
    1.9044   52.0563   23.3005 N   0  0  0  0  0  0
    3.8607   54.1001   23.2712 N   0  0  0  0  0  0
    5.0977   54.0964   23.8067 C   0  0  0  0  0  0
    6.1289   53.9164   23.1586 O   0  0  0  0  0  0
    5.1732   54.2738   25.3089 C   0  0  0  0  0  0
    6.4271   54.4013   25.9237 C   0  0  0  0  0  0
    6.5375   54.4969   27.3075 C   0  0  0  0  0  0
    5.3958   54.4967   28.1025 C   0  0  0  0  0  0
    4.1353   54.3813   27.5136 C   0  0  0  0  0  0
    4.0259   54.2545   26.1262 C   0  0  0  0  0  0
    2.6713   54.3953   28.5433 S   0  0  0  0  0  0
    2.9687   55.2678   29.6815 O   0  0  0  0  0  0
    1.5221   54.6765   27.6818 O   0  0  0  0  0  0
    2.5014   52.7345   29.1414 N   0  0  0  0  0  0
    1.3193   51.9549   28.7052 C   0  0  0  0  0  0
   -0.0077   52.4300   29.3332 C   0  0  0  0  0  0
   -0.1111   52.3803   30.8682 C   0  0  0  0  0  0
    1.0300   53.0317   31.6670 C   0  0  0  0  0  0
    2.3580   52.2458   31.6314 C   0  0  0  0  0  0
    3.2392   52.3843   30.3724 C   0  0  0  0  0  0
    4.4092   51.2736   20.5298 H   0  0  0  0  0  0
    5.9036   52.0533   20.0812 H   0  0  0  0  0  0
    5.5036   51.8286   21.7826 H   0  0  0  0  0  0
    5.1694   54.2153   20.9287 H   0  0  0  0  0  0
    3.0049   53.1272   19.1196 H   0  0  0  0  0  0
    3.5051   54.8023   19.3245 H   0  0  0  0  0  0
    4.6094   53.6359   18.6355 H   0  0  0  0  0  0
    0.1561   49.6586   19.9608 H   0  0  0  0  0  0
   -1.1139   48.1920   21.5207 H   0  0  0  0  0  0
   -0.9835   48.4970   23.9473 H   0  0  0  0  0  0
    0.4168   50.2857   24.9376 H   0  0  0  0  0  0
    3.1299   54.4168   23.8879 H   0  0  0  0  0  0
    7.3305   54.4061   25.3289 H   0  0  0  0  0  0
    7.5072   54.5849   27.7718 H   0  0  0  0  0  0
    5.4978   54.5943   29.1738 H   0  0  0  0  0  0
    3.0394   54.1323   25.7016 H   0  0  0  0  0  0
    1.2179   52.1145   27.6297 H   0  0  0  0  0  0
    1.5145   50.8918   28.8098 H   0  0  0  0  0  0
   -0.2232   53.4464   29.0031 H   0  0  0  0  0  0
   -0.8177   51.8290   28.9163 H   0  0  0  0  0  0
   -1.0174   52.8967   31.1555 H   0  0  0  0  0  0
   -0.2887   51.3604   31.2016 H   0  0  0  0  0  0
    0.7066   53.1091   32.7065 H   0  0  0  0  0  0
    1.1593   54.0563   31.3167 H   0  0  0  0  0  0
    2.1059   51.2142   31.8215 H   0  0  0  0  0  0
    2.9846   52.4966   32.4816 H   0  0  0  0  0  0
    3.7490   51.4379   30.1906 H   0  0  0  0  0  0
    4.0556   53.0939   30.5112 H   0  0  0  0  0  0
  1  2  1  0  0  0
  1 35  1  0  0  0
  1 36  1  0  0  0
  1 37  1  0  0  0
  2  3  1  0  0  0
  2  4  1  0  0  0
  2 38  1  0  0  0
  3 39  1  0  0  0
  3 40  1  0  0  0
  3 41  1  0  0  0
  4  5  1  0  0  0
  4  6  1  0  0  0
  4 16  1  0  0  0
  6 15  2  0  0  0
  6  7  1  0  0  0
  7  8  1  0  0  0
  7  9  1  0  0  0
  9 14  2  0  0  0
  9 10  1  0  0  0
 10 11  2  0  0  0
 10 42  1  0  0  0
 11 12  1  0  0  0
 11 43  1  0  0  0
 12 13  2  0  0  0
 12 44  1  0  0  0
 13 14  1  0  0  0
 13 45  1  0  0  0
 14 15  1  0  0  0
 16 17  1  0  0  0
 16 46  1  0  0  0
 17 18  2  0  0  0
 17 19  1  0  0  0
 19 24  2  0  0  0
 19 20  1  0  0  0
 20 21  2  0  0  0
 20 47  1  0  0  0
 21 22  1  0  0  0
 21 48  1  0  0  0
 22 23  2  0  0  0
 22 49  1  0  0  0
 23 24  1  0  0  0
 23 25  1  0  0  0
 24 50  1  0  0  0
 25 26  2  0  0  0
 25 27  2  0  0  0
 25 28  1  0  0  0
 28 34  1  0  0  0
 28 29  1  0  0  0
 29 30  1  0  0  0
 29 51  1  0  0  0
 29 52  1  0  0  0
 30 31  1  0  0  0
 30 53  1  0  0  0
 30 54  1  0  0  0
 31 32  1  0  0  0
 31 55  1  0  0  0
 31 56  1  0  0  0
 32 33  1  0  0  0
 32 57  1  0  0  0
 32 58  1  0  0  0
 33 34  1  0  0  0
 33 59  1  0  0  0
 33 60  1  0  0  0
 34 61  1  0  0  0
 34 62  1  0  0  0
M  END
> <i_i_glide_confnum>
248

> <i_i_glide_lignum>
90

> <i_i_glide_posenum>
156

> <i_i_glide_rotatable_bonds>
7

> <i_m_Source_File_Index>
1682

> <b_m_subgroup_collapsed>
0

> <r_i_docking_score>
-5.96035

> <r_i_glide_ecoul>
-2.97303

> <r_i_glide_eff_state_penalty>
0

> <r_i_glide_einternal>
8.08402

> <r_i_glide_emodel>
-60.7683

> <r_i_glide_energy>
-49.1686

> <r_i_glide_erotb>
0.485905

> <r_i_glide_esite>
-0.000304446

> <r_i_glide_evdw>
-46.1956

> <r_i_glide_gscore>
-5.96035

> <r_i_glide_hbond>
0

> <r_i_glide_ligand_efficiency>
-0.186261

> <r_i_glide_ligand_efficiency_ln>
-1.33469

> <r_i_glide_ligand_efficiency_sa>
-0.591342

> <r_i_glide_lipo>
-2.34513

> <r_i_glide_metal>
0

> <r_i_glide_rewards>
-1.34509

> <s_i_glide_gridfile>
wee1_glide-grid

> <s_m_Source_File>
wee1_decoys_glide_SP.sdf

> <s_m_Source_Path>
/Users/zhangxujun/Desktop

> <s_m_entry_id>
1957

> <s_m_entry_name>
wee1_decoys_glide_SP.1682

> <s_m_subgroup_title>
wee1_decoys_glide_SP

> <s_m_subgroupid>
wee1_decoys_glide_SP


$$$$
