ZINC38904841_1100
                    3D
 Schrodinger Suite 2024-2.
 60 63  0  0  1  0            999 V2000
    3.3615   54.0487   25.3254 C   0  0  0  0  0  0
    3.6433   54.0974   23.9588 C   0  0  0  0  0  0
    4.9529   54.3141   23.5060 C   0  0  0  0  0  0
    5.9746   54.4789   24.4538 C   0  0  0  0  0  0
    5.6960   54.4083   25.8197 C   0  0  0  0  0  0
    4.3876   54.1977   26.2541 C   0  0  0  0  0  0
    7.1010   54.5621   27.0917 Br  0  0  0  0  0  0
    5.2498   54.3923   22.0373 C   0  0  0  0  0  0
    4.4423   53.8826   21.1222 N   0  0  0  0  0  0
    5.0664   54.1670   20.0058 C   0  0  0  0  0  0
    6.2165   54.8547   20.1949 O   0  0  0  0  0  0
    6.3255   54.9962   21.5738 N   0  0  0  0  0  0
    4.6483   53.9001   18.5662 C   0  0  0  0  0  0
    3.1507   53.5017   18.4826 N   0  3  1  0  0  0
    2.5403   53.9162   17.1182 C   0  0  0  0  0  0
    1.0322   53.6071   17.1447 C   0  0  0  0  0  0
    0.7383   52.1186   17.4343 C   0  0  0  0  0  0
    1.4487   51.6853   18.7415 C   0  0  2  0  0  0
    0.9954   52.2002   19.5947 H   0  0  0  0  0  0
    2.9705   51.9826   18.7250 C   0  0  0  0  0  0
    1.1295   50.1973   18.9980 C   0  0  0  0  0  0
    0.1162   49.9052   19.6321 O   0  0  0  0  0  0
    1.9531   49.2657   18.4819 N   0  0  0  0  0  0
    1.7400   47.8216   18.5596 C   0  0  0  0  0  0
    0.8098   47.3177   17.4408 C   0  0  0  0  0  0
    0.5559   45.8051   17.4645 C   0  0  0  0  0  0
   -0.4225   45.2293   18.8813 S   0  0  0  0  0  0
   -0.5485   43.4573   18.5038 C   0  0  0  0  0  0
    0.5451   42.6417   19.1487 C   0  0  0  0  0  0
    1.6254   41.9140   18.6664 C   0  0  0  0  0  0
    2.2368   41.3115   19.7672 C   0  0  0  0  0  0
    1.5039   41.6979   20.8761 C   0  0  0  0  0  0
    0.4748   42.4965   20.4981 O   0  0  0  0  0  0
    2.3474   53.8816   25.6595 H   0  0  0  0  0  0
    2.8335   53.9749   23.2536 H   0  0  0  0  0  0
    6.9961   54.6438   24.1378 H   0  0  0  0  0  0
    4.1730   54.1408   27.3122 H   0  0  0  0  0  0
    5.2255   53.1072   18.0812 H   0  0  0  0  0  0
    4.7613   54.8112   17.9748 H   0  0  0  0  0  0
    3.0770   53.3825   16.3309 H   0  0  0  0  0  0
    2.6956   54.9932   17.0126 H   0  0  0  0  0  0
    0.5873   53.8924   16.1892 H   0  0  0  0  0  0
    0.5457   54.2344   17.8975 H   0  0  0  0  0  0
    1.1278   51.5643   16.5744 H   0  0  0  0  0  0
   -0.3463   52.0166   17.5097 H   0  0  0  0  0  0
    3.4333   51.7528   19.6871 H   0  0  0  0  0  0
    3.5035   51.4834   17.9113 H   0  0  0  0  0  0
    2.7751   49.5514   17.9510 H   0  0  0  0  0  0
    1.3609   47.5283   19.5428 H   0  0  0  0  0  0
    2.7051   47.3170   18.4819 H   0  0  0  0  0  0
    1.2346   47.5957   16.4746 H   0  0  0  0  0  0
   -0.1480   47.8349   17.5084 H   0  0  0  0  0  0
    1.5033   45.2646   17.4510 H   0  0  0  0  0  0
    0.0337   45.5203   16.5520 H   0  0  0  0  0  0
   -0.6072   43.3052   17.4260 H   0  0  0  0  0  0
   -1.5158   43.1466   18.8971 H   0  0  0  0  0  0
    1.9337   41.8309   17.6346 H   0  0  0  0  0  0
    3.1049   40.6683   19.7557 H   0  0  0  0  0  0
    1.5634   41.4866   21.9343 H   0  0  0  0  0  0
    2.6619   54.0219   19.2068 H   0  0  0  0  0  0
  1  6  2  0  0  0
  1  2  1  0  0  0
  1 34  1  0  0  0
  2  3  2  0  0  0
  2 35  1  0  0  0
  3  4  1  0  0  0
  3  8  1  0  0  0
  4  5  2  0  0  0
  4 36  1  0  0  0
  5  6  1  0  0  0
  5  7  1  0  0  0
  6 37  1  0  0  0
  8 12  2  0  0  0
  8  9  1  0  0  0
  9 10  2  0  0  0
 10 11  1  0  0  0
 10 13  1  0  0  0
 11 12  1  0  0  0
 13 14  1  0  0  0
 13 38  1  0  0  0
 13 39  1  0  0  0
 14 20  1  0  0  0
 14 15  1  0  0  0
 14 60  1  0  0  0
 15 16  1  0  0  0
 15 40  1  0  0  0
 15 41  1  0  0  0
 16 17  1  0  0  0
 16 42  1  0  0  0
 16 43  1  0  0  0
 17 18  1  0  0  0
 17 44  1  0  0  0
 17 45  1  0  0  0
 18 19  1  0  0  0
 18 20  1  0  0  0
 18 21  1  0  0  0
 20 46  1  0  0  0
 20 47  1  0  0  0
 21 22  2  0  0  0
 21 23  1  0  0  0
 23 24  1  0  0  0
 23 48  1  0  0  0
 24 25  1  0  0  0
 24 49  1  0  0  0
 24 50  1  0  0  0
 25 26  1  0  0  0
 25 51  1  0  0  0
 25 52  1  0  0  0
 26 27  1  0  0  0
 26 53  1  0  0  0
 26 54  1  0  0  0
 27 28  1  0  0  0
 28 29  1  0  0  0
 28 55  1  0  0  0
 28 56  1  0  0  0
 29 33  1  0  0  0
 29 30  2  0  0  0
 30 31  1  0  0  0
 30 57  1  0  0  0
 31 32  2  0  0  0
 31 58  1  0  0  0
 32 33  1  0  0  0
 32 59  1  0  0  0
M  CHG  1  14   1
M  END
> <i_i_glide_confnum>
133

> <i_i_glide_lignum>
1101

> <i_i_glide_posenum>
378

> <i_i_glide_rotatable_bonds>
11

> <i_m_Source_File_Index>
4056

> <b_m_subgroup_collapsed>
0

> <r_i_docking_score>
-5.05212

> <r_i_glide_ecoul>
-6.6224

> <r_i_glide_eff_state_penalty>
0

> <r_i_glide_einternal>
7.11191

> <r_i_glide_emodel>
-62.0388

> <r_i_glide_energy>
-47.5192

> <r_i_glide_erotb>
0.758682

> <r_i_glide_esite>
-0.148196

> <r_i_glide_evdw>
-40.8968

> <r_i_glide_gscore>
-5.05212

> <r_i_glide_hbond>
-0.32

> <r_i_glide_ligand_efficiency>
-0.157879

> <r_i_glide_ligand_efficiency_ln>
-1.13131

> <r_i_glide_ligand_efficiency_sa>
-0.501234

> <r_i_glide_lipo>
-2.01043

> <r_i_glide_metal>
0

> <r_i_glide_rewards>
-0.293972

> <s_i_glide_gridfile>
wee1_glide-grid

> <s_m_Source_File>
wee1_decoys_glide_SP.sdf

> <s_m_Source_Path>
/Users/zhangxujun/Desktop

> <s_m_entry_id>
4331

> <s_m_entry_name>
wee1_decoys_glide_SP.4056

> <s_m_subgroup_title>
wee1_decoys_glide_SP

> <s_m_subgroupid>
wee1_decoys_glide_SP


$$$$
