ZINC35476906_4069
                    3D
 Schrodinger Suite 2024-2.
 60 64  0  0  1  0            999 V2000
   -3.3693   46.8845   25.6935 C   0  0  0  0  0  0
   -2.2392   47.5834   24.9681 C   0  0  0  0  0  0
   -1.9769   47.4196   23.6058 C   0  0  0  0  0  0
   -0.8955   48.0969   23.0347 C   0  0  0  0  0  0
   -0.0857   48.9151   23.8303 C   0  0  0  0  0  0
   -0.4157   49.1026   25.1746 C   0  0  0  0  0  0
   -1.4607   48.4150   25.6817 N   0  3  0  0  0  0
    0.2569   50.0790   25.9671 N   0  0  0  0  0  0
   -0.5388   50.8834   26.9215 C   0  0  1  0  0  0
   -0.9152   50.1124   27.5855 H   0  0  0  0  0  0
    0.2882   51.8151   27.8066 C   0  0  0  0  0  0
   -0.0240   51.8942   29.1807 C   0  0  0  0  0  0
    0.6709   52.7590   30.0359 C   0  0  0  0  0  0
    1.6681   53.5480   29.4743 C   0  0  0  0  0  0
    1.9792   53.4801   28.1457 C   0  0  0  0  0  0
    1.3181   52.6176   27.2788 C   0  0  0  0  0  0
    2.9980   54.3383   27.8783 O   0  0  0  0  0  0
    3.1541   55.1092   29.0395 C   0  0  0  0  0  0
    2.4879   54.4463   30.0817 O   0  0  0  0  0  0
   -1.7097   51.6254   26.2524 C   0  0  0  0  0  0
   -3.0229   51.7054   26.7842 C   0  0  0  0  0  0
   -3.9244   52.3681   25.9369 C   0  0  0  0  0  0
   -3.1520   52.8966   24.4811 S   0  0  0  0  0  0
   -1.6299   52.2687   25.0136 C   0  0  0  0  0  0
   -0.4736   52.4514   24.2705 N   0  0  0  0  0  0
   -0.3459   52.2864   22.9380 C   0  0  0  0  0  0
   -1.2620   51.9422   22.1865 O   0  0  0  0  0  0
    1.0520   52.4966   22.4037 C   0  0  0  0  0  0
    1.9340   53.4116   23.0059 C   0  0  0  0  0  0
    3.2158   53.5945   22.4926 C   0  0  0  0  0  0
    3.6265   52.8641   21.3800 C   0  0  0  0  0  0
    2.7631   51.9568   20.7698 C   0  0  0  0  0  0
    1.4780   51.7794   21.2762 C   0  0  0  0  0  0
   -5.4006   52.6395   26.1276 C   0  0  0  0  0  0
   -3.4495   51.0629   28.0896 C   0  0  0  0  0  0
   -3.9510   46.2498   25.0236 H   0  0  0  0  0  0
   -2.9760   46.2687   26.5033 H   0  0  0  0  0  0
   -4.0465   47.6179   26.1325 H   0  0  0  0  0  0
   -2.5988   46.7840   22.9936 H   0  0  0  0  0  0
   -0.6839   47.9897   21.9813 H   0  0  0  0  0  0
    0.7412   49.4479   23.3851 H   0  0  0  0  0  0
    1.1040   50.4868   25.6060 H   0  0  0  0  0  0
   -0.8104   51.2769   29.5951 H   0  0  0  0  0  0
    0.4282   52.8023   31.0890 H   0  0  0  0  0  0
    1.5893   52.5788   26.2361 H   0  0  0  0  0  0
    2.6937   56.0877   28.8855 H   0  0  0  0  0  0
    4.2103   55.2410   29.2754 H   0  0  0  0  0  0
    0.3841   52.4702   24.7959 H   0  0  0  0  0  0
    1.6348   54.0025   23.8612 H   0  0  0  0  0  0
    3.8883   54.3029   22.9549 H   0  0  0  0  0  0
    4.6192   53.0071   20.9780 H   0  0  0  0  0  0
    3.0909   51.4027   19.9009 H   0  0  0  0  0  0
    0.8173   51.0779   20.7837 H   0  0  0  0  0  0
   -5.6939   52.6327   27.1796 H   0  0  0  0  0  0
   -5.6908   53.6152   25.7282 H   0  0  0  0  0  0
   -6.0126   51.8912   25.6179 H   0  0  0  0  0  0
   -2.9733   50.0969   28.2487 H   0  0  0  0  0  0
   -3.1837   51.6795   28.9447 H   0  0  0  0  0  0
   -4.5181   50.8552   28.1335 H   0  0  0  0  0  0
   -1.6325   48.4967   26.6864 H   0  0  0  0  0  0
  1  2  1  0  0  0
  1 36  1  0  0  0
  1 37  1  0  0  0
  1 38  1  0  0  0
  2  7  2  0  0  0
  2  3  1  0  0  0
  3  4  2  0  0  0
  3 39  1  0  0  0
  4  5  1  0  0  0
  4 40  1  0  0  0
  5  6  2  0  0  0
  5 41  1  0  0  0
  6  7  1  0  0  0
  6  8  1  0  0  0
  7 60  1  0  0  0
  8  9  1  0  0  0
  8 42  1  0  0  0
  9 10  1  0  0  0
  9 11  1  0  0  0
  9 20  1  0  0  0
 11 16  2  0  0  0
 11 12  1  0  0  0
 12 13  2  0  0  0
 12 43  1  0  0  0
 13 14  1  0  0  0
 13 44  1  0  0  0
 14 19  1  0  0  0
 14 15  2  0  0  0
 15 16  1  0  0  0
 15 17  1  0  0  0
 16 45  1  0  0  0
 17 18  1  0  0  0
 18 19  1  0  0  0
 18 46  1  0  0  0
 18 47  1  0  0  0
 20 24  2  0  0  0
 20 21  1  0  0  0
 21 22  2  0  0  0
 21 35  1  0  0  0
 22 23  1  0  0  0
 22 34  1  0  0  0
 23 24  1  0  0  0
 24 25  1  0  0  0
 25 26  1  0  0  0
 25 48  1  0  0  0
 26 27  2  0  0  0
 26 28  1  0  0  0
 28 33  2  0  0  0
 28 29  1  0  0  0
 29 30  2  0  0  0
 29 49  1  0  0  0
 30 31  1  0  0  0
 30 50  1  0  0  0
 31 32  2  0  0  0
 31 51  1  0  0  0
 32 33  1  0  0  0
 32 52  1  0  0  0
 33 53  1  0  0  0
 34 54  1  0  0  0
 34 55  1  0  0  0
 34 56  1  0  0  0
 35 57  1  0  0  0
 35 58  1  0  0  0
 35 59  1  0  0  0
M  CHG  1   7   1
M  END
> <i_i_glide_confnum>
97

> <i_i_glide_lignum>
4070

> <i_i_glide_posenum>
258

> <i_i_glide_rotatable_bonds>
7

> <i_m_Source_File_Index>
3319

> <b_m_subgroup_collapsed>
0

> <r_i_docking_score>
-4.56917

> <r_i_glide_ecoul>
-5.29474

> <r_i_glide_eff_state_penalty>
0

> <r_i_glide_einternal>
7.60158

> <r_i_glide_emodel>
-57.1524

> <r_i_glide_energy>
-45.4895

> <r_i_glide_erotb>
0.633801

> <r_i_glide_esite>
-0.152092

> <r_i_glide_evdw>
-40.1947

> <r_i_glide_gscore>
-4.56917

> <r_i_glide_hbond>
-0.52

> <r_i_glide_ligand_efficiency>
-0.134387

> <r_i_glide_ligand_efficiency_ln>
-1.00946

> <r_i_glide_ligand_efficiency_sa>
-0.435363

> <r_i_glide_lipo>
-1.24335

> <r_i_glide_metal>
0

> <r_i_glide_rewards>
-0.483586

> <s_i_glide_gridfile>
wee1_glide-grid

> <s_m_Source_File>
wee1_decoys_glide_SP.sdf

> <s_m_Source_Path>
/Users/zhangxujun/Desktop

> <s_m_entry_id>
3594

> <s_m_entry_name>
wee1_decoys_glide_SP.3319

> <s_m_subgroup_title>
wee1_decoys_glide_SP

> <s_m_subgroupid>
wee1_decoys_glide_SP


$$$$
