ZINC39974291_4555
                    3D
 Schrodinger Suite 2024-2.
 67 69  0  0  1  0            999 V2000
    6.6884   54.9743   25.2184 C   0  0  0  0  0  0
    5.4739   54.4952   24.4468 C   0  0  0  0  0  0
    5.5742   54.2121   23.0846 C   0  0  0  0  0  0
    4.4559   53.7891   22.3586 C   0  0  0  0  0  0
    3.2181   53.6296   23.0103 C   0  0  0  0  0  0
    3.1284   53.8741   24.3950 C   0  0  0  0  0  0
    4.2550   54.3118   25.0972 C   0  0  0  0  0  0
    1.8334   53.6795   25.1689 C   0  0  0  0  0  0
    2.0850   53.2811   22.2578 N   0  0  0  0  0  0
    1.5812   51.6056   21.9684 S   0  0  0  0  0  0
    2.7636   50.7456   22.0806 O   0  0  0  0  0  0
    0.7723   51.6366   20.7460 O   0  0  0  0  0  0
    0.4560   51.1990   23.2950 C   0  0  0  0  0  0
    0.6600   50.0825   24.1091 C   0  0  0  0  0  0
   -0.2313   49.8189   25.1492 C   0  0  0  0  0  0
   -1.3177   50.6698   25.3831 C   0  0  0  0  0  0
   -1.4962   51.7982   24.5713 C   0  0  0  0  0  0
   -0.6314   52.0396   23.5134 C   0  0  0  0  0  0
   -2.1387   50.3412   26.4816 N   0  0  0  0  0  0
   -3.4307   50.6233   26.8373 C   0  0  0  0  0  0
   -4.5469   51.4745   25.9098 S   0  0  0  0  0  0
   -3.7028   50.0967   28.0722 N   0  0  0  0  0  0
   -5.0095   50.1055   28.7553 C   0  0  1  0  0  0
   -5.4592   51.0753   28.5472 H   0  0  0  0  0  0
   -6.0004   49.0240   28.2307 C   0  0  0  0  0  0
   -7.3604   49.0056   28.9680 C   0  0  2  0  0  0
   -7.8700   49.9492   28.7756 H   0  0  0  0  0  0
   -7.0832   48.8718   30.4810 C   0  0  0  0  0  0
   -6.2812   50.0786   31.0396 C   0  0  0  0  0  0
   -4.9021   50.0583   30.3091 C   0  0  0  0  0  0
   -7.0155   51.4281   30.8367 C   0  0  0  0  0  0
   -6.0509   49.8062   32.5441 C   0  0  0  0  0  0
   -8.2646   47.8709   28.4548 C   0  0  0  0  0  0
    4.6054   53.5371   20.8613 C   0  0  0  0  0  0
    6.5887   54.7825   26.2874 H   0  0  0  0  0  0
    7.5713   54.4352   24.8809 H   0  0  0  0  0  0
    6.8535   56.0392   25.0508 H   0  0  0  0  0  0
    6.5242   54.3430   22.5863 H   0  0  0  0  0  0
    4.1853   54.5093   26.1574 H   0  0  0  0  0  0
    1.8803   54.0991   26.1731 H   0  0  0  0  0  0
    1.0022   54.1522   24.6465 H   0  0  0  0  0  0
    1.6190   52.6178   25.2691 H   0  0  0  0  0  0
    1.6141   54.0056   21.7336 H   0  0  0  0  0  0
    1.5043   49.4258   23.9467 H   0  0  0  0  0  0
   -0.0667   48.9549   25.7804 H   0  0  0  0  0  0
   -2.2825   52.5124   24.7429 H   0  0  0  0  0  0
   -0.7874   52.8983   22.8809 H   0  0  0  0  0  0
   -1.6957   49.6656   27.0987 H   0  0  0  0  0  0
   -2.9913   49.4997   28.4863 H   0  0  0  0  0  0
   -5.5299   48.0467   28.3531 H   0  0  0  0  0  0
   -6.1693   49.1243   27.1584 H   0  0  0  0  0  0
   -6.5880   47.9216   30.6929 H   0  0  0  0  0  0
   -8.0399   48.7962   31.0005 H   0  0  0  0  0  0
   -4.2828   50.8822   30.6686 H   0  0  0  0  0  0
   -4.3666   49.1469   30.5843 H   0  0  0  0  0  0
   -7.0997   51.7346   29.7958 H   0  0  0  0  0  0
   -6.4984   52.2301   31.3604 H   0  0  0  0  0  0
   -8.0270   51.3854   31.2418 H   0  0  0  0  0  0
   -5.6958   48.7941   32.7320 H   0  0  0  0  0  0
   -5.3202   50.4959   32.9675 H   0  0  0  0  0  0
   -6.9730   49.9247   33.1145 H   0  0  0  0  0  0
   -7.8127   46.8919   28.6205 H   0  0  0  0  0  0
   -9.2324   47.8786   28.9582 H   0  0  0  0  0  0
   -8.4570   47.9726   27.3861 H   0  0  0  0  0  0
    5.5795   53.8470   20.4821 H   0  0  0  0  0  0
    4.4620   52.4797   20.6361 H   0  0  0  0  0  0
    3.8491   54.0941   20.3061 H   0  0  0  0  0  0
  1  2  1  0  0  0
  1 35  1  0  0  0
  1 36  1  0  0  0
  1 37  1  0  0  0
  2  7  2  0  0  0
  2  3  1  0  0  0
  3  4  2  0  0  0
  3 38  1  0  0  0
  4  5  1  0  0  0
  4 34  1  0  0  0
  5  6  2  0  0  0
  5  9  1  0  0  0
  6  7  1  0  0  0
  6  8  1  0  0  0
  7 39  1  0  0  0
  8 40  1  0  0  0
  8 41  1  0  0  0
  8 42  1  0  0  0
  9 10  1  0  0  0
  9 43  1  0  0  0
 10 11  2  0  0  0
 10 12  2  0  0  0
 10 13  1  0  0  0
 13 18  2  0  0  0
 13 14  1  0  0  0
 14 15  2  0  0  0
 14 44  1  0  0  0
 15 16  1  0  0  0
 15 45  1  0  0  0
 16 17  2  0  0  0
 16 19  1  0  0  0
 17 18  1  0  0  0
 17 46  1  0  0  0
 18 47  1  0  0  0
 19 20  1  0  0  0
 19 48  1  0  0  0
 20 21  2  0  0  0
 20 22  1  0  0  0
 22 23  1  0  0  0
 22 49  1  0  0  0
 23 24  1  0  0  0
 23 30  1  0  0  0
 23 25  1  0  0  0
 25 26  1  0  0  0
 25 50  1  0  0  0
 25 51  1  0  0  0
 26 27  1  0  0  0
 26 28  1  0  0  0
 26 33  1  0  0  0
 28 29  1  0  0  0
 28 52  1  0  0  0
 28 53  1  0  0  0
 29 30  1  0  0  0
 29 31  1  0  0  0
 29 32  1  0  0  0
 30 54  1  0  0  0
 30 55  1  0  0  0
 31 56  1  0  0  0
 31 57  1  0  0  0
 31 58  1  0  0  0
 32 59  1  0  0  0
 32 60  1  0  0  0
 32 61  1  0  0  0
 33 62  1  0  0  0
 33 63  1  0  0  0
 33 64  1  0  0  0
 34 65  1  0  0  0
 34 66  1  0  0  0
 34 67  1  0  0  0
M  END
> <i_i_glide_confnum>
3

> <i_i_glide_lignum>
4556

> <i_i_glide_posenum>
176

> <i_i_glide_rotatable_bonds>
7

> <i_m_Source_File_Index>
4428

> <b_m_subgroup_collapsed>
0

> <r_i_docking_score>
-4.5247

> <r_i_glide_ecoul>
-6.18079

> <r_i_glide_eff_state_penalty>
0

> <r_i_glide_einternal>
3.04643

> <r_i_glide_emodel>
-51.5439

> <r_i_glide_energy>
-42.8502

> <r_i_glide_erotb>
0.631077

> <r_i_glide_esite>
-0.265247

> <r_i_glide_evdw>
-36.6694

> <r_i_glide_gscore>
-4.5247

> <r_i_glide_hbond>
-0.576

> <r_i_glide_ligand_efficiency>
-0.141397

> <r_i_glide_ligand_efficiency_ln>
-1.0132

> <r_i_glide_ligand_efficiency_sa>
-0.448907

> <r_i_glide_lipo>
-2.05406

> <r_i_glide_metal>
0

> <r_i_glide_rewards>
0.500119

> <s_i_glide_gridfile>
wee1_glide-grid

> <s_m_Source_File>
wee1_decoys_glide_SP.sdf

> <s_m_Source_Path>
/Users/zhangxujun/Desktop

> <s_m_entry_id>
4703

> <s_m_entry_name>
wee1_decoys_glide_SP.4428

> <s_m_subgroup_title>
wee1_decoys_glide_SP

> <s_m_subgroupid>
wee1_decoys_glide_SP


$$$$
