ZINC02268321_607
                    3D
 Schrodinger Suite 2024-2.
 50 53  0  0  1  0            999 V2000
    0.8198   53.8920   30.3090 C   0  0  0  0  0  0
   -0.0954   52.8960   30.6416 C   0  0  0  0  0  0
   -0.5343   51.9619   29.7012 C   0  0  0  0  0  0
   -0.0230   52.0560   28.4002 C   0  0  0  0  0  0
    0.9428   53.0388   28.0673 C   0  0  0  0  0  0
    1.3672   53.9696   29.0282 C   0  0  0  0  0  0
    1.3810   52.9938   26.7844 N   0  0  0  0  0  0
    0.7731   52.0663   26.0835 C   0  0  0  0  0  0
   -0.3960   51.1065   26.9654 S   0  0  0  0  0  0
    1.0415   51.8525   24.7383 N   0  0  0  0  0  0
    1.0664   50.7039   23.9754 C   0  0  0  0  0  0
    1.5174   51.0767   22.7103 C   0  0  0  0  0  0
    1.7686   52.4637   22.8321 C   0  0  0  0  0  0
    1.3773   52.9106   23.9998 N   0  0  0  0  0  0
    2.3740   53.4672   21.8679 C   0  0  0  0  0  0
    4.1976   53.4719   21.8284 S   0  0  0  0  0  0
    4.8758   54.0671   23.3592 C   0  0  0  0  0  0
    6.2619   54.0864   23.5072 C   0  0  0  0  0  0
    6.8249   54.4844   24.7148 C   0  0  0  0  0  0
    6.0045   54.8533   25.7753 C   0  0  0  0  0  0
    4.6235   54.8730   25.6256 C   0  0  0  0  0  0
    4.0631   54.4968   24.4104 C   0  0  0  0  0  0
    6.7046   55.2967   27.2816 Cl  0  0  0  0  0  0
    1.6875   50.2576   21.6166 C   0  0  0  0  0  0
    2.3719   50.5428   20.5148 N   0  3  0  0  0  0
    2.4772   49.6956   19.2814 C   0  0  0  0  0  0
    1.4609   48.5313   19.1633 C   0  0  0  0  0  0
    1.4483   47.8654   17.7774 C   0  0  0  0  0  0
    2.7044   47.2967   17.4819 O   0  0  0  0  0  0
    0.7038   49.4871   24.5004 O   0  0  0  0  0  0
    1.1045   54.6116   31.0623 H   0  0  0  0  0  0
   -0.4942   52.8583   31.6478 H   0  0  0  0  0  0
   -1.2553   51.1992   29.9707 H   0  0  0  0  0  0
    2.0874   54.7348   28.7795 H   0  0  0  0  0  0
    2.0524   54.4860   22.0888 H   0  0  0  0  0  0
    2.0245   53.2802   20.8543 H   0  0  0  0  0  0
    6.9027   53.7799   22.6957 H   0  0  0  0  0  0
    7.8982   54.4962   24.8297 H   0  0  0  0  0  0
    3.9888   55.1907   26.4398 H   0  0  0  0  0  0
    3.0038   54.6039   24.2956 H   0  0  0  0  0  0
    1.1850   49.3027   21.6428 H   0  0  0  0  0  0
    2.3438   50.3936   18.4518 H   0  0  0  0  0  0
    3.5046   49.3406   19.2462 H   0  0  0  0  0  0
    1.6682   47.7690   19.9161 H   0  0  0  0  0  0
    0.4520   48.9008   19.3530 H   0  0  0  0  0  0
    0.6748   47.0985   17.7181 H   0  0  0  0  0  0
    1.2448   48.6056   17.0008 H   0  0  0  0  0  0
    3.3014   48.0018   17.1489 H   0  0  0  0  0  0
   -0.2043   49.4716   24.8140 H   0  0  0  0  0  0
    2.8866   51.4202   20.4961 H   0  0  0  0  0  0
  1  6  2  0  0  0
  1  2  1  0  0  0
  1 31  1  0  0  0
  2  3  2  0  0  0
  2 32  1  0  0  0
  3  4  1  0  0  0
  3 33  1  0  0  0
  4  9  1  0  0  0
  4  5  2  0  0  0
  5  6  1  0  0  0
  5  7  1  0  0  0
  6 34  1  0  0  0
  7  8  2  0  0  0
  8  9  1  0  0  0
  8 10  1  0  0  0
 10 14  1  0  0  0
 10 11  1  0  0  0
 11 12  2  0  0  0
 11 30  1  0  0  0
 12 13  1  0  0  0
 12 24  1  0  0  0
 13 14  2  0  0  0
 13 15  1  0  0  0
 15 16  1  0  0  0
 15 35  1  0  0  0
 15 36  1  0  0  0
 16 17  1  0  0  0
 17 22  2  0  0  0
 17 18  1  0  0  0
 18 19  2  0  0  0
 18 37  1  0  0  0
 19 20  1  0  0  0
 19 38  1  0  0  0
 20 21  2  0  0  0
 20 23  1  0  0  0
 21 22  1  0  0  0
 21 39  1  0  0  0
 22 40  1  0  0  0
 24 25  2  0  0  0
 24 41  1  0  0  0
 25 26  1  0  0  0
 25 50  1  0  0  0
 26 27  1  0  0  0
 26 42  1  0  0  0
 26 43  1  0  0  0
 27 28  1  0  0  0
 27 44  1  0  0  0
 27 45  1  0  0  0
 28 29  1  0  0  0
 28 46  1  0  0  0
 28 47  1  0  0  0
 29 48  1  0  0  0
 30 49  1  0  0  0
M  CHG  1  25   1
M  END
> <i_i_glide_confnum>
189

> <i_i_glide_lignum>
608

> <i_i_glide_posenum>
340

> <i_i_glide_rotatable_bonds>
10

> <i_m_Source_File_Index>
3516

> <b_m_subgroup_collapsed>
0

> <r_i_docking_score>
-5.8662

> <r_i_glide_ecoul>
-7.77258

> <r_i_glide_eff_state_penalty>
0

> <r_i_glide_einternal>
3.76581

> <r_i_glide_emodel>
-70.8654

> <r_i_glide_energy>
-50.0986

> <r_i_glide_erotb>
0.760888

> <r_i_glide_esite>
-0.0104473

> <r_i_glide_evdw>
-42.3261

> <r_i_glide_gscore>
-5.8662

> <r_i_glide_hbond>
-0.16

> <r_i_glide_ligand_efficiency>
-0.19554

> <r_i_glide_ligand_efficiency_ln>
-1.33286

> <r_i_glide_ligand_efficiency_sa>
-0.607588

> <r_i_glide_lipo>
-2.60729

> <r_i_glide_metal>
0

> <r_i_glide_rewards>
-0.567164

> <s_i_glide_gridfile>
wee1_glide-grid

> <s_m_Source_File>
wee1_decoys_glide_SP.sdf

> <s_m_Source_Path>
/Users/zhangxujun/Desktop

> <s_m_entry_id>
3791

> <s_m_entry_name>
wee1_decoys_glide_SP.3516

> <s_m_subgroup_title>
wee1_decoys_glide_SP

> <s_m_subgroupid>
wee1_decoys_glide_SP


$$$$
