ZINC04984416_1568
                    3D
 Schrodinger Suite 2024-2.
 34 35  0  0  1  0            999 V2000
    6.3084   54.4970   23.7852 C   0  0  0  0  0  0
    6.1077   54.4550   25.1612 C   0  0  0  0  0  0
    4.8276   54.2435   25.6651 C   0  0  0  0  0  0
    3.7475   54.0827   24.8001 C   0  0  0  0  0  0
    3.9510   54.1040   23.4220 C   0  0  0  0  0  0
    5.2381   54.3270   22.9047 C   0  0  0  0  0  0
    5.5438   54.4281   21.5606 O   0  0  0  0  0  0
    4.5543   54.3132   20.5727 C   0  0  2  0  0  0
    3.6631   54.8820   20.8527 H   0  0  0  0  0  0
    4.2983   52.8149   20.2777 C   0  0  1  0  0  0
    3.8406   52.3729   21.1640 H   0  0  0  0  0  0
    3.3060   52.6818   19.1000 C   0  0  1  0  0  0
    2.3592   53.1099   19.4345 H   0  0  0  0  0  0
    3.7609   53.4996   17.8682 C   0  0  1  0  0  0
    2.9369   53.5188   17.1541 H   0  0  0  0  0  0
    4.0835   54.9558   18.3146 C   0  0  1  0  0  0
    3.1560   55.4090   18.6663 H   0  0  0  0  0  0
    5.0159   54.9580   19.4093 O   0  0  0  0  0  0
    4.5920   55.8874   17.1881 C   0  0  0  0  0  0
    5.8368   55.4589   16.6728 O   0  0  0  0  0  0
    4.8414   52.8973   17.1666 O   0  0  0  0  0  0
    2.9693   51.3344   18.8050 O   0  0  0  0  0  0
    5.5040   52.0965   20.0816 O   0  0  0  0  0  0
    4.5610   54.1467   27.5482 Br  0  0  0  0  0  0
    7.3023   54.6701   23.3974 H   0  0  0  0  0  0
    6.9424   54.5748   25.8346 H   0  0  0  0  0  0
    2.7591   53.9058   25.1968 H   0  0  0  0  0  0
    3.0958   53.9669   22.7782 H   0  0  0  0  0  0
    4.7000   56.9100   17.5516 H   0  0  0  0  0  0
    3.8684   55.9215   16.3719 H   0  0  0  0  0  0
    5.8078   54.4926   16.6398 H   0  0  0  0  0  0
    4.7091   51.9380   17.1360 H   0  0  0  0  0  0
    3.7515   50.8578   18.4820 H   0  0  0  0  0  0
    5.4455   51.5439   19.2817 H   0  0  0  0  0  0
  1  6  2  0  0  0
  1  2  1  0  0  0
  1 25  1  0  0  0
  2  3  2  0  0  0
  2 26  1  0  0  0
  3  4  1  0  0  0
  3 24  1  0  0  0
  4  5  2  0  0  0
  4 27  1  0  0  0
  5  6  1  0  0  0
  5 28  1  0  0  0
  6  7  1  0  0  0
  7  8  1  0  0  0
  8  9  1  0  0  0
  8 18  1  0  0  0
  8 10  1  0  0  0
 10 11  1  0  0  0
 10 12  1  0  0  0
 10 23  1  0  0  0
 12 13  1  0  0  0
 12 14  1  0  0  0
 12 22  1  0  0  0
 14 15  1  0  0  0
 14 16  1  0  0  0
 14 21  1  0  0  0
 16 17  1  0  0  0
 16 18  1  0  0  0
 16 19  1  0  0  0
 19 20  1  0  0  0
 19 29  1  0  0  0
 19 30  1  0  0  0
 20 31  1  0  0  0
 21 32  1  0  0  0
 22 33  1  0  0  0
 23 34  1  0  0  0
M  END
> <i_i_glide_confnum>
20

> <i_i_glide_lignum>
1569

> <i_i_glide_posenum>
210

> <i_i_glide_rotatable_bonds>
7

> <i_m_Source_File_Index>
2141

> <b_m_subgroup_collapsed>
0

> <r_i_docking_score>
-5.61365

> <r_i_glide_ecoul>
-13.7135

> <r_i_glide_eff_state_penalty>
0

> <r_i_glide_einternal>
8.48934

> <r_i_glide_emodel>
-44.1947

> <r_i_glide_energy>
-33.2521

> <r_i_glide_erotb>
0.503981

> <r_i_glide_esite>
0

> <r_i_glide_evdw>
-19.5386

> <r_i_glide_gscore>
-5.61365

> <r_i_glide_hbond>
0

> <r_i_glide_ligand_efficiency>
-0.295456

> <r_i_glide_ligand_efficiency_ln>
-1.42318

> <r_i_glide_ligand_efficiency_sa>
-0.788394

> <r_i_glide_lipo>
-1.84601

> <r_i_glide_metal>
0

> <r_i_glide_rewards>
-1.23767

> <s_i_glide_gridfile>
wee1_glide-grid

> <s_m_Source_File>
wee1_decoys_glide_SP.sdf

> <s_m_Source_Path>
/Users/zhangxujun/Desktop

> <s_m_entry_id>
2416

> <s_m_entry_name>
wee1_decoys_glide_SP.2141

> <s_m_subgroup_title>
wee1_decoys_glide_SP

> <s_m_subgroupid>
wee1_decoys_glide_SP


$$$$
