ZINC24769769_1376
                    3D
 Schrodinger Suite 2024-2.
 55 58  0  0  1  0            999 V2000
    8.6511   53.9298   17.8773 C   0  0  0  0  0  0
    7.9751   54.8164   18.9404 C   0  0  1  0  0  0
    8.3909   54.5097   19.9034 H   0  0  0  0  0  0
    8.4498   56.2892   18.7655 C   0  0  0  0  0  0
    7.7644   57.0049   17.5881 C   0  0  0  0  0  0
    6.2358   56.9649   17.7285 C   0  0  0  0  0  0
    5.7198   55.5223   17.9197 C   0  0  0  0  0  0
    6.4082   54.6935   19.0537 C   0  0  2  0  0  0
    5.8945   55.1796   20.4096 C   0  0  0  0  0  0
    6.1333   56.2720   20.9258 O   0  0  0  0  0  0
    5.0544   54.2147   20.8459 N   0  0  0  0  0  0
    5.1045   53.0692   20.1260 C   0  0  0  0  0  0
    4.7189   51.9580   20.4817 O   0  0  0  0  0  0
    5.9030   53.3388   19.0834 N   0  0  0  0  0  0
    4.1960   54.3208   22.0445 C   0  0  0  0  0  0
    4.9577   54.0970   23.3657 C   0  0  0  0  0  0
    6.1502   53.7865   23.3812 O   0  0  0  0  0  0
    4.1773   54.2395   24.4584 N   0  0  0  0  0  0
    4.4961   54.0969   25.8181 C   0  0  0  0  0  0
    5.8004   54.0977   26.3349 C   0  0  0  0  0  0
    6.0076   53.9266   27.7017 C   0  0  0  0  0  0
    4.9216   53.7474   28.5566 C   0  0  0  0  0  0
    3.6071   53.7480   28.0668 C   0  0  0  0  0  0
    3.4117   53.9494   26.6925 C   0  0  0  0  0  0
    2.4866   53.5700   28.9200 N   0  0  0  0  0  0
    1.1458   54.0815   28.6003 C   0  0  0  0  0  0
    0.3420   53.9099   29.8684 C   0  0  0  0  0  0
    1.0329   52.7669   30.5649 C   0  0  0  0  0  0
    2.4598   52.7566   30.0197 C   0  0  0  0  0  0
    3.3751   52.1083   30.5276 O   0  0  0  0  0  0
    8.3080   54.1736   16.8702 H   0  0  0  0  0  0
    9.7380   54.0354   17.8992 H   0  0  0  0  0  0
    8.4326   52.8827   18.0564 H   0  0  0  0  0  0
    8.2538   56.8519   19.6786 H   0  0  0  0  0  0
    9.5359   56.3250   18.6522 H   0  0  0  0  0  0
    8.1068   58.0390   17.5332 H   0  0  0  0  0  0
    8.0611   56.5381   16.6478 H   0  0  0  0  0  0
    5.9320   57.5857   18.5716 H   0  0  0  0  0  0
    5.7726   57.4115   16.8496 H   0  0  0  0  0  0
    5.7814   54.9611   16.9858 H   0  0  0  0  0  0
    4.6366   55.5311   18.0647 H   0  0  0  0  0  0
    5.8904   52.7655   18.2501 H   0  0  0  0  0  0
    3.3759   53.6011   21.9838 H   0  0  0  0  0  0
    3.7225   55.2976   22.0820 H   0  0  0  0  0  0
    3.2012   54.4074   24.2751 H   0  0  0  0  0  0
    6.6614   54.2267   25.6966 H   0  0  0  0  0  0
    7.0097   53.9286   28.1044 H   0  0  0  0  0  0
    5.1031   53.6285   29.6115 H   0  0  0  0  0  0
    2.4119   53.9510   26.2877 H   0  0  0  0  0  0
    1.1879   55.1215   28.2765 H   0  0  0  0  0  0
    0.7224   53.4991   27.7796 H   0  0  0  0  0  0
   -0.7158   53.7289   29.6796 H   0  0  0  0  0  0
    0.4128   54.8130   30.4792 H   0  0  0  0  0  0
    0.5721   51.8176   30.2936 H   0  0  0  0  0  0
    1.0032   52.8540   31.6522 H   0  0  0  0  0  0
  1  2  1  0  0  0
  1 31  1  0  0  0
  1 32  1  0  0  0
  1 33  1  0  0  0
  2  3  1  0  0  0
  2  8  1  0  0  0
  2  4  1  0  0  0
  4  5  1  0  0  0
  4 34  1  0  0  0
  4 35  1  0  0  0
  5  6  1  0  0  0
  5 36  1  0  0  0
  5 37  1  0  0  0
  6  7  1  0  0  0
  6 38  1  0  0  0
  6 39  1  0  0  0
  7  8  1  0  0  0
  7 40  1  0  0  0
  7 41  1  0  0  0
  8 14  1  0  0  0
  8  9  1  0  0  0
  9 10  2  0  0  0
  9 11  1  0  0  0
 11 12  1  0  0  0
 11 15  1  0  0  0
 12 13  2  0  0  0
 12 14  1  0  0  0
 14 42  1  0  0  0
 15 16  1  0  0  0
 15 43  1  0  0  0
 15 44  1  0  0  0
 16 17  2  0  0  0
 16 18  1  0  0  0
 18 19  1  0  0  0
 18 45  1  0  0  0
 19 24  2  0  0  0
 19 20  1  0  0  0
 20 21  2  0  0  0
 20 46  1  0  0  0
 21 22  1  0  0  0
 21 47  1  0  0  0
 22 23  2  0  0  0
 22 48  1  0  0  0
 23 24  1  0  0  0
 23 25  1  0  0  0
 24 49  1  0  0  0
 25 29  1  0  0  0
 25 26  1  0  0  0
 26 27  1  0  0  0
 26 50  1  0  0  0
 26 51  1  0  0  0
 27 28  1  0  0  0
 27 52  1  0  0  0
 27 53  1  0  0  0
 28 29  1  0  0  0
 28 54  1  0  0  0
 28 55  1  0  0  0
 29 30  2  0  0  0
M  END
> <i_i_glide_confnum>
105

> <i_i_glide_lignum>
1377

> <i_i_glide_posenum>
282

> <i_i_glide_rotatable_bonds>
5

> <i_m_Source_File_Index>
1487

> <b_m_subgroup_collapsed>
0

> <r_i_docking_score>
-7.0084

> <r_i_glide_ecoul>
-5.56379

> <r_i_glide_eff_state_penalty>
0

> <r_i_glide_einternal>
0.738522

> <r_i_glide_emodel>
-67.6946

> <r_i_glide_energy>
-49.6506

> <r_i_glide_erotb>
0.616779

> <r_i_glide_esite>
-0.0938522

> <r_i_glide_evdw>
-44.0868

> <r_i_glide_gscore>
-7.0084

> <r_i_glide_hbond>
-0.308325

> <r_i_glide_ligand_efficiency>
-0.241669

> <r_i_glide_ligand_efficiency_ln>
-1.60475

> <r_i_glide_ligand_efficiency_sa>
-0.742484

> <r_i_glide_lipo>
-2.46744

> <r_i_glide_metal>
0

> <r_i_glide_rewards>
-1.71665

> <s_i_glide_gridfile>
wee1_glide-grid

> <s_m_Source_File>
wee1_decoys_glide_SP.sdf

> <s_m_Source_Path>
/Users/zhangxujun/Desktop

> <s_m_entry_id>
1762

> <s_m_entry_name>
wee1_decoys_glide_SP.1487

> <s_m_subgroup_title>
wee1_decoys_glide_SP

> <s_m_subgroupid>
wee1_decoys_glide_SP


$$$$
