ZINC21208709_2497
                    3D
 Schrodinger Suite 2024-2.
 53 56  0  0  1  0            999 V2000
    1.1904   52.2039   27.4402 C   0  0  0  0  0  0
   -0.0780   51.6281   27.4836 C   0  0  0  0  0  0
   -0.8380   51.7162   28.6446 C   0  0  0  0  0  0
   -0.3231   52.3408   29.7735 C   0  0  0  0  0  0
    0.9316   52.9341   29.7193 C   0  0  0  0  0  0
    1.7024   52.9003   28.5437 C   0  0  0  0  0  0
    3.0528   53.5892   28.5186 C   0  0  0  0  0  0
    3.9070   54.0078   27.4442 C   0  0  0  0  0  0
    5.0210   54.5489   28.0780 C   0  0  0  0  0  0
    4.7538   54.4968   29.4041 N   0  0  0  0  0  0
    5.3694   54.8464   30.1252 H   0  0  0  0  0  0
    3.5997   53.9078   29.6817 N   0  0  0  0  0  0
    3.6902   54.0299   26.0147 C   0  0  0  0  0  0
    2.5612   54.0966   25.5341 O   0  0  0  0  0  0
    4.8360   54.0967   25.3027 N   0  0  0  0  0  0
    5.0119   54.2415   23.9193 C   0  0  0  0  0  0
    6.2512   54.7329   23.5016 C   0  0  0  0  0  0
    6.5142   54.8964   22.1457 C   0  0  0  0  0  0
    5.5495   54.5211   21.1955 C   0  0  0  0  0  0
    4.3140   54.0286   21.6156 C   0  0  0  0  0  0
    4.0396   53.8933   22.9712 C   0  0  0  0  0  0
    5.7589   54.5463   19.8068 N   0  0  0  0  0  0
    6.7312   55.1574   19.1059 C   0  0  0  0  0  0
    7.5557   55.9514   19.5622 O   0  0  0  0  0  0
    6.6681   54.7931   17.8158 N   0  0  0  0  0  0
    7.2776   55.5126   16.6937 C   0  0  0  0  0  0
    6.5443   56.8013   16.2325 C   0  0  1  0  0  0
    6.9760   57.1458   15.2911 H   0  0  0  0  0  0
    5.0094   56.8303   16.2987 C   0  0  0  0  0  0
    4.6546   58.2789   16.5642 C   0  0  0  0  0  0
    5.9422   58.8783   17.1287 C   0  0  0  0  0  0
    6.8627   57.7935   17.2024 O   0  0  0  0  0  0
   -2.1026   51.2430   28.6649 F   0  0  0  0  0  0
    1.7612   52.0942   26.5338 H   0  0  0  0  0  0
   -0.4784   51.1202   26.6184 H   0  0  0  0  0  0
   -0.8981   52.3854   30.6874 H   0  0  0  0  0  0
    1.2873   53.4372   30.6053 H   0  0  0  0  0  0
    5.9269   55.0200   27.7238 H   0  0  0  0  0  0
    5.6867   54.0661   25.8397 H   0  0  0  0  0  0
    7.0169   54.9956   24.2169 H   0  0  0  0  0  0
    7.4887   55.2614   21.8588 H   0  0  0  0  0  0
    3.5619   53.7369   20.8959 H   0  0  0  0  0  0
    3.0824   53.4892   23.2592 H   0  0  0  0  0  0
    5.0668   54.0481   19.2689 H   0  0  0  0  0  0
    6.1550   53.9562   17.5817 H   0  0  0  0  0  0
    8.3153   55.7470   16.9464 H   0  0  0  0  0  0
    7.3215   54.8183   15.8532 H   0  0  0  0  0  0
    4.5553   56.4116   15.4000 H   0  0  0  0  0  0
    4.6384   56.2064   17.1122 H   0  0  0  0  0  0
    4.3716   58.7950   15.6454 H   0  0  0  0  0  0
    3.8247   58.3732   17.2654 H   0  0  0  0  0  0
    6.3399   59.6632   16.4814 H   0  0  0  0  0  0
    5.8062   59.2957   18.1256 H   0  0  0  0  0  0
  1  6  2  0  0  0
  1  2  1  0  0  0
  1 34  1  0  0  0
  2  3  2  0  0  0
  2 35  1  0  0  0
  3  4  1  0  0  0
  3 33  1  0  0  0
  4  5  2  0  0  0
  4 36  1  0  0  0
  5  6  1  0  0  0
  5 37  1  0  0  0
  6  7  1  0  0  0
  7 12  2  0  0  0
  7  8  1  0  0  0
  8  9  2  0  0  0
  8 13  1  0  0  0
  9 10  1  0  0  0
  9 38  1  0  0  0
 10 11  1  0  0  0
 10 12  1  0  0  0
 13 14  2  0  0  0
 13 15  1  0  0  0
 15 16  1  0  0  0
 15 39  1  0  0  0
 16 21  2  0  0  0
 16 17  1  0  0  0
 17 18  2  0  0  0
 17 40  1  0  0  0
 18 19  1  0  0  0
 18 41  1  0  0  0
 19 20  2  0  0  0
 19 22  1  0  0  0
 20 21  1  0  0  0
 20 42  1  0  0  0
 21 43  1  0  0  0
 22 23  1  0  0  0
 22 44  1  0  0  0
 23 24  2  0  0  0
 23 25  1  0  0  0
 25 26  1  0  0  0
 25 45  1  0  0  0
 26 27  1  0  0  0
 26 46  1  0  0  0
 26 47  1  0  0  0
 27 28  1  0  0  0
 27 32  1  0  0  0
 27 29  1  0  0  0
 29 30  1  0  0  0
 29 48  1  0  0  0
 29 49  1  0  0  0
 30 31  1  0  0  0
 30 50  1  0  0  0
 30 51  1  0  0  0
 31 32  1  0  0  0
 31 52  1  0  0  0
 31 53  1  0  0  0
M  END
> <i_i_glide_confnum>
56

> <i_i_glide_lignum>
2498

> <i_i_glide_posenum>
193

> <i_i_glide_rotatable_bonds>
9

> <i_m_Source_File_Index>
1171

> <b_m_subgroup_collapsed>
0

> <r_i_docking_score>
-5.43066

> <r_i_glide_ecoul>
-3.85485

> <r_i_glide_eff_state_penalty>
0

> <r_i_glide_einternal>
8.31712

> <r_i_glide_emodel>
-59.9053

> <r_i_glide_energy>
-45.8759

> <r_i_glide_erotb>
0.884295

> <r_i_glide_esite>
-0.1

> <r_i_glide_evdw>
-42.0211

> <r_i_glide_gscore>
-5.43066

> <r_i_glide_hbond>
-0.131658

> <r_i_glide_ligand_efficiency>
-0.175183

> <r_i_glide_ligand_efficiency_ln>
-1.22478

> <r_i_glide_ligand_efficiency_sa>
-0.550315

> <r_i_glide_lipo>
-2.51891

> <r_i_glide_metal>
0

> <r_i_glide_rewards>
-0.885103

> <s_i_glide_gridfile>
wee1_glide-grid

> <s_m_Source_File>
wee1_decoys_glide_SP.sdf

> <s_m_Source_Path>
/Users/zhangxujun/Desktop

> <s_m_entry_id>
1446

> <s_m_entry_name>
wee1_decoys_glide_SP.1171

> <s_m_subgroup_title>
wee1_decoys_glide_SP

> <s_m_subgroupid>
wee1_decoys_glide_SP


$$$$
