ZINC51124247_1799
                    3D
 Schrodinger Suite 2024-2.
 41 43  0  0  1  0            999 V2000
    6.9344   55.5315   22.3245 C   0  0  0  0  0  0
    6.5216   55.2879   21.0164 C   0  0  0  0  0  0
    5.5049   54.3576   20.7409 C   0  0  0  0  0  0
    4.8735   53.6983   21.8208 C   0  0  0  0  0  0
    5.2836   53.9782   23.1317 C   0  0  0  0  0  0
    6.2969   54.8948   23.3856 C   0  0  0  0  0  0
    6.7047   55.2539   25.0217 Cl  0  0  0  0  0  0
    3.8311   52.6215   21.5982 C   0  0  0  0  0  0
    4.1585   51.6763   20.8824 O   0  0  0  0  0  0
    2.6072   52.7370   22.1986 N   0  0  0  0  0  0
    2.2037   53.9789   22.8926 C   0  0  0  0  0  0
    1.8146   53.6108   24.3357 C   0  0  0  0  0  0
    0.7490   52.6702   24.3072 O   0  0  0  0  0  0
    1.0850   51.4631   23.6271 C   0  0  2  0  0  0
    1.9025   50.9618   24.1510 H   0  0  0  0  0  0
    1.5040   51.7300   22.1463 C   0  0  2  0  0  0
    0.6759   52.2152   21.6272 H   0  0  0  0  0  0
    1.7294   50.3805   21.4042 C   0  0  0  0  0  0
    0.5164   49.4384   21.5294 C   0  0  0  0  0  0
    0.0837   49.2240   22.9922 C   0  0  0  0  0  0
   -0.1623   50.5644   23.7077 C   0  0  0  0  0  0
    5.1316   54.0856   19.4119 N   0  0  0  0  0  0
    6.0816   54.2351   18.3224 N   0  0  0  0  0  0
    7.7458   56.2169   22.5127 H   0  0  0  0  0  0
    7.0206   55.7955   20.2049 H   0  0  0  0  0  0
    4.8268   53.4728   23.9712 H   0  0  0  0  0  0
    2.8448   54.8542   22.7849 H   0  0  0  0  0  0
    1.2904   54.2812   22.3807 H   0  0  0  0  0  0
    2.6753   53.2007   24.8680 H   0  0  0  0  0  0
    1.5091   54.4966   24.8858 H   0  0  0  0  0  0
    1.9354   50.5558   20.3477 H   0  0  0  0  0  0
    2.5984   49.8670   21.8218 H   0  0  0  0  0  0
    0.7490   48.4825   21.0602 H   0  0  0  0  0  0
   -0.3203   49.8526   20.9645 H   0  0  0  0  0  0
    0.8535   48.6610   23.5234 H   0  0  0  0  0  0
   -0.8187   48.6136   23.0281 H   0  0  0  0  0  0
   -0.4204   50.3673   24.7495 H   0  0  0  0  0  0
   -1.0103   51.0585   23.2303 H   0  0  0  0  0  0
    4.5754   53.2447   19.2750 H   0  0  0  0  0  0
    6.4622   53.3210   18.1005 H   0  0  0  0  0  0
    5.5892   54.6098   17.5209 H   0  0  0  0  0  0
  1  6  2  0  0  0
  1  2  1  0  0  0
  1 24  1  0  0  0
  2  3  2  0  0  0
  2 25  1  0  0  0
  3  4  1  0  0  0
  3 22  1  0  0  0
  4  5  2  0  0  0
  4  8  1  0  0  0
  5  6  1  0  0  0
  5 26  1  0  0  0
  6  7  1  0  0  0
  8  9  2  0  0  0
  8 10  1  0  0  0
 10 16  1  0  0  0
 10 11  1  0  0  0
 11 12  1  0  0  0
 11 27  1  0  0  0
 11 28  1  0  0  0
 12 13  1  0  0  0
 12 29  1  0  0  0
 12 30  1  0  0  0
 13 14  1  0  0  0
 14 15  1  0  0  0
 14 21  1  0  0  0
 14 16  1  0  0  0
 16 17  1  0  0  0
 16 18  1  0  0  0
 18 19  1  0  0  0
 18 31  1  0  0  0
 18 32  1  0  0  0
 19 20  1  0  0  0
 19 33  1  0  0  0
 19 34  1  0  0  0
 20 21  1  0  0  0
 20 35  1  0  0  0
 20 36  1  0  0  0
 21 37  1  0  0  0
 21 38  1  0  0  0
 22 23  1  0  0  0
 22 39  1  0  0  0
 23 40  1  0  0  0
 23 41  1  0  0  0
M  END
> <i_i_glide_confnum>
1

> <i_i_glide_lignum>
1800

> <i_i_glide_posenum>
205

> <i_i_glide_rotatable_bonds>
3

> <i_m_Source_File_Index>
2103

> <b_m_subgroup_collapsed>
0

> <r_i_docking_score>
-5.28926

> <r_i_glide_ecoul>
-2.10875

> <r_i_glide_eff_state_penalty>
0

> <r_i_glide_einternal>
0.528279

> <r_i_glide_emodel>
-45.1413

> <r_i_glide_energy>
-34.3938

> <r_i_glide_erotb>
0.38598

> <r_i_glide_esite>
-0.009581

> <r_i_glide_evdw>
-32.2851

> <r_i_glide_gscore>
-5.28926

> <r_i_glide_hbond>
0

> <r_i_glide_ligand_efficiency>
-0.251869

> <r_i_glide_ligand_efficiency_ln>
-1.30776

> <r_i_glide_ligand_efficiency_sa>
-0.694888

> <r_i_glide_lipo>
-2.14578

> <r_i_glide_metal>
0

> <r_i_glide_rewards>
-1.58931

> <s_i_glide_gridfile>
wee1_glide-grid

> <s_m_Source_File>
wee1_decoys_glide_SP.sdf

> <s_m_Source_Path>
/Users/zhangxujun/Desktop

> <s_m_entry_id>
2378

> <s_m_entry_name>
wee1_decoys_glide_SP.2103

> <s_m_subgroup_title>
wee1_decoys_glide_SP

> <s_m_subgroupid>
wee1_decoys_glide_SP


$$$$
