ZINC13638161_5838
                    3D
 Schrodinger Suite 2024-2.
 38 40  0  0  1  0            999 V2000
   -0.1383   50.3244   26.0902 C   0  0  0  0  0  0
   -0.3194   51.8573   26.0368 C   0  0  0  0  0  0
   -1.5433   52.2191   25.1648 C   0  0  0  0  0  0
    0.9805   52.5596   25.5923 C   0  0  0  0  0  0
    1.8437   53.2600   26.4787 C   0  0  0  0  0  0
    3.0083   53.8248   25.9152 C   0  0  0  0  0  0
    3.1981   53.6966   24.5629 N   0  0  0  0  0  0
    2.3045   53.0134   23.7557 C   0  0  0  0  0  0
    1.2122   52.4389   24.2518 N   0  0  0  0  0  0
    2.7597   53.0330   22.4837 N   0  0  0  0  0  0
    3.8910   53.7127   22.5889 C   0  0  0  0  0  0
    4.2233   54.1366   23.7965 N   0  0  0  0  0  0
    4.9429   54.0548   21.2112 S   0  0  0  0  0  0
    4.1171   53.0992   19.8989 C   0  0  0  0  0  0
    3.9687   54.4864   26.6869 N   0  0  0  0  0  0
    1.5303   53.4388   27.9348 C   0  0  0  0  0  0
    1.4470   54.7294   28.4769 C   0  0  0  0  0  0
    1.1042   54.9251   29.8102 C   0  0  0  0  0  0
    0.8187   53.8244   30.6091 C   0  0  0  0  0  0
    0.9227   52.5350   30.1011 C   0  0  0  0  0  0
    1.2983   52.3419   28.7742 C   0  0  0  0  0  0
    0.3011   54.0824   32.4197 Br  0  0  0  0  0  0
    0.6962   50.0307   26.7276 H   0  0  0  0  0  0
   -1.0293   49.8314   26.4799 H   0  0  0  0  0  0
    0.0536   49.9114   25.0993 H   0  0  0  0  0  0
   -0.5852   52.1939   27.0360 H   0  0  0  0  0  0
   -1.6778   53.2966   25.0928 H   0  0  0  0  0  0
   -1.4440   51.8318   24.1495 H   0  0  0  0  0  0
   -2.4608   51.8014   25.5819 H   0  0  0  0  0  0
    4.6843   53.1753   18.9709 H   0  0  0  0  0  0
    4.0538   52.0425   20.1616 H   0  0  0  0  0  0
    3.1141   53.4840   19.7108 H   0  0  0  0  0  0
    3.9156   54.3887   27.6886 H   0  0  0  0  0  0
    4.8456   54.7094   26.2375 H   0  0  0  0  0  0
    1.6313   55.5919   27.8557 H   0  0  0  0  0  0
    1.0343   55.9250   30.2149 H   0  0  0  0  0  0
    0.6941   51.6968   30.7377 H   0  0  0  0  0  0
    1.3773   51.3350   28.3945 H   0  0  0  0  0  0
  1  2  1  0  0  0
  1 23  1  0  0  0
  1 24  1  0  0  0
  1 25  1  0  0  0
  2  3  1  0  0  0
  2  4  1  0  0  0
  2 26  1  0  0  0
  3 27  1  0  0  0
  3 28  1  0  0  0
  3 29  1  0  0  0
  4  9  2  0  0  0
  4  5  1  0  0  0
  5  6  2  0  0  0
  5 16  1  0  0  0
  6  7  1  0  0  0
  6 15  1  0  0  0
  7 12  1  0  0  0
  7  8  1  0  0  0
  8  9  1  0  0  0
  8 10  2  0  0  0
 10 11  1  0  0  0
 11 12  2  0  0  0
 11 13  1  0  0  0
 13 14  1  0  0  0
 14 30  1  0  0  0
 14 31  1  0  0  0
 14 32  1  0  0  0
 15 33  1  0  0  0
 15 34  1  0  0  0
 16 21  2  0  0  0
 16 17  1  0  0  0
 17 18  2  0  0  0
 17 35  1  0  0  0
 18 19  1  0  0  0
 18 36  1  0  0  0
 19 20  2  0  0  0
 19 22  1  0  0  0
 20 21  1  0  0  0
 20 37  1  0  0  0
 21 38  1  0  0  0
M  END
> <i_i_glide_confnum>
4

> <i_i_glide_lignum>
5839

> <i_i_glide_posenum>
394

> <i_i_glide_rotatable_bonds>
3

> <i_m_Source_File_Index>
3610

> <b_m_subgroup_collapsed>
0

> <r_i_docking_score>
-5.08493

> <r_i_glide_ecoul>
-0.676724

> <r_i_glide_eff_state_penalty>
0

> <r_i_glide_einternal>
0.845526

> <r_i_glide_emodel>
-47.69

> <r_i_glide_energy>
-36.5354

> <r_i_glide_erotb>
0.135409

> <r_i_glide_esite>
0

> <r_i_glide_evdw>
-35.8587

> <r_i_glide_gscore>
-5.08493

> <r_i_glide_hbond>
0

> <r_i_glide_ligand_efficiency>
-0.231133

> <r_i_glide_ligand_efficiency_ln>
-1.24294

> <r_i_glide_ligand_efficiency_sa>
-0.647645

> <r_i_glide_lipo>
-1.68188

> <r_i_glide_metal>
0

> <r_i_glide_rewards>
-1.64402

> <s_i_glide_gridfile>
wee1_glide-grid

> <s_m_Source_File>
wee1_decoys_glide_SP.sdf

> <s_m_Source_Path>
/Users/zhangxujun/Desktop

> <s_m_entry_id>
3885

> <s_m_entry_name>
wee1_decoys_glide_SP.3610

> <s_m_subgroup_title>
wee1_decoys_glide_SP

> <s_m_subgroupid>
wee1_decoys_glide_SP


$$$$
