ZINC08566412_2066
                    3D
 Schrodinger Suite 2024-2.
 56 60  0  0  1  0            999 V2000
    0.3044   47.8604   24.7848 C   0  0  0  0  0  0
    0.5530   48.7486   23.7115 O   0  0  0  0  0  0
    0.1925   50.0666   23.8590 C   0  0  0  0  0  0
   -0.3921   50.5751   25.0280 C   0  0  0  0  0  0
   -0.8048   51.9004   25.0987 C   0  0  0  0  0  0
   -0.6527   52.7227   23.9788 C   0  0  0  0  0  0
   -0.0322   52.2354   22.8302 C   0  0  0  0  0  0
    0.4178   50.9107   22.7658 C   0  0  0  0  0  0
    1.1059   50.3779   21.6868 O   0  0  0  0  0  0
    1.3724   51.1511   20.5127 C   0  0  0  0  0  0
    2.6080   52.0512   20.6245 C   0  0  0  0  0  0
    3.2071   52.4977   19.4423 C   0  0  0  0  0  0
    4.3165   53.3374   19.4891 C   0  0  0  0  0  0
    4.8288   53.7376   20.7195 C   0  0  0  0  0  0
    4.2485   53.2936   21.9038 C   0  0  0  0  0  0
    3.1426   52.4480   21.8575 C   0  0  0  0  0  0
    5.9029   54.5573   20.7669 F   0  0  0  0  0  0
   -1.4782   52.4073   26.3684 C   0  0  2  0  0  0
   -1.6958   53.4537   26.2128 H   0  0  0  0  0  0
   -0.6820   52.2530   27.6914 C   0  0  0  0  0  0
    0.6374   52.4993   28.2132 C   0  0  0  0  0  0
    0.7004   52.1627   29.4994 N   0  0  0  0  0  0
   -0.4965   51.6969   29.8397 N   0  0  0  0  0  0
   -0.7304   51.3651   30.7680 H   0  0  0  0  0  0
   -1.3302   51.6967   28.7783 C   0  0  0  0  0  0
   -2.6159   51.2396   28.8826 O   0  0  0  0  0  0
   -3.3166   51.2879   27.7218 C   0  0  0  0  0  0
   -2.8838   51.7965   26.5439 C   0  0  0  0  0  0
   -3.7628   51.8153   25.4173 C   0  0  0  0  0  0
   -4.4726   51.8643   24.5049 N   0  0  0  0  0  0
   -4.5387   50.7285   27.9713 N   0  0  0  0  0  0
    1.8943   53.0728   27.5805 C   0  0  0  0  0  0
    1.9057   53.5686   26.2724 C   0  0  0  0  0  0
    3.0659   54.0927   25.7041 C   0  0  0  0  0  0
    4.2376   54.1453   26.4506 C   0  0  0  0  0  0
    4.2566   53.6726   27.7583 C   0  0  0  0  0  0
    3.0961   53.1365   28.3130 C   0  0  0  0  0  0
    0.6781   46.8918   24.4849 H   0  0  0  0  0  0
    0.8472   48.1600   25.6823 H   0  0  0  0  0  0
   -0.7594   47.7628   25.0084 H   0  0  0  0  0  0
   -0.5593   49.9476   25.8921 H   0  0  0  0  0  0
   -0.9905   53.7478   24.0040 H   0  0  0  0  0  0
    0.1132   52.8968   21.9940 H   0  0  0  0  0  0
    1.5539   50.4271   19.7172 H   0  0  0  0  0  0
    0.5024   51.7262   20.1913 H   0  0  0  0  0  0
    2.8205   52.1904   18.4809 H   0  0  0  0  0  0
    4.7794   53.6736   18.5734 H   0  0  0  0  0  0
    4.6588   53.6018   22.8534 H   0  0  0  0  0  0
    2.7152   52.1106   22.7883 H   0  0  0  0  0  0
   -5.2179   50.6482   27.2286 H   0  0  0  0  0  0
   -4.6171   50.0693   28.7321 H   0  0  0  0  0  0
    1.0134   53.5755   25.6817 H   0  0  0  0  0  0
    3.0480   54.4701   24.6918 H   0  0  0  0  0  0
    5.1364   54.5553   26.0141 H   0  0  0  0  0  0
    5.1688   53.7116   28.3365 H   0  0  0  0  0  0
    3.1483   52.7683   29.3268 H   0  0  0  0  0  0
  1  2  1  0  0  0
  1 38  1  0  0  0
  1 39  1  0  0  0
  1 40  1  0  0  0
  2  3  1  0  0  0
  3  8  2  0  0  0
  3  4  1  0  0  0
  4  5  2  0  0  0
  4 41  1  0  0  0
  5  6  1  0  0  0
  5 18  1  0  0  0
  6  7  2  0  0  0
  6 42  1  0  0  0
  7  8  1  0  0  0
  7 43  1  0  0  0
  8  9  1  0  0  0
  9 10  1  0  0  0
 10 11  1  0  0  0
 10 44  1  0  0  0
 10 45  1  0  0  0
 11 16  2  0  0  0
 11 12  1  0  0  0
 12 13  2  0  0  0
 12 46  1  0  0  0
 13 14  1  0  0  0
 13 47  1  0  0  0
 14 15  2  0  0  0
 14 17  1  0  0  0
 15 16  1  0  0  0
 15 48  1  0  0  0
 16 49  1  0  0  0
 18 19  1  0  0  0
 18 28  1  0  0  0
 18 20  1  0  0  0
 20 25  2  0  0  0
 20 21  1  0  0  0
 21 22  2  0  0  0
 21 32  1  0  0  0
 22 23  1  0  0  0
 23 24  1  0  0  0
 23 25  1  0  0  0
 25 26  1  0  0  0
 26 27  1  0  0  0
 27 28  2  0  0  0
 27 31  1  0  0  0
 28 29  1  0  0  0
 29 30  3  0  0  0
 31 50  1  0  0  0
 31 51  1  0  0  0
 32 37  2  0  0  0
 32 33  1  0  0  0
 33 34  2  0  0  0
 33 52  1  0  0  0
 34 35  1  0  0  0
 34 53  1  0  0  0
 35 36  2  0  0  0
 35 54  1  0  0  0
 36 37  1  0  0  0
 36 55  1  0  0  0
 37 56  1  0  0  0
M  END
> <i_i_glide_confnum>
2

> <i_i_glide_lignum>
2067

> <i_i_glide_posenum>
282

> <i_i_glide_rotatable_bonds>
7

> <i_m_Source_File_Index>
2864

> <b_m_subgroup_collapsed>
0

> <r_i_docking_score>
-3.91395

> <r_i_glide_ecoul>
-1.83755

> <r_i_glide_eff_state_penalty>
0

> <r_i_glide_einternal>
2.94431

> <r_i_glide_emodel>
-48.1225

> <r_i_glide_energy>
-38.893

> <r_i_glide_erotb>
0.459972

> <r_i_glide_esite>
-0.0995703

> <r_i_glide_evdw>
-37.0555

> <r_i_glide_gscore>
-3.91395

> <r_i_glide_hbond>
0

> <r_i_glide_ligand_efficiency>
-0.111827

> <r_i_glide_ligand_efficiency_ln>
-0.859198

> <r_i_glide_ligand_efficiency_sa>
-0.365794

> <r_i_glide_lipo>
-1.76641

> <r_i_glide_metal>
0

> <r_i_glide_rewards>
-0.379536

> <s_i_glide_gridfile>
wee1_glide-grid

> <s_m_Source_File>
wee1_decoys_glide_SP.sdf

> <s_m_Source_Path>
/Users/zhangxujun/Desktop

> <s_m_entry_id>
3139

> <s_m_entry_name>
wee1_decoys_glide_SP.2864

> <s_m_subgroup_title>
wee1_decoys_glide_SP

> <s_m_subgroupid>
wee1_decoys_glide_SP


$$$$
