ZINC09309067_6027
                    3D
 Schrodinger Suite 2024-2.
 72 77  0  0  1  0            999 V2000
    4.7747   54.4964   28.9374 C   0  0  0  0  0  0
    5.4344   53.5505   27.9304 C   0  0  0  0  0  0
    6.1436   54.2883   26.9351 O   0  0  0  0  0  0
    5.6181   54.2899   25.6623 C   0  0  0  0  0  0
    4.2591   54.4989   25.4090 C   0  0  0  0  0  0
    3.7871   54.4939   24.1004 C   0  0  0  0  0  0
    4.6557   54.2425   23.0336 C   0  0  0  0  0  0
    6.0168   54.0546   23.2905 C   0  0  0  0  0  0
    6.4924   54.0998   24.5959 C   0  0  0  0  0  0
    4.1062   54.2611   21.6025 C   0  0  2  0  0  0
    3.2078   54.8798   21.6302 H   0  0  0  0  0  0
    3.7476   52.9076   21.0145 C   0  0  0  0  0  0
    4.5889   52.7338   19.9748 C   0  0  0  0  0  0
    5.4656   53.8144   19.8459 N   0  0  0  0  0  0
    5.0018   54.8963   20.6555 N   0  0  0  0  0  0
    6.4644   54.0752   18.8852 C   0  0  0  0  0  0
    6.5638   53.2968   17.7245 C   0  0  0  0  0  0
    7.5849   53.5147   16.8038 C   0  0  0  0  0  0
    8.5208   54.5181   17.0358 C   0  0  0  0  0  0
    8.4426   55.3052   18.1802 C   0  0  0  0  0  0
    7.4173   55.0855   19.0964 C   0  0  0  0  0  0
    2.6995   51.9792   21.4225 C   0  0  0  0  0  0
    1.6938   52.2883   22.2734 C   0  0  0  0  0  0
    0.5287   51.4084   22.7928 C   0  0  1  0  0  0
    0.4706   51.2667   24.3712 C   0  0  0  0  0  0
   -0.9494   51.6786   24.6854 C   0  0  0  0  0  0
   -1.6173   51.6628   25.9172 C   0  0  0  0  0  0
   -2.9055   52.1879   26.0229 C   0  0  0  0  0  0
   -3.5205   52.7536   24.9065 C   0  0  0  0  0  0
   -2.8554   52.7603   23.6809 C   0  0  0  0  0  0
   -1.5966   52.1764   23.5587 C   0  0  0  0  0  0
   -0.7327   52.0963   22.4663 N   0  0  0  0  0  0
   -1.1035   51.9677   21.0596 C   0  0  0  0  0  0
   -1.2923   50.5016   20.6374 C   0  0  0  0  0  0
   -0.1310   49.6057   21.0924 C   0  0  0  0  0  0
    0.0865   48.4941   20.6221 O   0  0  0  0  0  0
    0.6246   50.0933   22.0951 N   0  0  0  0  0  0
    1.4139   52.2361   25.1350 C   0  0  0  0  0  0
    0.7043   49.8141   24.8735 C   0  0  0  0  0  0
    4.2870   53.9366   29.7342 H   0  0  0  0  0  0
    5.5107   55.1546   29.3980 H   0  0  0  0  0  0
    4.0221   55.1239   28.4637 H   0  0  0  0  0  0
    4.6978   52.8614   27.5139 H   0  0  0  0  0  0
    6.1602   52.9232   28.4473 H   0  0  0  0  0  0
    3.5698   54.6821   26.2186 H   0  0  0  0  0  0
    2.7426   54.6944   23.9213 H   0  0  0  0  0  0
    6.7091   53.8861   22.4805 H   0  0  0  0  0  0
    7.5404   53.9574   24.7824 H   0  0  0  0  0  0
    4.6366   51.9016   19.2914 H   0  0  0  0  0  0
    4.4357   55.4276   20.0098 H   0  0  0  0  0  0
    5.8612   52.4991   17.5315 H   0  0  0  0  0  0
    7.6542   52.9000   15.9185 H   0  0  0  0  0  0
    9.3181   54.6827   16.3255 H   0  0  0  0  0  0
    9.1795   56.0743   18.3622 H   0  0  0  0  0  0
    7.3855   55.6891   19.9907 H   0  0  0  0  0  0
    2.7423   50.9836   21.0044 H   0  0  0  0  0  0
    1.6626   53.2981   22.6464 H   0  0  0  0  0  0
   -1.1411   51.2564   26.7986 H   0  0  0  0  0  0
   -3.4155   52.1737   26.9749 H   0  0  0  0  0  0
   -4.5049   53.1901   24.9922 H   0  0  0  0  0  0
   -3.3032   53.2315   22.8274 H   0  0  0  0  0  0
   -2.0329   52.5024   20.8731 H   0  0  0  0  0  0
   -0.3758   52.4680   20.4175 H   0  0  0  0  0  0
   -2.1521   50.0844   21.1611 H   0  0  0  0  0  0
   -1.4077   50.4045   19.5581 H   0  0  0  0  0  0
    1.3834   49.4955   22.3820 H   0  0  0  0  0  0
    2.4576   52.0965   24.8591 H   0  0  0  0  0  0
    1.1590   53.2788   24.9419 H   0  0  0  0  0  0
    1.3488   52.0964   26.2149 H   0  0  0  0  0  0
    1.6567   49.4194   24.5199 H   0  0  0  0  0  0
    0.7061   49.7513   25.9628 H   0  0  0  0  0  0
   -0.0736   49.1331   24.5246 H   0  0  0  0  0  0
  1  2  1  0  0  0
  1 40  1  0  0  0
  1 41  1  0  0  0
  1 42  1  0  0  0
  2  3  1  0  0  0
  2 43  1  0  0  0
  2 44  1  0  0  0
  3  4  1  0  0  0
  4  9  2  0  0  0
  4  5  1  0  0  0
  5  6  2  0  0  0
  5 45  1  0  0  0
  6  7  1  0  0  0
  6 46  1  0  0  0
  7  8  2  0  0  0
  7 10  1  0  0  0
  8  9  1  0  0  0
  8 47  1  0  0  0
  9 48  1  0  0  0
 10 11  1  0  0  0
 10 15  1  0  0  0
 10 12  1  0  0  0
 12 13  2  0  0  0
 12 22  1  0  0  0
 13 14  1  0  0  0
 13 49  1  0  0  0
 14 15  1  0  0  0
 14 16  1  0  0  0
 15 50  1  0  0  0
 16 21  2  0  0  0
 16 17  1  0  0  0
 17 18  2  0  0  0
 17 51  1  0  0  0
 18 19  1  0  0  0
 18 52  1  0  0  0
 19 20  2  0  0  0
 19 53  1  0  0  0
 20 21  1  0  0  0
 20 54  1  0  0  0
 21 55  1  0  0  0
 22 23  2  0  0  0
 22 56  1  0  0  0
 23 24  1  0  0  0
 23 57  1  0  0  0
 24 32  1  0  0  0
 24 37  1  0  0  0
 24 25  1  0  0  0
 25 26  1  0  0  0
 25 38  1  0  0  0
 25 39  1  0  0  0
 26 31  2  0  0  0
 26 27  1  0  0  0
 27 28  2  0  0  0
 27 58  1  0  0  0
 28 29  1  0  0  0
 28 59  1  0  0  0
 29 30  2  0  0  0
 29 60  1  0  0  0
 30 31  1  0  0  0
 30 61  1  0  0  0
 31 32  1  0  0  0
 32 33  1  0  0  0
 33 34  1  0  0  0
 33 62  1  0  0  0
 33 63  1  0  0  0
 34 35  1  0  0  0
 34 64  1  0  0  0
 34 65  1  0  0  0
 35 36  2  0  0  0
 35 37  1  0  0  0
 37 66  1  0  0  0
 38 67  1  0  0  0
 38 68  1  0  0  0
 38 69  1  0  0  0
 39 70  1  0  0  0
 39 71  1  0  0  0
 39 72  1  0  0  0
M  END
> <i_i_glide_confnum>
141

> <i_i_glide_lignum>
6028

> <i_i_glide_posenum>
95

> <i_i_glide_rotatable_bonds>
6

> <i_m_Source_File_Index>
189

> <b_m_subgroup_collapsed>
0

> <r_i_docking_score>
-4.66213

> <r_i_glide_ecoul>
-2.19245

> <r_i_glide_eff_state_penalty>
0

> <r_i_glide_einternal>
3.58184

> <r_i_glide_emodel>
-56.6224

> <r_i_glide_energy>
-46.9111

> <r_i_glide_erotb>
0.398574

> <r_i_glide_esite>
-0.0211495

> <r_i_glide_evdw>
-44.7186

> <r_i_glide_gscore>
-4.66213

> <r_i_glide_hbond>
0

> <r_i_glide_ligand_efficiency>
-0.122688

> <r_i_glide_ligand_efficiency_ln>
-1.00529

> <r_i_glide_ligand_efficiency_sa>
-0.412473

> <r_i_glide_lipo>
-2.90897

> <r_i_glide_metal>
0

> <r_i_glide_rewards>
0.434215

> <s_i_glide_gridfile>
wee1_glide-grid

> <s_m_Source_File>
wee1_decoys_glide_SP.sdf

> <s_m_Source_Path>
/Users/zhangxujun/Desktop

> <s_m_entry_id>
464

> <s_m_entry_name>
wee1_decoys_glide_SP.189

> <s_m_subgroup_title>
wee1_decoys_glide_SP

> <s_m_subgroupid>
wee1_decoys_glide_SP


$$$$
