ZINC35636093_1439
                    3D
 Schrodinger Suite 2024-2.
 53 56  0  0  1  0            999 V2000
    1.5043   56.8002   29.9967 C   0  0  0  0  0  0
    1.9041   55.3910   29.5980 C   0  0  0  0  0  0
    1.3943   54.4247   30.1587 O   0  0  0  0  0  0
    2.8631   55.2966   28.6668 N   0  0  0  0  0  0
    3.5802   54.0679   28.2809 C   0  0  1  0  0  0
    3.4023   53.3369   29.0738 H   0  0  0  0  0  0
    3.0996   53.4172   26.9583 C   0  0  2  0  0  0
    3.5363   52.4253   26.9243 H   0  0  0  0  0  0
    3.6686   54.1682   25.7460 C   0  0  1  0  0  0
    3.2497   55.1742   25.7024 H   0  0  0  0  0  0
    5.1931   54.2183   25.8938 C   0  0  1  0  0  0
    5.5662   53.1936   25.9034 H   0  0  0  0  0  0
    5.7772   54.8907   24.6518 C   0  0  0  0  0  0
    5.3371   54.1719   23.4967 O   0  0  0  0  0  0
    3.9264   54.0921   23.4091 C   0  0  2  0  0  0
    3.4934   55.0883   23.3000 H   0  0  0  0  0  0
    3.3878   53.4524   24.5445 O   0  0  0  0  0  0
    3.5384   53.2869   22.1488 C   0  0  0  0  0  0
    2.3535   52.5397   22.1257 C   0  0  0  0  0  0
    2.0242   51.7784   21.0073 C   0  0  0  0  0  0
    2.8771   51.7671   19.9070 C   0  0  0  0  0  0
    4.0493   52.5178   19.9120 C   0  0  0  0  0  0
    4.3787   53.2790   21.0295 C   0  0  0  0  0  0
    5.5537   54.8966   27.0952 O   0  0  0  0  0  0
    5.1308   54.2006   28.2396 C   0  0  1  0  0  0
    5.6422   53.2347   28.1795 H   0  0  0  0  0  0
    5.5044   54.8969   29.3493 O   0  0  0  0  0  0
    1.6885   53.2218   26.8365 O   0  0  0  0  0  0
    1.0486   52.2323   27.5237 C   0  0  0  0  0  0
    1.5800   51.5689   28.4196 O   0  0  0  0  0  0
   -0.3835   52.0789   27.1237 C   0  0  0  0  0  0
   -1.2832   51.4806   28.0146 C   0  0  0  0  0  0
   -2.6143   51.2965   27.6521 C   0  0  0  0  0  0
   -3.0521   51.7024   26.3946 C   0  0  0  0  0  0
   -2.1662   52.2838   25.4916 C   0  0  0  0  0  0
   -0.8329   52.4644   25.8513 C   0  0  0  0  0  0
    1.5044   57.4598   29.1300 H   0  0  0  0  0  0
    0.5088   56.8031   30.4390 H   0  0  0  0  0  0
    2.1933   57.2098   30.7350 H   0  0  0  0  0  0
    3.2545   56.1530   28.3073 H   0  0  0  0  0  0
    5.5050   55.9430   24.5798 H   0  0  0  0  0  0
    6.8668   54.8597   24.6851 H   0  0  0  0  0  0
    1.6915   52.5363   22.9789 H   0  0  0  0  0  0
    1.1161   51.1947   20.9949 H   0  0  0  0  0  0
    2.6351   51.1695   19.0393 H   0  0  0  0  0  0
    4.7041   52.4968   19.0517 H   0  0  0  0  0  0
    5.2943   53.8518   21.0259 H   0  0  0  0  0  0
    6.4422   55.1254   29.2811 H   0  0  0  0  0  0
   -0.9615   51.1384   28.9899 H   0  0  0  0  0  0
   -3.2948   50.8175   28.3414 H   0  0  0  0  0  0
   -4.0836   51.5499   26.1136 H   0  0  0  0  0  0
   -2.5086   52.5838   24.5124 H   0  0  0  0  0  0
   -0.1554   52.8981   25.1295 H   0  0  0  0  0  0
  1  2  1  0  0  0
  1 37  1  0  0  0
  1 38  1  0  0  0
  1 39  1  0  0  0
  2  3  2  0  0  0
  2  4  1  0  0  0
  4  5  1  0  0  0
  4 40  1  0  0  0
  5  6  1  0  0  0
  5 25  1  0  0  0
  5  7  1  0  0  0
  7  8  1  0  0  0
  7  9  1  0  0  0
  7 28  1  0  0  0
  9 10  1  0  0  0
  9 17  1  0  0  0
  9 11  1  0  0  0
 11 12  1  0  0  0
 11 13  1  0  0  0
 11 24  1  0  0  0
 13 14  1  0  0  0
 13 41  1  0  0  0
 13 42  1  0  0  0
 14 15  1  0  0  0
 15 16  1  0  0  0
 15 17  1  0  0  0
 15 18  1  0  0  0
 18 23  2  0  0  0
 18 19  1  0  0  0
 19 20  2  0  0  0
 19 43  1  0  0  0
 20 21  1  0  0  0
 20 44  1  0  0  0
 21 22  2  0  0  0
 21 45  1  0  0  0
 22 23  1  0  0  0
 22 46  1  0  0  0
 23 47  1  0  0  0
 24 25  1  0  0  0
 25 26  1  0  0  0
 25 27  1  0  0  0
 27 48  1  0  0  0
 28 29  1  0  0  0
 29 30  2  0  0  0
 29 31  1  0  0  0
 31 36  2  0  0  0
 31 32  1  0  0  0
 32 33  2  0  0  0
 32 49  1  0  0  0
 33 34  1  0  0  0
 33 50  1  0  0  0
 34 35  2  0  0  0
 34 51  1  0  0  0
 35 36  1  0  0  0
 35 52  1  0  0  0
 36 53  1  0  0  0
M  END
> <i_i_glide_confnum>
5

> <i_i_glide_lignum>
1440

> <i_i_glide_posenum>
126

> <i_i_glide_rotatable_bonds>
7

> <i_m_Source_File_Index>
2228

> <b_m_subgroup_collapsed>
0

> <r_i_docking_score>
-6.35127

> <r_i_glide_ecoul>
-6.37875

> <r_i_glide_eff_state_penalty>
0

> <r_i_glide_einternal>
3.87483

> <r_i_glide_emodel>
-66.1869

> <r_i_glide_energy>
-49.5775

> <r_i_glide_erotb>
0.577126

> <r_i_glide_esite>
0

> <r_i_glide_evdw>
-43.1987

> <r_i_glide_gscore>
-6.35127

> <r_i_glide_hbond>
-0.0614925

> <r_i_glide_ligand_efficiency>
-0.211709

> <r_i_glide_ligand_efficiency_ln>
-1.44308

> <r_i_glide_ligand_efficiency_sa>
-0.657829

> <r_i_glide_lipo>
-1.80104

> <r_i_glide_metal>
0

> <r_i_glide_rewards>
-1.94911

> <s_i_glide_gridfile>
wee1_glide-grid

> <s_m_Source_File>
wee1_decoys_glide_SP.sdf

> <s_m_Source_Path>
/Users/zhangxujun/Desktop

> <s_m_entry_id>
2503

> <s_m_entry_name>
wee1_decoys_glide_SP.2228

> <s_m_subgroup_title>
wee1_decoys_glide_SP

> <s_m_subgroupid>
wee1_decoys_glide_SP


$$$$
