ZINC12500479_929
                    3D
 Schrodinger Suite 2024-2.
 57 59  0  0  1  0            999 V2000
    4.1290   52.5468   29.0984 C   0  0  0  0  0  0
    3.6318   53.8606   28.4546 C   0  0  0  0  0  0
    2.0780   53.7494   28.4722 C   0  0  0  0  0  0
    3.9602   55.0608   29.3606 C   0  0  0  0  0  0
    4.2254   54.0600   27.0225 C   0  0  0  0  0  0
    3.3568   54.1373   25.9211 C   0  0  0  0  0  0
    3.8190   54.3054   24.6238 C   0  0  0  0  0  0
    5.1911   54.3960   24.3591 C   0  0  0  0  0  0
    6.0733   54.3509   25.4385 C   0  0  0  0  0  0
    5.6154   54.1761   26.7484 C   0  0  0  0  0  0
    6.9837   54.0804   28.0712 Br  0  0  0  0  0  0
    5.7035   54.4967   22.9431 C   0  0  0  0  0  0
    6.7053   55.1612   22.6787 O   0  0  0  0  0  0
    4.9861   53.7520   22.0738 N   0  0  0  0  0  0
    4.9439   53.6433   20.7064 C   0  0  0  0  0  0
    5.8323   54.4990   19.5778 S   0  0  0  0  0  0
    4.0718   52.6976   20.2444 N   0  0  0  0  0  0
    3.0286   52.0822   20.9581 C   0  0  0  0  0  0
    2.1154   52.8556   21.6805 C   0  0  0  0  0  0
    1.0905   52.2417   22.3867 C   0  0  0  0  0  0
    1.0043   50.8500   22.4164 C   0  0  0  0  0  0
    1.9160   50.0719   21.6919 C   0  0  0  0  0  0
    2.9130   50.6928   20.9373 C   0  0  0  0  0  0
   -0.3186   50.0794   23.3500 S   0  0  0  0  0  0
   -1.5707   50.6800   22.8727 O   0  0  0  0  0  0
   -0.1110   48.6278   23.2794 O   0  0  0  0  0  0
   -0.1007   50.5752   25.0377 N   0  0  0  0  0  0
   -0.1734   52.0301   25.3770 C   0  0  0  0  0  0
   -1.0181   52.0521   26.6553 C   0  0  0  0  0  0
   -1.8071   50.7674   26.6355 C   0  0  0  0  0  0
   -0.7968   49.7764   26.0815 C   0  0  0  0  0  0
    3.6980   52.3934   30.0875 H   0  0  0  0  0  0
    5.2054   52.4973   29.2262 H   0  0  0  0  0  0
    3.8327   51.6967   28.4884 H   0  0  0  0  0  0
    1.5948   54.6472   28.0812 H   0  0  0  0  0  0
    1.7350   52.8961   27.8857 H   0  0  0  0  0  0
    1.6891   53.6042   29.4816 H   0  0  0  0  0  0
    3.4793   55.9690   28.9946 H   0  0  0  0  0  0
    3.5860   54.8939   30.3716 H   0  0  0  0  0  0
    5.0232   55.2666   29.4567 H   0  0  0  0  0  0
    2.2883   54.0808   26.0336 H   0  0  0  0  0  0
    3.0902   54.3688   23.8295 H   0  0  0  0  0  0
    7.1397   54.4130   25.2578 H   0  0  0  0  0  0
    4.2555   53.2269   22.5291 H   0  0  0  0  0  0
    4.1280   52.4714   19.2601 H   0  0  0  0  0  0
    2.1832   53.9330   21.6820 H   0  0  0  0  0  0
    0.3699   52.8593   22.8980 H   0  0  0  0  0  0
    1.8416   48.9932   21.6911 H   0  0  0  0  0  0
    3.5994   50.0969   20.3540 H   0  0  0  0  0  0
    0.7894   52.4581   25.6531 H   0  0  0  0  0  0
   -0.7791   52.5956   24.6659 H   0  0  0  0  0  0
   -0.3770   52.0684   27.5374 H   0  0  0  0  0  0
   -1.6639   52.9291   26.7168 H   0  0  0  0  0  0
   -2.6734   50.8417   25.9795 H   0  0  0  0  0  0
   -2.1643   50.4966   27.6318 H   0  0  0  0  0  0
   -1.1503   48.8037   25.7411 H   0  0  0  0  0  0
   -0.0896   49.5346   26.8739 H   0  0  0  0  0  0
  1  2  1  0  0  0
  1 32  1  0  0  0
  1 33  1  0  0  0
  1 34  1  0  0  0
  2  3  1  0  0  0
  2  4  1  0  0  0
  2  5  1  0  0  0
  3 35  1  0  0  0
  3 36  1  0  0  0
  3 37  1  0  0  0
  4 38  1  0  0  0
  4 39  1  0  0  0
  4 40  1  0  0  0
  5 10  2  0  0  0
  5  6  1  0  0  0
  6  7  2  0  0  0
  6 41  1  0  0  0
  7  8  1  0  0  0
  7 42  1  0  0  0
  8  9  2  0  0  0
  8 12  1  0  0  0
  9 10  1  0  0  0
  9 43  1  0  0  0
 10 11  1  0  0  0
 12 13  2  0  0  0
 12 14  1  0  0  0
 14 15  1  0  0  0
 14 44  1  0  0  0
 15 16  2  0  0  0
 15 17  1  0  0  0
 17 18  1  0  0  0
 17 45  1  0  0  0
 18 23  2  0  0  0
 18 19  1  0  0  0
 19 20  2  0  0  0
 19 46  1  0  0  0
 20 21  1  0  0  0
 20 47  1  0  0  0
 21 22  2  0  0  0
 21 24  1  0  0  0
 22 23  1  0  0  0
 22 48  1  0  0  0
 23 49  1  0  0  0
 24 25  2  0  0  0
 24 26  2  0  0  0
 24 27  1  0  0  0
 27 31  1  0  0  0
 27 28  1  0  0  0
 28 29  1  0  0  0
 28 50  1  0  0  0
 28 51  1  0  0  0
 29 30  1  0  0  0
 29 52  1  0  0  0
 29 53  1  0  0  0
 30 31  1  0  0  0
 30 54  1  0  0  0
 30 55  1  0  0  0
 31 56  1  0  0  0
 31 57  1  0  0  0
M  END
> <i_i_glide_confnum>
247

> <i_i_glide_lignum>
930

> <i_i_glide_posenum>
119

> <i_i_glide_rotatable_bonds>
8

> <i_m_Source_File_Index>
4376

> <b_m_subgroup_collapsed>
0

> <r_i_docking_score>
-2.79959

> <r_i_glide_ecoul>
-0.462074

> <r_i_glide_eff_state_penalty>
0

> <r_i_glide_einternal>
12.912

> <r_i_glide_emodel>
-41.6791

> <r_i_glide_energy>
-46.2462

> <r_i_glide_erotb>
0.523591

> <r_i_glide_esite>
-0.0307277

> <r_i_glide_evdw>
-45.7842

> <r_i_glide_gscore>
-2.79959

> <r_i_glide_hbond>
0

> <r_i_glide_ligand_efficiency>
-0.0903093

> <r_i_glide_ligand_efficiency_ln>
-0.631393

> <r_i_glide_ligand_efficiency_sa>
-0.283696

> <r_i_glide_lipo>
-2.88596

> <r_i_glide_metal>
0

> <r_i_glide_rewards>
1.95203

> <s_i_glide_gridfile>
wee1_glide-grid

> <s_m_Source_File>
wee1_decoys_glide_SP.sdf

> <s_m_Source_Path>
/Users/zhangxujun/Desktop

> <s_m_entry_id>
4651

> <s_m_entry_name>
wee1_decoys_glide_SP.4376

> <s_m_subgroup_title>
wee1_decoys_glide_SP

> <s_m_subgroupid>
wee1_decoys_glide_SP


$$$$
