ZINC64428262_1312
                    3D
 Schrodinger Suite 2024-2.
 55 59  0  0  1  0            999 V2000
    6.5617   53.1145   15.6076 C   0  0  0  0  0  0
    6.1488   54.0085   14.6204 C   0  0  0  0  0  0
    5.3265   55.0839   14.9557 C   0  0  0  0  0  0
    4.9151   55.2676   16.2758 C   0  0  0  0  0  0
    5.3260   54.3746   17.2762 C   0  0  0  0  0  0
    6.1548   53.2971   16.9288 C   0  0  0  0  0  0
    4.8725   54.5813   18.7271 C   0  0  1  0  0  0
    4.1073   55.3576   18.7145 H   0  0  0  0  0  0
    4.2409   53.3254   19.3764 C   0  0  0  0  0  0
    3.8149   53.6051   20.7105 O   0  0  0  0  0  0
    4.8066   54.1009   21.5283 C   0  0  0  0  0  0
    4.6696   53.8261   22.8855 C   0  0  0  0  0  0
    5.6173   54.2741   23.8074 C   0  0  0  0  0  0
    6.7078   55.0142   23.3303 C   0  0  0  0  0  0
    6.8395   55.3064   21.9739 C   0  0  0  0  0  0
    5.8840   54.8636   21.0516 C   0  0  0  0  0  0
    6.0166   55.1529   19.5945 C   0  0  0  0  0  0
    6.9722   55.7983   19.1581 O   0  0  0  0  0  0
    5.4153   53.8885   25.1202 O   0  0  0  0  0  0
    5.9818   54.4511   26.2207 C   0  0  0  0  0  0
    6.7043   55.4528   26.2379 O   0  0  0  0  0  0
    5.5855   53.6734   27.4783 C   0  0  2  0  0  0
    5.4138   52.6296   27.2090 H   0  0  0  0  0  0
    4.2840   54.2194   28.1389 C   0  0  0  0  0  0
    2.9955   53.5841   27.6114 C   0  0  0  0  0  0
    1.9674   53.0123   28.2743 C   0  0  0  0  0  0
    1.7326   52.8198   29.7150 C   0  0  0  0  0  0
    0.6069   52.2251   30.1606 C   0  0  0  0  0  0
   -0.3507   51.7414   29.1766 C   0  0  0  0  0  0
   -0.1569   51.9173   27.8437 C   0  0  0  0  0  0
    0.9908   52.5701   27.3737 C   0  0  0  0  0  0
    1.3339   52.8608   26.1446 N   0  3  0  0  0  0
    2.6443   53.5255   26.1364 C   0  0  0  0  0  0
    6.7108   53.6967   28.4327 N   0  0  0  0  0  0
    4.1158   56.3169   16.5778 F   0  0  0  0  0  0
    7.1942   52.2771   15.3515 H   0  0  0  0  0  0
    6.4639   53.8669   13.5970 H   0  0  0  0  0  0
    5.0049   55.7785   14.1942 H   0  0  0  0  0  0
    6.4820   52.5886   17.6767 H   0  0  0  0  0  0
    4.9521   52.4963   19.3920 H   0  0  0  0  0  0
    3.3781   52.9921   18.7978 H   0  0  0  0  0  0
    3.8224   53.2455   23.2153 H   0  0  0  0  0  0
    7.4975   55.3509   23.9850 H   0  0  0  0  0  0
    7.7066   55.8666   21.6494 H   0  0  0  0  0  0
    4.2098   55.2973   28.0337 H   0  0  0  0  0  0
    4.3126   54.0382   29.2135 H   0  0  0  0  0  0
    2.4419   53.1607   30.4531 H   0  0  0  0  0  0
    0.4142   52.0954   31.2185 H   0  0  0  0  0  0
   -1.2282   51.2056   29.5179 H   0  0  0  0  0  0
   -0.8961   51.5210   27.1613 H   0  0  0  0  0  0
    3.3054   52.8966   25.5516 H   0  0  0  0  0  0
    2.5539   54.4961   25.6495 H   0  0  0  0  0  0
    6.9469   54.6402   28.7348 H   0  0  0  0  0  0
    6.5181   53.1712   29.2725 H   0  0  0  0  0  0
    0.7935   52.6405   25.3117 H   0  0  0  0  0  0
  1  6  2  0  0  0
  1  2  1  0  0  0
  1 36  1  0  0  0
  2  3  2  0  0  0
  2 37  1  0  0  0
  3  4  1  0  0  0
  3 38  1  0  0  0
  4  5  2  0  0  0
  4 35  1  0  0  0
  5  6  1  0  0  0
  5  7  1  0  0  0
  6 39  1  0  0  0
  7  8  1  0  0  0
  7 17  1  0  0  0
  7  9  1  0  0  0
  9 10  1  0  0  0
  9 40  1  0  0  0
  9 41  1  0  0  0
 10 11  1  0  0  0
 11 16  2  0  0  0
 11 12  1  0  0  0
 12 13  2  0  0  0
 12 42  1  0  0  0
 13 14  1  0  0  0
 13 19  1  0  0  0
 14 15  2  0  0  0
 14 43  1  0  0  0
 15 16  1  0  0  0
 15 44  1  0  0  0
 16 17  1  0  0  0
 17 18  2  0  0  0
 19 20  1  0  0  0
 20 21  2  0  0  0
 20 22  1  0  0  0
 22 23  1  0  0  0
 22 24  1  0  0  0
 22 34  1  0  0  0
 24 25  1  0  0  0
 24 45  1  0  0  0
 24 46  1  0  0  0
 25 33  1  0  0  0
 25 26  2  0  0  0
 26 31  1  0  0  0
 26 27  1  0  0  0
 27 28  2  0  0  0
 27 47  1  0  0  0
 28 29  1  0  0  0
 28 48  1  0  0  0
 29 30  2  0  0  0
 29 49  1  0  0  0
 30 31  1  0  0  0
 30 50  1  0  0  0
 31 32  2  0  0  0
 32 33  1  0  0  0
 32 55  1  0  0  0
 33 51  1  0  0  0
 33 52  1  0  0  0
 34 53  1  0  0  0
 34 54  1  0  0  0
M  CHG  1  32   1
M  END
> <i_i_glide_confnum>
11

> <i_i_glide_lignum>
1313

> <i_i_glide_posenum>
89

> <i_i_glide_rotatable_bonds>
6

> <i_m_Source_File_Index>
1812

> <b_m_subgroup_collapsed>
0

> <r_i_docking_score>
-6.83377

> <r_i_glide_ecoul>
-3.78943

> <r_i_glide_eff_state_penalty>
0

> <r_i_glide_einternal>
5.38904

> <r_i_glide_emodel>
-63.3972

> <r_i_glide_energy>
-46.5957

> <r_i_glide_erotb>
0.504151

> <r_i_glide_esite>
0

> <r_i_glide_evdw>
-42.8062

> <r_i_glide_gscore>
-6.83377

> <r_i_glide_hbond>
-0.608

> <r_i_glide_ligand_efficiency>
-0.207084

> <r_i_glide_ligand_efficiency_ln>
-1.51979

> <r_i_glide_ligand_efficiency_sa>
-0.664229

> <r_i_glide_lipo>
-2.56374

> <r_i_glide_metal>
0

> <r_i_glide_rewards>
-1.45745

> <s_i_glide_gridfile>
wee1_glide-grid

> <s_m_Source_File>
wee1_decoys_glide_SP.sdf

> <s_m_Source_Path>
/Users/zhangxujun/Desktop

> <s_m_entry_id>
2087

> <s_m_entry_name>
wee1_decoys_glide_SP.1812

> <s_m_subgroup_title>
wee1_decoys_glide_SP

> <s_m_subgroupid>
wee1_decoys_glide_SP


$$$$
