ZINC28791841_3383
                    3D
 Schrodinger Suite 2024-2.
 55 59  0  0  1  0            999 V2000
   -0.0358   52.0974   29.9504 C   0  0  0  0  0  0
    1.0571   52.4976   30.7148 C   0  0  0  0  0  0
    2.2077   52.9625   30.0817 C   0  0  0  0  0  0
    2.2591   53.0555   28.6871 C   0  0  0  0  0  0
    1.1549   52.6489   27.9293 C   0  0  0  0  0  0
    0.0094   52.1661   28.5597 C   0  0  0  0  0  0
    3.4792   53.5851   28.0074 C   0  0  0  0  0  0
    3.8389   53.7870   26.6898 C   0  0  0  0  0  0
    5.1323   54.3302   26.7184 C   0  0  0  0  0  0
    5.5295   54.4956   27.9642 N   0  0  0  0  0  0
    4.5096   54.0104   28.7846 O   0  0  0  0  0  0
    5.8971   54.7703   25.5744 C   0  0  0  0  0  0
    6.7043   55.6976   25.6680 O   0  0  0  0  0  0
    5.6345   54.0878   24.4399 N   0  0  0  0  0  0
    6.3305   54.4308   23.2821 N   0  0  0  0  0  0
    5.6096   54.6216   22.1534 C   0  0  0  0  0  0
    4.3841   54.4783   22.0825 O   0  0  0  0  0  0
    6.3856   55.0509   20.9296 C   0  0  0  0  0  0
    7.6439   55.6701   21.0355 C   0  0  0  0  0  0
    8.3547   56.0346   19.8926 C   0  0  0  0  0  0
    7.8135   55.8109   18.6310 C   0  0  0  0  0  0
    6.5604   55.2087   18.5054 C   0  0  0  0  0  0
    5.8454   54.8399   19.6499 C   0  0  0  0  0  0
    5.8568   54.9784   16.8775 S   0  0  0  0  0  0
    6.9743   54.7173   15.9617 O   0  0  0  0  0  0
    4.7258   54.0508   16.9919 O   0  0  0  0  0  0
    5.1784   56.5698   16.4532 N   0  0  0  0  0  0
    4.0896   57.0845   17.2798 C   0  0  0  0  0  0
    3.5156   58.2786   16.5229 C   0  0  0  0  0  0
    3.9344   57.9820   15.1170 C   0  0  0  0  0  0
    4.9268   57.0018   15.1404 C   0  0  0  0  0  0
    5.5619   56.6389   13.9473 C   0  0  0  0  0  0
    5.1891   57.2437   12.7460 C   0  0  0  0  0  0
    4.1983   58.2288   12.7342 C   0  0  0  0  0  0
    3.5790   58.6123   13.9253 C   0  0  0  0  0  0
   -0.9192   51.7150   30.4436 H   0  0  0  0  0  0
    1.0063   52.4340   31.7930 H   0  0  0  0  0  0
    3.0585   53.2559   30.6766 H   0  0  0  0  0  0
    1.1772   52.7034   26.8494 H   0  0  0  0  0  0
   -0.8412   51.8421   27.9754 H   0  0  0  0  0  0
    3.2342   53.5719   25.8194 H   0  0  0  0  0  0
    5.3855   53.1087   24.4709 H   0  0  0  0  0  0
    7.2610   54.0377   23.2530 H   0  0  0  0  0  0
    8.0955   55.8662   21.9980 H   0  0  0  0  0  0
    9.3285   56.4952   19.9843 H   0  0  0  0  0  0
    8.3685   56.1058   17.7509 H   0  0  0  0  0  0
    4.8716   54.3783   19.5379 H   0  0  0  0  0  0
    3.3245   56.3104   17.3614 H   0  0  0  0  0  0
    4.4041   57.2965   18.3012 H   0  0  0  0  0  0
    2.4311   58.3297   16.6313 H   0  0  0  0  0  0
    3.9356   59.2201   16.8862 H   0  0  0  0  0  0
    6.3463   55.8965   13.9299 H   0  0  0  0  0  0
    5.6778   56.9588   11.8264 H   0  0  0  0  0  0
    3.9266   58.7095   11.8045 H   0  0  0  0  0  0
    2.8398   59.4004   13.9127 H   0  0  0  0  0  0
  1  6  2  0  0  0
  1  2  1  0  0  0
  1 36  1  0  0  0
  2  3  2  0  0  0
  2 37  1  0  0  0
  3  4  1  0  0  0
  3 38  1  0  0  0
  4  5  2  0  0  0
  4  7  1  0  0  0
  5  6  1  0  0  0
  5 39  1  0  0  0
  6 40  1  0  0  0
  7 11  1  0  0  0
  7  8  2  0  0  0
  8  9  1  0  0  0
  8 41  1  0  0  0
  9 10  2  0  0  0
  9 12  1  0  0  0
 10 11  1  0  0  0
 12 13  2  0  0  0
 12 14  1  0  0  0
 14 15  1  0  0  0
 14 42  1  0  0  0
 15 16  1  0  0  0
 15 43  1  0  0  0
 16 17  2  0  0  0
 16 18  1  0  0  0
 18 23  2  0  0  0
 18 19  1  0  0  0
 19 20  2  0  0  0
 19 44  1  0  0  0
 20 21  1  0  0  0
 20 45  1  0  0  0
 21 22  2  0  0  0
 21 46  1  0  0  0
 22 23  1  0  0  0
 22 24  1  0  0  0
 23 47  1  0  0  0
 24 25  2  0  0  0
 24 26  2  0  0  0
 24 27  1  0  0  0
 27 31  1  0  0  0
 27 28  1  0  0  0
 28 29  1  0  0  0
 28 48  1  0  0  0
 28 49  1  0  0  0
 29 30  1  0  0  0
 29 50  1  0  0  0
 29 51  1  0  0  0
 30 35  2  0  0  0
 30 31  1  0  0  0
 31 32  2  0  0  0
 32 33  1  0  0  0
 32 52  1  0  0  0
 33 34  2  0  0  0
 33 53  1  0  0  0
 34 35  1  0  0  0
 34 54  1  0  0  0
 35 55  1  0  0  0
M  END
> <i_i_glide_confnum>
261

> <i_i_glide_lignum>
3384

> <i_i_glide_posenum>
253

> <i_i_glide_rotatable_bonds>
8

> <i_m_Source_File_Index>
1129

> <b_m_subgroup_collapsed>
0

> <r_i_docking_score>
-4.15623

> <r_i_glide_ecoul>
-3.27526

> <r_i_glide_eff_state_penalty>
0

> <r_i_glide_einternal>
11.709

> <r_i_glide_emodel>
-54.8961

> <r_i_glide_energy>
-50.1058

> <r_i_glide_erotb>
0.68174

> <r_i_glide_esite>
-0.0145785

> <r_i_glide_evdw>
-46.8305

> <r_i_glide_gscore>
-4.15623

> <r_i_glide_hbond>
-0.32

> <r_i_glide_ligand_efficiency>
-0.11875

> <r_i_glide_ligand_efficiency_ln>
-0.912386

> <r_i_glide_ligand_efficiency_sa>
-0.388438

> <r_i_glide_lipo>
-1.92722

> <r_i_glide_metal>
0

> <r_i_glide_rewards>
0.256641

> <s_i_glide_gridfile>
wee1_glide-grid

> <s_m_Source_File>
wee1_decoys_glide_SP.sdf

> <s_m_Source_Path>
/Users/zhangxujun/Desktop

> <s_m_entry_id>
1404

> <s_m_entry_name>
wee1_decoys_glide_SP.1129

> <s_m_subgroup_title>
wee1_decoys_glide_SP

> <s_m_subgroupid>
wee1_decoys_glide_SP


$$$$
