ZINC35684919_2022
                    3D
 Schrodinger Suite 2024-2.
 50 53  0  0  1  0            999 V2000
    5.8889   53.5509   28.3314 C   0  0  0  0  0  0
    4.4538   53.6990   27.8792 C   0  0  0  0  0  0
    3.9704   54.1207   26.6197 C   0  0  0  0  0  0
    2.6544   54.0659   26.5556 N   0  0  0  0  0  0
    2.2447   53.5963   27.7384 N   0  0  0  0  0  0
    3.3058   53.3729   28.6008 C   0  0  0  0  0  0
    3.1384   52.8732   29.8677 N   0  0  0  0  0  0
    1.9574   52.6860   30.3047 C   0  0  0  0  0  0
    0.6519   53.0209   29.5662 C   0  0  0  0  0  0
    0.8749   53.0877   28.0034 C   0  0  2  0  0  0
    0.1289   53.6968   27.5135 H   0  0  0  0  0  0
    0.7035   51.7037   27.3426 C   0  0  0  0  0  0
    1.4748   50.8130   27.6817 O   0  0  0  0  0  0
   -0.2371   51.5755   26.3776 N   0  0  0  0  0  0
   -0.3117   50.5054   25.4714 C   0  0  0  0  0  0
   -1.2434   49.4796   25.6816 C   0  0  0  0  0  0
   -1.3381   48.3916   24.7982 C   0  0  0  0  0  0
   -0.4930   48.3708   23.6841 C   0  0  0  0  0  0
    0.3979   49.4130   23.4395 C   0  0  0  0  0  0
    0.4837   50.5072   24.3129 C   0  0  0  0  0  0
    1.2951   51.5995   24.0587 O   0  0  0  0  0  0
    1.5928   51.9018   22.6968 C   0  0  0  0  0  0
   -2.3246   47.2817   25.0183 C   0  0  0  0  0  0
   -2.0954   46.1681   24.4825 O   0  0  0  0  0  0
   -3.3558   47.5368   25.6791 O   0  5  0  0  0  0
    1.8038   52.0969   31.5302 O   0  0  0  0  0  0
    4.7739   54.4700   25.4030 C   0  0  0  0  0  0
    5.9332   55.2490   25.4743 C   0  0  0  0  0  0
    6.7018   55.4671   24.3332 C   0  0  0  0  0  0
    6.3043   54.9185   23.1143 C   0  0  0  0  0  0
    5.1515   54.1433   23.0290 C   0  0  0  0  0  0
    4.3833   53.9387   24.1698 C   0  0  0  0  0  0
    7.1887   55.2972   21.6821 Cl  0  0  0  0  0  0
    6.1067   52.4967   28.4820 H   0  0  0  0  0  0
    6.6342   53.9135   27.6295 H   0  0  0  0  0  0
    6.0615   54.0596   29.2788 H   0  0  0  0  0  0
   -0.1230   52.2960   29.8255 H   0  0  0  0  0  0
    0.3042   53.9900   29.9248 H   0  0  0  0  0  0
   -0.8951   52.3243   26.2335 H   0  0  0  0  0  0
   -1.8944   49.5181   26.5422 H   0  0  0  0  0  0
   -0.5409   47.5496   22.9847 H   0  0  0  0  0  0
    1.0159   49.3633   22.5567 H   0  0  0  0  0  0
    1.9233   52.9358   22.6113 H   0  0  0  0  0  0
    2.3929   51.2619   22.3220 H   0  0  0  0  0  0
    0.7203   51.7966   22.0487 H   0  0  0  0  0  0
    0.8763   52.0869   31.7813 H   0  0  0  0  0  0
    6.2377   55.6911   26.4112 H   0  0  0  0  0  0
    7.5830   56.0890   24.3832 H   0  0  0  0  0  0
    4.8396   53.7262   22.0823 H   0  0  0  0  0  0
    3.5009   53.3205   24.1125 H   0  0  0  0  0  0
  1  2  1  0  0  0
  1 34  1  0  0  0
  1 35  1  0  0  0
  1 36  1  0  0  0
  2  6  2  0  0  0
  2  3  1  0  0  0
  3  4  2  0  0  0
  3 27  1  0  0  0
  4  5  1  0  0  0
  5 10  1  0  0  0
  5  6  1  0  0  0
  6  7  1  0  0  0
  7  8  2  0  0  0
  8  9  1  0  0  0
  8 26  1  0  0  0
  9 10  1  0  0  0
  9 37  1  0  0  0
  9 38  1  0  0  0
 10 11  1  0  0  0
 10 12  1  0  0  0
 12 13  2  0  0  0
 12 14  1  0  0  0
 14 15  1  0  0  0
 14 39  1  0  0  0
 15 20  2  0  0  0
 15 16  1  0  0  0
 16 17  2  0  0  0
 16 40  1  0  0  0
 17 18  1  0  0  0
 17 23  1  0  0  0
 18 19  2  0  0  0
 18 41  1  0  0  0
 19 20  1  0  0  0
 19 42  1  0  0  0
 20 21  1  0  0  0
 21 22  1  0  0  0
 22 43  1  0  0  0
 22 44  1  0  0  0
 22 45  1  0  0  0
 23 24  2  0  0  0
 23 25  1  0  0  0
 26 46  1  0  0  0
 27 32  2  0  0  0
 27 28  1  0  0  0
 28 29  2  0  0  0
 28 47  1  0  0  0
 29 30  1  0  0  0
 29 48  1  0  0  0
 30 31  2  0  0  0
 30 33  1  0  0  0
 31 32  1  0  0  0
 31 49  1  0  0  0
 32 50  1  0  0  0
M  CHG  1  25  -1
M  END
> <i_i_glide_confnum>
2

> <i_i_glide_lignum>
2023

> <i_i_glide_posenum>
124

> <i_i_glide_rotatable_bonds>
7

> <i_m_Source_File_Index>
5546

> <b_m_subgroup_collapsed>
0

> <r_i_docking_score>
-6.55059

> <r_i_glide_ecoul>
-5.62038

> <r_i_glide_eff_state_penalty>
0

> <r_i_glide_einternal>
9.32557

> <r_i_glide_emodel>
-68.3178

> <r_i_glide_energy>
-49.6863

> <r_i_glide_erotb>
0.389864

> <r_i_glide_esite>
-0.0891451

> <r_i_glide_evdw>
-44.0659

> <r_i_glide_gscore>
-6.55059

> <r_i_glide_hbond>
-0.0881852

> <r_i_glide_ligand_efficiency>
-0.204706

> <r_i_glide_ligand_efficiency_ln>
-1.46686

> <r_i_glide_ligand_efficiency_sa>
-0.649901

> <r_i_glide_lipo>
-3.06155

> <r_i_glide_metal>
0

> <r_i_glide_rewards>
-0.655228

> <s_i_glide_gridfile>
wee1_glide-grid

> <s_m_Source_File>
wee1_decoys_glide_SP.sdf

> <s_m_Source_Path>
/Users/zhangxujun/Desktop

> <s_m_entry_id>
5821

> <s_m_entry_name>
wee1_decoys_glide_SP.5546

> <s_m_subgroup_title>
wee1_decoys_glide_SP

> <s_m_subgroupid>
wee1_decoys_glide_SP


$$$$
