ZINC10642449_4175
                    3D
 Schrodinger Suite 2024-2.
 53 57  0  0  1  0            999 V2000
    9.8857   56.1015   17.1449 C   0  0  0  0  0  0
    8.6440   55.8004   17.9482 C   0  0  0  0  0  0
    7.3416   55.5728   17.5202 C   0  0  0  0  0  0
    6.4337   55.3175   18.5511 C   0  0  0  0  0  0
    7.0082   55.3279   19.8183 C   0  0  0  0  0  0
    8.7044   55.6968   19.6821 S   0  0  0  0  0  0
    6.3772   55.0752   21.1530 C   0  0  0  0  0  0
    5.1362   54.4322   21.2206 C   0  0  0  0  0  0
    4.5633   54.0911   22.4601 C   0  0  0  0  0  0
    5.2890   54.4957   23.6097 C   0  0  0  0  0  0
    5.1678   54.4676   25.0418 C   0  0  0  0  0  0
    6.2240   55.0055   25.6189 N   0  0  0  0  0  0
    7.1002   55.4333   24.6147 O   0  0  0  0  0  0
    6.5306   55.1235   23.4181 C   0  0  0  0  0  0
    7.1036   55.4180   22.2530 N   0  0  0  0  0  0
    4.0361   53.9469   25.8983 C   0  0  0  0  0  0
    3.2898   53.2860   22.4834 C   0  0  0  0  0  0
    2.4017   53.5308   23.3019 O   0  0  0  0  0  0
    3.2525   52.2834   21.5744 N   0  0  0  0  0  0
    2.2747   51.3131   21.4646 C   0  0  0  0  0  0
    1.5333   50.8463   22.4388 N   0  0  0  0  0  0
    0.7672   49.8307   22.0704 C   0  0  0  0  0  0
    0.8844   49.5013   20.7135 C   0  0  0  0  0  0
    2.0637   50.5235   19.9416 S   0  0  0  0  0  0
   -0.0924   49.1419   23.0869 C   0  0  0  0  0  0
   -1.2035   48.3797   22.7045 C   0  0  0  0  0  0
   -1.9896   47.7417   23.6656 C   0  0  0  0  0  0
   -1.6654   47.8699   25.0233 C   0  0  0  0  0  0
   -0.5629   48.6317   25.4025 C   0  0  0  0  0  0
    0.2229   49.2556   24.4462 C   0  0  0  0  0  0
   -2.4037   47.3229   26.0817 N   0  0  0  0  0  0
   -3.3471   46.3648   26.0818 C   0  0  0  0  0  0
   -3.6958   45.6969   25.1063 O   0  0  0  0  0  0
   -3.9843   46.0969   27.4378 C   0  0  0  0  0  0
    9.7002   56.0564   16.0703 H   0  0  0  0  0  0
   10.2730   57.0968   17.3646 H   0  0  0  0  0  0
   10.6839   55.3888   17.3639 H   0  0  0  0  0  0
    7.0588   55.5902   16.4777 H   0  0  0  0  0  0
    5.3877   55.1246   18.3683 H   0  0  0  0  0  0
    4.6307   54.1684   20.3019 H   0  0  0  0  0  0
    3.8234   52.8970   25.6883 H   0  0  0  0  0  0
    4.2474   54.0149   26.9668 H   0  0  0  0  0  0
    3.1148   54.5015   25.7198 H   0  0  0  0  0  0
    3.9160   52.3206   20.8157 H   0  0  0  0  0  0
    0.3860   48.7218   20.1588 H   0  0  0  0  0  0
   -1.4700   48.2882   21.6625 H   0  0  0  0  0  0
   -2.8518   47.1792   23.3436 H   0  0  0  0  0  0
   -0.3015   48.7342   26.4487 H   0  0  0  0  0  0
    1.0836   49.8206   24.7734 H   0  0  0  0  0  0
   -2.1249   47.6860   27.0020 H   0  0  0  0  0  0
   -4.3837   47.0187   27.8613 H   0  0  0  0  0  0
   -3.2389   45.6972   28.1259 H   0  0  0  0  0  0
   -4.7947   45.3738   27.3517 H   0  0  0  0  0  0
  1  2  1  0  0  0
  1 35  1  0  0  0
  1 36  1  0  0  0
  1 37  1  0  0  0
  2  6  1  0  0  0
  2  3  2  0  0  0
  3  4  1  0  0  0
  3 38  1  0  0  0
  4  5  2  0  0  0
  4 39  1  0  0  0
  5  6  1  0  0  0
  5  7  1  0  0  0
  7 15  2  0  0  0
  7  8  1  0  0  0
  8  9  2  0  0  0
  8 40  1  0  0  0
  9 10  1  0  0  0
  9 17  1  0  0  0
 10 14  2  0  0  0
 10 11  1  0  0  0
 11 12  2  0  0  0
 11 16  1  0  0  0
 12 13  1  0  0  0
 13 14  1  0  0  0
 14 15  1  0  0  0
 16 41  1  0  0  0
 16 42  1  0  0  0
 16 43  1  0  0  0
 17 18  2  0  0  0
 17 19  1  0  0  0
 19 20  1  0  0  0
 19 44  1  0  0  0
 20 24  1  0  0  0
 20 21  2  0  0  0
 21 22  1  0  0  0
 22 23  2  0  0  0
 22 25  1  0  0  0
 23 24  1  0  0  0
 23 45  1  0  0  0
 25 30  2  0  0  0
 25 26  1  0  0  0
 26 27  2  0  0  0
 26 46  1  0  0  0
 27 28  1  0  0  0
 27 47  1  0  0  0
 28 29  2  0  0  0
 28 31  1  0  0  0
 29 30  1  0  0  0
 29 48  1  0  0  0
 30 49  1  0  0  0
 31 32  1  0  0  0
 31 50  1  0  0  0
 32 33  2  0  0  0
 32 34  1  0  0  0
 34 51  1  0  0  0
 34 52  1  0  0  0
 34 53  1  0  0  0
M  END
> <i_i_glide_confnum>
25

> <i_i_glide_lignum>
4176

> <i_i_glide_posenum>
303

> <i_i_glide_rotatable_bonds>
7

> <i_m_Source_File_Index>
600

> <b_m_subgroup_collapsed>
0

> <r_i_docking_score>
-6.1224

> <r_i_glide_ecoul>
-11.0093

> <r_i_glide_eff_state_penalty>
0

> <r_i_glide_einternal>
6.87315

> <r_i_glide_emodel>
-74.2147

> <r_i_glide_energy>
-55.5439

> <r_i_glide_erotb>
0.50929

> <r_i_glide_esite>
-0.193126

> <r_i_glide_evdw>
-44.5346

> <r_i_glide_gscore>
-6.1224

> <r_i_glide_hbond>
-0.32

> <r_i_glide_ligand_efficiency>
-0.180071

> <r_i_glide_ligand_efficiency_ln>
-1.35261

> <r_i_glide_ligand_efficiency_sa>
-0.583359

> <r_i_glide_lipo>
-1.89017

> <r_i_glide_metal>
0

> <r_i_glide_rewards>
-0.35028

> <s_i_glide_gridfile>
wee1_glide-grid

> <s_m_Source_File>
wee1_decoys_glide_SP.sdf

> <s_m_Source_Path>
/Users/zhangxujun/Desktop

> <s_m_entry_id>
875

> <s_m_entry_name>
wee1_decoys_glide_SP.600

> <s_m_subgroup_title>
wee1_decoys_glide_SP

> <s_m_subgroupid>
wee1_decoys_glide_SP


$$$$
