ZINC08870635_1140
                    3D
 Schrodinger Suite 2024-2.
 55 60  0  0  1  0            999 V2000
   -0.5378   46.8248   16.9198 C   0  0  0  0  0  0
   -1.1930   47.9661   17.3802 C   0  0  0  0  0  0
   -0.4854   48.9283   18.0994 C   0  0  0  0  0  0
    0.8851   48.7519   18.3478 C   0  0  0  0  0  0
    1.5300   47.5922   17.8892 C   0  0  0  0  0  0
    0.8209   46.6330   17.1696 C   0  0  0  0  0  0
    1.6628   49.7481   19.1550 C   0  0  0  0  0  0
    2.6004   49.3961   19.8777 O   0  0  0  0  0  0
    1.4276   51.2659   18.9097 C   0  0  1  0  0  0
    0.3624   51.4851   18.8783 H   0  0  0  0  0  0
    2.0730   52.1329   20.0361 C   0  0  0  0  0  0
    3.1980   52.8656   19.8044 C   0  0  0  0  0  0
    3.9076   53.5980   20.8769 C   0  0  0  0  0  0
    5.0435   54.2848   20.5866 C   0  0  0  0  0  0
    5.5343   54.2921   19.2211 C   0  0  0  0  0  0
    4.8860   53.6449   18.2238 C   0  0  0  0  0  0
    3.7091   52.9352   18.4815 C   0  0  0  0  0  0
    3.0983   52.3590   17.4540 N   0  3  0  0  0  0
    1.9060   51.6252   17.4799 C   0  0  0  0  0  0
    1.3045   51.2939   16.4620 O   0  0  0  0  0  0
    3.4110   53.5798   22.2702 C   0  0  0  0  0  0
    4.0043   54.1631   23.1802 O   0  0  0  0  0  0
    2.1149   52.7977   22.5093 C   0  0  0  0  0  0
    1.4842   52.1218   21.4208 C   0  0  0  0  0  0
    0.2611   51.4695   21.6352 C   0  0  0  0  0  0
   -0.3362   51.4409   22.8824 C   0  0  0  0  0  0
    0.2804   52.0562   23.9552 C   0  0  0  0  0  0
    1.5068   52.7211   23.8039 C   0  0  0  0  0  0
    2.1608   53.2973   24.9267 N   0  0  0  0  0  0
    1.9598   53.1465   26.2586 C   0  0  0  0  0  0
    0.9735   52.6018   26.7543 O   0  0  0  0  0  0
    3.0624   53.6694   27.1602 C   0  0  0  0  0  0
    4.3109   54.0770   26.6528 C   0  0  0  0  0  0
    5.3233   54.4952   27.5086 C   0  0  0  0  0  0
    5.1053   54.5065   28.8815 C   0  0  0  0  0  0
    3.8841   54.1020   29.4093 C   0  0  0  0  0  0
    2.8665   53.6883   28.5528 C   0  0  0  0  0  0
   -1.0875   46.0831   16.3550 H   0  0  0  0  0  0
   -2.2482   48.1024   17.1864 H   0  0  0  0  0  0
   -1.0192   49.7961   18.4592 H   0  0  0  0  0  0
    2.5887   47.4416   18.0670 H   0  0  0  0  0  0
    1.3269   45.7524   16.7991 H   0  0  0  0  0  0
    5.5971   54.8296   21.3434 H   0  0  0  0  0  0
    6.4468   54.8230   18.9911 H   0  0  0  0  0  0
    5.2876   53.6652   17.2210 H   0  0  0  0  0  0
   -0.2682   50.9606   20.8463 H   0  0  0  0  0  0
   -1.2762   50.9292   23.0220 H   0  0  0  0  0  0
   -0.2331   51.9893   24.8971 H   0  0  0  0  0  0
    2.9923   53.8076   24.6708 H   0  0  0  0  0  0
    4.5365   54.0571   25.5984 H   0  0  0  0  0  0
    6.2782   54.8066   27.1096 H   0  0  0  0  0  0
    5.8923   54.8469   29.5397 H   0  0  0  0  0  0
    3.7367   54.1040   30.4794 H   0  0  0  0  0  0
    1.9274   53.3656   28.9821 H   0  0  0  0  0  0
    3.5209   52.4398   16.5356 H   0  0  0  0  0  0
  1  6  2  0  0  0
  1  2  1  0  0  0
  1 38  1  0  0  0
  2  3  2  0  0  0
  2 39  1  0  0  0
  3  4  1  0  0  0
  3 40  1  0  0  0
  4  5  2  0  0  0
  4  7  1  0  0  0
  5  6  1  0  0  0
  5 41  1  0  0  0
  6 42  1  0  0  0
  7  8  2  0  0  0
  7  9  1  0  0  0
  9 10  1  0  0  0
  9 19  1  0  0  0
  9 11  1  0  0  0
 11 24  1  0  0  0
 11 12  2  0  0  0
 12 17  1  0  0  0
 12 13  1  0  0  0
 13 14  2  0  0  0
 13 21  1  0  0  0
 14 15  1  0  0  0
 14 43  1  0  0  0
 15 16  2  0  0  0
 15 44  1  0  0  0
 16 17  1  0  0  0
 16 45  1  0  0  0
 17 18  2  0  0  0
 18 19  1  0  0  0
 18 55  1  0  0  0
 19 20  2  0  0  0
 21 22  2  0  0  0
 21 23  1  0  0  0
 23 28  2  0  0  0
 23 24  1  0  0  0
 24 25  2  0  0  0
 25 26  1  0  0  0
 25 46  1  0  0  0
 26 27  2  0  0  0
 26 47  1  0  0  0
 27 28  1  0  0  0
 27 48  1  0  0  0
 28 29  1  0  0  0
 29 30  1  0  0  0
 29 49  1  0  0  0
 30 31  2  0  0  0
 30 32  1  0  0  0
 32 37  2  0  0  0
 32 33  1  0  0  0
 33 34  2  0  0  0
 33 50  1  0  0  0
 34 35  1  0  0  0
 34 51  1  0  0  0
 35 36  2  0  0  0
 35 52  1  0  0  0
 36 37  1  0  0  0
 36 53  1  0  0  0
 37 54  1  0  0  0
M  CHG  1  18   1
M  END
> <i_i_glide_confnum>
25

> <i_i_glide_lignum>
1141

> <i_i_glide_posenum>
53

> <i_i_glide_rotatable_bonds>
5

> <i_m_Source_File_Index>
4634

> <b_m_subgroup_collapsed>
0

> <r_i_docking_score>
-3.6155

> <r_i_glide_ecoul>
2.56124

> <r_i_glide_eff_state_penalty>
0

> <r_i_glide_einternal>
4.81956

> <r_i_glide_emodel>
-47.3373

> <r_i_glide_energy>
-38.7324

> <r_i_glide_erotb>
0.454639

> <r_i_glide_esite>
-0.179806

> <r_i_glide_evdw>
-41.2937

> <r_i_glide_gscore>
-3.6155

> <r_i_glide_hbond>
0

> <r_i_glide_ligand_efficiency>
-0.100431

> <r_i_glide_ligand_efficiency_ln>
-0.788804

> <r_i_glide_ligand_efficiency_sa>
-0.331614

> <r_i_glide_lipo>
-1.60787

> <r_i_glide_metal>
0

> <r_i_glide_rewards>
-0.601965

> <s_i_glide_gridfile>
wee1_glide-grid

> <s_m_Source_File>
wee1_decoys_glide_SP.sdf

> <s_m_Source_Path>
/Users/zhangxujun/Desktop

> <s_m_entry_id>
4909

> <s_m_entry_name>
wee1_decoys_glide_SP.4634

> <s_m_subgroup_title>
wee1_decoys_glide_SP

> <s_m_subgroupid>
wee1_decoys_glide_SP


$$$$
