ZINC11315352_3251
                    3D
 Schrodinger Suite 2024-2.
 53 56  0  0  1  0            999 V2000
    6.7169   55.8692   24.4706 C   0  0  0  0  0  0
    6.1790   54.4233   24.4334 C   0  0  1  0  0  0
    7.0282   53.7420   24.3424 H   0  0  0  0  0  0
    5.4954   54.1332   25.7765 C   0  0  0  0  0  0
    4.0985   54.1445   25.9161 C   0  0  0  0  0  0
    3.5118   53.8337   27.1378 C   0  0  0  0  0  0
    4.3156   53.5155   28.2284 C   0  0  0  0  0  0
    5.7032   53.5304   28.1081 C   0  0  0  0  0  0
    6.2914   53.8306   26.8848 C   0  0  0  0  0  0
    3.5057   53.0349   29.8828 Br  0  0  0  0  0  0
    5.2984   54.1180   23.2942 N   0  0  0  0  0  0
    5.3957   54.4966   22.0046 C   0  0  0  0  0  0
    6.3046   55.2044   21.5783 O   0  0  0  0  0  0
    4.3103   54.0439   21.0032 C   0  0  0  0  0  0
    3.3928   53.0057   21.5175 N   0  0  0  0  0  0
    2.3399   53.2308   22.3377 C   0  0  0  0  0  0
    2.0000   54.2836   22.8819 O   0  0  0  0  0  0
    1.6265   51.8894   22.4590 C   0  0  1  0  0  0
    2.6192   51.0422   21.8486 N   0  0  0  0  0  0
    3.6328   51.6973   21.2754 C   0  0  0  0  0  0
    4.6888   51.2125   20.8820 O   0  0  0  0  0  0
    1.4790   51.5573   23.9661 C   0  0  0  0  0  0
    0.3036   51.8444   21.6465 C   0  0  0  0  0  0
   -0.9255   51.5379   22.2645 C   0  0  0  0  0  0
   -2.1090   51.4704   21.5303 C   0  0  0  0  0  0
   -2.0855   51.6969   20.1584 C   0  0  0  0  0  0
   -0.8767   52.0078   19.5201 C   0  0  0  0  0  0
    0.3048   52.0720   20.2558 C   0  0  0  0  0  0
   -0.7960   52.2073   18.1571 O   0  0  0  0  0  0
   -2.0510   52.4957   17.5294 C   0  0  0  0  0  0
   -3.1605   51.5586   18.0671 C   0  0  0  0  0  0
   -3.2923   51.6974   19.4861 O   0  0  0  0  0  0
    7.3168   56.0461   25.3604 H   0  0  0  0  0  0
    7.3632   56.0958   23.6247 H   0  0  0  0  0  0
    5.9052   56.5933   24.4844 H   0  0  0  0  0  0
    3.4572   54.3909   25.0835 H   0  0  0  0  0  0
    2.4360   53.8288   27.2378 H   0  0  0  0  0  0
    6.3331   53.2972   28.9506 H   0  0  0  0  0  0
    7.3683   53.8148   26.8022 H   0  0  0  0  0  0
    4.5752   53.4491   23.5054 H   0  0  0  0  0  0
    3.7215   54.8968   20.6860 H   0  0  0  0  0  0
    4.8130   53.6752   20.1073 H   0  0  0  0  0  0
    2.4008   50.0823   21.6248 H   0  0  0  0  0  0
    0.7624   52.2156   24.4589 H   0  0  0  0  0  0
    1.1596   50.5274   24.1273 H   0  0  0  0  0  0
    2.4153   51.6967   24.4973 H   0  0  0  0  0  0
   -0.9891   51.3453   23.3243 H   0  0  0  0  0  0
   -3.0426   51.2466   22.0263 H   0  0  0  0  0  0
    1.2222   52.3000   19.7318 H   0  0  0  0  0  0
   -1.9468   52.3847   16.4491 H   0  0  0  0  0  0
   -2.3262   53.5324   17.7304 H   0  0  0  0  0  0
   -2.9032   50.5248   17.8280 H   0  0  0  0  0  0
   -4.1158   51.7800   17.5917 H   0  0  0  0  0  0
  1  2  1  0  0  0
  1 33  1  0  0  0
  1 34  1  0  0  0
  1 35  1  0  0  0
  2  3  1  0  0  0
  2  4  1  0  0  0
  2 11  1  0  0  0
  4  9  2  0  0  0
  4  5  1  0  0  0
  5  6  2  0  0  0
  5 36  1  0  0  0
  6  7  1  0  0  0
  6 37  1  0  0  0
  7  8  2  0  0  0
  7 10  1  0  0  0
  8  9  1  0  0  0
  8 38  1  0  0  0
  9 39  1  0  0  0
 11 12  1  0  0  0
 11 40  1  0  0  0
 12 13  2  0  0  0
 12 14  1  0  0  0
 14 15  1  0  0  0
 14 41  1  0  0  0
 14 42  1  0  0  0
 15 20  1  0  0  0
 15 16  1  0  0  0
 16 17  2  0  0  0
 16 18  1  0  0  0
 18 19  1  0  0  0
 18 22  1  0  0  0
 18 23  1  0  0  0
 19 20  1  0  0  0
 19 43  1  0  0  0
 20 21  2  0  0  0
 22 44  1  0  0  0
 22 45  1  0  0  0
 22 46  1  0  0  0
 23 28  2  0  0  0
 23 24  1  0  0  0
 24 25  2  0  0  0
 24 47  1  0  0  0
 25 26  1  0  0  0
 25 48  1  0  0  0
 26 32  1  0  0  0
 26 27  2  0  0  0
 27 28  1  0  0  0
 27 29  1  0  0  0
 28 49  1  0  0  0
 29 30  1  0  0  0
 30 31  1  0  0  0
 30 50  1  0  0  0
 30 51  1  0  0  0
 31 32  1  0  0  0
 31 52  1  0  0  0
 31 53  1  0  0  0
M  END
> <i_i_glide_confnum>
31

> <i_i_glide_lignum>
3252

> <i_i_glide_posenum>
11

> <i_i_glide_rotatable_bonds>
6

> <i_m_Source_File_Index>
5833

> <b_m_subgroup_collapsed>
0

> <r_i_docking_score>
-5.789

> <r_i_glide_ecoul>
-4.5197

> <r_i_glide_eff_state_penalty>
0

> <r_i_glide_einternal>
3.80108

> <r_i_glide_emodel>
-62.483

> <r_i_glide_energy>
-48.8601

> <r_i_glide_erotb>
0.426383

> <r_i_glide_esite>
-0.0036303

> <r_i_glide_evdw>
-44.3404

> <r_i_glide_gscore>
-5.789

> <r_i_glide_hbond>
-0.175478

> <r_i_glide_ligand_efficiency>
-0.186742

> <r_i_glide_ligand_efficiency_ln>
-1.3056

> <r_i_glide_ligand_efficiency_sa>
-0.586627

> <r_i_glide_lipo>
-2.59483

> <r_i_glide_metal>
0

> <r_i_glide_rewards>
-0.546469

> <s_i_glide_gridfile>
wee1_glide-grid

> <s_m_Source_File>
wee1_decoys_glide_SP.sdf

> <s_m_Source_Path>
/Users/zhangxujun/Desktop

> <s_m_entry_id>
6108

> <s_m_entry_name>
wee1_decoys_glide_SP.5833

> <s_m_subgroup_title>
wee1_decoys_glide_SP

> <s_m_subgroupid>
wee1_decoys_glide_SP


$$$$
