ZINC16401803_4879
                    3D
 Schrodinger Suite 2024-2.
 52 54  0  0  1  0            999 V2000
    3.9447   54.0164   23.7833 C   0  0  0  0  0  0
    4.1818   54.1872   22.4221 C   0  0  0  0  0  0
    5.4659   54.4966   21.9807 C   0  0  0  0  0  0
    6.5153   54.6215   22.8864 C   0  0  0  0  0  0
    6.2823   54.4333   24.2456 C   0  0  0  0  0  0
    4.9971   54.1230   24.7024 C   0  0  0  0  0  0
    4.7868   53.8822   26.1981 C   0  0  0  0  0  0
    3.4386   53.5120   26.4807 O   0  0  0  0  0  0
    3.0698   53.1668   27.7685 C   0  0  0  0  0  0
    3.9603   53.1128   28.8549 C   0  0  0  0  0  0
    3.5049   52.7731   30.1297 C   0  0  0  0  0  0
    2.1549   52.4975   30.3377 C   0  0  0  0  0  0
    1.2674   52.5308   29.2690 C   0  0  0  0  0  0
    1.7206   52.8493   27.9868 C   0  0  0  0  0  0
    0.7148   52.8960   26.8473 C   0  0  0  0  0  0
    0.3448   50.3318   26.7224 C   0  0  0  0  0  0
   -0.0441   49.1943   25.7552 C   0  0  0  0  0  0
    0.7044   49.1702   24.4961 N   0  0  0  0  0  0
    0.2590   49.7934   23.3177 C   0  0  0  0  0  0
   -0.9755   50.4475   23.2200 C   0  0  0  0  0  0
   -1.3698   51.0319   22.0228 C   0  0  0  0  0  0
   -0.5321   50.9895   20.9020 C   0  0  0  0  0  0
    0.7119   50.3491   21.0063 C   0  0  0  0  0  0
    1.0987   49.7528   22.2060 C   0  0  0  0  0  0
   -0.9657   51.6072   19.6263 N   0  3  0  0  0  0
   -0.1873   51.6061   18.6802 O   0  0  0  0  0  0
   -2.0925   52.0972   19.5690 O   0  5  0  0  0  0
    1.5042   52.0967   32.0778 Br  0  0  0  0  0  0
    5.6944   54.6849   20.6598 F   0  0  0  0  0  0
    2.9444   53.7812   24.1128 H   0  0  0  0  0  0
    3.3735   54.1004   21.7086 H   0  0  0  0  0  0
    7.5059   54.8645   22.5320 H   0  0  0  0  0  0
    7.1069   54.5152   24.9385 H   0  0  0  0  0  0
    5.0463   54.7942   26.7400 H   0  0  0  0  0  0
    5.4688   53.0886   26.5093 H   0  0  0  0  0  0
    5.0080   53.3385   28.7290 H   0  0  0  0  0  0
    4.1998   52.7346   30.9557 H   0  0  0  0  0  0
    0.2257   52.3048   29.4466 H   0  0  0  0  0  0
    0.9682   53.6965   26.1496 H   0  0  0  0  0  0
   -0.3109   53.0200   27.2047 H   0  0  0  0  0  0
   -0.4643   50.5428   27.4248 H   0  0  0  0  0  0
    1.2511   50.0965   27.2818 H   0  0  0  0  0  0
   -1.1167   49.2246   25.5741 H   0  0  0  0  0  0
    0.0770   48.2360   26.2550 H   0  0  0  0  0  0
    1.6148   48.7075   24.4899 H   0  0  0  0  0  0
   -1.6575   50.5012   24.0537 H   0  0  0  0  0  0
   -2.3359   51.5136   21.9742 H   0  0  0  0  0  0
    1.3825   50.3011   20.1611 H   0  0  0  0  0  0
    2.0574   49.2558   22.2645 H   0  0  0  0  0  0
    0.6684   51.6384   25.9694 N   0  3  0  0  0  0
    1.5538   51.5211   25.4996 H   0  0  0  0  0  0
   -0.0267   51.7600   25.2467 H   0  0  0  0  0  0
  1  6  2  0  0  0
  1  2  1  0  0  0
  1 30  1  0  0  0
  2  3  2  0  0  0
  2 31  1  0  0  0
  3  4  1  0  0  0
  3 29  1  0  0  0
  4  5  2  0  0  0
  4 32  1  0  0  0
  5  6  1  0  0  0
  5 33  1  0  0  0
  6  7  1  0  0  0
  7  8  1  0  0  0
  7 34  1  0  0  0
  7 35  1  0  0  0
  8  9  1  0  0  0
  9 14  2  0  0  0
  9 10  1  0  0  0
 10 11  2  0  0  0
 10 36  1  0  0  0
 11 12  1  0  0  0
 11 37  1  0  0  0
 12 13  2  0  0  0
 12 28  1  0  0  0
 13 14  1  0  0  0
 13 38  1  0  0  0
 14 15  1  0  0  0
 15 39  1  0  0  0
 15 40  1  0  0  0
 15 50  1  0  0  0
 16 17  1  0  0  0
 16 41  1  0  0  0
 16 42  1  0  0  0
 16 50  1  0  0  0
 17 18  1  0  0  0
 17 43  1  0  0  0
 17 44  1  0  0  0
 18 19  1  0  0  0
 18 45  1  0  0  0
 19 24  2  0  0  0
 19 20  1  0  0  0
 20 21  2  0  0  0
 20 46  1  0  0  0
 21 22  1  0  0  0
 21 47  1  0  0  0
 22 23  2  0  0  0
 22 25  1  0  0  0
 23 24  1  0  0  0
 23 48  1  0  0  0
 24 49  1  0  0  0
 25 26  2  0  0  0
 25 27  1  0  0  0
 50 51  1  0  0  0
 50 52  1  0  0  0
M  CHG  3  25   1  27  -1  50   1
M  END
> <i_i_glide_confnum>
85

> <i_i_glide_lignum>
4880

> <i_i_glide_posenum>
300

> <i_i_glide_rotatable_bonds>
10

> <i_m_Source_File_Index>
397

> <b_m_subgroup_collapsed>
0

> <r_i_docking_score>
-5.55857

> <r_i_glide_ecoul>
-5.01912

> <r_i_glide_eff_state_penalty>
0

> <r_i_glide_einternal>
3.54818

> <r_i_glide_emodel>
-59.8404

> <r_i_glide_energy>
-43.8197

> <r_i_glide_erotb>
0.806297

> <r_i_glide_esite>
-0.0994166

> <r_i_glide_evdw>
-38.8006

> <r_i_glide_gscore>
-5.55857

> <r_i_glide_hbond>
-0.32

> <r_i_glide_ligand_efficiency>
-0.185286

> <r_i_glide_ligand_efficiency_ln>
-1.26297

> <r_i_glide_ligand_efficiency_sa>
-0.575725

> <r_i_glide_lipo>
-2.84609

> <r_i_glide_metal>
0

> <r_i_glide_rewards>
-0.406463

> <s_i_glide_gridfile>
wee1_glide-grid

> <s_m_Source_File>
wee1_decoys_glide_SP.sdf

> <s_m_Source_Path>
/Users/zhangxujun/Desktop

> <s_m_entry_id>
672

> <s_m_entry_name>
wee1_decoys_glide_SP.397

> <s_m_subgroup_title>
wee1_decoys_glide_SP

> <s_m_subgroupid>
wee1_decoys_glide_SP


$$$$
