ZINC00735874_6116
                    3D
 Schrodinger Suite 2024-2.
 73 77  0  0  1  0            999 V2000
    5.2092   57.1439   17.9531 C   0  0  0  0  0  0
    6.7141   57.0504   18.1743 C   0  0  0  0  0  0
    7.5009   58.1796   17.9204 C   0  0  0  0  0  0
    8.8889   58.1135   18.0369 C   0  0  0  0  0  0
    9.5033   56.9162   18.4000 C   0  0  0  0  0  0
    8.7318   55.7855   18.6645 C   0  0  0  0  0  0
    7.3383   55.8481   18.5728 C   0  0  0  0  0  0
    6.6108   54.6874   18.8710 N   0  0  0  0  0  0
    5.8138   54.5539   19.9470 C   0  0  0  0  0  0
    5.7529   55.3845   20.8542 O   0  0  0  0  0  0
    5.1044   53.4077   19.8870 N   0  0  0  0  0  0
    4.0746   52.9543   20.7357 C   0  0  0  0  0  0
    3.5155   53.6896   21.7890 C   0  0  0  0  0  0
    2.4775   53.1476   22.5378 C   0  0  0  0  0  0
    1.9602   51.8780   22.2608 C   0  0  0  0  0  0
    2.4850   51.1392   21.1713 C   0  0  0  0  0  0
    3.5678   51.6835   20.4642 C   0  0  0  0  0  0
    2.0253   49.7346   20.8208 C   0  0  0  0  0  0
    1.9057   48.8970   21.7105 O   0  0  0  0  0  0
    1.7909   49.4187   19.5211 N   0  0  0  0  0  0
    1.3730   48.0674   19.1230 C   0  0  0  0  0  0
    1.3200   48.1490   17.6012 C   0  0  0  0  0  0
    0.9893   49.6044   17.3279 C   0  0  0  0  0  0
    1.7812   50.3591   18.3904 C   0  0  0  0  0  0
    0.9168   51.4734   23.0800 N   0  0  0  0  0  0
   -0.4913   51.7159   22.7634 C   0  0  0  0  0  0
   -1.2413   52.1737   24.0410 C   0  0  0  0  0  0
   -1.0250   51.2533   25.2746 C   0  0  0  0  0  0
    0.4610   50.8335   25.3893 C   0  0  0  0  0  0
    1.0396   50.3754   24.0385 C   0  0  0  0  0  0
   -1.5821   51.8237   26.6015 C   0  0  0  0  0  0
   -3.1050   51.8688   26.6847 C   0  0  0  0  0  0
   -3.8181   52.9059   26.0748 C   0  0  0  0  0  0
   -5.2067   52.9421   26.1575 C   0  0  0  0  0  0
   -5.8830   51.9539   26.8730 C   0  0  0  0  0  0
   -5.1786   50.9238   27.4965 C   0  0  0  0  0  0
   -3.7892   50.8824   27.4035 C   0  0  0  0  0  0
    4.6726   56.9627   18.8818 H   0  0  0  0  0  0
    4.9038   58.1177   17.5687 H   0  0  0  0  0  0
    4.8896   56.3825   17.2436 H   0  0  0  0  0  0
    7.0421   59.1127   17.6149 H   0  0  0  0  0  0
    9.4897   58.9866   17.8305 H   0  0  0  0  0  0
   10.5811   56.8659   18.4809 H   0  0  0  0  0  0
    9.2250   54.8674   18.9523 H   0  0  0  0  0  0
    6.7587   53.8920   18.2715 H   0  0  0  0  0  0
    5.3083   52.7830   19.1200 H   0  0  0  0  0  0
    3.8509   54.6833   22.0427 H   0  0  0  0  0  0
    2.0659   53.7339   23.3479 H   0  0  0  0  0  0
    4.0286   51.1039   19.6815 H   0  0  0  0  0  0
    2.0791   47.3009   19.4517 H   0  0  0  0  0  0
    0.3778   47.8620   19.5194 H   0  0  0  0  0  0
    2.3038   47.9150   17.1850 H   0  0  0  0  0  0
    0.6111   47.4475   17.1603 H   0  0  0  0  0  0
   -0.0808   49.7769   17.4615 H   0  0  0  0  0  0
    1.2472   49.9208   16.3162 H   0  0  0  0  0  0
    1.2926   51.3068   18.6237 H   0  0  0  0  0  0
    2.8006   50.4977   18.0289 H   0  0  0  0  0  0
   -0.5640   52.4966   22.0057 H   0  0  0  0  0  0
   -0.9352   50.8133   22.3394 H   0  0  0  0  0  0
   -0.8870   53.1802   24.2707 H   0  0  0  0  0  0
   -2.3053   52.2995   23.8394 H   0  0  0  0  0  0
   -1.5519   50.3254   25.0421 H   0  0  0  0  0  0
    0.5741   50.0546   26.1448 H   0  0  0  0  0  0
    1.0691   51.6633   25.7561 H   0  0  0  0  0  0
    0.4811   49.5102   23.6743 H   0  0  0  0  0  0
    2.0816   50.0669   24.1167 H   0  0  0  0  0  0
   -1.2134   51.2269   27.4379 H   0  0  0  0  0  0
   -1.1866   52.8246   26.7788 H   0  0  0  0  0  0
   -3.2952   53.6747   25.5239 H   0  0  0  0  0  0
   -5.7602   53.7345   25.6762 H   0  0  0  0  0  0
   -6.9608   51.9833   26.9423 H   0  0  0  0  0  0
   -5.7074   50.1610   28.0527 H   0  0  0  0  0  0
   -3.2430   50.0882   27.8955 H   0  0  0  0  0  0
  1  2  1  0  0  0
  1 38  1  0  0  0
  1 39  1  0  0  0
  1 40  1  0  0  0
  2  7  2  0  0  0
  2  3  1  0  0  0
  3  4  2  0  0  0
  3 41  1  0  0  0
  4  5  1  0  0  0
  4 42  1  0  0  0
  5  6  2  0  0  0
  5 43  1  0  0  0
  6  7  1  0  0  0
  6 44  1  0  0  0
  7  8  1  0  0  0
  8  9  1  0  0  0
  8 45  1  0  0  0
  9 10  2  0  0  0
  9 11  1  0  0  0
 11 12  1  0  0  0
 11 46  1  0  0  0
 12 17  2  0  0  0
 12 13  1  0  0  0
 13 14  2  0  0  0
 13 47  1  0  0  0
 14 15  1  0  0  0
 14 48  1  0  0  0
 15 16  2  0  0  0
 15 25  1  0  0  0
 16 17  1  0  0  0
 16 18  1  0  0  0
 17 49  1  0  0  0
 18 19  2  0  0  0
 18 20  1  0  0  0
 20 24  1  0  0  0
 20 21  1  0  0  0
 21 22  1  0  0  0
 21 50  1  0  0  0
 21 51  1  0  0  0
 22 23  1  0  0  0
 22 52  1  0  0  0
 22 53  1  0  0  0
 23 24  1  0  0  0
 23 54  1  0  0  0
 23 55  1  0  0  0
 24 56  1  0  0  0
 24 57  1  0  0  0
 25 30  1  0  0  0
 25 26  1  0  0  0
 26 27  1  0  0  0
 26 58  1  0  0  0
 26 59  1  0  0  0
 27 28  1  0  0  0
 27 60  1  0  0  0
 27 61  1  0  0  0
 28 29  1  0  0  0
 28 31  1  0  0  0
 28 62  1  0  0  0
 29 30  1  0  0  0
 29 63  1  0  0  0
 29 64  1  0  0  0
 30 65  1  0  0  0
 30 66  1  0  0  0
 31 32  1  0  0  0
 31 67  1  0  0  0
 31 68  1  0  0  0
 32 37  2  0  0  0
 32 33  1  0  0  0
 33 34  2  0  0  0
 33 69  1  0  0  0
 34 35  1  0  0  0
 34 70  1  0  0  0
 35 36  2  0  0  0
 35 71  1  0  0  0
 36 37  1  0  0  0
 36 72  1  0  0  0
 37 73  1  0  0  0
M  END
> <i_i_glide_confnum>
198

> <i_i_glide_lignum>
6117

> <i_i_glide_posenum>
335

> <i_i_glide_rotatable_bonds>
9

> <i_m_Source_File_Index>
5628

> <b_m_subgroup_collapsed>
0

> <r_i_docking_score>
-2.93561

> <r_i_glide_ecoul>
-4.46144

> <r_i_glide_eff_state_penalty>
0

> <r_i_glide_einternal>
6.44112

> <r_i_glide_emodel>
-49.0981

> <r_i_glide_energy>
-43.5179

> <r_i_glide_erotb>
0.744131

> <r_i_glide_esite>
-0.0736369

> <r_i_glide_evdw>
-39.0565

> <r_i_glide_gscore>
-2.93561

> <r_i_glide_hbond>
0

> <r_i_glide_ligand_efficiency>
-0.0793409

> <r_i_glide_ligand_efficiency_ln>
-0.636665

> <r_i_glide_ligand_efficiency_sa>
-0.264381

> <r_i_glide_lipo>
-0.732213

> <r_i_glide_metal>
0

> <r_i_glide_rewards>
-0.251853

> <s_i_glide_gridfile>
wee1_glide-grid

> <s_m_Source_File>
wee1_decoys_glide_SP.sdf

> <s_m_Source_Path>
/Users/zhangxujun/Desktop

> <s_m_entry_id>
5903

> <s_m_entry_name>
wee1_decoys_glide_SP.5628

> <s_m_subgroup_title>
wee1_decoys_glide_SP

> <s_m_subgroupid>
wee1_decoys_glide_SP


$$$$
