ZINC35664445_2920
                    3D
 Schrodinger Suite 2024-2.
 70 72  0  0  1  0            999 V2000
    3.2400   47.0372   14.4974 C   0  0  0  0  0  0
    3.0912   46.2341   15.8011 C   0  0  0  0  0  0
    1.7303   46.4370   16.5038 C   0  0  0  0  0  0
    1.5413   47.8213   16.9367 N   0  0  0  0  0  0
    0.3817   48.3709   17.3478 C   0  0  0  0  0  0
   -0.6499   47.7016   17.4227 O   0  0  0  0  0  0
    0.4148   49.7136   17.6048 N   0  0  0  0  0  0
   -0.8076   50.4226   18.0257 C   0  0  0  0  0  0
   -0.5979   51.5204   19.0979 C   0  0  0  0  0  0
    0.2208   51.1069   20.3341 C   0  0  0  0  0  0
    1.7622   51.1789   20.1519 N   0  3  2  0  0  0
    2.3874   50.3438   19.0080 C   0  0  0  0  0  0
    1.6513   50.5075   17.6661 C   0  0  0  0  0  0
    2.5198   50.9318   21.4855 C   0  0  0  0  0  0
    2.3814   52.1021   22.4853 C   0  0  0  0  0  0
    3.1766   53.2201   22.4886 C   0  0  0  0  0  0
    2.9071   54.2971   23.5655 C   0  0  1  0  0  0
    3.1170   55.2864   23.1568 H   0  0  0  0  0  0
    1.4522   54.2787   23.8003 N   0  0  0  0  0  0
    0.6876   53.1584   23.8246 C   0  0  0  0  0  0
   -0.5072   53.2932   24.0797 O   0  0  0  0  0  0
    1.3115   52.0060   23.3877 N   0  0  0  0  0  0
    0.5915   50.7410   23.7166 C   0  0  0  0  0  0
    0.0924   50.5318   25.1473 C   0  0  0  0  0  0
    0.3052   49.4251   25.8754 C   0  0  0  0  0  0
    3.7475   54.1445   24.8402 C   0  0  0  0  0  0
    3.2898   53.6964   26.0983 C   0  0  0  0  0  0
    4.2590   53.6989   27.0925 C   0  0  0  0  0  0
    5.7789   54.2823   26.5180 S   0  0  0  0  0  0
    5.0946   54.4974   24.9418 C   0  0  0  0  0  0
    4.2731   53.5664   21.5340 C   0  0  0  0  0  0
    5.0421   54.5074   21.7383 O   0  0  0  0  0  0
    4.3533   52.7993   20.4255 O   0  0  0  0  0  0
    5.3400   53.0241   19.4194 C   0  0  0  0  0  0
    4.6629   53.4512   18.1123 C   0  0  0  0  0  0
    4.2376   46.9020   14.0801 H   0  0  0  0  0  0
    2.5117   46.7245   13.7498 H   0  0  0  0  0  0
    3.1068   48.1047   14.6680 H   0  0  0  0  0  0
    3.9039   46.4983   16.4822 H   0  0  0  0  0  0
    3.2211   45.1725   15.5857 H   0  0  0  0  0  0
    1.6321   45.7588   17.3525 H   0  0  0  0  0  0
    0.9318   46.1862   15.8003 H   0  0  0  0  0  0
    2.3738   48.4016   16.8795 H   0  0  0  0  0  0
   -1.1987   50.9325   17.1450 H   0  0  0  0  0  0
   -1.5619   49.7168   18.3815 H   0  0  0  0  0  0
   -1.5809   51.8627   19.4224 H   0  0  0  0  0  0
   -0.1433   52.4007   18.6401 H   0  0  0  0  0  0
   -0.0125   50.1011   20.6866 H   0  0  0  0  0  0
    0.0078   51.8186   21.1297 H   0  0  0  0  0  0
    3.4079   50.7118   18.9259 H   0  0  0  0  0  0
    2.4457   49.3085   19.3438 H   0  0  0  0  0  0
    1.5141   51.5460   17.3616 H   0  0  0  0  0  0
    2.3043   50.1347   16.8779 H   0  0  0  0  0  0
    3.5706   50.7863   21.2440 H   0  0  0  0  0  0
    2.2007   49.9483   21.8276 H   0  0  0  0  0  0
    1.0436   55.0816   24.2579 H   0  0  0  0  0  0
   -0.2672   50.6576   23.0468 H   0  0  0  0  0  0
    1.2252   49.8761   23.5348 H   0  0  0  0  0  0
   -0.4832   51.3268   25.5955 H   0  0  0  0  0  0
   -0.0879   49.3366   26.8797 H   0  0  0  0  0  0
    0.8663   48.5852   25.4913 H   0  0  0  0  0  0
    2.2762   53.3713   26.2820 H   0  0  0  0  0  0
    4.1540   53.3875   28.1212 H   0  0  0  0  0  0
    5.7200   54.8914   24.1563 H   0  0  0  0  0  0
    6.0811   53.7719   19.7094 H   0  0  0  0  0  0
    5.8955   52.0971   19.2799 H   0  0  0  0  0  0
    5.4064   53.6261   17.3361 H   0  0  0  0  0  0
    3.9877   52.6807   17.7460 H   0  0  0  0  0  0
    4.0940   54.3718   18.2457 H   0  0  0  0  0  0
    1.9684   52.1407   19.9033 H   0  0  0  0  0  0
  1  2  1  0  0  0
  1 36  1  0  0  0
  1 37  1  0  0  0
  1 38  1  0  0  0
  2  3  1  0  0  0
  2 39  1  0  0  0
  2 40  1  0  0  0
  3  4  1  0  0  0
  3 41  1  0  0  0
  3 42  1  0  0  0
  4  5  1  0  0  0
  4 43  1  0  0  0
  5  6  2  0  0  0
  5  7  1  0  0  0
  7 13  1  0  0  0
  7  8  1  0  0  0
  8  9  1  0  0  0
  8 44  1  0  0  0
  8 45  1  0  0  0
  9 10  1  0  0  0
  9 46  1  0  0  0
  9 47  1  0  0  0
 10 11  1  0  0  0
 10 48  1  0  0  0
 10 49  1  0  0  0
 11 12  1  0  0  0
 11 14  1  0  0  0
 11 70  1  0  0  0
 12 13  1  0  0  0
 12 50  1  0  0  0
 12 51  1  0  0  0
 13 52  1  0  0  0
 13 53  1  0  0  0
 14 15  1  0  0  0
 14 54  1  0  0  0
 14 55  1  0  0  0
 15 22  1  0  0  0
 15 16  2  0  0  0
 16 17  1  0  0  0
 16 31  1  0  0  0
 17 18  1  0  0  0
 17 19  1  0  0  0
 17 26  1  0  0  0
 19 20  1  0  0  0
 19 56  1  0  0  0
 20 21  2  0  0  0
 20 22  1  0  0  0
 22 23  1  0  0  0
 23 24  1  0  0  0
 23 57  1  0  0  0
 23 58  1  0  0  0
 24 25  2  0  0  0
 24 59  1  0  0  0
 25 60  1  0  0  0
 25 61  1  0  0  0
 26 30  2  0  0  0
 26 27  1  0  0  0
 27 28  2  0  0  0
 27 62  1  0  0  0
 28 29  1  0  0  0
 28 63  1  0  0  0
 29 30  1  0  0  0
 30 64  1  0  0  0
 31 32  2  0  0  0
 31 33  1  0  0  0
 33 34  1  0  0  0
 34 35  1  0  0  0
 34 65  1  0  0  0
 34 66  1  0  0  0
 35 67  1  0  0  0
 35 68  1  0  0  0
 35 69  1  0  0  0
M  CHG  1  11   1
M  END
> <i_i_glide_confnum>
529

> <i_i_glide_lignum>
2921

> <i_i_glide_posenum>
281

> <i_i_glide_rotatable_bonds>
12

> <i_m_Source_File_Index>
4084

> <b_m_subgroup_collapsed>
0

> <r_i_docking_score>
-4.68579

> <r_i_glide_ecoul>
-5.2515

> <r_i_glide_eff_state_penalty>
0

> <r_i_glide_einternal>
10.0671

> <r_i_glide_emodel>
-57.1717

> <r_i_glide_energy>
-46.6069

> <r_i_glide_erotb>
0.845436

> <r_i_glide_esite>
-0.145572

> <r_i_glide_evdw>
-41.3554

> <r_i_glide_gscore>
-4.68579

> <r_i_glide_hbond>
-0.16

> <r_i_glide_ligand_efficiency>
-0.137817

> <r_i_glide_ligand_efficiency_ln>
-1.03522

> <r_i_glide_ligand_efficiency_sa>
-0.446475

> <r_i_glide_lipo>
-1.68233

> <r_i_glide_metal>
0

> <r_i_glide_rewards>
-0.687828

> <s_i_glide_gridfile>
wee1_glide-grid

> <s_m_Source_File>
wee1_decoys_glide_SP.sdf

> <s_m_Source_Path>
/Users/zhangxujun/Desktop

> <s_m_entry_id>
4359

> <s_m_entry_name>
wee1_decoys_glide_SP.4084

> <s_m_subgroup_title>
wee1_decoys_glide_SP

> <s_m_subgroupid>
wee1_decoys_glide_SP


$$$$
