ZINC39667032_3684
                    3D
 Schrodinger Suite 2024-2.
 65 68  0  0  1  0            999 V2000
    4.1533   54.5238   29.6779 C   0  0  0  0  0  0
    3.9457   54.2498   28.2043 C   0  0  0  0  0  0
    2.6627   53.9935   27.7321 C   0  0  0  0  0  0
    2.4501   53.7887   26.3757 C   0  0  0  0  0  0
    3.5025   53.8432   25.4541 C   0  0  0  0  0  0
    4.8052   54.0939   25.9357 C   0  0  0  0  0  0
    5.0137   54.2958   27.3062 C   0  0  0  0  0  0
    6.0134   54.1550   25.0083 C   0  0  0  0  0  0
    3.2124   53.5990   23.9634 C   0  0  0  0  0  0
    1.9705   54.3028   23.3806 C   0  0  0  0  0  0
    0.7108   53.6096   23.6381 N   0  0  0  0  0  0
    0.2643   52.5520   22.9281 C   0  0  0  0  0  0
    0.8941   52.0733   21.9883 O   0  0  0  0  0  0
   -1.0477   51.8582   23.3666 C   0  0  2  0  0  0
   -1.4973   51.4446   22.4615 H   0  0  0  0  0  0
   -2.0807   52.8582   23.9333 C   0  0  0  0  0  0
   -2.7860   52.0789   24.9574 N   0  0  0  0  0  0
   -2.2746   50.7050   25.0464 C   0  0  0  0  0  0
   -0.8492   50.7931   24.4661 C   0  0  0  0  0  0
   -0.3029   49.4679   23.8895 C   0  0  0  0  0  0
   -0.2388   48.3851   24.9728 C   0  0  0  0  0  0
    0.7006   48.8967   26.0817 N   0  3  0  0  0  0
    0.3018   50.2425   26.7138 C   0  0  0  0  0  0
    0.1644   51.2411   25.5701 C   0  0  0  0  0  0
   -3.7928   52.6205   25.6929 C   0  0  0  0  0  0
   -4.2411   53.7466   25.4612 O   0  0  0  0  0  0
   -4.3773   51.8330   26.8438 C   0  0  0  0  0  0
   -5.7660   51.6966   26.9568 C   0  0  0  0  0  0
   -6.3182   50.9961   28.0282 C   0  0  0  0  0  0
   -5.4843   50.4370   28.9942 C   0  0  0  0  0  0
   -4.1038   50.5840   28.9049 C   0  0  0  0  0  0
   -3.5534   51.2973   27.8435 C   0  0  0  0  0  0
   -6.2363   49.4754   30.4540 Br  0  0  0  0  0  0
    5.0142   55.1789   29.8456 H   0  0  0  0  0  0
    3.2701   55.0285   30.0804 H   0  0  0  0  0  0
    4.2981   53.5887   30.2226 H   0  0  0  0  0  0
    1.8232   53.9643   28.4122 H   0  0  0  0  0  0
    1.4415   53.6221   26.0519 H   0  0  0  0  0  0
    6.0073   54.4996   27.6774 H   0  0  0  0  0  0
    6.0203   53.3003   24.3311 H   0  0  0  0  0  0
    5.9851   55.0640   24.4012 H   0  0  0  0  0  0
    6.9587   54.1243   25.5577 H   0  0  0  0  0  0
    4.0594   53.9213   23.3601 H   0  0  0  0  0  0
    3.1071   52.5299   23.7778 H   0  0  0  0  0  0
    1.9033   55.2960   23.8175 H   0  0  0  0  0  0
    2.1111   54.4911   22.3139 H   0  0  0  0  0  0
    0.1517   53.9580   24.3987 H   0  0  0  0  0  0
   -1.6057   53.6734   24.4727 H   0  0  0  0  0  0
   -2.7574   53.2182   23.1577 H   0  0  0  0  0  0
   -2.8790   50.0968   24.3715 H   0  0  0  0  0  0
   -2.3121   50.2026   26.0084 H   0  0  0  0  0  0
   -0.9643   49.1146   23.0970 H   0  0  0  0  0  0
    0.6692   49.6112   23.4126 H   0  0  0  0  0  0
   -1.1957   48.1695   25.4526 H   0  0  0  0  0  0
    0.2011   47.4546   24.6131 H   0  0  0  0  0  0
    0.7110   48.1833   26.8060 H   0  0  0  0  0  0
   -0.6156   50.0968   27.2807 H   0  0  0  0  0  0
    1.1004   50.5129   27.4063 H   0  0  0  0  0  0
    1.1572   51.4265   25.1591 H   0  0  0  0  0  0
   -0.1702   52.1825   26.0024 H   0  0  0  0  0  0
   -6.4224   52.1255   26.2127 H   0  0  0  0  0  0
   -7.3903   50.8841   28.1060 H   0  0  0  0  0  0
   -3.4575   50.1490   29.6564 H   0  0  0  0  0  0
   -2.4817   51.4276   27.8134 H   0  0  0  0  0  0
    1.6409   48.9411   25.7123 H   0  0  0  0  0  0
  1  2  1  0  0  0
  1 34  1  0  0  0
  1 35  1  0  0  0
  1 36  1  0  0  0
  2  7  2  0  0  0
  2  3  1  0  0  0
  3  4  2  0  0  0
  3 37  1  0  0  0
  4  5  1  0  0  0
  4 38  1  0  0  0
  5  6  2  0  0  0
  5  9  1  0  0  0
  6  7  1  0  0  0
  6  8  1  0  0  0
  7 39  1  0  0  0
  8 40  1  0  0  0
  8 41  1  0  0  0
  8 42  1  0  0  0
  9 10  1  0  0  0
  9 43  1  0  0  0
  9 44  1  0  0  0
 10 11  1  0  0  0
 10 45  1  0  0  0
 10 46  1  0  0  0
 11 12  1  0  0  0
 11 47  1  0  0  0
 12 13  2  0  0  0
 12 14  1  0  0  0
 14 15  1  0  0  0
 14 19  1  0  0  0
 14 16  1  0  0  0
 16 17  1  0  0  0
 16 48  1  0  0  0
 16 49  1  0  0  0
 17 18  1  0  0  0
 17 25  1  0  0  0
 18 19  1  0  0  0
 18 50  1  0  0  0
 18 51  1  0  0  0
 19 24  1  0  0  0
 19 20  1  0  0  0
 20 21  1  0  0  0
 20 52  1  0  0  0
 20 53  1  0  0  0
 21 22  1  0  0  0
 21 54  1  0  0  0
 21 55  1  0  0  0
 22 23  1  0  0  0
 22 56  1  0  0  0
 22 65  1  0  0  0
 23 24  1  0  0  0
 23 57  1  0  0  0
 23 58  1  0  0  0
 24 59  1  0  0  0
 24 60  1  0  0  0
 25 26  2  0  0  0
 25 27  1  0  0  0
 27 32  2  0  0  0
 27 28  1  0  0  0
 28 29  2  0  0  0
 28 61  1  0  0  0
 29 30  1  0  0  0
 29 62  1  0  0  0
 30 31  2  0  0  0
 30 33  1  0  0  0
 31 32  1  0  0  0
 31 63  1  0  0  0
 32 64  1  0  0  0
M  CHG  1  22   1
M  END
> <i_i_glide_confnum>
125

> <i_i_glide_lignum>
3685

> <i_i_glide_posenum>
345

> <i_i_glide_rotatable_bonds>
7

> <i_m_Source_File_Index>
1342

> <b_m_subgroup_collapsed>
0

> <r_i_docking_score>
-4.31528

> <r_i_glide_ecoul>
-2.89135

> <r_i_glide_eff_state_penalty>
0

> <r_i_glide_einternal>
5.11843

> <r_i_glide_emodel>
-51.013

> <r_i_glide_energy>
-39.3886

> <r_i_glide_erotb>
0.572794

> <r_i_glide_esite>
-0.0851538

> <r_i_glide_evdw>
-36.4973

> <r_i_glide_gscore>
-4.31528

> <r_i_glide_hbond>
0

> <r_i_glide_ligand_efficiency>
-0.134853

> <r_i_glide_ligand_efficiency_ln>
-0.966309

> <r_i_glide_ligand_efficiency_sa>
-0.42813

> <r_i_glide_lipo>
-2.28774

> <r_i_glide_metal>
0

> <r_i_glide_rewards>
-0.256614

> <s_i_glide_gridfile>
wee1_glide-grid

> <s_m_Source_File>
wee1_decoys_glide_SP.sdf

> <s_m_Source_Path>
/Users/zhangxujun/Desktop

> <s_m_entry_id>
1617

> <s_m_entry_name>
wee1_decoys_glide_SP.1342

> <s_m_subgroup_title>
wee1_decoys_glide_SP

> <s_m_subgroupid>
wee1_decoys_glide_SP


$$$$
