ZINC12716783_3134
                    3D
 Schrodinger Suite 2024-2.
 66 69  0  0  1  0            999 V2000
   -0.7620   51.5919   30.0915 C   0  0  0  0  0  0
    0.3885   52.1643   29.4849 O   0  0  0  0  0  0
    0.5153   52.0670   28.1139 C   0  0  0  0  0  0
   -0.2667   51.2025   27.3345 C   0  0  0  0  0  0
   -0.1452   51.1913   25.9549 C   0  0  0  0  0  0
    0.7235   52.0647   25.2965 C   0  0  0  0  0  0
    1.5546   52.8854   26.0805 C   0  0  0  0  0  0
    1.4628   52.8779   27.4744 C   0  0  0  0  0  0
    2.2948   53.7009   28.1904 O   0  0  0  0  0  0
    3.4352   53.0377   28.7219 C   0  0  0  0  0  0
    0.7026   52.0428   23.7682 C   0  0  2  0  0  0
    1.0401   51.0352   23.5402 H   0  0  0  0  0  0
    1.7308   52.9738   23.0593 C   0  0  0  0  0  0
    1.7928   54.1612   23.3609 O   0  0  0  0  0  0
    2.5667   52.3478   22.2091 N   0  0  0  0  0  0
    3.8770   52.7916   21.7074 C   0  0  0  0  0  0
    4.2578   51.9516   20.4774 C   0  0  0  0  0  0
    3.8943   52.8248   19.2809 C   0  0  0  0  0  0
    4.3159   54.2204   19.7301 C   0  0  0  0  0  0
    4.0024   54.2635   21.2366 C   0  0  0  0  0  0
   -0.6964   52.2302   23.2462 N   0  0  0  0  0  0
   -1.5493   53.2333   23.9458 C   0  0  0  0  0  0
   -2.8868   52.6923   24.4277 C   0  0  0  0  0  0
   -3.4403   51.4251   24.5809 C   0  0  0  0  0  0
   -4.7482   51.6009   25.0335 C   0  0  0  0  0  0
   -4.9433   52.9675   25.1270 C   0  0  0  0  0  0
   -3.8157   53.6281   24.7578 O   0  0  0  0  0  0
   -1.1026   51.8120   22.0066 C   0  0  0  0  0  0
   -2.0963   52.2474   21.4285 O   0  0  0  0  0  0
   -0.3518   50.7865   21.3395 C   0  0  0  0  0  0
    0.1814   50.7791   20.0549 C   0  0  0  0  0  0
    0.7633   49.5232   19.7674 C   0  0  0  0  0  0
    0.6620   48.5908   20.6946 N   0  0  0  0  0  0
   -0.1580   49.2212   22.0522 S   0  0  0  0  0  0
    1.4154   49.1272   18.5432 C   0  0  0  0  0  0
    1.2069   48.0448   17.9944 O   0  0  0  0  0  0
    2.3017   50.0100   18.0822 N   0  0  0  0  0  0
    0.1442   51.8581   19.2064 N   0  0  0  0  0  0
   -0.7836   51.9193   31.1172 H   0  0  0  0  0  0
   -1.6833   51.9356   29.6271 H   0  0  0  0  0  0
   -0.7324   50.4998   30.0777 H   0  0  0  0  0  0
   -0.9775   50.5246   27.7805 H   0  0  0  0  0  0
   -0.7698   50.5132   25.3928 H   0  0  0  0  0  0
    2.2839   53.5474   25.6381 H   0  0  0  0  0  0
    4.0628   53.7540   29.2466 H   0  0  0  0  0  0
    3.1532   52.2556   29.4345 H   0  0  0  0  0  0
    4.0388   52.5883   27.9317 H   0  0  0  0  0  0
    2.4076   51.3613   22.0975 H   0  0  0  0  0  0
    4.6057   52.5729   22.4876 H   0  0  0  0  0  0
    3.8160   50.9530   20.4543 H   0  0  0  0  0  0
    5.3375   51.7934   20.4671 H   0  0  0  0  0  0
    2.8188   52.8021   19.1024 H   0  0  0  0  0  0
    4.3965   52.5074   18.3639 H   0  0  0  0  0  0
    3.7952   55.0011   19.1739 H   0  0  0  0  0  0
    5.3854   54.3582   19.5604 H   0  0  0  0  0  0
    4.8156   54.7689   21.7587 H   0  0  0  0  0  0
    3.1023   54.8449   21.4118 H   0  0  0  0  0  0
   -1.0027   53.6965   24.7627 H   0  0  0  0  0  0
   -1.7487   54.0661   23.2811 H   0  0  0  0  0  0
   -2.9527   50.4836   24.3783 H   0  0  0  0  0  0
   -5.4641   50.8201   25.2561 H   0  0  0  0  0  0
   -5.7831   53.5807   25.4164 H   0  0  0  0  0  0
    2.4941   50.8673   18.5739 H   0  0  0  0  0  0
    2.9664   49.7029   17.3567 H   0  0  0  0  0  0
    0.4844   51.8001   18.2568 H   0  0  0  0  0  0
   -0.2348   52.7490   19.4982 H   0  0  0  0  0  0
  1  2  1  0  0  0
  1 39  1  0  0  0
  1 40  1  0  0  0
  1 41  1  0  0  0
  2  3  1  0  0  0
  3  8  2  0  0  0
  3  4  1  0  0  0
  4  5  2  0  0  0
  4 42  1  0  0  0
  5  6  1  0  0  0
  5 43  1  0  0  0
  6  7  2  0  0  0
  6 11  1  0  0  0
  7  8  1  0  0  0
  7 44  1  0  0  0
  8  9  1  0  0  0
  9 10  1  0  0  0
 10 45  1  0  0  0
 10 46  1  0  0  0
 10 47  1  0  0  0
 11 12  1  0  0  0
 11 13  1  0  0  0
 11 21  1  0  0  0
 13 14  2  0  0  0
 13 15  1  0  0  0
 15 16  1  0  0  0
 15 48  1  0  0  0
 16 20  1  0  0  0
 16 17  1  0  0  0
 16 49  1  0  0  0
 17 18  1  0  0  0
 17 50  1  0  0  0
 17 51  1  0  0  0
 18 19  1  0  0  0
 18 52  1  0  0  0
 18 53  1  0  0  0
 19 20  1  0  0  0
 19 54  1  0  0  0
 19 55  1  0  0  0
 20 56  1  0  0  0
 20 57  1  0  0  0
 21 22  1  0  0  0
 21 28  1  0  0  0
 22 23  1  0  0  0
 22 58  1  0  0  0
 22 59  1  0  0  0
 23 27  1  0  0  0
 23 24  2  0  0  0
 24 25  1  0  0  0
 24 60  1  0  0  0
 25 26  2  0  0  0
 25 61  1  0  0  0
 26 27  1  0  0  0
 26 62  1  0  0  0
 28 29  2  0  0  0
 28 30  1  0  0  0
 30 34  1  0  0  0
 30 31  2  0  0  0
 31 32  1  0  0  0
 31 38  1  0  0  0
 32 33  2  0  0  0
 32 35  1  0  0  0
 33 34  1  0  0  0
 35 36  2  0  0  0
 35 37  1  0  0  0
 37 63  1  0  0  0
 37 64  1  0  0  0
 38 65  1  0  0  0
 38 66  1  0  0  0
M  END
> <i_i_glide_confnum>
225

> <i_i_glide_lignum>
3135

> <i_i_glide_posenum>
286

> <i_i_glide_rotatable_bonds>
12

> <i_m_Source_File_Index>
3257

> <b_m_subgroup_collapsed>
0

> <r_i_docking_score>
-4.39733

> <r_i_glide_ecoul>
-9.94586

> <r_i_glide_eff_state_penalty>
0

> <r_i_glide_einternal>
33.0265

> <r_i_glide_emodel>
-38.216

> <r_i_glide_energy>
-42.4162

> <r_i_glide_erotb>
0.517948

> <r_i_glide_esite>
-0.17569

> <r_i_glide_evdw>
-32.4703

> <r_i_glide_gscore>
-4.39733

> <r_i_glide_hbond>
-0.236874

> <r_i_glide_ligand_efficiency>
-0.118847

> <r_i_glide_ligand_efficiency_ln>
-0.953679

> <r_i_glide_ligand_efficiency_sa>
-0.396024

> <r_i_glide_lipo>
-1.23776

> <r_i_glide_metal>
0

> <r_i_glide_rewards>
-0.149561

> <s_i_glide_gridfile>
wee1_glide-grid

> <s_m_Source_File>
wee1_decoys_glide_SP.sdf

> <s_m_Source_Path>
/Users/zhangxujun/Desktop

> <s_m_entry_id>
3532

> <s_m_entry_name>
wee1_decoys_glide_SP.3257

> <s_m_subgroup_title>
wee1_decoys_glide_SP

> <s_m_subgroupid>
wee1_decoys_glide_SP


$$$$
