ZINC40826839_5462
                    3D
 Schrodinger Suite 2024-2.
 74 78  0  0  1  0            999 V2000
   10.7495   54.4182   13.1696 C   0  0  0  0  0  0
    9.5339   54.4682   14.0733 C   0  0  0  0  0  0
    9.2562   53.3879   14.9159 C   0  0  0  0  0  0
    8.1462   53.3701   15.7705 C   0  0  0  0  0  0
    7.2917   54.4940   15.7766 C   0  0  0  0  0  0
    7.6018   55.5795   14.9183 C   0  0  0  0  0  0
    8.7076   55.5933   14.0643 C   0  0  0  0  0  0
    6.6848   56.5785   15.0311 O   0  0  0  0  0  0
    5.7840   56.1476   15.9534 C   0  0  0  0  0  0
    6.0811   54.8868   16.4597 C   0  0  0  0  0  0
    5.2831   54.1054   17.4926 C   0  0  0  0  0  0
    5.7082   54.3436   18.9519 C   0  0  0  0  0  0
    6.7929   54.8684   19.2259 O   0  0  0  0  0  0
    4.8084   53.9374   19.8698 N   0  0  0  0  0  0
    4.9486   54.1396   21.1977 N   0  0  0  0  0  0
    3.9967   53.6963   21.9218 C   0  0  0  0  0  0
    2.7384   52.8940   21.4696 C   0  0  0  0  0  0
    1.4923   53.2075   22.3322 C   0  0  0  0  0  0
    1.6912   52.9039   23.8260 C   0  0  0  0  0  0
    3.0244   53.5078   24.2059 C   0  0  0  0  0  0
    4.0801   53.8817   23.3891 C   0  0  0  0  0  0
    5.1065   54.3616   24.2470 C   0  0  0  0  0  0
    4.5778   54.2563   25.5551 C   0  0  0  0  0  0
    3.3438   53.6966   25.4955 O   0  0  0  0  0  0
    5.2017   54.4972   26.8536 C   0  0  0  0  0  0
    6.4083   54.7458   26.8655 O   0  0  0  0  0  0
    4.4614   54.4769   28.0133 N   0  0  0  0  0  0
    5.1588   54.6895   29.2879 C   0  0  0  0  0  0
    3.0327   54.1146   28.2014 C   0  0  1  0  0  0
    2.8401   52.5796   28.3266 C   0  0  0  0  0  0
    1.4051   52.1050   28.6014 C   0  0  0  0  0  0
    0.8622   52.8817   29.8171 N   0  3  1  0  0  0
    0.7985   54.3871   29.4837 C   0  0  0  0  0  0
    2.2391   54.8988   29.2825 C   0  0  0  0  0  0
   -0.5471   52.3555   30.1746 C   0  0  0  0  0  0
    6.4561   54.9402   23.8403 C   0  0  0  0  0  0
    7.9159   52.1483   16.6430 C   0  0  0  0  0  0
   10.5583   53.7740   12.3095 H   0  0  0  0  0  0
   11.0359   55.4104   12.8158 H   0  0  0  0  0  0
   11.6087   54.0116   13.7068 H   0  0  0  0  0  0
    9.9191   52.5351   14.8971 H   0  0  0  0  0  0
    8.9065   56.4399   13.4244 H   0  0  0  0  0  0
    4.9786   56.8389   16.1581 H   0  0  0  0  0  0
    4.2308   54.3755   17.4033 H   0  0  0  0  0  0
    5.3186   53.0349   17.2919 H   0  0  0  0  0  0
    3.9519   53.4866   19.5849 H   0  0  0  0  0  0
    2.4947   53.1110   20.4299 H   0  0  0  0  0  0
    2.9665   51.8281   21.5079 H   0  0  0  0  0  0
    1.2349   54.2597   22.2178 H   0  0  0  0  0  0
    0.6335   52.6543   21.9547 H   0  0  0  0  0  0
    0.8756   53.3404   24.4041 H   0  0  0  0  0  0
    1.6876   51.8287   24.0067 H   0  0  0  0  0  0
    6.2354   54.5075   29.2422 H   0  0  0  0  0  0
    5.0001   55.6963   29.6786 H   0  0  0  0  0  0
    4.7625   54.0002   30.0312 H   0  0  0  0  0  0
    2.4751   54.4206   27.3175 H   0  0  0  0  0  0
    3.1716   52.0980   27.4104 H   0  0  0  0  0  0
    3.4787   52.1970   29.1210 H   0  0  0  0  0  0
    0.7345   52.2741   27.7573 H   0  0  0  0  0  0
    1.3936   51.0433   28.8668 H   0  0  0  0  0  0
    0.1836   54.4968   28.5890 H   0  0  0  0  0  0
    0.3203   54.8884   30.3284 H   0  0  0  0  0  0
    2.7385   54.8276   30.2429 H   0  0  0  0  0  0
    2.2086   55.9583   29.0212 H   0  0  0  0  0  0
   -1.2087   52.4949   29.3194 H   0  0  0  0  0  0
   -0.4708   51.2970   30.4151 H   0  0  0  0  0  0
   -0.8912   52.8970   31.0586 H   0  0  0  0  0  0
    6.8467   55.6576   24.5594 H   0  0  0  0  0  0
    7.2059   54.1617   23.6989 H   0  0  0  0  0  0
    6.4024   55.5018   22.9065 H   0  0  0  0  0  0
    7.7999   52.4520   17.6818 H   0  0  0  0  0  0
    8.7380   51.4345   16.5941 H   0  0  0  0  0  0
    6.9977   51.6450   16.3420 H   0  0  0  0  0  0
    1.4534   52.7316   30.6224 H   0  0  0  0  0  0
  1  2  1  0  0  0
  1 38  1  0  0  0
  1 39  1  0  0  0
  1 40  1  0  0  0
  2  7  2  0  0  0
  2  3  1  0  0  0
  3  4  2  0  0  0
  3 41  1  0  0  0
  4  5  1  0  0  0
  4 37  1  0  0  0
  5 10  1  0  0  0
  5  6  2  0  0  0
  6  7  1  0  0  0
  6  8  1  0  0  0
  7 42  1  0  0  0
  8  9  1  0  0  0
  9 10  2  0  0  0
  9 43  1  0  0  0
 10 11  1  0  0  0
 11 12  1  0  0  0
 11 44  1  0  0  0
 11 45  1  0  0  0
 12 13  2  0  0  0
 12 14  1  0  0  0
 14 15  1  0  0  0
 14 46  1  0  0  0
 15 16  2  0  0  0
 16 21  1  0  0  0
 16 17  1  0  0  0
 17 18  1  0  0  0
 17 47  1  0  0  0
 17 48  1  0  0  0
 18 19  1  0  0  0
 18 49  1  0  0  0
 18 50  1  0  0  0
 19 20  1  0  0  0
 19 51  1  0  0  0
 19 52  1  0  0  0
 20 24  1  0  0  0
 20 21  2  0  0  0
 21 22  1  0  0  0
 22 23  2  0  0  0
 22 36  1  0  0  0
 23 24  1  0  0  0
 23 25  1  0  0  0
 25 26  2  0  0  0
 25 27  1  0  0  0
 27 28  1  0  0  0
 27 29  1  0  0  0
 28 53  1  0  0  0
 28 54  1  0  0  0
 28 55  1  0  0  0
 29 34  1  0  0  0
 29 30  1  0  0  0
 29 56  1  0  0  0
 30 31  1  0  0  0
 30 57  1  0  0  0
 30 58  1  0  0  0
 31 32  1  0  0  0
 31 59  1  0  0  0
 31 60  1  0  0  0
 32 33  1  0  0  0
 32 35  1  0  0  0
 32 74  1  0  0  0
 33 34  1  0  0  0
 33 61  1  0  0  0
 33 62  1  0  0  0
 34 63  1  0  0  0
 34 64  1  0  0  0
 35 65  1  0  0  0
 35 66  1  0  0  0
 35 67  1  0  0  0
 36 68  1  0  0  0
 36 69  1  0  0  0
 36 70  1  0  0  0
 37 71  1  0  0  0
 37 72  1  0  0  0
 37 73  1  0  0  0
M  CHG  1  32   1
M  END
> <i_i_glide_confnum>
5

> <i_i_glide_lignum>
5463

> <i_i_glide_posenum>
374

> <i_i_glide_rotatable_bonds>
7

> <i_m_Source_File_Index>
5193

> <b_m_subgroup_collapsed>
0

> <r_i_docking_score>
-5.23549

> <r_i_glide_ecoul>
-0.879701

> <r_i_glide_eff_state_penalty>
0

> <r_i_glide_einternal>
5.57004

> <r_i_glide_emodel>
-56.8802

> <r_i_glide_energy>
-44.0966

> <r_i_glide_erotb>
0.560049

> <r_i_glide_esite>
-0.00794485

> <r_i_glide_evdw>
-43.2169

> <r_i_glide_gscore>
-5.23549

> <r_i_glide_hbond>
0

> <r_i_glide_ligand_efficiency>
-0.1415

> <r_i_glide_ligand_efficiency_ln>
-1.13546

> <r_i_glide_ligand_efficiency_sa>
-0.471509

> <r_i_glide_lipo>
-2.50323

> <r_i_glide_metal>
0

> <r_i_glide_rewards>
-0.991567

> <s_i_glide_gridfile>
wee1_glide-grid

> <s_m_Source_File>
wee1_decoys_glide_SP.sdf

> <s_m_Source_Path>
/Users/zhangxujun/Desktop

> <s_m_entry_id>
5468

> <s_m_entry_name>
wee1_decoys_glide_SP.5193

> <s_m_subgroup_title>
wee1_decoys_glide_SP

> <s_m_subgroupid>
wee1_decoys_glide_SP


$$$$
