ZINC31776101_6066
                    3D
 Schrodinger Suite 2024-2.
 52 55  0  0  1  0            999 V2000
    7.8807   52.3461   15.5703 C   0  0  0  0  0  0
    6.5294   53.0770   15.5623 C   0  0  0  0  0  0
    6.0563   53.2939   16.8874 O   0  0  0  0  0  0
    6.4978   54.3234   17.6539 C   0  0  0  0  0  0
    7.2719   55.1939   17.2469 O   0  0  0  0  0  0
    5.9726   54.2785   19.0584 C   0  0  0  0  0  0
    6.3857   55.2539   19.9739 C   0  0  0  0  0  0
    5.9628   55.2012   21.2982 C   0  0  0  0  0  0
    5.1121   54.1757   21.7323 C   0  0  0  0  0  0
    4.6942   53.2039   20.8186 C   0  0  0  0  0  0
    5.1077   53.2628   19.4919 C   0  0  0  0  0  0
    4.6814   54.0959   23.1118 N   0  0  0  0  0  0
    5.7931   54.0984   24.0815 C   0  0  0  0  0  0
    5.3531   54.1840   25.5240 C   0  0  0  0  0  0
    6.3028   54.3278   26.5417 C   0  0  0  0  0  0
    5.9144   54.4374   27.8728 C   0  0  0  0  0  0
    4.5626   54.5011   28.1869 C   0  0  0  0  0  0
    3.6134   54.3933   27.1731 C   0  0  0  0  0  0
    3.9929   54.1020   25.8537 C   0  0  0  0  0  0
    3.0155   53.7000   24.7945 C   0  0  0  0  0  0
    1.8262   53.0583   25.0320 C   0  0  0  0  0  0
    1.1300   52.5480   26.2482 C   0  0  0  0  0  0
    1.7840   52.0964   27.4019 C   0  0  0  0  0  0
    1.0670   51.7054   28.5262 C   0  0  0  0  0  0
   -0.3208   51.7334   28.4973 C   0  0  0  0  0  0
   -0.9942   52.0956   27.3358 C   0  0  0  0  0  0
   -0.2691   52.4966   26.2174 C   0  0  0  0  0  0
   -1.2956   51.2967   30.0676 Br  0  0  0  0  0  0
    3.3648   53.9607   23.4509 C   0  0  0  0  0  0
    2.4418   54.0968   22.4827 N   0  3  0  0  0  0
    8.2068   52.1204   14.5552 H   0  0  0  0  0  0
    8.6573   52.9481   16.0423 H   0  0  0  0  0  0
    7.8117   51.4035   16.1144 H   0  0  0  0  0  0
    5.7936   52.4617   15.0435 H   0  0  0  0  0  0
    6.5945   54.0161   15.0100 H   0  0  0  0  0  0
    7.0513   56.0508   19.6702 H   0  0  0  0  0  0
    6.3044   55.9698   21.9756 H   0  0  0  0  0  0
    4.0561   52.3877   21.1281 H   0  0  0  0  0  0
    4.7701   52.4890   18.8149 H   0  0  0  0  0  0
    6.3753   53.1960   23.9108 H   0  0  0  0  0  0
    6.4489   54.9424   23.8719 H   0  0  0  0  0  0
    7.3549   54.3309   26.3007 H   0  0  0  0  0  0
    6.6601   54.4989   28.6533 H   0  0  0  0  0  0
    4.2518   54.6503   29.2104 H   0  0  0  0  0  0
    2.5720   54.4839   27.4403 H   0  0  0  0  0  0
    1.2545   52.8076   24.1528 H   0  0  0  0  0  0
    2.8597   52.0474   27.4459 H   0  0  0  0  0  0
    1.5822   51.3900   29.4201 H   0  0  0  0  0  0
   -2.0738   52.0844   27.3107 H   0  0  0  0  0  0
   -0.8113   52.8013   25.3335 H   0  0  0  0  0  0
    2.7280   54.3188   21.5346 H   0  0  0  0  0  0
    1.4575   54.0616   22.6965 H   0  0  0  0  0  0
  1  2  1  0  0  0
  1 31  1  0  0  0
  1 32  1  0  0  0
  1 33  1  0  0  0
  2  3  1  0  0  0
  2 34  1  0  0  0
  2 35  1  0  0  0
  3  4  1  0  0  0
  4  5  2  0  0  0
  4  6  1  0  0  0
  6 11  2  0  0  0
  6  7  1  0  0  0
  7  8  2  0  0  0
  7 36  1  0  0  0
  8  9  1  0  0  0
  8 37  1  0  0  0
  9 10  2  0  0  0
  9 12  1  0  0  0
 10 11  1  0  0  0
 10 38  1  0  0  0
 11 39  1  0  0  0
 12 29  1  0  0  0
 12 13  1  0  0  0
 13 14  1  0  0  0
 13 40  1  0  0  0
 13 41  1  0  0  0
 14 19  2  0  0  0
 14 15  1  0  0  0
 15 16  2  0  0  0
 15 42  1  0  0  0
 16 17  1  0  0  0
 16 43  1  0  0  0
 17 18  2  0  0  0
 17 44  1  0  0  0
 18 19  1  0  0  0
 18 45  1  0  0  0
 19 20  1  0  0  0
 20 21  2  0  0  0
 20 29  1  0  0  0
 21 22  1  0  0  0
 21 46  1  0  0  0
 22 27  2  0  0  0
 22 23  1  0  0  0
 23 24  2  0  0  0
 23 47  1  0  0  0
 24 25  1  0  0  0
 24 48  1  0  0  0
 25 26  2  0  0  0
 25 28  1  0  0  0
 26 27  1  0  0  0
 26 49  1  0  0  0
 27 50  1  0  0  0
 29 30  2  0  0  0
 30 51  1  0  0  0
 30 52  1  0  0  0
M  CHG  1  30   1
M  END
> <i_i_glide_confnum>
11

> <i_i_glide_lignum>
6067

> <i_i_glide_posenum>
186

> <i_i_glide_rotatable_bonds>
5

> <i_m_Source_File_Index>
214

> <b_m_subgroup_collapsed>
0

> <r_i_docking_score>
-5.64183

> <r_i_glide_ecoul>
0.983979

> <r_i_glide_eff_state_penalty>
0

> <r_i_glide_einternal>
5.44712

> <r_i_glide_emodel>
-49.4208

> <r_i_glide_energy>
-37.5525

> <r_i_glide_erotb>
0.28268

> <r_i_glide_esite>
-0.0125041

> <r_i_glide_evdw>
-38.5365

> <r_i_glide_gscore>
-5.64183

> <r_i_glide_hbond>
0

> <r_i_glide_ligand_efficiency>
-0.188061

> <r_i_glide_ligand_efficiency_ln>
-1.28188

> <r_i_glide_ligand_efficiency_sa>
-0.584349

> <r_i_glide_lipo>
-3.15081

> <r_i_glide_metal>
0

> <r_i_glide_rewards>
-0.981966

> <s_i_glide_gridfile>
wee1_glide-grid

> <s_m_Source_File>
wee1_decoys_glide_SP.sdf

> <s_m_Source_Path>
/Users/zhangxujun/Desktop

> <s_m_entry_id>
489

> <s_m_entry_name>
wee1_decoys_glide_SP.214

> <s_m_subgroup_title>
wee1_decoys_glide_SP

> <s_m_subgroupid>
wee1_decoys_glide_SP


$$$$
