ZINC63426751_2942
                    3D
 Schrodinger Suite 2024-2.
 71 74  0  0  1  0            999 V2000
    0.5233   52.4941   26.6695 C   0  0  0  0  0  0
    1.8676   53.0201   27.1426 C   0  0  0  0  0  0
    2.2602   52.8258   28.4659 C   0  0  0  0  0  0
    3.4888   53.3124   28.9083 C   0  0  0  0  0  0
    4.3465   53.9890   28.0355 C   0  0  0  0  0  0
    3.9612   54.1614   26.6851 C   0  0  0  0  0  0
    2.7129   53.6964   26.2619 C   0  0  0  0  0  0
    4.7278   54.8222   25.7106 N   0  0  0  0  0  0
    6.0082   54.5597   25.3884 C   0  0  0  0  0  0
    6.7042   53.6982   25.9266 O   0  0  0  0  0  0
    6.6109   55.4164   24.2786 C   0  0  0  0  0  0
    6.3185   54.7178   22.6186 S   0  0  0  0  0  0
    7.2336   55.8896   21.5576 C   0  0  2  0  0  0
    7.8699   56.4967   22.1996 H   0  0  0  0  0  0
    6.3272   56.7343   20.8348 N   0  0  0  0  0  0
    6.3430   56.4177   19.6157 N   0  0  0  0  0  0
    7.2590   55.3243   19.4399 C   0  0  2  0  0  0
    6.6599   54.4119   19.3832 H   0  0  0  0  0  0
    8.0701   55.2965   20.5945 O   0  0  0  0  0  0
    8.1164   55.4571   18.1488 C   0  0  2  0  0  0
    7.4010   55.5417   17.3266 H   0  0  0  0  0  0
    9.0047   54.1985   17.9339 C   0  0  0  0  0  0
    8.5151   53.2198   16.8736 C   0  0  0  0  0  0
    9.2098   52.4650   16.0005 C   0  0  0  0  0  0
   10.6609   52.2968   15.8130 C   0  0  0  0  0  0
   11.1423   51.4743   14.8592 C   0  0  0  0  0  0
   10.1873   50.7605   14.0209 C   0  0  0  0  0  0
    8.8458   50.9087   14.1775 C   0  0  0  0  0  0
    8.3356   51.7645   15.1655 C   0  0  0  0  0  0
    7.0901   52.0451   15.4671 N   0  3  0  0  0  0
    7.0426   52.9816   16.6000 C   0  0  0  0  0  0
    8.8959   56.6951   18.0740 N   0  0  0  0  0  0
    9.4760   57.1472   16.8896 C   0  0  0  0  0  0
    9.4685   56.5286   15.8272 O   0  0  0  0  0  0
   10.0818   58.3740   16.9869 O   0  0  0  0  0  0
   10.0860   59.3000   18.0885 C   0  0  0  0  0  0
    8.6457   59.7192   18.4813 C   0  0  0  0  0  0
   10.9017   58.7415   19.2785 C   0  0  0  0  0  0
   10.8254   60.5287   17.5249 C   0  0  0  0  0  0
    5.6325   54.5602   28.6182 C   0  0  0  0  0  0
    0.5361   51.4038   26.6274 H   0  0  0  0  0  0
   -0.2617   52.7891   27.3648 H   0  0  0  0  0  0
    0.2523   52.8851   25.6878 H   0  0  0  0  0  0
    1.6107   52.3048   29.1564 H   0  0  0  0  0  0
    3.7709   53.1688   29.9407 H   0  0  0  0  0  0
    2.4036   53.8376   25.2362 H   0  0  0  0  0  0
    4.2150   55.4189   25.0835 H   0  0  0  0  0  0
    6.2422   56.4377   24.3323 H   0  0  0  0  0  0
    7.6759   55.4961   24.4677 H   0  0  0  0  0  0
   10.0251   54.4757   17.6662 H   0  0  0  0  0  0
    9.1159   53.6762   18.8794 H   0  0  0  0  0  0
   11.3728   52.8240   16.4317 H   0  0  0  0  0  0
   12.2064   51.3456   14.7138 H   0  0  0  0  0  0
   10.5629   50.1006   13.2467 H   0  0  0  0  0  0
    8.1862   50.3556   13.5254 H   0  0  0  0  0  0
    6.5152   52.4964   17.4212 H   0  0  0  0  0  0
    6.4882   53.8596   16.2712 H   0  0  0  0  0  0
    8.9819   57.2624   18.9016 H   0  0  0  0  0  0
    8.0452   58.9073   18.8823 H   0  0  0  0  0  0
    8.6332   60.4959   19.2400 H   0  0  0  0  0  0
    8.1000   60.0987   17.6172 H   0  0  0  0  0  0
   11.9140   58.4818   18.9688 H   0  0  0  0  0  0
   10.9812   59.4698   20.0848 H   0  0  0  0  0  0
   10.4755   57.8345   19.6981 H   0  0  0  0  0  0
   10.2899   60.9667   16.6819 H   0  0  0  0  0  0
   10.9577   61.3050   18.2758 H   0  0  0  0  0  0
   11.8200   60.2640   17.1621 H   0  0  0  0  0  0
    6.4249   53.8101   28.6184 H   0  0  0  0  0  0
    5.9721   55.4362   28.0701 H   0  0  0  0  0  0
    5.4810   54.8974   29.6451 H   0  0  0  0  0  0
    6.2668   51.6586   15.0112 H   0  0  0  0  0  0
  1  2  1  0  0  0
  1 41  1  0  0  0
  1 42  1  0  0  0
  1 43  1  0  0  0
  2  7  2  0  0  0
  2  3  1  0  0  0
  3  4  2  0  0  0
  3 44  1  0  0  0
  4  5  1  0  0  0
  4 45  1  0  0  0
  5  6  2  0  0  0
  5 40  1  0  0  0
  6  7  1  0  0  0
  6  8  1  0  0  0
  7 46  1  0  0  0
  8  9  1  0  0  0
  8 47  1  0  0  0
  9 10  2  0  0  0
  9 11  1  0  0  0
 11 12  1  0  0  0
 11 48  1  0  0  0
 11 49  1  0  0  0
 12 13  1  0  0  0
 13 14  1  0  0  0
 13 19  1  0  0  0
 13 15  1  0  0  0
 15 16  2  0  0  0
 16 17  1  0  0  0
 17 18  1  0  0  0
 17 19  1  0  0  0
 17 20  1  0  0  0
 20 21  1  0  0  0
 20 22  1  0  0  0
 20 32  1  0  0  0
 22 23  1  0  0  0
 22 50  1  0  0  0
 22 51  1  0  0  0
 23 31  1  0  0  0
 23 24  2  0  0  0
 24 29  1  0  0  0
 24 25  1  0  0  0
 25 26  2  0  0  0
 25 52  1  0  0  0
 26 27  1  0  0  0
 26 53  1  0  0  0
 27 28  2  0  0  0
 27 54  1  0  0  0
 28 29  1  0  0  0
 28 55  1  0  0  0
 29 30  2  0  0  0
 30 31  1  0  0  0
 30 71  1  0  0  0
 31 56  1  0  0  0
 31 57  1  0  0  0
 32 33  1  0  0  0
 32 58  1  0  0  0
 33 34  2  0  0  0
 33 35  1  0  0  0
 35 36  1  0  0  0
 36 37  1  0  0  0
 36 38  1  0  0  0
 36 39  1  0  0  0
 37 59  1  0  0  0
 37 60  1  0  0  0
 37 61  1  0  0  0
 38 62  1  0  0  0
 38 63  1  0  0  0
 38 64  1  0  0  0
 39 65  1  0  0  0
 39 66  1  0  0  0
 39 67  1  0  0  0
 40 68  1  0  0  0
 40 69  1  0  0  0
 40 70  1  0  0  0
M  CHG  1  30   1
M  END
> <i_i_glide_confnum>
268

> <i_i_glide_lignum>
2943

> <i_i_glide_posenum>
311

> <i_i_glide_rotatable_bonds>
12

> <i_m_Source_File_Index>
5429

> <b_m_subgroup_collapsed>
0

> <r_i_docking_score>
-4.33778

> <r_i_glide_ecoul>
-1.57472

> <r_i_glide_eff_state_penalty>
0

> <r_i_glide_einternal>
7.9768

> <r_i_glide_emodel>
-56.463

> <r_i_glide_energy>
-48.4154

> <r_i_glide_erotb>
0.822325

> <r_i_glide_esite>
-0.0516001

> <r_i_glide_evdw>
-46.8407

> <r_i_glide_gscore>
-4.33778

> <r_i_glide_hbond>
0

> <r_i_glide_ligand_efficiency>
-0.117237

> <r_i_glide_ligand_efficiency_ln>
-0.940763

> <r_i_glide_ligand_efficiency_sa>
-0.390661

> <r_i_glide_lipo>
-2.37998

> <r_i_glide_metal>
0

> <r_i_glide_rewards>
-0.150276

> <s_i_glide_gridfile>
wee1_glide-grid

> <s_m_Source_File>
wee1_decoys_glide_SP.sdf

> <s_m_Source_Path>
/Users/zhangxujun/Desktop

> <s_m_entry_id>
5704

> <s_m_entry_name>
wee1_decoys_glide_SP.5429

> <s_m_subgroup_title>
wee1_decoys_glide_SP

> <s_m_subgroupid>
wee1_decoys_glide_SP


$$$$
