ZINC09078299_3359
                    3D
 Schrodinger Suite 2024-2.
 47 49  0  0  1  0            999 V2000
    0.5676   49.6489   24.5556 C   0  0  0  0  0  0
    1.5982   50.1290   23.5231 C   0  0  0  0  0  0
    1.9040   51.5104   23.6804 O   0  0  0  0  0  0
    1.1577   52.4716   23.1000 C   0  0  0  0  0  0
    0.1139   52.2838   22.4746 O   0  0  0  0  0  0
    1.6412   53.9080   23.3652 C   0  0  0  0  0  0
    3.0566   54.0701   23.7594 N   0  0  0  0  0  0
    4.0532   54.1731   22.7754 C   0  0  0  0  0  0
    3.9080   54.0963   21.3860 C   0  0  0  0  0  0
    4.9634   54.4662   20.5522 C   0  0  0  0  0  0
    6.1732   54.8971   21.1042 C   0  0  0  0  0  0
    6.3579   54.8665   22.4906 C   0  0  0  0  0  0
    5.2923   54.4966   23.3126 C   0  0  0  0  0  0
    5.2417   54.4967   25.0568 S   0  0  0  0  0  0
    3.4875   54.0033   25.0835 C   0  0  0  0  0  0
    2.7610   53.6930   26.0924 N   0  0  0  0  0  0
    3.2523   53.6372   27.3863 C   0  0  0  0  0  0
    4.3907   53.2985   27.7216 O   0  0  0  0  0  0
    2.2079   53.9195   28.4279 C   0  0  0  0  0  0
    2.2923   55.1215   29.1346 C   0  0  0  0  0  0
    1.3749   55.4121   30.1374 C   0  0  0  0  0  0
    0.3774   54.4973   30.4705 C   0  0  0  0  0  0
    0.2676   53.3065   29.7587 C   0  0  0  0  0  0
    1.1671   53.0099   28.7285 C   0  0  0  0  0  0
    0.9986   51.7401   28.0039 N   0  3  0  0  0  0
    1.9033   50.9193   28.0828 O   0  0  0  0  0  0
   -0.0466   51.5753   27.3850 O   0  5  0  0  0  0
    1.5040   56.8967   30.9916 Cl  0  0  0  0  0  0
    7.4739   55.4667   20.0225 S   0  0  0  0  0  0
    8.6641   55.6963   20.8454 O   0  0  0  0  0  0
    7.5063   54.5741   18.8609 O   0  0  0  0  0  0
    6.9368   57.0230   19.4573 N   0  0  0  0  0  0
    0.3607   48.5860   24.4271 H   0  0  0  0  0  0
   -0.3757   50.1884   24.4629 H   0  0  0  0  0  0
    0.9350   49.7864   25.5727 H   0  0  0  0  0  0
    2.5264   49.5757   23.6581 H   0  0  0  0  0  0
    1.2586   49.9158   22.5076 H   0  0  0  0  0  0
    1.3982   54.5244   22.5008 H   0  0  0  0  0  0
    1.0261   54.2851   24.1833 H   0  0  0  0  0  0
    2.9723   53.8070   20.9324 H   0  0  0  0  0  0
    4.8249   54.4467   19.4796 H   0  0  0  0  0  0
    7.3028   55.1692   22.9216 H   0  0  0  0  0  0
    3.0744   55.8356   28.9146 H   0  0  0  0  0  0
   -0.3114   54.7156   31.2722 H   0  0  0  0  0  0
   -0.5154   52.6048   30.0136 H   0  0  0  0  0  0
    7.7315   57.5758   19.1259 H   0  0  0  0  0  0
    6.2677   56.9378   18.6877 H   0  0  0  0  0  0
  1  2  1  0  0  0
  1 33  1  0  0  0
  1 34  1  0  0  0
  1 35  1  0  0  0
  2  3  1  0  0  0
  2 36  1  0  0  0
  2 37  1  0  0  0
  3  4  1  0  0  0
  4  5  2  0  0  0
  4  6  1  0  0  0
  6  7  1  0  0  0
  6 38  1  0  0  0
  6 39  1  0  0  0
  7 15  1  0  0  0
  7  8  1  0  0  0
  8 13  2  0  0  0
  8  9  1  0  0  0
  9 10  2  0  0  0
  9 40  1  0  0  0
 10 11  1  0  0  0
 10 41  1  0  0  0
 11 12  2  0  0  0
 11 29  1  0  0  0
 12 13  1  0  0  0
 12 42  1  0  0  0
 13 14  1  0  0  0
 14 15  1  0  0  0
 15 16  2  0  0  0
 16 17  1  0  0  0
 17 18  2  0  0  0
 17 19  1  0  0  0
 19 24  2  0  0  0
 19 20  1  0  0  0
 20 21  2  0  0  0
 20 43  1  0  0  0
 21 22  1  0  0  0
 21 28  1  0  0  0
 22 23  2  0  0  0
 22 44  1  0  0  0
 23 24  1  0  0  0
 23 45  1  0  0  0
 24 25  1  0  0  0
 25 26  2  0  0  0
 25 27  1  0  0  0
 29 30  2  0  0  0
 29 31  2  0  0  0
 29 32  1  0  0  0
 32 46  1  0  0  0
 32 47  1  0  0  0
M  CHG  2  25   1  27  -1
M  END
> <i_i_glide_confnum>
174

> <i_i_glide_lignum>
3360

> <i_i_glide_posenum>
224

> <i_i_glide_rotatable_bonds>
8

> <i_m_Source_File_Index>
2680

> <b_m_subgroup_collapsed>
0

> <r_i_docking_score>
-6.87379

> <r_i_glide_ecoul>
-2.00878

> <r_i_glide_eff_state_penalty>
0

> <r_i_glide_einternal>
7.3815

> <r_i_glide_emodel>
-72.1185

> <r_i_glide_energy>
-55.0761

> <r_i_glide_erotb>
0.409957

> <r_i_glide_esite>
-0.0566912

> <r_i_glide_evdw>
-53.0673

> <r_i_glide_gscore>
-6.87379

> <r_i_glide_hbond>
0

> <r_i_glide_ligand_efficiency>
-0.214806

> <r_i_glide_ligand_efficiency_ln>
-1.53923

> <r_i_glide_ligand_efficiency_sa>
-0.681967

> <r_i_glide_lipo>
-3.40046

> <r_i_glide_metal>
0

> <r_i_glide_rewards>
-0.871923

> <s_i_glide_gridfile>
wee1_glide-grid

> <s_m_Source_File>
wee1_decoys_glide_SP.sdf

> <s_m_Source_Path>
/Users/zhangxujun/Desktop

> <s_m_entry_id>
2955

> <s_m_entry_name>
wee1_decoys_glide_SP.2680

> <s_m_subgroup_title>
wee1_decoys_glide_SP

> <s_m_subgroupid>
wee1_decoys_glide_SP


$$$$
