ZINC20558540_4229
                    3D
 Schrodinger Suite 2024-2.
 57 61  0  0  1  0            999 V2000
   -8.3133   52.8747   28.3972 C   0  0  0  0  0  0
   -7.1037   52.5228   27.7425 O   0  0  0  0  0  0
   -6.4953   53.3790   26.8838 C   0  0  0  0  0  0
   -6.9358   54.4983   26.6071 O   0  0  0  0  0  0
   -5.2470   52.8096   26.2772 C   0  0  0  0  0  0
   -4.6554   51.6363   26.7727 C   0  0  0  0  0  0
   -3.5008   51.1252   26.1883 C   0  0  0  0  0  0
   -2.9174   51.7766   25.0989 C   0  0  0  0  0  0
   -3.4912   52.9548   24.6125 C   0  0  0  0  0  0
   -4.6441   53.4692   25.1980 C   0  0  0  0  0  0
   -1.6694   51.1906   24.4331 C   0  0  1  0  0  0
   -1.5530   50.1774   24.8245 H   0  0  0  0  0  0
   -1.8150   51.0367   22.9056 C   0  0  0  0  0  0
   -0.9987   51.6967   22.0587 C   0  0  0  0  0  0
    0.0221   52.4787   22.4889 O   0  0  0  0  0  0
    0.3976   52.5160   23.8073 C   0  0  0  0  0  0
   -0.3626   51.9451   24.7622 C   0  0  0  0  0  0
    0.1256   51.8939   26.4861 S   0  0  0  0  0  0
   -0.8097   52.6930   27.2834 O   0  0  0  0  0  0
    0.3018   50.4948   26.8810 O   0  0  0  0  0  0
    1.7413   52.6903   26.4650 N   0  0  0  0  0  0
    2.3074   53.2968   25.3049 C   0  0  0  0  0  0
    1.6881   53.2016   24.0347 C   0  0  0  0  0  0
    2.3395   53.7563   22.9174 C   0  0  0  0  0  0
    3.5699   54.3876   23.0330 C   0  0  0  0  0  0
    4.1731   54.4954   24.2764 C   0  0  0  0  0  0
    3.5465   53.9612   25.3952 C   0  0  0  0  0  0
    2.4049   52.6620   27.7774 C   0  0  0  0  0  0
    1.9185   53.7669   28.7114 C   0  0  0  0  0  0
    2.3123   55.0935   28.5079 C   0  0  0  0  0  0
    1.9041   56.0967   29.3853 C   0  0  0  0  0  0
    1.1044   55.7821   30.4801 C   0  0  0  0  0  0
    0.6944   54.4641   30.6846 C   0  0  0  0  0  0
    1.1024   53.4585   29.8084 C   0  0  0  0  0  0
    0.7229   52.1822   30.0450 F   0  0  0  0  0  0
   -1.0024   51.6867   20.6905 N   0  0  0  0  0  0
   -2.8705   50.2234   22.3948 C   0  0  0  0  0  0
   -3.7220   49.5807   21.9480 N   0  0  0  0  0  0
   -8.6853   52.0229   28.9663 H   0  0  0  0  0  0
   -9.0834   53.1640   27.6804 H   0  0  0  0  0  0
   -8.1534   53.6993   29.0912 H   0  0  0  0  0  0
   -5.0758   51.1034   27.6139 H   0  0  0  0  0  0
   -3.0608   50.2217   26.5902 H   0  0  0  0  0  0
   -3.0447   53.4715   23.7757 H   0  0  0  0  0  0
   -5.0678   54.3766   24.7909 H   0  0  0  0  0  0
    1.9099   53.6974   21.9276 H   0  0  0  0  0  0
    4.0496   54.7983   22.1560 H   0  0  0  0  0  0
    5.1317   54.9838   24.3731 H   0  0  0  0  0  0
    4.0802   54.0581   26.3252 H   0  0  0  0  0  0
    2.2106   51.6944   28.2433 H   0  0  0  0  0  0
    3.4896   52.6992   27.7018 H   0  0  0  0  0  0
    2.9402   55.3553   27.6734 H   0  0  0  0  0  0
    2.2156   57.1185   29.2251 H   0  0  0  0  0  0
    0.8020   56.5616   31.1637 H   0  0  0  0  0  0
    0.0718   54.2129   31.5313 H   0  0  0  0  0  0
   -1.6728   51.1167   20.1955 H   0  0  0  0  0  0
   -0.1578   51.9264   20.1911 H   0  0  0  0  0  0
  1  2  1  0  0  0
  1 39  1  0  0  0
  1 40  1  0  0  0
  1 41  1  0  0  0
  2  3  1  0  0  0
  3  4  2  0  0  0
  3  5  1  0  0  0
  5 10  2  0  0  0
  5  6  1  0  0  0
  6  7  2  0  0  0
  6 42  1  0  0  0
  7  8  1  0  0  0
  7 43  1  0  0  0
  8  9  2  0  0  0
  8 11  1  0  0  0
  9 10  1  0  0  0
  9 44  1  0  0  0
 10 45  1  0  0  0
 11 12  1  0  0  0
 11 17  1  0  0  0
 11 13  1  0  0  0
 13 14  2  0  0  0
 13 37  1  0  0  0
 14 15  1  0  0  0
 14 36  1  0  0  0
 15 16  1  0  0  0
 16 23  1  0  0  0
 16 17  2  0  0  0
 17 18  1  0  0  0
 18 19  2  0  0  0
 18 20  2  0  0  0
 18 21  1  0  0  0
 21 22  1  0  0  0
 21 28  1  0  0  0
 22 27  2  0  0  0
 22 23  1  0  0  0
 23 24  2  0  0  0
 24 25  1  0  0  0
 24 46  1  0  0  0
 25 26  2  0  0  0
 25 47  1  0  0  0
 26 27  1  0  0  0
 26 48  1  0  0  0
 27 49  1  0  0  0
 28 29  1  0  0  0
 28 50  1  0  0  0
 28 51  1  0  0  0
 29 34  2  0  0  0
 29 30  1  0  0  0
 30 31  2  0  0  0
 30 52  1  0  0  0
 31 32  1  0  0  0
 31 53  1  0  0  0
 32 33  2  0  0  0
 32 54  1  0  0  0
 33 34  1  0  0  0
 33 55  1  0  0  0
 34 35  1  0  0  0
 36 56  1  0  0  0
 36 57  1  0  0  0
 37 38  3  0  0  0
M  END
> <i_i_glide_confnum>
21

> <i_i_glide_lignum>
4230

> <i_i_glide_posenum>
232

> <i_i_glide_rotatable_bonds>
6

> <i_m_Source_File_Index>
148

> <b_m_subgroup_collapsed>
0

> <r_i_docking_score>
-5.75709

> <r_i_glide_ecoul>
-1.29622

> <r_i_glide_eff_state_penalty>
0

> <r_i_glide_einternal>
3.17748

> <r_i_glide_emodel>
-61.662

> <r_i_glide_energy>
-46.9065

> <r_i_glide_erotb>
0.306643

> <r_i_glide_esite>
-0.102459

> <r_i_glide_evdw>
-45.6103

> <r_i_glide_gscore>
-5.75709

> <r_i_glide_hbond>
-0.0323704

> <r_i_glide_ligand_efficiency>
-0.155597

> <r_i_glide_ligand_efficiency_ln>
-1.24858

> <r_i_glide_ligand_efficiency_sa>
-0.518484

> <r_i_glide_lipo>
-3.17104

> <r_i_glide_metal>
0

> <r_i_glide_rewards>
-0.282914

> <s_i_glide_gridfile>
wee1_glide-grid

> <s_m_Source_File>
wee1_decoys_glide_SP.sdf

> <s_m_Source_Path>
/Users/zhangxujun/Desktop

> <s_m_entry_id>
423

> <s_m_entry_name>
wee1_decoys_glide_SP.148

> <s_m_subgroup_title>
wee1_decoys_glide_SP

> <s_m_subgroupid>
wee1_decoys_glide_SP


$$$$
