ZINC00683819_4262
                    3D
 Schrodinger Suite 2024-2.
 44 46  0  0  1  0            999 V2000
    5.5047   54.7231   24.7986 C   0  0  0  0  0  0
    6.7041   54.7225   25.5016 C   0  0  0  0  0  0
    6.7037   54.4960   26.8778 C   0  0  0  0  0  0
    5.5051   54.2621   27.5524 C   0  0  0  0  0  0
    4.2877   54.2596   26.8552 C   0  0  0  0  0  0
    4.3049   54.4972   25.4692 C   0  0  0  0  0  0
    2.9933   53.9543   27.5686 C   0  0  0  0  0  0
    2.7378   54.4563   28.6641 O   0  0  0  0  0  0
    2.1928   53.1239   26.8667 N   0  0  0  0  0  0
    0.9888   52.5151   27.1208 C   0  0  0  0  0  0
    0.2387   52.3440   28.6016 S   0  0  0  0  0  0
    0.3866   51.9580   26.0252 N   0  0  0  0  0  0
    0.8019   52.0784   24.6857 C   0  0  0  0  0  0
    1.1047   50.9297   23.9511 C   0  0  0  0  0  0
    1.7006   51.0514   22.6942 C   0  0  0  0  0  0
    1.9907   52.3204   22.1815 C   0  0  0  0  0  0
    1.5949   53.4667   22.8802 C   0  0  0  0  0  0
    0.9919   53.3444   24.1226 C   0  0  0  0  0  0
    2.6663   52.4129   20.9545 N   0  0  0  0  0  0
    3.6472   53.2962   20.6541 C   0  0  0  0  0  0
    4.1705   54.0492   21.4820 O   0  0  0  0  0  0
    4.1193   53.2972   19.2192 C   0  0  0  0  0  0
    5.4297   53.6962   18.9130 C   0  0  0  0  0  0
    5.8806   53.7069   17.5932 C   0  0  0  0  0  0
    5.0245   53.3330   16.5590 C   0  0  0  0  0  0
    3.7158   52.9469   16.8446 C   0  0  0  0  0  0
    3.2651   52.9288   18.1648 C   0  0  0  0  0  0
    2.6509   52.4987   15.5624 Cl  0  0  0  0  0  0
    5.5480   54.0193   28.8813 F   0  0  0  0  0  0
    5.5023   54.8934   23.7314 H   0  0  0  0  0  0
    7.6265   54.8881   24.9674 H   0  0  0  0  0  0
    7.6298   54.4893   27.4321 H   0  0  0  0  0  0
    3.3914   54.5112   24.8922 H   0  0  0  0  0  0
    2.5944   52.8557   25.9827 H   0  0  0  0  0  0
   -0.4366   51.3953   26.1925 H   0  0  0  0  0  0
    0.9461   49.9464   24.3757 H   0  0  0  0  0  0
    1.9822   50.1598   22.1515 H   0  0  0  0  0  0
    1.7794   54.4531   22.4782 H   0  0  0  0  0  0
    0.7334   54.2374   24.6698 H   0  0  0  0  0  0
    2.4299   51.7325   20.2496 H   0  0  0  0  0  0
    6.1126   53.9940   19.6968 H   0  0  0  0  0  0
    6.8938   54.0081   17.3721 H   0  0  0  0  0  0
    5.3766   53.3451   15.5383 H   0  0  0  0  0  0
    2.2421   52.6351   18.3509 H   0  0  0  0  0  0
  1  6  2  0  0  0
  1  2  1  0  0  0
  1 30  1  0  0  0
  2  3  2  0  0  0
  2 31  1  0  0  0
  3  4  1  0  0  0
  3 32  1  0  0  0
  4  5  2  0  0  0
  4 29  1  0  0  0
  5  6  1  0  0  0
  5  7  1  0  0  0
  6 33  1  0  0  0
  7  8  2  0  0  0
  7  9  1  0  0  0
  9 10  1  0  0  0
  9 34  1  0  0  0
 10 11  2  0  0  0
 10 12  1  0  0  0
 12 13  1  0  0  0
 12 35  1  0  0  0
 13 18  2  0  0  0
 13 14  1  0  0  0
 14 15  2  0  0  0
 14 36  1  0  0  0
 15 16  1  0  0  0
 15 37  1  0  0  0
 16 17  2  0  0  0
 16 19  1  0  0  0
 17 18  1  0  0  0
 17 38  1  0  0  0
 18 39  1  0  0  0
 19 20  1  0  0  0
 19 40  1  0  0  0
 20 21  2  0  0  0
 20 22  1  0  0  0
 22 27  2  0  0  0
 22 23  1  0  0  0
 23 24  2  0  0  0
 23 41  1  0  0  0
 24 25  1  0  0  0
 24 42  1  0  0  0
 25 26  2  0  0  0
 25 43  1  0  0  0
 26 27  1  0  0  0
 26 28  1  0  0  0
 27 44  1  0  0  0
M  END
> <i_i_glide_confnum>
112

> <i_i_glide_lignum>
4263

> <i_i_glide_posenum>
172

> <i_i_glide_rotatable_bonds>
8

> <i_m_Source_File_Index>
2845

> <b_m_subgroup_collapsed>
0

> <r_i_docking_score>
-4.48392

> <r_i_glide_ecoul>
-1.70464

> <r_i_glide_eff_state_penalty>
0

> <r_i_glide_einternal>
9.06967

> <r_i_glide_emodel>
-51.8788

> <r_i_glide_energy>
-45.3828

> <r_i_glide_erotb>
0.759289

> <r_i_glide_esite>
-0.0142378

> <r_i_glide_evdw>
-43.6782

> <r_i_glide_gscore>
-4.48392

> <r_i_glide_hbond>
0

> <r_i_glide_ligand_efficiency>
-0.154618

> <r_i_glide_ligand_efficiency_ln>
-1.0267

> <r_i_glide_ligand_efficiency_sa>
-0.475035

> <r_i_glide_lipo>
-2.36696

> <r_i_glide_metal>
0

> <r_i_glide_rewards>
-0.422409

> <s_i_glide_gridfile>
wee1_glide-grid

> <s_m_Source_File>
wee1_decoys_glide_SP.sdf

> <s_m_Source_Path>
/Users/zhangxujun/Desktop

> <s_m_entry_id>
3120

> <s_m_entry_name>
wee1_decoys_glide_SP.2845

> <s_m_subgroup_title>
wee1_decoys_glide_SP

> <s_m_subgroupid>
wee1_decoys_glide_SP


$$$$
