ZINC20720052_5847
                    3D
 Schrodinger Suite 2024-2.
 61 66  0  0  1  0            999 V2000
    1.5025   52.4974   31.3530 C   0  0  0  0  0  0
    2.1928   53.1395   30.1273 C   0  0  0  0  0  0
    2.7259   52.0969   29.1249 C   0  0  0  0  0  0
    1.5695   51.2974   28.4855 C   0  0  0  0  0  0
    0.4993   52.1826   27.9592 N   0  0  0  0  0  0
    0.0836   53.3890   28.7254 C   0  0  0  0  0  0
    1.2771   54.1203   29.3679 C   0  0  0  0  0  0
   -0.3355   51.7403   26.4678 S   0  0  0  0  0  0
   -0.2998   50.2821   26.3185 O   0  0  0  0  0  0
   -1.5912   52.4965   26.3757 O   0  0  0  0  0  0
    0.6861   52.3412   25.1351 C   0  0  0  0  0  0
    0.2554   52.0797   23.8373 C   0  0  0  0  0  0
    1.0164   52.5047   22.7575 C   0  0  0  0  0  0
    2.2098   53.1893   22.9740 C   0  0  0  0  0  0
    2.6745   53.4531   24.2792 C   0  0  0  0  0  0
    1.8869   53.0281   25.3549 C   0  0  0  0  0  0
    3.9584   54.2625   24.4356 C   0  0  1  0  0  0
    3.6288   55.2966   24.3931 H   0  0  0  0  0  0
    4.8922   54.1068   25.6179 C   0  0  0  0  0  0
    6.1558   54.3681   25.2171 C   0  0  0  0  0  0
    6.2317   54.5634   23.7053 C   0  0  0  0  0  0
    4.9021   53.9446   23.2816 C   0  0  2  0  0  0
    5.0959   52.8784   23.2446 H   0  0  0  0  0  0
    4.2274   54.2800   21.9367 C   0  0  2  0  0  0
    3.9657   55.3243   21.9402 H   0  0  0  0  0  0
    2.9365   53.5900   21.8394 N   0  0  0  0  0  0
    5.0471   53.9788   20.7023 C   0  0  0  0  0  0
    5.0861   52.7840   20.0120 C   0  0  0  0  0  0
    5.8451   52.8969   18.8821 N   0  0  0  0  0  0
    5.9243   52.1106   18.2359 H   0  0  0  0  0  0
    6.3905   54.1591   18.8203 C   0  0  0  0  0  0
    5.9065   54.8717   19.9659 C   0  0  0  0  0  0
    6.3030   56.2097   20.1364 C   0  0  0  0  0  0
    7.1366   56.7960   19.1853 C   0  0  0  0  0  0
    7.6010   56.0740   18.0900 C   0  0  0  0  0  0
    7.2446   54.7422   17.8795 C   0  0  0  0  0  0
    0.6493   51.8806   31.0781 H   0  0  0  0  0  0
    1.1078   53.2569   32.0292 H   0  0  0  0  0  0
    2.1905   51.8767   31.9270 H   0  0  0  0  0  0
    3.0514   53.7116   30.4816 H   0  0  0  0  0  0
    3.3161   52.5776   28.3441 H   0  0  0  0  0  0
    3.3965   51.3998   29.6272 H   0  0  0  0  0  0
    1.9042   50.6252   27.6961 H   0  0  0  0  0  0
    1.1111   50.6819   29.2572 H   0  0  0  0  0  0
   -0.4951   54.0530   28.0845 H   0  0  0  0  0  0
   -0.5872   53.0506   29.5155 H   0  0  0  0  0  0
    0.8928   54.8835   30.0453 H   0  0  0  0  0  0
    1.8384   54.6475   28.5937 H   0  0  0  0  0  0
   -0.6667   51.5401   23.6679 H   0  0  0  0  0  0
    0.6795   52.2995   21.7519 H   0  0  0  0  0  0
    2.2189   53.2445   26.3585 H   0  0  0  0  0  0
    4.5541   53.9399   26.6296 H   0  0  0  0  0  0
    7.0320   54.4077   25.8476 H   0  0  0  0  0  0
    7.0721   54.0262   23.2616 H   0  0  0  0  0  0
    6.3245   55.6102   23.4153 H   0  0  0  0  0  0
    2.4489   53.7642   20.9693 H   0  0  0  0  0  0
    4.5739   51.8502   20.2018 H   0  0  0  0  0  0
    5.9383   56.7835   20.9743 H   0  0  0  0  0  0
    7.4246   57.8332   19.2801 H   0  0  0  0  0  0
    8.2468   56.5657   17.3749 H   0  0  0  0  0  0
    7.6073   54.1947   17.0209 H   0  0  0  0  0  0
  1  2  1  0  0  0
  1 37  1  0  0  0
  1 38  1  0  0  0
  1 39  1  0  0  0
  2  7  1  0  0  0
  2  3  1  0  0  0
  2 40  1  0  0  0
  3  4  1  0  0  0
  3 41  1  0  0  0
  3 42  1  0  0  0
  4  5  1  0  0  0
  4 43  1  0  0  0
  4 44  1  0  0  0
  5  6  1  0  0  0
  5  8  1  0  0  0
  6  7  1  0  0  0
  6 45  1  0  0  0
  6 46  1  0  0  0
  7 47  1  0  0  0
  7 48  1  0  0  0
  8  9  2  0  0  0
  8 10  2  0  0  0
  8 11  1  0  0  0
 11 16  2  0  0  0
 11 12  1  0  0  0
 12 13  2  0  0  0
 12 49  1  0  0  0
 13 14  1  0  0  0
 13 50  1  0  0  0
 14 26  1  0  0  0
 14 15  2  0  0  0
 15 16  1  0  0  0
 15 17  1  0  0  0
 16 51  1  0  0  0
 17 18  1  0  0  0
 17 22  1  0  0  0
 17 19  1  0  0  0
 19 20  2  0  0  0
 19 52  1  0  0  0
 20 21  1  0  0  0
 20 53  1  0  0  0
 21 22  1  0  0  0
 21 54  1  0  0  0
 21 55  1  0  0  0
 22 23  1  0  0  0
 22 24  1  0  0  0
 24 25  1  0  0  0
 24 26  1  0  0  0
 24 27  1  0  0  0
 26 56  1  0  0  0
 27 32  1  0  0  0
 27 28  2  0  0  0
 28 29  1  0  0  0
 28 57  1  0  0  0
 29 30  1  0  0  0
 29 31  1  0  0  0
 31 36  2  0  0  0
 31 32  1  0  0  0
 32 33  2  0  0  0
 33 34  1  0  0  0
 33 58  1  0  0  0
 34 35  2  0  0  0
 34 59  1  0  0  0
 35 36  1  0  0  0
 35 60  1  0  0  0
 36 61  1  0  0  0
M  END
> <i_i_glide_confnum>
37

> <i_i_glide_lignum>
5848

> <i_i_glide_posenum>
61

> <i_i_glide_rotatable_bonds>
3

> <i_m_Source_File_Index>
1377

> <b_m_subgroup_collapsed>
0

> <r_i_docking_score>
-3.89325

> <r_i_glide_ecoul>
-0.623654

> <r_i_glide_eff_state_penalty>
0

> <r_i_glide_einternal>
6.09409

> <r_i_glide_emodel>
-43.8603

> <r_i_glide_energy>
-44.0893

> <r_i_glide_erotb>
0.299879

> <r_i_glide_esite>
-0.202827

> <r_i_glide_evdw>
-43.4656

> <r_i_glide_gscore>
-3.89325

> <r_i_glide_hbond>
-0.358617

> <r_i_glide_ligand_efficiency>
-0.121664

> <r_i_glide_ligand_efficiency_ln>
-0.871806

> <r_i_glide_ligand_efficiency_sa>
-0.38626

> <r_i_glide_lipo>
-3.27589

> <r_i_glide_metal>
0

> <r_i_glide_rewards>
1.91103

> <s_i_glide_gridfile>
wee1_glide-grid

> <s_m_Source_File>
wee1_decoys_glide_SP.sdf

> <s_m_Source_Path>
/Users/zhangxujun/Desktop

> <s_m_entry_id>
1652

> <s_m_entry_name>
wee1_decoys_glide_SP.1377

> <s_m_subgroup_title>
wee1_decoys_glide_SP

> <s_m_subgroupid>
wee1_decoys_glide_SP


$$$$
