ZINC13685014_5034
                    3D
 Schrodinger Suite 2024-2.
 64 67  0  0  1  0            999 V2000
    6.4824   54.9123   24.4884 C   0  0  0  0  0  0
    5.6051   54.9174   25.5636 C   0  0  0  0  0  0
    4.2908   54.4962   25.3900 C   0  0  0  0  0  0
    3.8274   54.0461   24.1388 C   0  0  0  0  0  0
    4.7198   54.0637   23.0292 C   0  0  0  0  0  0
    6.0445   54.4949   23.2371 C   0  0  0  0  0  0
    4.3073   53.6170   21.6336 C   0  0  0  0  0  0
    3.4377   52.7601   21.4692 O   0  0  0  0  0  0
    4.9256   54.2354   20.6091 N   0  0  0  0  0  0
    4.7064   53.9890   19.1785 C   0  0  0  0  0  0
    4.3043   55.2919   18.4442 C   0  0  0  0  0  0
    5.4075   56.3740   18.4807 C   0  0  0  0  0  0
    6.7355   55.8430   17.9039 C   0  0  0  0  0  0
    7.1520   54.4942   18.5274 C   0  0  0  0  0  0
    5.9931   53.4701   18.4920 C   0  0  0  0  0  0
    2.5070   53.5526   23.9554 N   0  0  0  0  0  0
    1.5652   53.1785   24.8557 C   0  0  0  0  0  0
    1.7063   53.2968   26.0733 O   0  0  0  0  0  0
    0.2068   52.6397   24.3010 C   0  0  0  0  0  0
    0.3844   51.8285   22.9796 C   0  0  0  0  0  0
    1.0513   50.4538   23.1902 C   0  0  0  0  0  0
    0.3048   49.6608   24.1999 N   0  0  0  0  0  0
    0.1337   50.3181   25.5206 C   0  0  0  0  0  0
   -0.4968   51.7267   25.3619 C   0  0  0  0  0  0
   -0.9444   48.5083   23.6666 S   0  0  0  0  0  0
   -0.8957   48.4206   22.2023 O   0  0  0  0  0  0
   -0.8082   47.2962   24.4814 O   0  0  0  0  0  0
   -2.5163   49.2492   24.1125 C   0  0  0  0  0  0
   -3.0290   49.0436   25.3976 C   0  0  0  0  0  0
   -4.2227   49.6541   25.7721 C   0  0  0  0  0  0
   -4.9003   50.4630   24.8619 C   0  0  0  0  0  0
   -4.3947   50.6631   23.5781 C   0  0  0  0  0  0
   -3.1974   50.0581   23.1999 C   0  0  0  0  0  0
   -6.3744   51.2300   25.3274 Cl  0  0  0  0  0  0
    7.5044   55.2349   24.6145 H   0  0  0  0  0  0
    5.9390   55.2462   26.5369 H   0  0  0  0  0  0
    3.6554   54.5316   26.2586 H   0  0  0  0  0  0
    6.7660   54.5005   22.4321 H   0  0  0  0  0  0
    5.6116   54.9388   20.8297 H   0  0  0  0  0  0
    3.9139   53.2476   19.0419 H   0  0  0  0  0  0
    3.3897   55.6915   18.8781 H   0  0  0  0  0  0
    4.0519   55.0625   17.4079 H   0  0  0  0  0  0
    5.5614   56.7131   19.5062 H   0  0  0  0  0  0
    5.0839   57.2531   17.9210 H   0  0  0  0  0  0
    7.5266   56.5816   18.0427 H   0  0  0  0  0  0
    6.6261   55.7171   16.8250 H   0  0  0  0  0  0
    7.4763   54.6526   19.5573 H   0  0  0  0  0  0
    8.0175   54.0911   17.9994 H   0  0  0  0  0  0
    5.7697   53.2018   17.4582 H   0  0  0  0  0  0
    6.3038   52.5363   18.9623 H   0  0  0  0  0  0
    2.3069   53.3327   22.9872 H   0  0  0  0  0  0
   -0.3622   53.5537   24.1306 H   0  0  0  0  0  0
   -0.6005   51.6996   22.5280 H   0  0  0  0  0  0
    0.8633   52.4246   22.2022 H   0  0  0  0  0  0
    1.1181   49.8863   22.2619 H   0  0  0  0  0  0
    2.0722   50.5857   23.5520 H   0  0  0  0  0  0
   -0.4646   49.6761   26.1683 H   0  0  0  0  0  0
    1.1039   50.3981   25.9981 H   0  0  0  0  0  0
   -0.6001   52.2413   26.3189 H   0  0  0  0  0  0
   -1.5516   51.6606   25.0998 H   0  0  0  0  0  0
   -2.4982   48.4294   26.1154 H   0  0  0  0  0  0
   -4.6109   49.5045   26.7689 H   0  0  0  0  0  0
   -4.9287   51.2930   22.8823 H   0  0  0  0  0  0
   -2.8012   50.2202   22.2086 H   0  0  0  0  0  0
  1  6  2  0  0  0
  1  2  1  0  0  0
  1 35  1  0  0  0
  2  3  2  0  0  0
  2 36  1  0  0  0
  3  4  1  0  0  0
  3 37  1  0  0  0
  4  5  2  0  0  0
  4 16  1  0  0  0
  5  6  1  0  0  0
  5  7  1  0  0  0
  6 38  1  0  0  0
  7  8  2  0  0  0
  7  9  1  0  0  0
  9 10  1  0  0  0
  9 39  1  0  0  0
 10 15  1  0  0  0
 10 11  1  0  0  0
 10 40  1  0  0  0
 11 12  1  0  0  0
 11 41  1  0  0  0
 11 42  1  0  0  0
 12 13  1  0  0  0
 12 43  1  0  0  0
 12 44  1  0  0  0
 13 14  1  0  0  0
 13 45  1  0  0  0
 13 46  1  0  0  0
 14 15  1  0  0  0
 14 47  1  0  0  0
 14 48  1  0  0  0
 15 49  1  0  0  0
 15 50  1  0  0  0
 16 17  1  0  0  0
 16 51  1  0  0  0
 17 18  2  0  0  0
 17 19  1  0  0  0
 19 24  1  0  0  0
 19 20  1  0  0  0
 19 52  1  0  0  0
 20 21  1  0  0  0
 20 53  1  0  0  0
 20 54  1  0  0  0
 21 22  1  0  0  0
 21 55  1  0  0  0
 21 56  1  0  0  0
 22 23  1  0  0  0
 22 25  1  0  0  0
 23 24  1  0  0  0
 23 57  1  0  0  0
 23 58  1  0  0  0
 24 59  1  0  0  0
 24 60  1  0  0  0
 25 26  2  0  0  0
 25 27  2  0  0  0
 25 28  1  0  0  0
 28 33  2  0  0  0
 28 29  1  0  0  0
 29 30  2  0  0  0
 29 61  1  0  0  0
 30 31  1  0  0  0
 30 62  1  0  0  0
 31 32  2  0  0  0
 31 34  1  0  0  0
 32 33  1  0  0  0
 32 63  1  0  0  0
 33 64  1  0  0  0
M  END
> <i_i_glide_confnum>
442

> <i_i_glide_lignum>
5035

> <i_i_glide_posenum>
174

> <i_i_glide_rotatable_bonds>
8

> <i_m_Source_File_Index>
1164

> <b_m_subgroup_collapsed>
0

> <r_i_docking_score>
-3.99178

> <r_i_glide_ecoul>
-0.940878

> <r_i_glide_eff_state_penalty>
0

> <r_i_glide_einternal>
3.57183

> <r_i_glide_emodel>
-56.6807

> <r_i_glide_energy>
-45.2183

> <r_i_glide_erotb>
0.643757

> <r_i_glide_esite>
-0.0835397

> <r_i_glide_evdw>
-44.2774

> <r_i_glide_gscore>
-3.99178

> <r_i_glide_hbond>
0

> <r_i_glide_ligand_efficiency>
-0.117405

> <r_i_glide_ligand_efficiency_ln>
-0.881896

> <r_i_glide_ligand_efficiency_sa>
-0.380348

> <r_i_glide_lipo>
-2.08877

> <r_i_glide_metal>
0

> <r_i_glide_rewards>
-0.108228

> <s_i_glide_gridfile>
wee1_glide-grid

> <s_m_Source_File>
wee1_decoys_glide_SP.sdf

> <s_m_Source_Path>
/Users/zhangxujun/Desktop

> <s_m_entry_id>
1439

> <s_m_entry_name>
wee1_decoys_glide_SP.1164

> <s_m_subgroup_title>
wee1_decoys_glide_SP

> <s_m_subgroupid>
wee1_decoys_glide_SP


$$$$
