ZINC00866080_5168
                    3D
 Schrodinger Suite 2024-2.
 57 60  0  0  1  0            999 V2000
    0.7035   52.7141   31.8985 C   0  0  0  0  0  0
    1.7320   52.8682   30.9284 O   0  0  0  0  0  0
    1.4158   52.7194   29.5922 C   0  0  0  0  0  0
    0.1482   52.3214   29.1384 C   0  0  0  0  0  0
   -0.1165   52.2199   27.7792 C   0  0  0  0  0  0
    0.8762   52.4982   26.8386 C   0  0  0  0  0  0
    2.1469   52.8817   27.2925 C   0  0  0  0  0  0
    2.4303   52.9924   28.6633 C   0  0  0  0  0  0
    3.6657   53.3714   29.1665 O   0  0  0  0  0  0
    4.7329   53.6622   28.2724 C   0  0  0  0  0  0
    0.5332   52.4192   25.3444 C   0  0  2  0  0  0
   -0.3239   53.0840   25.2562 H   0  0  0  0  0  0
    0.0887   51.0002   24.9054 C   0  0  0  0  0  0
   -0.2646   50.9007   23.3969 C   0  0  2  0  0  0
   -0.3108   49.8463   23.1161 H   0  0  0  0  0  0
    0.8665   51.4978   22.6867 N   0  0  0  0  0  0
    1.6822   52.5089   23.1556 C   0  0  0  0  0  0
    2.5703   52.8064   22.1304 C   0  0  0  0  0  0
    2.1698   51.9484   21.0898 C   0  0  0  0  0  0
    1.1425   51.1961   21.4110 N   0  0  0  0  0  0
    3.7037   53.6968   22.1943 C   0  0  0  0  0  0
    4.1252   54.0963   23.2807 O   0  0  0  0  0  0
    4.2245   54.0073   20.9912 N   0  0  0  0  0  0
    5.4119   54.6949   20.6643 C   0  0  0  0  0  0
    6.3900   55.0397   21.6163 C   0  0  0  0  0  0
    7.5541   55.6967   21.2278 C   0  0  0  0  0  0
    7.7588   56.0290   19.8920 C   0  0  0  0  0  0
    6.7927   55.7107   18.9412 C   0  0  0  0  0  0
    5.6309   55.0334   19.3163 C   0  0  0  0  0  0
    4.4313   54.6898   18.0527 S   0  0  0  0  0  0
    4.5515   52.9050   17.7518 C   0  0  0  0  0  0
    1.5551   52.9763   24.4477 N   0  0  0  0  0  0
   -1.6325   51.5286   23.0239 C   0  0  0  0  0  0
   -2.6228   50.9556   23.7086 F   0  0  0  0  0  0
   -1.6927   52.8377   23.2817 F   0  0  0  0  0  0
   -1.9124   51.3749   21.7279 F   0  0  0  0  0  0
    1.1036   52.9361   32.8812 H   0  0  0  0  0  0
   -0.1254   53.4051   31.7258 H   0  0  0  0  0  0
    0.3149   51.6964   31.9173 H   0  0  0  0  0  0
   -0.6497   52.0891   29.8293 H   0  0  0  0  0  0
   -1.1070   51.9260   27.4625 H   0  0  0  0  0  0
    2.9209   53.0881   26.5691 H   0  0  0  0  0  0
    5.6162   53.9402   28.8459 H   0  0  0  0  0  0
    4.9979   52.7948   27.6642 H   0  0  0  0  0  0
    4.4900   54.4984   27.6152 H   0  0  0  0  0  0
   -0.7769   50.6870   25.4918 H   0  0  0  0  0  0
    0.8528   50.2633   25.1529 H   0  0  0  0  0  0
    2.6237   51.8582   20.1163 H   0  0  0  0  0  0
    3.6971   53.6968   20.1878 H   0  0  0  0  0  0
    6.2871   54.7888   22.6605 H   0  0  0  0  0  0
    8.3039   55.9425   21.9677 H   0  0  0  0  0  0
    8.6688   56.5319   19.5913 H   0  0  0  0  0  0
    6.9516   55.9799   17.9070 H   0  0  0  0  0  0
    3.8664   52.5976   16.9626 H   0  0  0  0  0  0
    5.5629   52.6352   17.4468 H   0  0  0  0  0  0
    4.3047   52.3436   18.6513 H   0  0  0  0  0  0
    1.8056   53.9337   24.6547 H   0  0  0  0  0  0
  1  2  1  0  0  0
  1 37  1  0  0  0
  1 38  1  0  0  0
  1 39  1  0  0  0
  2  3  1  0  0  0
  3  8  2  0  0  0
  3  4  1  0  0  0
  4  5  2  0  0  0
  4 40  1  0  0  0
  5  6  1  0  0  0
  5 41  1  0  0  0
  6  7  2  0  0  0
  6 11  1  0  0  0
  7  8  1  0  0  0
  7 42  1  0  0  0
  8  9  1  0  0  0
  9 10  1  0  0  0
 10 43  1  0  0  0
 10 44  1  0  0  0
 10 45  1  0  0  0
 11 12  1  0  0  0
 11 32  1  0  0  0
 11 13  1  0  0  0
 13 14  1  0  0  0
 13 46  1  0  0  0
 13 47  1  0  0  0
 14 15  1  0  0  0
 14 16  1  0  0  0
 14 33  1  0  0  0
 16 20  1  0  0  0
 16 17  1  0  0  0
 17 18  2  0  0  0
 17 32  1  0  0  0
 18 19  1  0  0  0
 18 21  1  0  0  0
 19 20  2  0  0  0
 19 48  1  0  0  0
 21 22  2  0  0  0
 21 23  1  0  0  0
 23 24  1  0  0  0
 23 49  1  0  0  0
 24 29  2  0  0  0
 24 25  1  0  0  0
 25 26  2  0  0  0
 25 50  1  0  0  0
 26 27  1  0  0  0
 26 51  1  0  0  0
 27 28  2  0  0  0
 27 52  1  0  0  0
 28 29  1  0  0  0
 28 53  1  0  0  0
 29 30  1  0  0  0
 30 31  1  0  0  0
 31 54  1  0  0  0
 31 55  1  0  0  0
 31 56  1  0  0  0
 32 57  1  0  0  0
 33 34  1  0  0  0
 33 35  1  0  0  0
 33 36  1  0  0  0
M  END
> <i_i_glide_confnum>
17

> <i_i_glide_lignum>
5169

> <i_i_glide_posenum>
398

> <i_i_glide_rotatable_bonds>
8

> <i_m_Source_File_Index>
2324

> <b_m_subgroup_collapsed>
0

> <r_i_docking_score>
-5.48658

> <r_i_glide_ecoul>
-7.17608

> <r_i_glide_eff_state_penalty>
0

> <r_i_glide_einternal>
4.45596

> <r_i_glide_emodel>
-67.4572

> <r_i_glide_energy>
-51.0282

> <r_i_glide_erotb>
0.335821

> <r_i_glide_esite>
-0.0108832

> <r_i_glide_evdw>
-43.8521

> <r_i_glide_gscore>
-5.48658

> <r_i_glide_hbond>
-0.0822909

> <r_i_glide_ligand_efficiency>
-0.16137

> <r_i_glide_ligand_efficiency_ln>
-1.21214

> <r_i_glide_ligand_efficiency_sa>
-0.522776

> <r_i_glide_lipo>
-2.08034

> <r_i_glide_metal>
0

> <r_i_glide_rewards>
-0.379863

> <s_i_glide_gridfile>
wee1_glide-grid

> <s_m_Source_File>
wee1_decoys_glide_SP.sdf

> <s_m_Source_Path>
/Users/zhangxujun/Desktop

> <s_m_entry_id>
2599

> <s_m_entry_name>
wee1_decoys_glide_SP.2324

> <s_m_subgroup_title>
wee1_decoys_glide_SP

> <s_m_subgroupid>
wee1_decoys_glide_SP


$$$$
