ZINC20767172_2194
                    3D
 Schrodinger Suite 2024-2.
 54 56  0  0  1  0            999 V2000
    6.9407   55.4696   22.0875 C   0  0  0  0  0  0
    6.1216   54.8967   21.1188 C   0  0  0  0  0  0
    5.0843   54.0375   21.4967 C   0  0  0  0  0  0
    4.8522   53.8012   22.8567 C   0  0  0  0  0  0
    5.6511   54.3919   23.8398 C   0  0  0  0  0  0
    6.7044   55.2273   23.4403 C   0  0  0  0  0  0
    5.3019   54.1063   25.1733 N   0  0  0  0  0  0
    5.8080   54.5890   26.3303 C   0  0  0  0  0  0
    6.8068   55.2968   26.4000 O   0  0  0  0  0  0
    5.0829   54.2686   27.6565 C   0  0  0  0  0  0
    3.8752   53.2992   27.5052 N   0  3  0  0  0  0
    2.6250   53.9767   26.8919 C   0  0  0  0  0  0
    1.5796   52.8700   26.6684 C   0  0  0  0  0  0
    1.1348   52.3026   27.9565 N   0  0  0  0  0  0
    2.2942   51.7251   28.6705 C   0  0  0  0  0  0
    3.4498   52.7343   28.8809 C   0  0  0  0  0  0
    0.1292   51.2313   27.7475 C   0  0  0  0  0  0
   -1.2895   51.7446   27.3953 C   0  0  0  0  0  0
   -1.4629   52.8503   26.8814 O   0  0  0  0  0  0
   -2.2933   50.8966   27.6993 N   0  0  0  0  0  0
   -3.6817   51.0729   27.5779 C   0  0  0  0  0  0
   -4.4686   50.2330   28.3679 C   0  0  0  0  0  0
   -5.8567   50.3358   28.3271 C   0  0  0  0  0  0
   -6.4567   51.2699   27.4871 C   0  0  0  0  0  0
   -5.6812   52.0989   26.6806 C   0  0  0  0  0  0
   -4.2922   52.0007   26.7189 C   0  0  0  0  0  0
   -7.8043   51.3712   27.4506 F   0  0  0  0  0  0
    4.2424   53.3320   20.4387 C   0  0  0  0  0  0
    4.0680   54.0991   19.3621 F   0  0  0  0  0  0
    4.8923   52.2289   20.0825 F   0  0  0  0  0  0
    3.0472   52.9739   20.9110 F   0  0  0  0  0  0
    7.7693   56.0968   21.7947 H   0  0  0  0  0  0
    6.3228   55.0853   20.0730 H   0  0  0  0  0  0
    4.0412   53.1474   23.1445 H   0  0  0  0  0  0
    7.3673   55.6985   24.1481 H   0  0  0  0  0  0
    4.5256   53.4717   25.2575 H   0  0  0  0  0  0
    4.7183   55.1745   28.1432 H   0  0  0  0  0  0
    5.7884   53.7851   28.3353 H   0  0  0  0  0  0
    2.2805   54.7640   27.5673 H   0  0  0  0  0  0
    2.8877   54.4260   25.9360 H   0  0  0  0  0  0
    2.0060   52.0970   26.0327 H   0  0  0  0  0  0
    0.7422   53.2988   26.1229 H   0  0  0  0  0  0
    1.9790   51.3427   29.6428 H   0  0  0  0  0  0
    2.6911   50.9011   28.0792 H   0  0  0  0  0  0
    3.1723   53.5726   29.5225 H   0  0  0  0  0  0
    4.3237   52.2204   29.2868 H   0  0  0  0  0  0
    0.0437   50.6273   28.6522 H   0  0  0  0  0  0
    0.4588   50.5245   26.9824 H   0  0  0  0  0  0
   -2.0243   49.9866   28.0824 H   0  0  0  0  0  0
   -4.0054   49.5043   29.0218 H   0  0  0  0  0  0
   -6.4663   49.6910   28.9419 H   0  0  0  0  0  0
   -6.1587   52.8100   26.0238 H   0  0  0  0  0  0
   -3.7137   52.6430   26.0736 H   0  0  0  0  0  0
    4.1681   52.5231   26.9239 H   0  0  0  0  0  0
  1  6  2  0  0  0
  1  2  1  0  0  0
  1 32  1  0  0  0
  2  3  2  0  0  0
  2 33  1  0  0  0
  3  4  1  0  0  0
  3 28  1  0  0  0
  4  5  2  0  0  0
  4 34  1  0  0  0
  5  6  1  0  0  0
  5  7  1  0  0  0
  6 35  1  0  0  0
  7  8  1  0  0  0
  7 36  1  0  0  0
  8  9  2  0  0  0
  8 10  1  0  0  0
 10 11  1  0  0  0
 10 37  1  0  0  0
 10 38  1  0  0  0
 11 16  1  0  0  0
 11 12  1  0  0  0
 11 54  1  0  0  0
 12 13  1  0  0  0
 12 39  1  0  0  0
 12 40  1  0  0  0
 13 14  1  0  0  0
 13 41  1  0  0  0
 13 42  1  0  0  0
 14 15  1  0  0  0
 14 17  1  0  0  0
 15 16  1  0  0  0
 15 43  1  0  0  0
 15 44  1  0  0  0
 16 45  1  0  0  0
 16 46  1  0  0  0
 17 18  1  0  0  0
 17 47  1  0  0  0
 17 48  1  0  0  0
 18 19  2  0  0  0
 18 20  1  0  0  0
 20 21  1  0  0  0
 20 49  1  0  0  0
 21 26  2  0  0  0
 21 22  1  0  0  0
 22 23  2  0  0  0
 22 50  1  0  0  0
 23 24  1  0  0  0
 23 51  1  0  0  0
 24 25  2  0  0  0
 24 27  1  0  0  0
 25 26  1  0  0  0
 25 52  1  0  0  0
 26 53  1  0  0  0
 28 29  1  0  0  0
 28 30  1  0  0  0
 28 31  1  0  0  0
M  CHG  1  11   1
M  END
> <i_i_glide_confnum>
27

> <i_i_glide_lignum>
2195

> <i_i_glide_posenum>
328

> <i_i_glide_rotatable_bonds>
9

> <i_m_Source_File_Index>
4472

> <b_m_subgroup_collapsed>
0

> <r_i_docking_score>
-5.709

> <r_i_glide_ecoul>
-6.08049

> <r_i_glide_eff_state_penalty>
0

> <r_i_glide_einternal>
10.5322

> <r_i_glide_emodel>
-52.9382

> <r_i_glide_energy>
-40.305

> <r_i_glide_erotb>
0.723512

> <r_i_glide_esite>
-0.26578

> <r_i_glide_evdw>
-34.2245

> <r_i_glide_gscore>
-5.709

> <r_i_glide_hbond>
-0.456

> <r_i_glide_ligand_efficiency>
-0.184161

> <r_i_glide_ligand_efficiency_ln>
-1.28755

> <r_i_glide_ligand_efficiency_sa>
-0.57852

> <r_i_glide_lipo>
-2.23138

> <r_i_glide_metal>
0

> <r_i_glide_rewards>
-0.856051

> <s_i_glide_gridfile>
wee1_glide-grid

> <s_m_Source_File>
wee1_decoys_glide_SP.sdf

> <s_m_Source_Path>
/Users/zhangxujun/Desktop

> <s_m_entry_id>
4747

> <s_m_entry_name>
wee1_decoys_glide_SP.4472

> <s_m_subgroup_title>
wee1_decoys_glide_SP

> <s_m_subgroupid>
wee1_decoys_glide_SP


$$$$
