ZINC06418097_2574
                    3D
 Schrodinger Suite 2024-2.
 51 54  0  0  1  0            999 V2000
   -1.5499   49.6995   20.1526 C   0  0  0  0  0  0
   -0.3451   48.9843   19.5148 C   0  0  0  0  0  0
    0.8306   48.8863   20.5213 N   0  3  0  0  0  0
    1.9259   47.9003   20.0440 C   0  0  0  0  0  0
    2.7099   48.4267   18.8340 C   0  0  0  0  0  0
    1.3470   50.1776   21.0497 C   0  0  0  0  0  0
    1.6481   51.2230   20.1789 C   0  0  0  0  0  0
    2.0763   52.4310   20.7138 C   0  0  0  0  0  0
    2.1870   52.6020   22.0978 C   0  0  0  0  0  0
    1.9028   51.5260   22.9499 C   0  0  0  0  0  0
    1.4843   50.3024   22.4307 C   0  0  0  0  0  0
    2.5889   53.9863   22.6267 C   0  0  1  0  0  0
    1.8028   54.6551   22.2802 H   0  0  0  0  0  0
    2.6004   54.1531   24.0901 N   0  0  0  0  0  0
    3.7788   54.1374   24.8012 C   0  0  0  0  0  0
    4.9343   54.2806   24.1359 C   0  0  0  0  0  0
    6.3031   54.3610   25.2168 S   0  0  0  0  0  0
    5.2298   54.1022   26.5785 C   0  0  0  0  0  0
    5.9038   53.9095   28.0820 S   0  0  0  0  0  0
    3.9160   54.0915   26.1663 N   0  0  0  0  0  0
    2.8080   53.9572   27.0554 C   0  0  0  0  0  0
    1.9019   52.8978   26.9053 C   0  0  0  0  0  0
    0.8283   52.7574   27.7812 C   0  0  0  0  0  0
    0.6470   53.6814   28.8073 C   0  0  0  0  0  0
    1.5294   54.7461   28.9635 C   0  0  0  0  0  0
    2.6072   54.8811   28.0948 C   0  0  0  0  0  0
    5.0662   54.4674   22.7052 C   0  0  0  0  0  0
    6.1192   54.6762   22.1074 O   0  0  0  0  0  0
    3.8776   54.4718   22.0522 N   0  0  0  0  0  0
   -2.3906   49.7286   19.4595 H   0  0  0  0  0  0
   -1.3139   50.7307   20.4201 H   0  0  0  0  0  0
   -1.8869   49.1934   21.0582 H   0  0  0  0  0  0
   -0.5970   47.9567   19.2435 H   0  0  0  0  0  0
    0.0263   49.5045   18.6300 H   0  0  0  0  0  0
    2.5824   47.7520   20.9035 H   0  0  0  0  0  0
    1.4197   46.9612   19.8188 H   0  0  0  0  0  0
    3.4498   47.6973   18.5051 H   0  0  0  0  0  0
    2.0750   48.6390   17.9746 H   0  0  0  0  0  0
    3.2740   49.3304   19.0665 H   0  0  0  0  0  0
    1.5565   51.1171   19.1070 H   0  0  0  0  0  0
    2.3037   53.2451   20.0420 H   0  0  0  0  0  0
    1.9954   51.6256   24.0179 H   0  0  0  0  0  0
    1.2634   49.4831   23.0999 H   0  0  0  0  0  0
    1.7133   54.3823   24.5137 H   0  0  0  0  0  0
    2.0375   52.1656   26.1266 H   0  0  0  0  0  0
    0.1405   51.9301   27.6706 H   0  0  0  0  0  0
   -0.1828   53.5676   29.4905 H   0  0  0  0  0  0
    1.3841   55.4576   29.7650 H   0  0  0  0  0  0
    3.2962   55.6962   28.2431 H   0  0  0  0  0  0
    3.9362   54.5913   21.0523 H   0  0  0  0  0  0
    0.4030   48.4112   21.3034 H   0  0  0  0  0  0
  1  2  1  0  0  0
  1 30  1  0  0  0
  1 31  1  0  0  0
  1 32  1  0  0  0
  2  3  1  0  0  0
  2 33  1  0  0  0
  2 34  1  0  0  0
  3  4  1  0  0  0
  3  6  1  0  0  0
  3 51  1  0  0  0
  4  5  1  0  0  0
  4 35  1  0  0  0
  4 36  1  0  0  0
  5 37  1  0  0  0
  5 38  1  0  0  0
  5 39  1  0  0  0
  6 11  2  0  0  0
  6  7  1  0  0  0
  7  8  2  0  0  0
  7 40  1  0  0  0
  8  9  1  0  0  0
  8 41  1  0  0  0
  9 10  2  0  0  0
  9 12  1  0  0  0
 10 11  1  0  0  0
 10 42  1  0  0  0
 11 43  1  0  0  0
 12 13  1  0  0  0
 12 29  1  0  0  0
 12 14  1  0  0  0
 14 15  1  0  0  0
 14 44  1  0  0  0
 15 20  1  0  0  0
 15 16  2  0  0  0
 16 17  1  0  0  0
 16 27  1  0  0  0
 17 18  1  0  0  0
 18 19  2  0  0  0
 18 20  1  0  0  0
 20 21  1  0  0  0
 21 26  2  0  0  0
 21 22  1  0  0  0
 22 23  2  0  0  0
 22 45  1  0  0  0
 23 24  1  0  0  0
 23 46  1  0  0  0
 24 25  2  0  0  0
 24 47  1  0  0  0
 25 26  1  0  0  0
 25 48  1  0  0  0
 26 49  1  0  0  0
 27 28  2  0  0  0
 27 29  1  0  0  0
 29 50  1  0  0  0
M  CHG  1   3   1
M  END
> <i_i_glide_confnum>
13

> <i_i_glide_lignum>
2575

> <i_i_glide_posenum>
300

> <i_i_glide_rotatable_bonds>
5

> <i_m_Source_File_Index>
906

> <b_m_subgroup_collapsed>
0

> <r_i_docking_score>
-6.62354

> <r_i_glide_ecoul>
-2.21994

> <r_i_glide_eff_state_penalty>
0

> <r_i_glide_einternal>
1.45844

> <r_i_glide_emodel>
-67.1987

> <r_i_glide_energy>
-46.5879

> <r_i_glide_erotb>
0.349098

> <r_i_glide_esite>
0

> <r_i_glide_evdw>
-44.3679

> <r_i_glide_gscore>
-6.62354

> <r_i_glide_hbond>
0

> <r_i_glide_ligand_efficiency>
-0.236555

> <r_i_glide_ligand_efficiency_ln>
-1.52891

> <r_i_glide_ligand_efficiency_sa>
-0.71832

> <r_i_glide_lipo>
-2.70073

> <r_i_glide_metal>
0

> <r_i_glide_rewards>
-1.72052

> <s_i_glide_gridfile>
wee1_glide-grid

> <s_m_Source_File>
wee1_decoys_glide_SP.sdf

> <s_m_Source_Path>
/Users/zhangxujun/Desktop

> <s_m_entry_id>
1181

> <s_m_entry_name>
wee1_decoys_glide_SP.906

> <s_m_subgroup_title>
wee1_decoys_glide_SP

> <s_m_subgroupid>
wee1_decoys_glide_SP


$$$$
