ZINC13022521_5777
                    3D
 Schrodinger Suite 2024-2.
 59 61  0  0  1  0            999 V2000
    1.7300   49.1986   20.2721 C   0  0  0  0  0  0
    1.8217   50.1693   21.4544 C   0  0  0  0  0  0
    2.6997   51.2325   21.1111 O   0  0  0  0  0  0
    2.8779   52.2896   21.9396 C   0  0  0  0  0  0
    2.3044   52.4162   23.0230 O   0  0  0  0  0  0
    3.8555   53.2528   21.3867 C   0  0  0  0  0  0
    4.7221   54.0946   22.1608 C   0  0  0  0  0  0
    5.5170   54.8970   21.3517 C   0  0  0  0  0  0
    5.3098   54.6555   19.6755 S   0  0  0  0  0  0
    4.0702   53.4751   19.9983 C   0  0  0  0  0  0
    3.3369   52.8968   18.9605 N   0  0  0  0  0  0
    3.5033   53.0143   17.6257 C   0  0  0  0  0  0
    4.4582   53.5560   17.0670 O   0  0  0  0  0  0
    2.3905   52.4022   16.7710 C   0  0  0  0  0  0
    0.7623   53.2139   16.9905 S   0  0  0  0  0  0
    0.8595   54.9408   16.5218 C   0  0  0  0  0  0
   -0.2266   55.8433   16.6659 C   0  0  0  0  0  0
    0.0035   57.1986   16.3112 C   0  0  0  0  0  0
    1.2620   57.5872   15.8423 C   0  0  0  0  0  0
    2.2643   56.6323   15.7276 C   0  0  0  0  0  0
    2.0672   55.3347   16.0436 N   0  0  0  0  0  0
    3.6552   56.9900   15.2425 C   0  0  0  0  0  0
   -1.0710   58.2798   16.4013 C   0  0  0  0  0  0
   -1.5647   55.4038   17.1839 C   0  0  0  0  0  0
   -2.0982   54.3924   16.6784 O   0  0  0  0  0  0
    4.8855   54.1892   23.6588 C   0  0  0  0  0  0
    3.7809   54.4967   24.4622 C   0  0  0  0  0  0
    3.9040   54.5867   25.8484 C   0  0  0  0  0  0
    5.1428   54.4020   26.4594 C   0  0  0  0  0  0
    6.2593   54.1325   25.6706 C   0  0  0  0  0  0
    6.1417   54.0259   24.2806 C   0  0  0  0  0  0
    7.3680   53.6161   23.4805 C   0  0  0  0  0  0
    5.2767   54.4581   27.9702 C   0  0  0  0  0  0
    1.0514   48.3757   20.4948 H   0  0  0  0  0  0
    1.3603   49.7006   19.3770 H   0  0  0  0  0  0
    2.7045   48.7722   20.0341 H   0  0  0  0  0  0
    2.1928   49.6536   22.3419 H   0  0  0  0  0  0
    0.8307   50.5615   21.6897 H   0  0  0  0  0  0
    6.2347   55.6340   21.6775 H   0  0  0  0  0  0
    2.5857   52.2958   19.2645 H   0  0  0  0  0  0
    2.3066   51.3415   17.0094 H   0  0  0  0  0  0
    2.6649   52.4550   15.7176 H   0  0  0  0  0  0
    1.4617   58.6170   15.5815 H   0  0  0  0  0  0
    3.7994   58.0705   15.2007 H   0  0  0  0  0  0
    4.4112   56.5785   15.9141 H   0  0  0  0  0  0
    3.8245   56.5822   14.2449 H   0  0  0  0  0  0
   -0.7710   59.2075   15.9135 H   0  0  0  0  0  0
   -1.9920   57.9456   15.9234 H   0  0  0  0  0  0
   -1.2956   58.4965   17.4454 H   0  0  0  0  0  0
    2.8138   54.6650   24.0113 H   0  0  0  0  0  0
    3.0305   54.7976   26.4468 H   0  0  0  0  0  0
    7.2132   53.9691   26.1485 H   0  0  0  0  0  0
    8.2133   53.2963   24.0817 H   0  0  0  0  0  0
    7.0943   52.7551   22.8817 H   0  0  0  0  0  0
    7.7031   54.4069   22.8139 H   0  0  0  0  0  0
    5.7558   53.5492   28.3377 H   0  0  0  0  0  0
    5.9041   55.2970   28.2657 H   0  0  0  0  0  0
    4.3102   54.5510   28.4685 H   0  0  0  0  0  0
   -2.0957   56.0965   18.0817 O   0  5  0  0  0  0
  1  2  1  0  0  0
  1 34  1  0  0  0
  1 35  1  0  0  0
  1 36  1  0  0  0
  2  3  1  0  0  0
  2 37  1  0  0  0
  2 38  1  0  0  0
  3  4  1  0  0  0
  4  5  2  0  0  0
  4  6  1  0  0  0
  6 10  2  0  0  0
  6  7  1  0  0  0
  7  8  2  0  0  0
  7 26  1  0  0  0
  8  9  1  0  0  0
  8 39  1  0  0  0
  9 10  1  0  0  0
 10 11  1  0  0  0
 11 12  1  0  0  0
 11 40  1  0  0  0
 12 13  2  0  0  0
 12 14  1  0  0  0
 14 15  1  0  0  0
 14 41  1  0  0  0
 14 42  1  0  0  0
 15 16  1  0  0  0
 16 21  2  0  0  0
 16 17  1  0  0  0
 17 18  2  0  0  0
 17 24  1  0  0  0
 18 19  1  0  0  0
 18 23  1  0  0  0
 19 20  2  0  0  0
 19 43  1  0  0  0
 20 21  1  0  0  0
 20 22  1  0  0  0
 22 44  1  0  0  0
 22 45  1  0  0  0
 22 46  1  0  0  0
 23 47  1  0  0  0
 23 48  1  0  0  0
 23 49  1  0  0  0
 24 25  2  0  0  0
 24 59  1  0  0  0
 26 31  2  0  0  0
 26 27  1  0  0  0
 27 28  2  0  0  0
 27 50  1  0  0  0
 28 29  1  0  0  0
 28 51  1  0  0  0
 29 30  2  0  0  0
 29 33  1  0  0  0
 30 31  1  0  0  0
 30 52  1  0  0  0
 31 32  1  0  0  0
 32 53  1  0  0  0
 32 54  1  0  0  0
 32 55  1  0  0  0
 33 56  1  0  0  0
 33 57  1  0  0  0
 33 58  1  0  0  0
M  CHG  1  59  -1
M  END
> <i_i_glide_confnum>
240

> <i_i_glide_lignum>
5778

> <i_i_glide_posenum>
151

> <i_i_glide_rotatable_bonds>
10

> <i_m_Source_File_Index>
5376

> <b_m_subgroup_collapsed>
0

> <r_i_docking_score>
-4.95139

> <r_i_glide_ecoul>
-3.91385

> <r_i_glide_eff_state_penalty>
0

> <r_i_glide_einternal>
3.66006

> <r_i_glide_emodel>
-61.0366

> <r_i_glide_energy>
-44.6233

> <r_i_glide_erotb>
0.659101

> <r_i_glide_esite>
-0.0977939

> <r_i_glide_evdw>
-40.7095

> <r_i_glide_gscore>
-4.95139

> <r_i_glide_hbond>
-0.16

> <r_i_glide_ligand_efficiency>
-0.145629

> <r_i_glide_ligand_efficiency_ln>
-1.0939

> <r_i_glide_ligand_efficiency_sa>
-0.471782

> <r_i_glide_lipo>
-2.53939

> <r_i_glide_metal>
0

> <r_i_glide_rewards>
-0.19076

> <s_i_glide_gridfile>
wee1_glide-grid

> <s_m_Source_File>
wee1_decoys_glide_SP.sdf

> <s_m_Source_Path>
/Users/zhangxujun/Desktop

> <s_m_entry_id>
5651

> <s_m_entry_name>
wee1_decoys_glide_SP.5376

> <s_m_subgroup_title>
wee1_decoys_glide_SP

> <s_m_subgroupid>
wee1_decoys_glide_SP


$$$$
