ZINC08693968_4868
                    3D
 Schrodinger Suite 2024-2.
 52 54  0  0  1  0            999 V2000
   -0.0804   52.0967   30.3512 C   0  0  0  0  0  0
    1.0191   52.6932   29.7406 C   0  0  0  0  0  0
    1.0264   52.8931   28.3504 C   0  0  0  0  0  0
   -0.0787   52.4969   27.5911 C   0  0  0  0  0  0
   -1.1832   51.9083   28.2058 C   0  0  0  0  0  0
   -1.1698   51.6944   29.5854 C   0  0  0  0  0  0
   -2.6424   51.5230   27.2447 S   0  0  0  0  0  0
   -3.7221   51.1446   28.1591 O   0  0  0  0  0  0
   -2.8152   52.5713   26.2306 O   0  0  0  0  0  0
   -2.1507   50.0965   26.4817 N   0  0  0  0  0  0
   -1.7670   49.9498   25.2141 C   0  0  0  0  0  0
   -1.3361   50.9769   22.9608 C   0  0  0  0  0  0
    0.1870   50.7714   22.8793 C   0  0  0  0  0  0
    0.6452   49.3158   23.0704 C   0  0  0  0  0  0
    0.3044   48.6820   24.4303 C   0  0  0  0  0  0
   -1.1860   48.6417   24.7721 C   0  0  0  0  0  0
    2.0773   53.4750   27.6305 N   0  0  0  0  0  0
    3.2436   54.0010   28.0619 C   0  0  0  0  0  0
    3.5873   54.1075   29.2403 O   0  0  0  0  0  0
    4.0990   54.4731   26.9995 C   0  0  0  0  0  0
    4.1465   53.9305   25.7594 C   0  0  0  0  0  0
    5.0122   54.3729   24.6488 C   0  0  0  0  0  0
    6.1767   55.1017   24.9173 C   0  0  0  0  0  0
    7.0000   55.5219   23.8816 C   0  0  0  0  0  0
    6.7040   55.2000   22.5604 C   0  0  0  0  0  0
    5.5371   54.4931   22.2753 C   0  0  0  0  0  0
    4.6832   54.0966   23.3081 C   0  0  0  0  0  0
    3.2232   53.2683   22.8801 Cl  0  0  0  0  0  0
    7.7552   55.6967   21.2852 Cl  0  0  0  0  0  0
   -0.0950   51.9396   31.4205 H   0  0  0  0  0  0
    1.8465   52.9799   30.3690 H   0  0  0  0  0  0
   -0.0965   52.6607   26.5226 H   0  0  0  0  0  0
   -2.0067   51.2162   30.0747 H   0  0  0  0  0  0
   -2.0323   49.3371   27.1698 H   0  0  0  0  0  0
   -1.8827   50.2350   22.3762 H   0  0  0  0  0  0
   -1.6058   51.9601   22.5714 H   0  0  0  0  0  0
    0.5234   51.1003   21.8940 H   0  0  0  0  0  0
    0.6953   51.4256   23.5910 H   0  0  0  0  0  0
    0.2275   48.7016   22.2719 H   0  0  0  0  0  0
    1.7279   49.2716   22.9321 H   0  0  0  0  0  0
    0.8344   49.2075   25.2264 H   0  0  0  0  0  0
    0.7041   47.6669   24.4537 H   0  0  0  0  0  0
   -1.3325   47.9219   25.5817 H   0  0  0  0  0  0
   -1.7710   48.2628   23.9336 H   0  0  0  0  0  0
    1.9239   53.5229   26.6365 H   0  0  0  0  0  0
    4.7332   55.2971   27.2836 H   0  0  0  0  0  0
    3.5226   53.0767   25.5341 H   0  0  0  0  0  0
    6.4567   55.3486   25.9291 H   0  0  0  0  0  0
    7.8847   56.0966   24.1070 H   0  0  0  0  0  0
    5.2874   54.2622   21.2511 H   0  0  0  0  0  0
   -1.8556   50.9521   24.3324 N   0  3  0  0  0  0
   -2.2670   51.8094   24.6863 H   0  0  0  0  0  0
  1  6  2  0  0  0
  1  2  1  0  0  0
  1 30  1  0  0  0
  2  3  2  0  0  0
  2 31  1  0  0  0
  3  4  1  0  0  0
  3 17  1  0  0  0
  4  5  2  0  0  0
  4 32  1  0  0  0
  5  6  1  0  0  0
  5  7  1  0  0  0
  6 33  1  0  0  0
  7  8  2  0  0  0
  7  9  2  0  0  0
  7 10  1  0  0  0
 10 11  1  0  0  0
 10 34  1  0  0  0
 11 16  1  0  0  0
 11 51  2  0  0  0
 12 13  1  0  0  0
 12 35  1  0  0  0
 12 36  1  0  0  0
 12 51  1  0  0  0
 13 14  1  0  0  0
 13 37  1  0  0  0
 13 38  1  0  0  0
 14 15  1  0  0  0
 14 39  1  0  0  0
 14 40  1  0  0  0
 15 16  1  0  0  0
 15 41  1  0  0  0
 15 42  1  0  0  0
 16 43  1  0  0  0
 16 44  1  0  0  0
 17 18  1  0  0  0
 17 45  1  0  0  0
 18 19  2  0  0  0
 18 20  1  0  0  0
 20 21  2  0  0  0
 20 46  1  0  0  0
 21 22  1  0  0  0
 21 47  1  0  0  0
 22 27  2  0  0  0
 22 23  1  0  0  0
 23 24  2  0  0  0
 23 48  1  0  0  0
 24 25  1  0  0  0
 24 49  1  0  0  0
 25 26  2  0  0  0
 25 29  1  0  0  0
 26 27  1  0  0  0
 26 50  1  0  0  0
 27 28  1  0  0  0
 51 52  1  0  0  0
M  CHG  1  51   1
M  END
> <i_i_glide_confnum>
49

> <i_i_glide_lignum>
4869

> <i_i_glide_posenum>
257

> <i_i_glide_rotatable_bonds>
7

> <i_m_Source_File_Index>
3968

> <b_m_subgroup_collapsed>
0

> <r_i_docking_score>
-5.45592

> <r_i_glide_ecoul>
-7.6963

> <r_i_glide_eff_state_penalty>
0

> <r_i_glide_einternal>
5.66643

> <r_i_glide_emodel>
-57.5847

> <r_i_glide_energy>
-42.3078

> <r_i_glide_erotb>
0.554316

> <r_i_glide_esite>
-0.264726

> <r_i_glide_evdw>
-34.6115

> <r_i_glide_gscore>
-5.45592

> <r_i_glide_hbond>
-0.2

> <r_i_glide_ligand_efficiency>
-0.181864

> <r_i_glide_ligand_efficiency_ln>
-1.23964

> <r_i_glide_ligand_efficiency_sa>
-0.565094

> <r_i_glide_lipo>
-2.26255

> <r_i_glide_metal>
0

> <r_i_glide_rewards>
-0.397942

> <s_i_glide_gridfile>
wee1_glide-grid

> <s_m_Source_File>
wee1_decoys_glide_SP.sdf

> <s_m_Source_Path>
/Users/zhangxujun/Desktop

> <s_m_entry_id>
4243

> <s_m_entry_name>
wee1_decoys_glide_SP.3968

> <s_m_subgroup_title>
wee1_decoys_glide_SP

> <s_m_subgroupid>
wee1_decoys_glide_SP


$$$$
