ZINC11325235_3372
                    3D
 Schrodinger Suite 2024-2.
 49 52  0  0  1  0            999 V2000
    3.1044   54.0228   22.1568 C   0  0  0  0  0  0
    4.0125   54.3745   23.1536 C   0  0  0  0  0  0
    5.2091   53.6679   23.2817 C   0  0  0  0  0  0
    5.5044   52.6729   22.3593 C   0  0  0  0  0  0
    4.6203   52.3224   21.3531 C   0  0  0  0  0  0
    3.3924   52.9749   21.2802 C   0  0  0  0  0  0
    2.4443   52.6266   20.3141 N   0  0  0  0  0  0
    2.1086   51.3738   19.9468 C   0  0  0  0  0  0
    2.5309   50.3402   20.4684 O   0  0  0  0  0  0
    1.1687   51.3091   18.7777 C   0  0  0  0  0  0
    1.7533   51.0548   17.5297 C   0  0  0  0  0  0
    0.9831   50.9950   16.3747 C   0  0  0  0  0  0
   -0.3885   51.1994   16.4499 C   0  0  0  0  0  0
   -0.9852   51.4578   17.6815 C   0  0  0  0  0  0
   -0.2371   51.5150   18.8737 C   0  0  0  0  0  0
   -0.9676   51.7917   20.1505 N   0  3  0  0  0  0
   -2.1565   52.0967   20.0817 O   0  0  0  0  0  0
   -0.3914   51.7317   21.2301 O   0  5  0  0  0  0
   -1.3521   51.1313   15.0199 Cl  0  0  0  0  0  0
    6.1291   53.7986   24.3318 N   0  0  0  0  0  0
    5.9469   54.7960   25.7647 S   0  0  0  0  0  0
    7.2134   54.6850   26.4799 O   0  0  0  0  0  0
    5.5044   56.0967   25.2817 O   0  0  0  0  0  0
    4.7231   54.0600   26.8639 C   0  0  0  0  0  0
    5.1602   53.5046   28.0773 C   0  0  0  0  0  0
    4.2610   52.8950   28.9503 C   0  0  0  0  0  0
    2.9160   52.8156   28.6063 C   0  0  0  0  0  0
    2.4603   53.3969   27.4121 C   0  0  0  0  0  0
    3.3599   54.0215   26.5460 C   0  0  0  0  0  0
    1.1445   53.2964   27.0066 O   0  0  0  0  0  0
    0.2335   52.9019   28.0407 C   0  0  0  0  0  0
    0.8310   51.7657   28.9014 C   0  0  0  0  0  0
    2.0643   52.1899   29.4946 O   0  0  0  0  0  0
    2.1643   54.5479   22.0853 H   0  0  0  0  0  0
    3.7565   55.1752   23.8249 H   0  0  0  0  0  0
    6.4034   52.0967   22.4817 H   0  0  0  0  0  0
    4.8716   51.5260   20.6663 H   0  0  0  0  0  0
    1.9346   53.4023   19.9072 H   0  0  0  0  0  0
    2.8221   50.8967   17.4432 H   0  0  0  0  0  0
    1.4573   50.7896   15.4258 H   0  0  0  0  0  0
   -2.0554   51.6059   17.6978 H   0  0  0  0  0  0
    6.8760   53.1245   24.3744 H   0  0  0  0  0  0
    6.2040   53.5315   28.3560 H   0  0  0  0  0  0
    4.6112   52.4637   29.8760 H   0  0  0  0  0  0
    2.9836   54.4458   25.6321 H   0  0  0  0  0  0
   -0.7076   52.5857   27.5900 H   0  0  0  0  0  0
    0.0227   53.7621   28.6786 H   0  0  0  0  0  0
    1.0124   50.8967   28.2665 H   0  0  0  0  0  0
    0.1312   51.4645   29.6817 H   0  0  0  0  0  0
  1  6  2  0  0  0
  1  2  1  0  0  0
  1 34  1  0  0  0
  2  3  2  0  0  0
  2 35  1  0  0  0
  3  4  1  0  0  0
  3 20  1  0  0  0
  4  5  2  0  0  0
  4 36  1  0  0  0
  5  6  1  0  0  0
  5 37  1  0  0  0
  6  7  1  0  0  0
  7  8  1  0  0  0
  7 38  1  0  0  0
  8  9  2  0  0  0
  8 10  1  0  0  0
 10 15  2  0  0  0
 10 11  1  0  0  0
 11 12  2  0  0  0
 11 39  1  0  0  0
 12 13  1  0  0  0
 12 40  1  0  0  0
 13 14  2  0  0  0
 13 19  1  0  0  0
 14 15  1  0  0  0
 14 41  1  0  0  0
 15 16  1  0  0  0
 16 17  2  0  0  0
 16 18  1  0  0  0
 20 21  1  0  0  0
 20 42  1  0  0  0
 21 22  2  0  0  0
 21 23  2  0  0  0
 21 24  1  0  0  0
 24 29  2  0  0  0
 24 25  1  0  0  0
 25 26  2  0  0  0
 25 43  1  0  0  0
 26 27  1  0  0  0
 26 44  1  0  0  0
 27 33  1  0  0  0
 27 28  2  0  0  0
 28 29  1  0  0  0
 28 30  1  0  0  0
 29 45  1  0  0  0
 30 31  1  0  0  0
 31 32  1  0  0  0
 31 46  1  0  0  0
 31 47  1  0  0  0
 32 33  1  0  0  0
 32 48  1  0  0  0
 32 49  1  0  0  0
M  CHG  2  16   1  18  -1
M  END
> <i_i_glide_confnum>
33

> <i_i_glide_lignum>
3373

> <i_i_glide_posenum>
233

> <i_i_glide_rotatable_bonds>
7

> <i_m_Source_File_Index>
11

> <b_m_subgroup_collapsed>
0

> <r_i_docking_score>
-5.25535

> <r_i_glide_ecoul>
-9.31919

> <r_i_glide_eff_state_penalty>
0

> <r_i_glide_einternal>
10.5755

> <r_i_glide_emodel>
-48.8312

> <r_i_glide_energy>
-41.1589

> <r_i_glide_erotb>
0.508691

> <r_i_glide_esite>
-0.155959

> <r_i_glide_evdw>
-31.8397

> <r_i_glide_gscore>
-5.25535

> <r_i_glide_hbond>
-0.299417

> <r_i_glide_ligand_efficiency>
-0.159253

> <r_i_glide_ligand_efficiency_ln>
-1.16876

> <r_i_glide_ligand_efficiency_sa>
-0.51081

> <r_i_glide_lipo>
-2.3783

> <r_i_glide_metal>
0

> <r_i_glide_rewards>
0.0594963

> <s_i_glide_gridfile>
wee1_glide-grid

> <s_m_Source_File>
wee1_decoys_glide_SP.sdf

> <s_m_Source_Path>
/Users/zhangxujun/Desktop

> <s_m_entry_id>
286

> <s_m_entry_name>
wee1_decoys_glide_SP.11

> <s_m_subgroup_title>
wee1_decoys_glide_SP

> <s_m_subgroupid>
wee1_decoys_glide_SP


$$$$
