ZINC36601955_170
                    3D
 Schrodinger Suite 2024-2.
 52 54  0  0  1  0            999 V2000
    1.2742   56.0207   30.1218 C   0  0  0  0  0  0
    2.0908   55.6259   29.0311 O   0  0  0  0  0  0
    2.8494   54.5095   29.1173 C   0  0  0  0  0  0
    2.8741   53.7443   30.0824 O   0  0  0  0  0  0
    3.7565   54.3515   27.9044 C   0  0  1  0  0  0
    4.2454   55.3046   27.7610 H   0  0  0  0  0  0
    4.9020   53.3284   28.1117 C   0  0  0  0  0  0
    5.9466   53.3049   26.9827 C   0  0  0  0  0  0
    6.7043   54.8959   26.5524 S   0  0  0  0  0  0
    5.9852   55.2042   24.9117 C   0  0  0  0  0  0
    2.9957   54.0966   26.6634 N   0  0  0  0  0  0
    2.0960   53.1257   26.3999 C   0  0  0  0  0  0
    1.6966   52.3659   27.2826 O   0  0  0  0  0  0
    1.7328   52.9970   25.0913 N   0  0  0  0  0  0
    1.9369   54.0670   24.0674 C   0  0  0  0  0  0
    2.8313   53.5294   22.9093 C   0  0  0  0  0  0
    2.3037   52.1661   22.5014 C   0  0  0  0  0  0
    1.4088   51.4264   23.2662 C   0  0  0  0  0  0
    1.1303   50.2646   22.5648 N   0  3  0  0  0  0
    1.8055   50.2955   21.3600 C   0  0  0  0  0  0
    2.5065   51.4844   21.3138 N   0  0  0  0  0  0
    3.0834   51.7998   20.5462 H   0  0  0  0  0  0
    0.9124   51.8274   24.6567 C   0  0  2  0  0  0
    1.1013   51.0109   25.3546 H   0  0  0  0  0  0
   -0.5966   52.0713   24.7572 C   0  0  0  0  0  0
   -1.3257   52.5901   23.6821 C   0  0  0  0  0  0
   -2.6877   52.8416   23.8169 C   0  0  0  0  0  0
   -3.3276   52.5599   25.0199 C   0  0  0  0  0  0
   -2.6188   52.0113   26.0857 C   0  0  0  0  0  0
   -1.2563   51.7628   25.9523 C   0  0  0  0  0  0
   -5.1817   52.9402   25.2068 Br  0  0  0  0  0  0
    1.8794   56.2836   30.9898 H   0  0  0  0  0  0
    0.7035   56.9008   29.8406 H   0  0  0  0  0  0
    0.5738   55.2346   30.4069 H   0  0  0  0  0  0
    5.4222   53.5340   29.0489 H   0  0  0  0  0  0
    4.4797   52.3291   28.2214 H   0  0  0  0  0  0
    6.7508   52.6341   27.2799 H   0  0  0  0  0  0
    5.4948   52.8965   26.0820 H   0  0  0  0  0  0
    6.3790   56.1325   24.5001 H   0  0  0  0  0  0
    6.2399   54.3918   24.2253 H   0  0  0  0  0  0
    4.9008   55.2896   24.9754 H   0  0  0  0  0  0
    3.3530   54.5931   25.8652 H   0  0  0  0  0  0
    0.9547   54.3257   23.6708 H   0  0  0  0  0  0
    2.3040   55.0067   24.4812 H   0  0  0  0  0  0
    2.8304   54.2279   22.0707 H   0  0  0  0  0  0
    3.8637   53.4508   23.2454 H   0  0  0  0  0  0
    1.7859   49.5374   20.5898 H   0  0  0  0  0  0
   -0.8358   52.8212   22.7485 H   0  0  0  0  0  0
   -3.2456   53.2642   22.9955 H   0  0  0  0  0  0
   -3.1193   51.7815   27.0143 H   0  0  0  0  0  0
   -0.7122   51.3461   26.7893 H   0  0  0  0  0  0
    0.5316   49.5187   22.8913 H   0  0  0  0  0  0
  1  2  1  0  0  0
  1 32  1  0  0  0
  1 33  1  0  0  0
  1 34  1  0  0  0
  2  3  1  0  0  0
  3  4  2  0  0  0
  3  5  1  0  0  0
  5  6  1  0  0  0
  5  7  1  0  0  0
  5 11  1  0  0  0
  7  8  1  0  0  0
  7 35  1  0  0  0
  7 36  1  0  0  0
  8  9  1  0  0  0
  8 37  1  0  0  0
  8 38  1  0  0  0
  9 10  1  0  0  0
 10 39  1  0  0  0
 10 40  1  0  0  0
 10 41  1  0  0  0
 11 12  1  0  0  0
 11 42  1  0  0  0
 12 13  2  0  0  0
 12 14  1  0  0  0
 14 23  1  0  0  0
 14 15  1  0  0  0
 15 16  1  0  0  0
 15 43  1  0  0  0
 15 44  1  0  0  0
 16 17  1  0  0  0
 16 45  1  0  0  0
 16 46  1  0  0  0
 17 21  1  0  0  0
 17 18  2  0  0  0
 18 19  1  0  0  0
 18 23  1  0  0  0
 19 20  2  0  0  0
 19 52  1  0  0  0
 20 21  1  0  0  0
 20 47  1  0  0  0
 21 22  1  0  0  0
 23 24  1  0  0  0
 23 25  1  0  0  0
 25 30  2  0  0  0
 25 26  1  0  0  0
 26 27  2  0  0  0
 26 48  1  0  0  0
 27 28  1  0  0  0
 27 49  1  0  0  0
 28 29  2  0  0  0
 28 31  1  0  0  0
 29 30  1  0  0  0
 29 50  1  0  0  0
 30 51  1  0  0  0
M  CHG  1  19   1
M  END
> <i_i_glide_confnum>
84

> <i_i_glide_lignum>
171

> <i_i_glide_posenum>
259

> <i_i_glide_rotatable_bonds>
9

> <i_m_Source_File_Index>
5689

> <b_m_subgroup_collapsed>
0

> <r_i_docking_score>
-5.98438

> <r_i_glide_ecoul>
-3.52598

> <r_i_glide_eff_state_penalty>
0

> <r_i_glide_einternal>
8.86564

> <r_i_glide_emodel>
-60.078

> <r_i_glide_energy>
-45.0675

> <r_i_glide_erotb>
0.644187

> <r_i_glide_esite>
0

> <r_i_glide_evdw>
-41.5415

> <r_i_glide_gscore>
-5.98438

> <r_i_glide_hbond>
-0.32

> <r_i_glide_ligand_efficiency>
-0.213728

> <r_i_glide_ligand_efficiency_ln>
-1.38137

> <r_i_glide_ligand_efficiency_sa>
-0.649003

> <r_i_glide_lipo>
-2.57708

> <r_i_glide_metal>
0

> <r_i_glide_rewards>
-1.12551

> <s_i_glide_gridfile>
wee1_glide-grid

> <s_m_Source_File>
wee1_decoys_glide_SP.sdf

> <s_m_Source_Path>
/Users/zhangxujun/Desktop

> <s_m_entry_id>
5964

> <s_m_entry_name>
wee1_decoys_glide_SP.5689

> <s_m_subgroup_title>
wee1_decoys_glide_SP

> <s_m_subgroupid>
wee1_decoys_glide_SP


$$$$
