ZINC41183667_3778
                    3D
 Schrodinger Suite 2024-2.
 36 39  0  0  1  0            999 V2000
    3.4458   53.9619   25.7889 C   0  0  0  0  0  0
    4.7020   54.3523   26.2787 C   0  0  0  0  0  0
    5.7280   54.6270   25.3608 C   0  0  0  0  0  0
    5.5222   54.4967   23.9863 C   0  0  0  0  0  0
    4.2704   54.0964   23.5126 C   0  0  0  0  0  0
    3.2286   53.8433   24.4194 C   0  0  0  0  0  0
    1.9873   53.3974   24.0132 O   0  0  0  0  0  0
    1.7174   53.6183   22.6266 C   0  0  0  0  0  0
    2.9406   53.2169   21.7686 C   0  0  0  0  0  0
    4.0853   53.9888   22.1463 O   0  0  0  0  0  0
    6.8173   54.8384   22.8945 Cl  0  0  0  0  0  0
    4.9774   54.4971   27.7822 C   0  0  1  0  0  0
    5.3119   55.5248   27.9048 H   0  0  0  0  0  0
    3.7758   54.2712   28.7068 C   0  0  0  0  0  0
    3.5558   53.1505   29.3687 N   0  0  0  0  0  0
    2.4135   53.1953   30.0223 C   0  0  0  0  0  0
    1.6703   54.3359   29.9197 C   0  0  0  0  0  0
    2.4899   55.4526   28.8940 S   0  0  0  0  0  0
    0.3848   54.3008   30.6932 C   0  0  0  0  0  0
    0.4054   52.8737   31.2788 C   0  0  0  0  0  0
    1.7169   52.1691   30.8607 C   0  0  0  0  0  0
    6.1402   53.7084   28.1626 N   0  0  0  0  0  0
    2.6310   53.7263   26.4565 H   0  0  0  0  0  0
    6.6996   54.9285   25.7221 H   0  0  0  0  0  0
    0.8335   53.0539   22.3286 H   0  0  0  0  0  0
    1.5049   54.6783   22.4818 H   0  0  0  0  0  0
    3.1560   52.1588   21.9287 H   0  0  0  0  0  0
    2.7353   53.3499   20.7066 H   0  0  0  0  0  0
   -0.4929   54.4488   30.0646 H   0  0  0  0  0  0
    0.3535   55.0512   31.4833 H   0  0  0  0  0  0
   -0.4559   52.3062   30.9190 H   0  0  0  0  0  0
    0.3080   52.9007   32.3661 H   0  0  0  0  0  0
    2.2955   51.8507   31.7292 H   0  0  0  0  0  0
    1.5044   51.2968   30.2494 H   0  0  0  0  0  0
    6.6165   54.1509   28.9391 H   0  0  0  0  0  0
    5.8493   52.7882   28.4611 H   0  0  0  0  0  0
  1  6  2  0  0  0
  1  2  1  0  0  0
  1 23  1  0  0  0
  2  3  2  0  0  0
  2 12  1  0  0  0
  3  4  1  0  0  0
  3 24  1  0  0  0
  4  5  2  0  0  0
  4 11  1  0  0  0
  5 10  1  0  0  0
  5  6  1  0  0  0
  6  7  1  0  0  0
  7  8  1  0  0  0
  8  9  1  0  0  0
  8 25  1  0  0  0
  8 26  1  0  0  0
  9 10  1  0  0  0
  9 27  1  0  0  0
  9 28  1  0  0  0
 12 13  1  0  0  0
 12 14  1  0  0  0
 12 22  1  0  0  0
 14 18  1  0  0  0
 14 15  2  0  0  0
 15 16  1  0  0  0
 16 21  1  0  0  0
 16 17  2  0  0  0
 17 18  1  0  0  0
 17 19  1  0  0  0
 19 20  1  0  0  0
 19 29  1  0  0  0
 19 30  1  0  0  0
 20 21  1  0  0  0
 20 31  1  0  0  0
 20 32  1  0  0  0
 21 33  1  0  0  0
 21 34  1  0  0  0
 22 35  1  0  0  0
 22 36  1  0  0  0
M  END
> <i_i_glide_confnum>
12

> <i_i_glide_lignum>
3779

> <i_i_glide_posenum>
297

> <i_i_glide_rotatable_bonds>
2

> <i_m_Source_File_Index>
1275

> <b_m_subgroup_collapsed>
0

> <r_i_docking_score>
-6.22229

> <r_i_glide_ecoul>
-1.46916

> <r_i_glide_eff_state_penalty>
0

> <r_i_glide_einternal>
3.10229

> <r_i_glide_emodel>
-53.6201

> <r_i_glide_energy>
-39.8774

> <r_i_glide_erotb>
0.359007

> <r_i_glide_esite>
0

> <r_i_glide_evdw>
-38.4083

> <r_i_glide_gscore>
-6.22229

> <r_i_glide_hbond>
0

> <r_i_glide_ligand_efficiency>
-0.296299

> <r_i_glide_ligand_efficiency_ln>
-1.53845

> <r_i_glide_ligand_efficiency_sa>
-0.817468

> <r_i_glide_lipo>
-3.12127

> <r_i_glide_metal>
0

> <r_i_glide_rewards>
-1.31923

> <s_i_glide_gridfile>
wee1_glide-grid

> <s_m_Source_File>
wee1_decoys_glide_SP.sdf

> <s_m_Source_Path>
/Users/zhangxujun/Desktop

> <s_m_entry_id>
1550

> <s_m_entry_name>
wee1_decoys_glide_SP.1275

> <s_m_subgroup_title>
wee1_decoys_glide_SP

> <s_m_subgroupid>
wee1_decoys_glide_SP


$$$$
