ZINC39662481_379
                    3D
 Schrodinger Suite 2024-2.
 64 67  0  0  1  0            999 V2000
    6.9230   54.0920   27.9035 C   0  0  0  0  0  0
    5.5713   53.9778   28.3303 O   0  0  0  0  0  0
    4.5662   53.8996   27.3841 C   0  0  0  0  0  0
    4.7517   54.2310   26.0316 C   0  0  0  0  0  0
    3.7111   54.0982   25.1137 C   0  0  0  0  0  0
    2.4576   53.6214   25.5168 C   0  0  0  0  0  0
    2.2546   53.3716   26.8831 C   0  0  0  0  0  0
    3.2981   53.4775   27.8140 C   0  0  0  0  0  0
    3.0642   53.1005   29.2828 C   0  0  0  0  0  0
    3.8762   52.1009   29.6290 F   0  0  0  0  0  0
    3.3103   54.1389   30.0816 F   0  0  0  0  0  0
    1.8123   52.6980   29.5132 F   0  0  0  0  0  0
    1.3515   53.4385   24.4919 C   0  0  0  0  0  0
    1.3248   54.1793   23.5079 O   0  0  0  0  0  0
    0.4046   52.4783   24.6864 N   0  0  0  0  0  0
   -0.7563   52.3418   23.7871 C   0  0  0  0  0  0
   -0.9410   50.8071   23.6718 C   0  0  2  0  0  0
   -1.9811   50.5874   23.4325 H   0  0  0  0  0  0
   -0.5359   50.3015   25.0912 C   0  0  0  0  0  0
    0.6618   51.2117   25.3954 C   0  0  0  0  0  0
   -1.6065   50.5923   26.1910 C   0  0  0  0  0  0
   -2.8893   49.7560   26.0121 C   0  0  0  0  0  0
   -2.4956   48.2662   26.0817 N   0  3  0  0  0  0
   -1.3962   47.8819   25.0643 C   0  0  0  0  0  0
   -0.1781   48.8008   25.2984 C   0  0  0  0  0  0
   -0.0766   50.1886   22.5272 C   0  0  0  0  0  0
   -0.3835   49.0876   22.0724 O   0  0  0  0  0  0
    0.9796   50.8903   22.0678 N   0  0  0  0  0  0
    1.8300   50.5378   20.9243 C   0  0  2  0  0  0
    1.9358   49.4495   20.8888 H   0  0  0  0  0  0
    3.1944   51.0615   21.1259 C   0  0  0  0  0  0
    4.2634   51.4769   21.2818 N   0  0  0  0  0  0
    1.3153   51.0017   19.5588 C   0  0  0  0  0  0
    1.8525   50.4091   18.4104 C   0  0  0  0  0  0
    1.4333   50.8143   17.1479 C   0  0  0  0  0  0
    0.4735   51.8168   17.0294 C   0  0  0  0  0  0
   -0.0677   52.4186   18.1638 C   0  0  0  0  0  0
    0.3504   52.0106   19.4280 C   0  0  0  0  0  0
    7.5758   54.0080   28.7720 H   0  0  0  0  0  0
    7.1949   53.2959   27.2089 H   0  0  0  0  0  0
    7.1174   55.0588   27.4376 H   0  0  0  0  0  0
    5.7060   54.5776   25.6672 H   0  0  0  0  0  0
    3.8995   54.3384   24.0756 H   0  0  0  0  0  0
    1.2725   53.0919   27.2343 H   0  0  0  0  0  0
   -0.6558   52.7956   22.7997 H   0  0  0  0  0  0
   -1.6580   52.7080   24.2805 H   0  0  0  0  0  0
    0.9350   51.2403   26.4485 H   0  0  0  0  0  0
    1.5041   50.7504   24.8837 H   0  0  0  0  0  0
   -1.1933   50.4187   27.1888 H   0  0  0  0  0  0
   -1.8812   51.6470   26.2044 H   0  0  0  0  0  0
   -3.5962   49.9125   26.8291 H   0  0  0  0  0  0
   -3.3989   49.9113   25.0610 H   0  0  0  0  0  0
   -2.1112   48.1077   27.0312 H   0  0  0  0  0  0
   -1.1569   46.8356   25.2568 H   0  0  0  0  0  0
   -1.8278   47.9814   24.0676 H   0  0  0  0  0  0
    0.6329   48.4969   24.6352 H   0  0  0  0  0  0
    0.2185   48.6315   26.3029 H   0  0  0  0  0  0
    1.0772   51.8401   22.3973 H   0  0  0  0  0  0
    2.6150   49.6462   18.4853 H   0  0  0  0  0  0
    1.8686   50.3561   16.2693 H   0  0  0  0  0  0
    0.1552   52.1374   16.0480 H   0  0  0  0  0  0
   -0.7999   53.2065   18.0609 H   0  0  0  0  0  0
   -0.0632   52.5001   20.2970 H   0  0  0  0  0  0
   -3.3082   47.6736   25.9934 H   0  0  0  0  0  0
  1  2  1  0  0  0
  1 39  1  0  0  0
  1 40  1  0  0  0
  1 41  1  0  0  0
  2  3  1  0  0  0
  3  8  2  0  0  0
  3  4  1  0  0  0
  4  5  2  0  0  0
  4 42  1  0  0  0
  5  6  1  0  0  0
  5 43  1  0  0  0
  6  7  2  0  0  0
  6 13  1  0  0  0
  7  8  1  0  0  0
  7 44  1  0  0  0
  8  9  1  0  0  0
  9 10  1  0  0  0
  9 11  1  0  0  0
  9 12  1  0  0  0
 13 14  2  0  0  0
 13 15  1  0  0  0
 15 20  1  0  0  0
 15 16  1  0  0  0
 16 17  1  0  0  0
 16 45  1  0  0  0
 16 46  1  0  0  0
 17 18  1  0  0  0
 17 19  1  0  0  0
 17 26  1  0  0  0
 19 25  1  0  0  0
 19 20  1  0  0  0
 19 21  1  0  0  0
 20 47  1  0  0  0
 20 48  1  0  0  0
 21 22  1  0  0  0
 21 49  1  0  0  0
 21 50  1  0  0  0
 22 23  1  0  0  0
 22 51  1  0  0  0
 22 52  1  0  0  0
 23 24  1  0  0  0
 23 53  1  0  0  0
 23 64  1  0  0  0
 24 25  1  0  0  0
 24 54  1  0  0  0
 24 55  1  0  0  0
 25 56  1  0  0  0
 25 57  1  0  0  0
 26 27  2  0  0  0
 26 28  1  0  0  0
 28 29  1  0  0  0
 28 58  1  0  0  0
 29 30  1  0  0  0
 29 31  1  0  0  0
 29 33  1  0  0  0
 31 32  3  0  0  0
 33 38  2  0  0  0
 33 34  1  0  0  0
 34 35  2  0  0  0
 34 59  1  0  0  0
 35 36  1  0  0  0
 35 60  1  0  0  0
 36 37  2  0  0  0
 36 61  1  0  0  0
 37 38  1  0  0  0
 37 62  1  0  0  0
 38 63  1  0  0  0
M  CHG  1  23   1
M  END
> <i_i_glide_confnum>
159

> <i_i_glide_lignum>
380

> <i_i_glide_posenum>
152

> <i_i_glide_rotatable_bonds>
9

> <i_m_Source_File_Index>
5741

> <b_m_subgroup_collapsed>
0

> <r_i_docking_score>
-5.97987

> <r_i_glide_ecoul>
-8.74467

> <r_i_glide_eff_state_penalty>
0

> <r_i_glide_einternal>
6.99918

> <r_i_glide_emodel>
-64.4063

> <r_i_glide_energy>
-49.0467

> <r_i_glide_erotb>
0.406066

> <r_i_glide_esite>
-0.164373

> <r_i_glide_evdw>
-40.3021

> <r_i_glide_gscore>
-5.97987

> <r_i_glide_hbond>
-0.182329

> <r_i_glide_ligand_efficiency>
-0.166107

> <r_i_glide_ligand_efficiency_ln>
-1.30465

> <r_i_glide_ligand_efficiency_sa>
-0.548475

> <r_i_glide_lipo>
-1.83352

> <r_i_glide_metal>
0

> <r_i_glide_rewards>
-0.878903

> <s_i_glide_gridfile>
wee1_glide-grid

> <s_m_Source_File>
wee1_decoys_glide_SP.sdf

> <s_m_Source_Path>
/Users/zhangxujun/Desktop

> <s_m_entry_id>
6016

> <s_m_entry_name>
wee1_decoys_glide_SP.5741

> <s_m_subgroup_title>
wee1_decoys_glide_SP

> <s_m_subgroupid>
wee1_decoys_glide_SP


$$$$
