ZINC66118970_6224
                    3D
 Schrodinger Suite 2024-2.
 57 59  0  0  1  0            999 V2000
    6.8421   55.0558   22.2953 C   0  0  0  0  0  0
    5.7117   54.8971   21.5014 C   0  0  0  0  0  0
    4.9321   53.8995   22.0780 C   0  0  0  0  0  0
    5.5478   53.4675   23.2097 O   0  0  0  0  0  0
    6.7043   54.1639   23.3418 C   0  0  0  0  0  0
    3.6078   53.2166   21.7541 C   0  0  1  0  0  0
    3.7369   52.1458   21.9347 H   0  0  0  0  0  0
    2.4286   53.8002   22.5952 C   0  0  0  0  0  0
    1.9611   52.9496   23.6910 N   0  0  0  0  0  0
    1.1837   51.8539   23.5773 C   0  0  0  0  0  0
    0.7992   51.4347   22.4840 O   0  0  0  0  0  0
    0.9278   51.2234   24.7534 N   0  0  0  0  0  0
    0.7607   51.9432   26.0348 C   0  0  0  0  0  0
   -0.7494   52.0004   26.3316 C   0  0  0  0  0  0
   -1.3430   50.5845   26.4139 C   0  0  0  0  0  0
   -1.0355   49.7282   25.1557 C   0  0  1  0  0  0
   -1.5969   50.1632   24.3258 H   0  0  0  0  0  0
    0.4667   49.8175   24.7670 C   0  0  0  0  0  0
   -1.4321   48.2375   25.3138 C   0  0  0  0  0  0
   -2.9081   47.9498   25.6816 C   0  0  0  0  0  0
   -3.1411   46.4831   26.0688 C   0  0  0  0  0  0
   -3.6592   45.6967   25.2814 O   0  0  0  0  0  0
   -2.7506   46.0966   27.2822 N   0  0  0  0  0  0
    3.2824   53.2936   20.2318 N   0  3  0  0  0  0
    4.4241   52.9697   19.2420 C   0  0  0  0  0  0
    3.7010   52.7107   17.9275 C   0  0  0  0  0  0
    2.4048   52.0103   18.3126 C   0  0  0  0  0  0
    2.1654   52.3115   19.7977 C   0  0  0  0  0  0
    7.6644   55.7335   22.1213 H   0  0  0  0  0  0
    5.5002   55.4576   20.6029 H   0  0  0  0  0  0
    7.3161   53.9153   24.1955 H   0  0  0  0  0  0
    1.5655   54.0500   21.9851 H   0  0  0  0  0  0
    2.7237   54.7503   23.0399 H   0  0  0  0  0  0
    2.2925   53.1919   24.6135 H   0  0  0  0  0  0
    1.2610   52.9118   26.0775 H   0  0  0  0  0  0
    1.2624   51.3501   26.8021 H   0  0  0  0  0  0
   -1.2652   52.5914   25.5718 H   0  0  0  0  0  0
   -0.9168   52.5200   27.2764 H   0  0  0  0  0  0
   -2.4082   50.6089   26.6418 H   0  0  0  0  0  0
   -0.8812   50.0969   27.2750 H   0  0  0  0  0  0
    1.0582   49.3113   25.5317 H   0  0  0  0  0  0
    0.7144   49.2897   23.8445 H   0  0  0  0  0  0
   -0.7882   47.8077   26.0817 H   0  0  0  0  0  0
   -1.1887   47.7055   24.3925 H   0  0  0  0  0  0
   -3.5627   48.2144   24.8502 H   0  0  0  0  0  0
   -3.2259   48.5544   26.5301 H   0  0  0  0  0  0
   -2.2723   46.7803   27.8704 H   0  0  0  0  0  0
   -2.8952   45.1498   27.6204 H   0  0  0  0  0  0
    5.1306   53.7924   19.1837 H   0  0  0  0  0  0
    4.9402   52.0963   19.6380 H   0  0  0  0  0  0
    3.4954   53.6538   17.4191 H   0  0  0  0  0  0
    4.3039   52.1013   17.2519 H   0  0  0  0  0  0
    2.5070   50.9328   18.1626 H   0  0  0  0  0  0
    1.5705   52.3424   17.6933 H   0  0  0  0  0  0
    2.2846   51.3997   20.3856 H   0  0  0  0  0  0
    1.2010   52.7690   20.0233 H   0  0  0  0  0  0
    2.9479   54.2345   20.0411 H   0  0  0  0  0  0
  1  5  2  0  0  0
  1  2  1  0  0  0
  1 29  1  0  0  0
  2  3  2  0  0  0
  2 30  1  0  0  0
  3  4  1  0  0  0
  3  6  1  0  0  0
  4  5  1  0  0  0
  5 31  1  0  0  0
  6  7  1  0  0  0
  6  8  1  0  0  0
  6 24  1  0  0  0
  8  9  1  0  0  0
  8 32  1  0  0  0
  8 33  1  0  0  0
  9 10  1  0  0  0
  9 34  1  0  0  0
 10 11  2  0  0  0
 10 12  1  0  0  0
 12 18  1  0  0  0
 12 13  1  0  0  0
 13 14  1  0  0  0
 13 35  1  0  0  0
 13 36  1  0  0  0
 14 15  1  0  0  0
 14 37  1  0  0  0
 14 38  1  0  0  0
 15 16  1  0  0  0
 15 39  1  0  0  0
 15 40  1  0  0  0
 16 17  1  0  0  0
 16 18  1  0  0  0
 16 19  1  0  0  0
 18 41  1  0  0  0
 18 42  1  0  0  0
 19 20  1  0  0  0
 19 43  1  0  0  0
 19 44  1  0  0  0
 20 21  1  0  0  0
 20 45  1  0  0  0
 20 46  1  0  0  0
 21 22  2  0  0  0
 21 23  1  0  0  0
 23 47  1  0  0  0
 23 48  1  0  0  0
 24 28  1  0  0  0
 24 25  1  0  0  0
 24 57  1  0  0  0
 25 26  1  0  0  0
 25 49  1  0  0  0
 25 50  1  0  0  0
 26 27  1  0  0  0
 26 51  1  0  0  0
 26 52  1  0  0  0
 27 28  1  0  0  0
 27 53  1  0  0  0
 27 54  1  0  0  0
 28 55  1  0  0  0
 28 56  1  0  0  0
M  CHG  1  24   1
M  END
> <i_i_glide_confnum>
313

> <i_i_glide_lignum>
6225

> <i_i_glide_posenum>
223

> <i_i_glide_rotatable_bonds>
9

> <i_m_Source_File_Index>
50

> <b_m_subgroup_collapsed>
0

> <r_i_docking_score>
-4.81138

> <r_i_glide_ecoul>
-11.8942

> <r_i_glide_eff_state_penalty>
0

> <r_i_glide_einternal>
8.46303

> <r_i_glide_emodel>
-49.0375

> <r_i_glide_energy>
-38.4867

> <r_i_glide_erotb>
1.16347

> <r_i_glide_esite>
-0.20909

> <r_i_glide_evdw>
-26.5926

> <r_i_glide_gscore>
-4.81138

> <r_i_glide_hbond>
-0.456

> <r_i_glide_ligand_efficiency>
-0.185053

> <r_i_glide_ligand_efficiency_ln>
-1.12994

> <r_i_glide_ligand_efficiency_sa>
-0.548219

> <r_i_glide_lipo>
-1.04497

> <r_i_glide_metal>
0

> <r_i_glide_rewards>
-1.15105

> <s_i_glide_gridfile>
wee1_glide-grid

> <s_m_Source_File>
wee1_decoys_glide_SP.sdf

> <s_m_Source_Path>
/Users/zhangxujun/Desktop

> <s_m_entry_id>
325

> <s_m_entry_name>
wee1_decoys_glide_SP.50

> <s_m_subgroup_title>
wee1_decoys_glide_SP

> <s_m_subgroupid>
wee1_decoys_glide_SP


$$$$
