ZINC03840960_1265
                    3D
 Schrodinger Suite 2024-2.
 72 75  0  0  1  0            999 V2000
    1.3341   49.6437   23.0038 C   0  0  0  0  0  0
    1.2208   51.1855   22.9140 C   0  0  2  0  0  0
    0.1648   51.4466   22.8416 H   0  0  0  0  0  0
    1.9124   51.6697   21.6218 C   0  0  0  0  0  0
    2.9116   52.6462   21.5951 C   0  0  0  0  0  0
    3.5089   52.8606   19.9829 S   0  0  0  0  0  0
    2.2834   51.7405   19.4558 C   0  0  0  0  0  0
    1.5896   51.1938   20.4266 N   0  0  0  0  0  0
    2.0756   51.3928   18.1264 N   0  0  0  0  0  0
    2.4688   52.0766   17.0300 C   0  0  0  0  0  0
    3.0239   53.1782   17.0396 O   0  0  0  0  0  0
    2.1474   51.3905   15.6878 C   0  0  0  0  0  0
    4.4421   51.5027   14.6216 C   0  0  0  0  0  0
    2.3396   51.7262   13.2040 C   0  0  0  0  0  0
    3.4366   53.3888   22.7880 C   0  0  0  0  0  0
    2.3466   53.3816   23.9003 C   0  0  1  0  0  0
    1.8038   51.9291   24.1843 C   0  0  1  0  0  0
    2.7034   51.3824   24.4121 H   0  0  0  0  0  0
    0.9330   51.8862   25.5196 C   0  0  2  0  0  0
    0.0829   52.5484   25.3729 H   0  0  0  0  0  0
    1.7174   52.4373   26.7744 C   0  0  1  0  0  0
    2.5984   51.8234   26.8819 H   0  0  0  0  0  0
    2.1857   53.8676   26.3994 C   0  0  0  0  0  0
    3.0726   53.8956   25.1536 C   0  0  0  0  0  0
    1.0615   52.3208   28.2099 C   0  0  2  0  0  0
    1.2135   51.3053   28.5756 H   0  0  0  0  0  0
   -0.4805   52.5228   28.1858 C   0  0  0  0  0  0
    1.7410   53.2359   29.2953 C   0  0  0  0  0  0
    1.0325   54.0675   29.8694 O   0  0  0  0  0  0
    3.1020   53.2764   29.4501 N   0  0  0  0  0  0
    4.0263   52.1830   29.1425 C   0  0  0  0  0  0
    5.0430   52.6857   28.0882 C   0  0  0  0  0  0
    6.0262   54.0970   28.4811 S   0  0  0  0  0  0
    4.7125   55.0926   29.1798 C   0  0  0  0  0  0
    3.7506   54.3930   30.1440 C   0  0  0  0  0  0
    0.3174   50.6348   25.7708 O   0  0  0  0  0  0
    1.2194   54.3568   23.5146 C   0  0  0  0  0  0
    0.8678   49.1615   22.1447 H   0  0  0  0  0  0
    2.3798   49.3310   23.0229 H   0  0  0  0  0  0
    0.8587   49.2217   23.8839 H   0  0  0  0  0  0
    1.5659   50.5350   17.9766 H   0  0  0  0  0  0
    1.1032   51.5943   15.4420 H   0  0  0  0  0  0
    2.3051   50.3058   15.6840 H   0  0  0  0  0  0
    4.4318   50.4186   14.4801 H   0  0  0  0  0  0
    4.8660   51.7720   15.5918 H   0  0  0  0  0  0
    4.9830   52.0069   13.8158 H   0  0  0  0  0  0
    2.3052   50.6428   13.0574 H   0  0  0  0  0  0
    1.3372   52.1652   13.2024 H   0  0  0  0  0  0
    2.9705   52.2087   12.4526 H   0  0  0  0  0  0
    4.3577   52.8957   23.0990 H   0  0  0  0  0  0
    3.7224   54.4081   22.5231 H   0  0  0  0  0  0
    1.3171   54.4968   26.3242 H   0  0  0  0  0  0
    2.7792   54.3308   27.1759 H   0  0  0  0  0  0
    3.9659   53.2993   25.2902 H   0  0  0  0  0  0
    3.4458   54.9101   24.9973 H   0  0  0  0  0  0
   -0.8991   52.4860   29.1940 H   0  0  0  0  0  0
   -0.7482   53.4861   27.7505 H   0  0  0  0  0  0
   -1.0047   51.7491   27.6279 H   0  0  0  0  0  0
    4.5514   51.9020   30.0555 H   0  0  0  0  0  0
    3.4833   51.2960   28.8413 H   0  0  0  0  0  0
    4.6109   52.8372   27.1209 H   0  0  0  0  0  0
    5.9231   52.0967   27.9833 H   0  0  0  0  0  0
    4.1639   55.5305   28.3511 H   0  0  0  0  0  0
    5.2704   55.8595   29.7022 H   0  0  0  0  0  0
    3.0244   55.1327   30.4824 H   0  0  0  0  0  0
    4.3040   54.0202   31.0065 H   0  0  0  0  0  0
   -0.1812   50.6795   26.5918 H   0  0  0  0  0  0
    0.2467   54.1174   23.9366 H   0  0  0  0  0  0
    1.5043   55.3407   23.8703 H   0  0  0  0  0  0
    1.1051   54.4309   22.4360 H   0  0  0  0  0  0
    2.9761   52.0021   14.5847 N   0  3  0  0  0  0
    2.9882   53.0074   14.7271 H   0  0  0  0  0  0
  1  2  1  0  0  0
  1 38  1  0  0  0
  1 39  1  0  0  0
  1 40  1  0  0  0
  2  3  1  0  0  0
  2 17  1  0  0  0
  2  4  1  0  0  0
  4  8  1  0  0  0
  4  5  2  0  0  0
  5  6  1  0  0  0
  5 15  1  0  0  0
  6  7  1  0  0  0
  7  8  2  0  0  0
  7  9  1  0  0  0
  9 10  1  0  0  0
  9 41  1  0  0  0
 10 11  2  0  0  0
 10 12  1  0  0  0
 12 42  1  0  0  0
 12 43  1  0  0  0
 12 71  1  0  0  0
 13 44  1  0  0  0
 13 45  1  0  0  0
 13 46  1  0  0  0
 13 71  1  0  0  0
 14 47  1  0  0  0
 14 48  1  0  0  0
 14 49  1  0  0  0
 14 71  1  0  0  0
 15 16  1  0  0  0
 15 50  1  0  0  0
 15 51  1  0  0  0
 16 24  1  0  0  0
 16 17  1  0  0  0
 16 37  1  0  0  0
 17 18  1  0  0  0
 17 19  1  0  0  0
 19 20  1  0  0  0
 19 21  1  0  0  0
 19 36  1  0  0  0
 21 22  1  0  0  0
 21 23  1  0  0  0
 21 25  1  0  0  0
 23 24  1  0  0  0
 23 52  1  0  0  0
 23 53  1  0  0  0
 24 54  1  0  0  0
 24 55  1  0  0  0
 25 26  1  0  0  0
 25 27  1  0  0  0
 25 28  1  0  0  0
 27 56  1  0  0  0
 27 57  1  0  0  0
 27 58  1  0  0  0
 28 29  2  0  0  0
 28 30  1  0  0  0
 30 35  1  0  0  0
 30 31  1  0  0  0
 31 32  1  0  0  0
 31 59  1  0  0  0
 31 60  1  0  0  0
 32 33  1  0  0  0
 32 61  1  0  0  0
 32 62  1  0  0  0
 33 34  1  0  0  0
 34 35  1  0  0  0
 34 63  1  0  0  0
 34 64  1  0  0  0
 35 65  1  0  0  0
 35 66  1  0  0  0
 36 67  1  0  0  0
 37 68  1  0  0  0
 37 69  1  0  0  0
 37 70  1  0  0  0
 71 72  1  0  0  0
M  CHG  1  71   1
M  END
> <i_i_glide_confnum>
67

> <i_i_glide_lignum>
1266

> <i_i_glide_posenum>
321

> <i_i_glide_rotatable_bonds>
8

> <i_m_Source_File_Index>
2342

> <b_m_subgroup_collapsed>
0

> <r_i_docking_score>
-3.53062

> <r_i_glide_ecoul>
0.419452

> <r_i_glide_eff_state_penalty>
0

> <r_i_glide_einternal>
11.6346

> <r_i_glide_emodel>
-30.3986

> <r_i_glide_energy>
-24.9729

> <r_i_glide_erotb>
0.497775

> <r_i_glide_esite>
-0.154244

> <r_i_glide_evdw>
-25.3923

> <r_i_glide_gscore>
-3.53062

> <r_i_glide_hbond>
0

> <r_i_glide_ligand_efficiency>
-0.106989

> <r_i_glide_ligand_efficiency_ln>
-0.785192

> <r_i_glide_ligand_efficiency_sa>
-0.34317

> <r_i_glide_lipo>
-2.27362

> <r_i_glide_metal>
0

> <r_i_glide_rewards>
-0.393834

> <s_i_glide_gridfile>
wee1_glide-grid

> <s_m_Source_File>
wee1_decoys_glide_SP.sdf

> <s_m_Source_Path>
/Users/zhangxujun/Desktop

> <s_m_entry_id>
2617

> <s_m_entry_name>
wee1_decoys_glide_SP.2342

> <s_m_subgroup_title>
wee1_decoys_glide_SP

> <s_m_subgroupid>
wee1_decoys_glide_SP


$$$$
