ZINC63209075_2219
                    3D
 Schrodinger Suite 2024-2.
 64 67  0  0  1  0            999 V2000
    6.1167   54.4976   28.2708 C   0  0  0  0  0  0
    4.9554   54.1387   27.3626 C   0  0  0  0  0  0
    3.7035   53.5818   27.7606 C   0  0  0  0  0  0
    2.9766   53.2969   26.5999 C   0  0  0  0  0  0
    3.7513   53.7017   25.5490 N   0  0  0  0  0  0
    3.4721   53.6173   24.5831 H   0  0  0  0  0  0
    4.9421   54.2418   25.9634 C   0  0  0  0  0  0
    5.9462   54.7927   25.0722 C   0  0  0  0  0  0
    6.7049   55.6882   25.4433 O   0  0  0  0  0  0
    5.9254   54.3184   23.8110 N   0  0  0  0  0  0
    6.7682   54.7964   22.7023 C   0  0  0  0  0  0
    5.9842   55.0538   21.3825 C   0  0  1  0  0  0
    5.2291   55.7617   21.6814 H   0  0  0  0  0  0
    6.7880   55.7786   20.2858 C   0  0  0  0  0  0
    8.1568   55.5746   20.1073 C   0  0  0  0  0  0
    8.8528   56.2680   19.1210 C   0  0  0  0  0  0
    8.2210   57.2216   18.3095 C   0  0  0  0  0  0
    6.8483   57.4249   18.5002 C   0  0  0  0  0  0
    6.1505   56.7051   19.4627 C   0  0  0  0  0  0
    8.9523   57.9732   17.3483 N   0  0  0  0  0  0
    8.2584   58.9073   16.4581 C   0  0  0  0  0  0
   10.2861   57.5321   16.9365 C   0  0  0  0  0  0
    5.0919   53.9094   20.8944 C   0  0  0  0  0  0
    3.8962   53.4894   21.3578 C   0  0  0  0  0  0
    3.0506   54.0057   22.4446 C   0  0  0  0  0  0
    1.8832   53.4090   22.7567 C   0  0  0  0  0  0
    1.4964   52.2251   22.0016 C   0  0  0  0  0  0
    2.2547   51.7442   20.9823 C   0  0  0  0  0  0
    3.4516   52.3806   20.6324 C   0  0  0  0  0  0
    4.3007   52.0970   19.6819 N   0  3  0  0  0  0
    5.3959   53.0685   19.6696 C   0  0  0  0  0  0
    1.6248   52.6550   26.3398 C   0  0  0  0  0  0
    3.2686   53.3360   29.1467 C   0  0  0  0  0  0
    3.9042   53.7295   30.1196 O   0  0  0  0  0  0
    1.9787   52.5702   29.4264 C   0  0  0  0  0  0
    7.0312   54.7782   27.7496 H   0  0  0  0  0  0
    5.8561   55.2958   28.9638 H   0  0  0  0  0  0
    6.3820   53.6440   28.8917 H   0  0  0  0  0  0
    5.4891   53.4207   23.6677 H   0  0  0  0  0  0
    7.2819   55.7196   22.9815 H   0  0  0  0  0  0
    7.5673   54.0758   22.5484 H   0  0  0  0  0  0
    8.7052   54.8967   20.7370 H   0  0  0  0  0  0
    9.9045   56.0668   19.0230 H   0  0  0  0  0  0
    6.2974   58.1432   17.9117 H   0  0  0  0  0  0
    5.1044   56.8958   19.5766 H   0  0  0  0  0  0
    7.6019   58.3650   15.7761 H   0  0  0  0  0  0
    7.6391   59.6096   17.0190 H   0  0  0  0  0  0
    8.9564   59.4927   15.8586 H   0  0  0  0  0  0
   10.9664   57.4774   17.7871 H   0  0  0  0  0  0
   10.2324   56.5369   16.4921 H   0  0  0  0  0  0
   10.7316   58.2012   16.1987 H   0  0  0  0  0  0
    3.3162   54.9057   22.9797 H   0  0  0  0  0  0
    1.2328   53.8201   23.5154 H   0  0  0  0  0  0
    0.5791   51.7149   22.2589 H   0  0  0  0  0  0
    1.9199   50.8657   20.4483 H   0  0  0  0  0  0
    5.3407   53.6249   18.7328 H   0  0  0  0  0  0
    6.3045   52.4840   19.6813 H   0  0  0  0  0  0
    1.5057   51.7172   26.8823 H   0  0  0  0  0  0
    0.7976   53.2970   26.6415 H   0  0  0  0  0  0
    1.4705   52.3958   25.2935 H   0  0  0  0  0  0
    2.0407   51.5600   29.0237 H   0  0  0  0  0  0
    1.1261   53.0795   28.9796 H   0  0  0  0  0  0
    1.8005   52.4954   30.5005 H   0  0  0  0  0  0
    4.2556   51.3205   19.0116 H   0  0  0  0  0  0
  1  2  1  0  0  0
  1 36  1  0  0  0
  1 37  1  0  0  0
  1 38  1  0  0  0
  2  7  2  0  0  0
  2  3  1  0  0  0
  3  4  2  0  0  0
  3 33  1  0  0  0
  4  5  1  0  0  0
  4 32  1  0  0  0
  5  6  1  0  0  0
  5  7  1  0  0  0
  7  8  1  0  0  0
  8  9  2  0  0  0
  8 10  1  0  0  0
 10 11  1  0  0  0
 10 39  1  0  0  0
 11 12  1  0  0  0
 11 40  1  0  0  0
 11 41  1  0  0  0
 12 13  1  0  0  0
 12 14  1  0  0  0
 12 23  1  0  0  0
 14 19  2  0  0  0
 14 15  1  0  0  0
 15 16  2  0  0  0
 15 42  1  0  0  0
 16 17  1  0  0  0
 16 43  1  0  0  0
 17 18  2  0  0  0
 17 20  1  0  0  0
 18 19  1  0  0  0
 18 44  1  0  0  0
 19 45  1  0  0  0
 20 21  1  0  0  0
 20 22  1  0  0  0
 21 46  1  0  0  0
 21 47  1  0  0  0
 21 48  1  0  0  0
 22 49  1  0  0  0
 22 50  1  0  0  0
 22 51  1  0  0  0
 23 31  1  0  0  0
 23 24  2  0  0  0
 24 29  1  0  0  0
 24 25  1  0  0  0
 25 26  2  0  0  0
 25 52  1  0  0  0
 26 27  1  0  0  0
 26 53  1  0  0  0
 27 28  2  0  0  0
 27 54  1  0  0  0
 28 29  1  0  0  0
 28 55  1  0  0  0
 29 30  2  0  0  0
 30 31  1  0  0  0
 30 64  1  0  0  0
 31 56  1  0  0  0
 31 57  1  0  0  0
 32 58  1  0  0  0
 32 59  1  0  0  0
 32 60  1  0  0  0
 33 34  2  0  0  0
 33 35  1  0  0  0
 35 61  1  0  0  0
 35 62  1  0  0  0
 35 63  1  0  0  0
M  CHG  1  30   1
M  END
> <i_i_glide_confnum>
61

> <i_i_glide_lignum>
2220

> <i_i_glide_posenum>
294

> <i_i_glide_rotatable_bonds>
8

> <i_m_Source_File_Index>
4504

> <b_m_subgroup_collapsed>
0

> <r_i_docking_score>
-7.11203

> <r_i_glide_ecoul>
-7.90019

> <r_i_glide_eff_state_penalty>
0

> <r_i_glide_einternal>
11.1029

> <r_i_glide_emodel>
-71.2418

> <r_i_glide_energy>
-52.704

> <r_i_glide_erotb>
0.6097

> <r_i_glide_esite>
-0.0904548

> <r_i_glide_evdw>
-44.8038

> <r_i_glide_gscore>
-7.11203

> <r_i_glide_hbond>
-0.739994

> <r_i_glide_ligand_efficiency>
-0.215516

> <r_i_glide_ligand_efficiency_ln>
-1.58168

> <r_i_glide_ligand_efficiency_sa>
-0.691275

> <r_i_glide_lipo>
-2.36801

> <r_i_glide_metal>
0

> <r_i_glide_rewards>
-1.09805

> <s_i_glide_gridfile>
wee1_glide-grid

> <s_m_Source_File>
wee1_decoys_glide_SP.sdf

> <s_m_Source_Path>
/Users/zhangxujun/Desktop

> <s_m_entry_id>
4779

> <s_m_entry_name>
wee1_decoys_glide_SP.4504

> <s_m_subgroup_title>
wee1_decoys_glide_SP

> <s_m_subgroupid>
wee1_decoys_glide_SP


$$$$
