ZINC40306655_1741
                    3D
 Schrodinger Suite 2024-2.
 32 33  0  0  1  0            999 V2000
    4.2355   54.0959   24.5451 C   0  0  0  0  0  0
    4.6387   54.0966   23.2031 C   0  0  0  0  0  0
    5.9836   54.3969   23.2182 C   0  0  0  0  0  0
    6.3764   54.5610   24.5173 N   0  0  0  0  0  0
    7.3224   54.7662   24.8073 H   0  0  0  0  0  0
    5.3194   54.3986   25.3858 C   0  0  0  0  0  0
    5.5116   54.4969   26.8307 C   0  0  0  0  0  0
    6.6768   54.5794   27.2336 O   0  0  0  0  0  0
    4.4538   54.4969   27.7018 N   0  0  0  0  0  0
    4.6983   54.4935   29.1581 C   0  0  0  0  0  0
    4.2312   53.1092   29.6812 C   0  0  0  0  0  0
    2.7790   52.7846   29.3040 C   0  0  0  0  0  0
    2.5058   53.0236   27.8014 C   0  0  2  0  0  0
    3.1030   52.3028   27.2444 H   0  0  0  0  0  0
    3.0132   54.4338   27.3936 C   0  0  0  0  0  0
    1.0257   52.7793   27.4501 C   0  0  0  0  0  0
    0.2321   53.6496   28.0817 F   0  0  0  0  0  0
    0.8201   52.8962   26.1387 F   0  0  0  0  0  0
    0.6377   51.5539   27.8016 F   0  0  0  0  0  0
    3.8709   53.8485   22.1084 N   0  0  0  0  0  0
    3.2311   53.8305   24.8260 H   0  0  0  0  0  0
    6.6997   54.4982   22.4177 H   0  0  0  0  0  0
    5.7218   54.7577   29.4337 H   0  0  0  0  0  0
    4.0883   55.2865   29.5921 H   0  0  0  0  0  0
    4.9001   52.3322   29.3069 H   0  0  0  0  0  0
    4.3040   53.0777   30.7679 H   0  0  0  0  0  0
    2.5137   51.7655   29.5909 H   0  0  0  0  0  0
    2.1171   53.4237   29.8920 H   0  0  0  0  0  0
    2.5136   55.1794   28.0147 H   0  0  0  0  0  0
    2.7407   54.8112   26.4157 H   0  0  0  0  0  0
    2.8645   53.9313   22.1363 H   0  0  0  0  0  0
    4.2767   53.7343   21.1907 H   0  0  0  0  0  0
  1  6  2  0  0  0
  1  2  1  0  0  0
  1 21  1  0  0  0
  2  3  2  0  0  0
  2 20  1  0  0  0
  3  4  1  0  0  0
  3 22  1  0  0  0
  4  5  1  0  0  0
  4  6  1  0  0  0
  6  7  1  0  0  0
  7  8  2  0  0  0
  7  9  1  0  0  0
  9 15  1  0  0  0
  9 10  1  0  0  0
 10 11  1  0  0  0
 10 23  1  0  0  0
 10 24  1  0  0  0
 11 12  1  0  0  0
 11 25  1  0  0  0
 11 26  1  0  0  0
 12 13  1  0  0  0
 12 27  1  0  0  0
 12 28  1  0  0  0
 13 14  1  0  0  0
 13 15  1  0  0  0
 13 16  1  0  0  0
 15 29  1  0  0  0
 15 30  1  0  0  0
 16 17  1  0  0  0
 16 18  1  0  0  0
 16 19  1  0  0  0
 20 31  1  0  0  0
 20 32  1  0  0  0
M  END
> <i_i_glide_confnum>
1

> <i_i_glide_lignum>
1742

> <i_i_glide_posenum>
32

> <i_i_glide_rotatable_bonds>
3

> <i_m_Source_File_Index>
3266

> <b_m_subgroup_collapsed>
0

> <r_i_docking_score>
-5.73543

> <r_i_glide_ecoul>
0.254212

> <r_i_glide_eff_state_penalty>
0

> <r_i_glide_einternal>
1.06814

> <r_i_glide_emodel>
-42.7522

> <r_i_glide_energy>
-31.4137

> <r_i_glide_erotb>
0.519219

> <r_i_glide_esite>
0

> <r_i_glide_evdw>
-31.6679

> <r_i_glide_gscore>
-5.73543

> <r_i_glide_hbond>
0

> <r_i_glide_ligand_efficiency>
-0.318635

> <r_i_glide_ligand_efficiency_ln>
-1.47426

> <r_i_glide_ligand_efficiency_sa>
-0.83506

> <r_i_glide_lipo>
-2.02993

> <r_i_glide_metal>
0

> <r_i_glide_rewards>
-2.67946

> <s_i_glide_gridfile>
wee1_glide-grid

> <s_m_Source_File>
wee1_decoys_glide_SP.sdf

> <s_m_Source_Path>
/Users/zhangxujun/Desktop

> <s_m_entry_id>
3541

> <s_m_entry_name>
wee1_decoys_glide_SP.3266

> <s_m_subgroup_title>
wee1_decoys_glide_SP

> <s_m_subgroupid>
wee1_decoys_glide_SP


$$$$
