ZINC08934571_2287
                    3D
 Schrodinger Suite 2024-2.
 53 55  0  0  1  0            999 V2000
    6.5415   54.9748   26.9395 C   0  0  0  0  0  0
    5.6139   54.6152   25.7953 C   0  0  0  0  0  0
    4.2593   54.3904   26.0436 C   0  0  0  0  0  0
    3.4165   54.0103   25.0032 C   0  0  0  0  0  0
    3.9263   53.8440   23.7136 C   0  0  0  0  0  0
    5.2798   54.0956   23.4617 C   0  0  0  0  0  0
    6.1220   54.4807   24.5024 C   0  0  0  0  0  0
    2.7964   53.2881   22.4285 S   0  0  0  0  0  0
    2.7043   51.8270   22.5019 O   0  0  0  0  0  0
    1.5873   54.0964   22.6031 O   0  0  0  0  0  0
    3.5044   53.6968   20.8717 N   0  0  0  0  0  0
    4.5406   52.9822   20.2425 C   0  0  0  0  0  0
    5.1044   52.0686   20.8445 O   0  0  0  0  0  0
    4.8705   53.3761   18.9853 N   0  0  0  0  0  0
    4.0678   54.1326   17.9907 C   0  0  1  0  0  0
    3.0872   54.3985   18.3887 H   0  0  0  0  0  0
    4.7181   55.4172   17.4087 C   0  0  0  0  0  0
    5.6985   54.8639   15.9867 S   0  0  0  0  0  0
    4.6456   53.4660   15.7402 C   0  0  0  0  0  0
    4.8306   52.5698   14.3459 S   0  0  0  0  0  0
    3.8158   53.2825   16.8180 N   0  0  0  0  0  0
    2.9432   52.0963   16.9482 C   0  0  0  0  0  0
    1.5146   52.4081   17.3690 C   0  0  0  0  0  0
    0.7180   53.2328   16.5693 C   0  0  0  0  0  0
   -0.6046   53.4787   16.9283 C   0  0  0  0  0  0
   -1.1253   52.8969   18.0816 C   0  0  0  0  0  0
   -0.3300   52.0857   18.8890 C   0  0  0  0  0  0
    0.9930   51.8391   18.5327 C   0  0  0  0  0  0
   -2.4099   53.1353   18.4339 F   0  0  0  0  0  0
    3.6690   56.4165   16.8686 C   0  0  0  0  0  0
    5.6581   56.1545   18.3899 C   0  0  0  0  0  0
    6.1039   52.8967   18.5203 O   0  0  0  0  0  0
    7.5044   54.4771   26.8258 H   0  0  0  0  0  0
    6.1385   54.6542   27.9013 H   0  0  0  0  0  0
    6.7044   56.0500   26.9683 H   0  0  0  0  0  0
    3.8604   54.4932   27.0423 H   0  0  0  0  0  0
    2.3716   53.8204   25.2039 H   0  0  0  0  0  0
    5.7009   53.9846   22.4762 H   0  0  0  0  0  0
    7.1699   54.6547   24.3019 H   0  0  0  0  0  0
    2.9693   54.4064   20.3587 H   0  0  0  0  0  0
    2.8744   51.5142   16.0294 H   0  0  0  0  0  0
    3.4046   51.4150   17.6658 H   0  0  0  0  0  0
    1.1198   53.6713   15.6669 H   0  0  0  0  0  0
   -1.2265   54.1109   16.3124 H   0  0  0  0  0  0
   -0.7382   51.6463   19.7867 H   0  0  0  0  0  0
    1.6064   51.2019   19.1553 H   0  0  0  0  0  0
    3.0957   56.8519   17.6818 H   0  0  0  0  0  0
    4.1375   57.2448   16.3343 H   0  0  0  0  0  0
    2.9617   55.9448   16.1850 H   0  0  0  0  0  0
    5.1195   56.4700   19.2822 H   0  0  0  0  0  0
    6.4933   55.5321   18.7122 H   0  0  0  0  0  0
    6.0855   57.0500   17.9366 H   0  0  0  0  0  0
    5.9045   51.9598   18.3261 H   0  0  0  0  0  0
  1  2  1  0  0  0
  1 33  1  0  0  0
  1 34  1  0  0  0
  1 35  1  0  0  0
  2  7  2  0  0  0
  2  3  1  0  0  0
  3  4  2  0  0  0
  3 36  1  0  0  0
  4  5  1  0  0  0
  4 37  1  0  0  0
  5  6  2  0  0  0
  5  8  1  0  0  0
  6  7  1  0  0  0
  6 38  1  0  0  0
  7 39  1  0  0  0
  8  9  2  0  0  0
  8 10  2  0  0  0
  8 11  1  0  0  0
 11 12  1  0  0  0
 11 40  1  0  0  0
 12 13  2  0  0  0
 12 14  1  0  0  0
 14 15  1  0  0  0
 14 32  1  0  0  0
 15 16  1  0  0  0
 15 21  1  0  0  0
 15 17  1  0  0  0
 17 18  1  0  0  0
 17 30  1  0  0  0
 17 31  1  0  0  0
 18 19  1  0  0  0
 19 20  2  0  0  0
 19 21  1  0  0  0
 21 22  1  0  0  0
 22 23  1  0  0  0
 22 41  1  0  0  0
 22 42  1  0  0  0
 23 28  2  0  0  0
 23 24  1  0  0  0
 24 25  2  0  0  0
 24 43  1  0  0  0
 25 26  1  0  0  0
 25 44  1  0  0  0
 26 27  2  0  0  0
 26 29  1  0  0  0
 27 28  1  0  0  0
 27 45  1  0  0  0
 28 46  1  0  0  0
 30 47  1  0  0  0
 30 48  1  0  0  0
 30 49  1  0  0  0
 31 50  1  0  0  0
 31 51  1  0  0  0
 31 52  1  0  0  0
 32 53  1  0  0  0
M  END
> <i_i_glide_confnum>
124

> <i_i_glide_lignum>
2288

> <i_i_glide_posenum>
134

> <i_i_glide_rotatable_bonds>
8

> <i_m_Source_File_Index>
347

> <b_m_subgroup_collapsed>
0

> <r_i_docking_score>
-4.76598

> <r_i_glide_ecoul>
-11.3719

> <r_i_glide_eff_state_penalty>
0

> <r_i_glide_einternal>
4.47741

> <r_i_glide_emodel>
-55.4302

> <r_i_glide_energy>
-44.3419

> <r_i_glide_erotb>
0.607656

> <r_i_glide_esite>
-0.239506

> <r_i_glide_evdw>
-32.9701

> <r_i_glide_gscore>
-4.76598

> <r_i_glide_hbond>
-0.29516

> <r_i_glide_ligand_efficiency>
-0.153741

> <r_i_glide_ligand_efficiency_ln>
-1.07487

> <r_i_glide_ligand_efficiency_sa>
-0.48296

> <r_i_glide_lipo>
-2.14913

> <r_i_glide_metal>
0

> <r_i_glide_rewards>
0.664448

> <s_i_glide_gridfile>
wee1_glide-grid

> <s_m_Source_File>
wee1_decoys_glide_SP.sdf

> <s_m_Source_Path>
/Users/zhangxujun/Desktop

> <s_m_entry_id>
622

> <s_m_entry_name>
wee1_decoys_glide_SP.347

> <s_m_subgroup_title>
wee1_decoys_glide_SP

> <s_m_subgroupid>
wee1_decoys_glide_SP


$$$$
