ZINC09341713_3248
                    3D
 Schrodinger Suite 2024-2.
 55 59  0  0  1  0            999 V2000
   -7.6493   50.8157   27.0956 C   0  0  0  0  0  0
   -6.3045   51.2029   27.6994 C   0  0  0  0  0  0
   -6.2768   51.7253   28.8146 O   0  0  0  0  0  0
   -5.2189   50.9649   26.9351 N   0  0  0  0  0  0
   -3.8861   51.2225   27.2864 C   0  0  0  0  0  0
   -3.0385   51.7289   26.3021 C   0  0  0  0  0  0
   -1.7172   52.0398   26.6143 C   0  0  0  0  0  0
   -1.2229   51.8365   27.9149 C   0  0  0  0  0  0
   -2.0770   51.2967   28.8817 C   0  0  0  0  0  0
   -3.3917   50.9686   28.5692 C   0  0  0  0  0  0
    0.0832   52.2290   28.3023 N   0  0  0  0  0  0
    0.4829   52.5000   29.7113 C   0  0  0  0  0  0
    1.7597   53.2853   29.5164 C   0  0  1  0  0  0
    1.5737   54.7833   29.2981 C   0  0  0  0  0  0
    2.8043   55.2967   29.2817 C   0  0  0  0  0  0
    3.7205   54.0957   29.4441 C   0  0  1  0  0  0
    4.7044   54.3187   29.8569 H   0  0  0  0  0  0
    2.9114   53.2969   30.3313 O   0  0  0  0  0  0
    3.7185   53.1702   28.1732 C   0  0  1  0  0  0
    4.5402   52.4564   28.2406 H   0  0  0  0  0  0
    2.3621   52.4468   28.4291 C   0  0  2  0  0  0
    2.6245   51.4358   28.7541 H   0  0  0  0  0  0
    1.1756   52.2555   27.4740 C   0  0  0  0  0  0
    1.2413   52.0967   26.2560 O   0  0  0  0  0  0
    3.8470   53.8881   26.8061 C   0  0  0  0  0  0
    2.8848   54.4967   26.3615 O   0  0  0  0  0  0
    5.0046   53.7756   26.1226 N   0  0  0  0  0  0
    5.1892   54.0967   24.7600 C   0  0  0  0  0  0
    4.1788   53.8973   23.8037 C   0  0  0  0  0  0
    4.4408   54.0969   22.4530 C   0  0  0  0  0  0
    5.6985   54.5262   22.0379 C   0  0  0  0  0  0
    6.7044   54.7300   22.9915 C   0  0  0  0  0  0
    6.4561   54.5040   24.3438 C   0  0  0  0  0  0
    5.8741   54.7173   20.6824 O   0  0  0  0  0  0
    6.8044   55.6968   20.2206 C   0  0  0  0  0  0
    6.5847   55.8736   18.9199 F   0  0  0  0  0  0
    6.6216   56.8764   20.8191 F   0  0  0  0  0  0
    8.0671   55.2967   20.3701 F   0  0  0  0  0  0
   -7.5414   50.3832   26.1006 H   0  0  0  0  0  0
   -8.2910   51.6934   27.0202 H   0  0  0  0  0  0
   -8.1451   50.0843   27.7338 H   0  0  0  0  0  0
   -5.3739   50.6673   25.9848 H   0  0  0  0  0  0
   -3.4032   51.9142   25.3025 H   0  0  0  0  0  0
   -1.1050   52.4756   25.8402 H   0  0  0  0  0  0
   -1.7297   51.0927   29.8850 H   0  0  0  0  0  0
   -4.0175   50.5312   29.3335 H   0  0  0  0  0  0
   -0.2764   53.0676   30.2503 H   0  0  0  0  0  0
    0.6316   51.5692   30.2517 H   0  0  0  0  0  0
    0.6329   55.2842   29.1560 H   0  0  0  0  0  0
    3.1044   56.3203   29.1272 H   0  0  0  0  0  0
    5.8005   53.3818   26.5997 H   0  0  0  0  0  0
    3.1995   53.5420   24.0913 H   0  0  0  0  0  0
    3.6616   53.9291   21.7231 H   0  0  0  0  0  0
    7.6892   55.0485   22.6928 H   0  0  0  0  0  0
    7.2560   54.6372   25.0562 H   0  0  0  0  0  0
  1  2  1  0  0  0
  1 39  1  0  0  0
  1 40  1  0  0  0
  1 41  1  0  0  0
  2  3  2  0  0  0
  2  4  1  0  0  0
  4  5  1  0  0  0
  4 42  1  0  0  0
  5 10  2  0  0  0
  5  6  1  0  0  0
  6  7  2  0  0  0
  6 43  1  0  0  0
  7  8  1  0  0  0
  7 44  1  0  0  0
  8  9  2  0  0  0
  8 11  1  0  0  0
  9 10  1  0  0  0
  9 45  1  0  0  0
 10 46  1  0  0  0
 11 23  1  0  0  0
 11 12  1  0  0  0
 12 13  1  0  0  0
 12 47  1  0  0  0
 12 48  1  0  0  0
 13 18  1  0  0  0
 13 21  1  0  0  0
 13 14  1  0  0  0
 14 15  2  0  0  0
 14 49  1  0  0  0
 15 16  1  0  0  0
 15 50  1  0  0  0
 16 17  1  0  0  0
 16 18  1  0  0  0
 16 19  1  0  0  0
 19 20  1  0  0  0
 19 21  1  0  0  0
 19 25  1  0  0  0
 21 22  1  0  0  0
 21 23  1  0  0  0
 23 24  2  0  0  0
 25 26  2  0  0  0
 25 27  1  0  0  0
 27 28  1  0  0  0
 27 51  1  0  0  0
 28 33  2  0  0  0
 28 29  1  0  0  0
 29 30  2  0  0  0
 29 52  1  0  0  0
 30 31  1  0  0  0
 30 53  1  0  0  0
 31 32  2  0  0  0
 31 34  1  0  0  0
 32 33  1  0  0  0
 32 54  1  0  0  0
 33 55  1  0  0  0
 34 35  1  0  0  0
 35 36  1  0  0  0
 35 37  1  0  0  0
 35 38  1  0  0  0
M  END
> <i_i_glide_confnum>
20

> <i_i_glide_lignum>
3249

> <i_i_glide_posenum>
21

> <i_i_glide_rotatable_bonds>
8

> <i_m_Source_File_Index>
626

> <b_m_subgroup_collapsed>
0

> <r_i_docking_score>
-5.89878

> <r_i_glide_ecoul>
-4.41438

> <r_i_glide_eff_state_penalty>
0

> <r_i_glide_einternal>
5.92327

> <r_i_glide_emodel>
-61.2997

> <r_i_glide_energy>
-46.4272

> <r_i_glide_erotb>
0.513396

> <r_i_glide_esite>
-0.0726609

> <r_i_glide_evdw>
-42.0128

> <r_i_glide_gscore>
-5.89878

> <r_i_glide_hbond>
-0.32

> <r_i_glide_ligand_efficiency>
-0.168536

> <r_i_glide_ligand_efficiency_ln>
-1.29491

> <r_i_glide_ligand_efficiency_sa>
-0.551294

> <r_i_glide_lipo>
-2.78775

> <r_i_glide_metal>
0

> <r_i_glide_rewards>
-0.468958

> <s_i_glide_gridfile>
wee1_glide-grid

> <s_m_Source_File>
wee1_decoys_glide_SP.sdf

> <s_m_Source_Path>
/Users/zhangxujun/Desktop

> <s_m_entry_id>
901

> <s_m_entry_name>
wee1_decoys_glide_SP.626

> <s_m_subgroup_title>
wee1_decoys_glide_SP

> <s_m_subgroupid>
wee1_decoys_glide_SP


$$$$
