ZINC63375392_5365
                    3D
 Schrodinger Suite 2024-2.
 64 69  0  0  1  0            999 V2000
    4.1457   56.0532   18.2842 C   0  0  0  0  0  0
    5.3172   55.1459   17.9449 C   0  0  0  0  0  0
    6.1554   55.5623   16.9042 C   0  0  0  0  0  0
    7.1970   54.7532   16.4592 C   0  0  0  0  0  0
    7.3996   53.5062   17.0427 C   0  0  0  0  0  0
    6.5736   53.0888   18.0820 C   0  0  0  0  0  0
    5.5439   53.8983   18.5737 C   0  0  0  0  0  0
    4.7250   53.3616   19.7725 C   0  0  1  0  0  0
    5.2222   52.4294   20.0483 H   0  0  0  0  0  0
    4.7201   54.2921   21.0271 C   0  0  1  0  0  0
    4.4995   55.2925   20.6894 H   0  0  0  0  0  0
    3.7846   53.8494   22.1370 C   0  0  0  0  0  0
    4.3725   54.0610   23.3202 C   0  0  0  0  0  0
    3.8732   53.9023   24.6945 C   0  0  0  0  0  0
    4.6746   54.1629   25.7469 C   0  0  0  0  0  0
    6.0353   54.6025   25.4729 C   0  0  0  0  0  0
    6.5047   54.7369   24.2032 C   0  0  0  0  0  0
    5.6907   54.4580   23.1009 C   0  0  0  0  0  0
    5.9555   54.4969   21.8084 N   0  3  0  0  0  0
    2.4343   53.2829   21.7828 C   0  0  0  0  0  0
    2.5317   52.3627   20.5366 C   0  0  2  0  0  0
    2.9477   51.3992   20.8243 H   0  0  0  0  0  0
    3.3383   52.8979   19.4636 N   0  0  0  0  0  0
    2.7777   52.6278   18.2601 C   0  0  0  0  0  0
    3.2945   52.7468   17.1493 O   0  0  0  0  0  0
    1.4984   52.2255   18.5096 N   0  0  0  0  0  0
    1.2202   52.1320   19.8298 C   0  0  0  0  0  0
    0.1406   51.9038   20.3780 O   0  0  0  0  0  0
    0.5450   51.9927   17.4835 C   0  0  0  0  0  0
    0.1688   53.0984   16.7050 C   0  0  0  0  0  0
   -0.7710   52.9743   15.6874 C   0  0  0  0  0  0
   -1.3593   51.7395   15.4335 C   0  0  0  0  0  0
   -1.0075   50.6315   16.2002 C   0  0  0  0  0  0
   -0.0538   50.7253   17.2264 C   0  0  0  0  0  0
    0.2356   49.4711   18.0263 C   0  0  0  0  0  0
   -0.6760   48.6930   18.3136 O   0  0  0  0  0  0
    1.5045   49.2791   18.4319 N   0  0  0  0  0  0
    1.8972   48.4261   19.5509 C   0  0  0  0  0  0
    1.3203   48.8956   20.8823 C   0  0  0  0  0  0
    2.0258   49.2968   21.9505 C   0  0  0  0  0  0
    4.4799   56.8977   18.8814 H   0  0  0  0  0  0
    3.7070   56.4582   17.3706 H   0  0  0  0  0  0
    3.3368   55.5287   18.7845 H   0  0  0  0  0  0
    5.9887   56.5145   16.4214 H   0  0  0  0  0  0
    7.8308   55.0804   15.6487 H   0  0  0  0  0  0
    8.1841   52.8560   16.6816 H   0  0  0  0  0  0
    6.7049   52.0997   18.4960 H   0  0  0  0  0  0
    2.8639   53.5730   24.8956 H   0  0  0  0  0  0
    4.3214   54.0438   26.7619 H   0  0  0  0  0  0
    6.6795   54.8414   26.3068 H   0  0  0  0  0  0
    7.5045   55.0942   24.0564 H   0  0  0  0  0  0
    2.0397   52.6945   22.6122 H   0  0  0  0  0  0
    1.7166   54.0894   21.6817 H   0  0  0  0  0  0
    0.6115   54.0692   16.8863 H   0  0  0  0  0  0
   -1.0447   53.8351   15.0947 H   0  0  0  0  0  0
   -2.0909   51.6403   14.6457 H   0  0  0  0  0  0
   -1.4880   49.6873   15.9862 H   0  0  0  0  0  0
    2.2463   49.7824   17.9615 H   0  0  0  0  0  0
    1.6025   47.3926   19.3522 H   0  0  0  0  0  0
    2.9867   48.4270   19.6007 H   0  0  0  0  0  0
    0.2404   48.9038   20.9456 H   0  0  0  0  0  0
    1.5368   49.6181   22.8596 H   0  0  0  0  0  0
    3.1042   49.3052   21.9332 H   0  0  0  0  0  0
    6.8492   54.7513   21.3965 H   0  0  0  0  0  0
  1  2  1  0  0  0
  1 41  1  0  0  0
  1 42  1  0  0  0
  1 43  1  0  0  0
  2  7  2  0  0  0
  2  3  1  0  0  0
  3  4  2  0  0  0
  3 44  1  0  0  0
  4  5  1  0  0  0
  4 45  1  0  0  0
  5  6  2  0  0  0
  5 46  1  0  0  0
  6  7  1  0  0  0
  6 47  1  0  0  0
  7  8  1  0  0  0
  8  9  1  0  0  0
  8 23  1  0  0  0
  8 10  1  0  0  0
 10 11  1  0  0  0
 10 19  1  0  0  0
 10 12  1  0  0  0
 12 13  2  0  0  0
 12 20  1  0  0  0
 13 18  1  0  0  0
 13 14  1  0  0  0
 14 15  2  0  0  0
 14 48  1  0  0  0
 15 16  1  0  0  0
 15 49  1  0  0  0
 16 17  2  0  0  0
 16 50  1  0  0  0
 17 18  1  0  0  0
 17 51  1  0  0  0
 18 19  2  0  0  0
 19 64  1  0  0  0
 20 21  1  0  0  0
 20 52  1  0  0  0
 20 53  1  0  0  0
 21 22  1  0  0  0
 21 27  1  0  0  0
 21 23  1  0  0  0
 23 24  1  0  0  0
 24 25  2  0  0  0
 24 26  1  0  0  0
 26 27  1  0  0  0
 26 29  1  0  0  0
 27 28  2  0  0  0
 29 34  2  0  0  0
 29 30  1  0  0  0
 30 31  2  0  0  0
 30 54  1  0  0  0
 31 32  1  0  0  0
 31 55  1  0  0  0
 32 33  2  0  0  0
 32 56  1  0  0  0
 33 34  1  0  0  0
 33 57  1  0  0  0
 34 35  1  0  0  0
 35 36  2  0  0  0
 35 37  1  0  0  0
 37 38  1  0  0  0
 37 58  1  0  0  0
 38 39  1  0  0  0
 38 59  1  0  0  0
 38 60  1  0  0  0
 39 40  2  0  0  0
 39 61  1  0  0  0
 40 62  1  0  0  0
 40 63  1  0  0  0
M  CHG  1  19   1
M  END
> <i_i_glide_confnum>
66

> <i_i_glide_lignum>
5366

> <i_i_glide_posenum>
324

> <i_i_glide_rotatable_bonds>
6

> <i_m_Source_File_Index>
597

> <b_m_subgroup_collapsed>
0

> <r_i_docking_score>
-3.90477

> <r_i_glide_ecoul>
-3.80159

> <r_i_glide_eff_state_penalty>
0

> <r_i_glide_einternal>
15.2046

> <r_i_glide_emodel>
-35.689

> <r_i_glide_energy>
-33.2279

> <r_i_glide_erotb>
0.505524

> <r_i_glide_esite>
-0.176533

> <r_i_glide_evdw>
-29.4264

> <r_i_glide_gscore>
-3.90477

> <r_i_glide_hbond>
-0.002814

> <r_i_glide_ligand_efficiency>
-0.105534

> <r_i_glide_ligand_efficiency_ln>
-0.846852

> <r_i_glide_ligand_efficiency_sa>
-0.351663

> <r_i_glide_lipo>
-2.1229

> <r_i_glide_metal>
0

> <r_i_glide_rewards>
-0.0664875

> <s_i_glide_gridfile>
wee1_glide-grid

> <s_m_Source_File>
wee1_decoys_glide_SP.sdf

> <s_m_Source_Path>
/Users/zhangxujun/Desktop

> <s_m_entry_id>
872

> <s_m_entry_name>
wee1_decoys_glide_SP.597

> <s_m_subgroup_title>
wee1_decoys_glide_SP

> <s_m_subgroupid>
wee1_decoys_glide_SP


$$$$
