ZINC35227842_3541
                    3D
 Schrodinger Suite 2024-2.
 59 61  0  0  1  0            999 V2000
    0.5308   53.2267   31.6416 C   0  0  0  0  0  0
    1.5276   53.3892   30.4806 C   0  0  0  0  0  0
    1.4600   52.2318   29.4781 C   0  0  0  0  0  0
    2.4779   52.4278   28.3361 C   0  0  0  0  0  0
    2.1920   53.6667   27.5893 N   0  0  0  0  0  0
    2.3120   54.8141   28.5129 C   0  0  0  0  0  0
    1.3271   54.6985   29.6994 C   0  0  0  0  0  0
    2.6735   53.7553   26.2837 C   0  0  0  0  0  0
    3.9173   54.3656   26.0645 C   0  0  0  0  0  0
    4.4496   54.4964   24.7856 C   0  0  0  0  0  0
    3.7546   53.9953   23.6776 C   0  0  0  0  0  0
    2.5260   53.3688   23.8838 C   0  0  0  0  0  0
    1.9647   53.2365   25.1671 C   0  0  0  0  0  0
    0.6472   52.4967   25.3032 C   0  0  0  0  0  0
    0.4288   51.7226   26.2328 O   0  0  0  0  0  0
   -0.2618   52.7294   24.3370 N   0  0  0  0  0  0
   -1.5845   52.1069   24.2635 C   0  0  0  0  0  0
   -2.4987   52.8985   23.3201 C   0  0  0  0  0  0
   -1.5107   50.6213   23.8609 C   0  0  0  0  0  0
    4.1883   54.0966   22.3402 N   0  0  0  0  0  0
    5.3841   54.4967   21.8652 C   0  0  0  0  0  0
    6.3849   54.6872   22.5553 O   0  0  0  0  0  0
    5.3008   54.7430   20.5429 N   0  0  0  0  0  0
    6.2401   55.3779   19.7054 C   0  0  0  0  0  0
    7.6180   55.4252   19.9819 C   0  0  0  0  0  0
    8.4893   56.0966   19.1263 C   0  0  0  0  0  0
    7.9999   56.7320   17.9880 C   0  0  0  0  0  0
    6.6378   56.6873   17.6994 C   0  0  0  0  0  0
    5.7581   56.0111   18.5462 C   0  0  0  0  0  0
    3.9049   55.9910   18.0827 Br  0  0  0  0  0  0
   -0.4958   53.1563   31.2799 H   0  0  0  0  0  0
    0.7332   52.3218   32.2157 H   0  0  0  0  0  0
    0.5777   54.0674   32.3335 H   0  0  0  0  0  0
    2.5440   53.3878   30.8737 H   0  0  0  0  0  0
    0.4537   52.1175   29.0698 H   0  0  0  0  0  0
    1.6492   51.2969   29.9967 H   0  0  0  0  0  0
    2.4279   51.5591   27.6817 H   0  0  0  0  0  0
    3.4998   52.4639   28.7182 H   0  0  0  0  0  0
    3.3395   54.8967   28.8718 H   0  0  0  0  0  0
    2.0888   55.7332   27.9705 H   0  0  0  0  0  0
    1.4330   55.5517   30.3712 H   0  0  0  0  0  0
    0.3044   54.7727   29.3288 H   0  0  0  0  0  0
    4.4864   54.7542   26.8957 H   0  0  0  0  0  0
    5.3981   54.9989   24.6847 H   0  0  0  0  0  0
    2.0061   52.9654   23.0248 H   0  0  0  0  0  0
   -0.0516   53.4316   23.6460 H   0  0  0  0  0  0
   -2.0383   52.1607   25.2575 H   0  0  0  0  0  0
   -3.4901   52.4459   23.2819 H   0  0  0  0  0  0
   -2.1159   52.8967   22.2990 H   0  0  0  0  0  0
   -2.6304   53.9280   23.6564 H   0  0  0  0  0  0
   -2.5099   50.1956   23.7648 H   0  0  0  0  0  0
   -1.0178   50.4901   22.8971 H   0  0  0  0  0  0
   -0.9877   50.0245   24.6093 H   0  0  0  0  0  0
    3.4931   53.8491   21.6527 H   0  0  0  0  0  0
    4.4091   54.5735   20.1021 H   0  0  0  0  0  0
    8.0397   54.9361   20.8463 H   0  0  0  0  0  0
    9.5458   56.1228   19.3467 H   0  0  0  0  0  0
    8.6756   57.2550   17.3270 H   0  0  0  0  0  0
    6.2612   57.1798   16.8144 H   0  0  0  0  0  0
  1  2  1  0  0  0
  1 31  1  0  0  0
  1 32  1  0  0  0
  1 33  1  0  0  0
  2  7  1  0  0  0
  2  3  1  0  0  0
  2 34  1  0  0  0
  3  4  1  0  0  0
  3 35  1  0  0  0
  3 36  1  0  0  0
  4  5  1  0  0  0
  4 37  1  0  0  0
  4 38  1  0  0  0
  5  6  1  0  0  0
  5  8  1  0  0  0
  6  7  1  0  0  0
  6 39  1  0  0  0
  6 40  1  0  0  0
  7 41  1  0  0  0
  7 42  1  0  0  0
  8 13  2  0  0  0
  8  9  1  0  0  0
  9 10  2  0  0  0
  9 43  1  0  0  0
 10 11  1  0  0  0
 10 44  1  0  0  0
 11 12  2  0  0  0
 11 20  1  0  0  0
 12 13  1  0  0  0
 12 45  1  0  0  0
 13 14  1  0  0  0
 14 15  2  0  0  0
 14 16  1  0  0  0
 16 17  1  0  0  0
 16 46  1  0  0  0
 17 18  1  0  0  0
 17 19  1  0  0  0
 17 47  1  0  0  0
 18 48  1  0  0  0
 18 49  1  0  0  0
 18 50  1  0  0  0
 19 51  1  0  0  0
 19 52  1  0  0  0
 19 53  1  0  0  0
 20 21  1  0  0  0
 20 54  1  0  0  0
 21 22  2  0  0  0
 21 23  1  0  0  0
 23 24  1  0  0  0
 23 55  1  0  0  0
 24 29  2  0  0  0
 24 25  1  0  0  0
 25 26  2  0  0  0
 25 56  1  0  0  0
 26 27  1  0  0  0
 26 57  1  0  0  0
 27 28  2  0  0  0
 27 58  1  0  0  0
 28 29  1  0  0  0
 28 59  1  0  0  0
 29 30  1  0  0  0
M  END
> <i_i_glide_confnum>
137

> <i_i_glide_lignum>
3542

> <i_i_glide_posenum>
358

> <i_i_glide_rotatable_bonds>
8

> <i_m_Source_File_Index>
216

> <b_m_subgroup_collapsed>
0

> <r_i_docking_score>
-5.36222

> <r_i_glide_ecoul>
-0.691267

> <r_i_glide_eff_state_penalty>
0

> <r_i_glide_einternal>
9.50254

> <r_i_glide_emodel>
-54.8675

> <r_i_glide_energy>
-43.7058

> <r_i_glide_erotb>
0.541529

> <r_i_glide_esite>
0

> <r_i_glide_evdw>
-43.0145

> <r_i_glide_gscore>
-5.36222

> <r_i_glide_hbond>
0

> <r_i_glide_ligand_efficiency>
-0.178741

> <r_i_glide_ligand_efficiency_ln>
-1.21836

> <r_i_glide_ligand_efficiency_sa>
-0.555389

> <r_i_glide_lipo>
-2.84208

> <r_i_glide_metal>
0

> <r_i_glide_rewards>
-0.807253

> <s_i_glide_gridfile>
wee1_glide-grid

> <s_m_Source_File>
wee1_decoys_glide_SP.sdf

> <s_m_Source_Path>
/Users/zhangxujun/Desktop

> <s_m_entry_id>
491

> <s_m_entry_name>
wee1_decoys_glide_SP.216

> <s_m_subgroup_title>
wee1_decoys_glide_SP

> <s_m_subgroupid>
wee1_decoys_glide_SP


$$$$
