ZINC39665419_380
                    3D
 Schrodinger Suite 2024-2.
 72 76  0  0  1  0            999 V2000
    0.3053   48.5119   24.6476 C   0  0  0  0  0  0
   -1.0057   49.2518   24.7436 C   0  0  0  0  0  0
   -1.3717   50.5844   24.8316 C   0  0  0  0  0  0
   -2.7597   50.5536   25.0675 C   0  0  0  0  0  0
   -3.2141   49.3156   25.0294 N   0  0  0  0  0  0
   -2.1161   48.4840   24.8283 O   0  0  0  0  0  0
   -3.7141   51.6826   25.3252 C   0  0  0  0  0  0
   -3.5912   52.8995   24.6436 C   0  0  0  0  0  0
   -4.4964   53.9323   24.8804 C   0  0  0  0  0  0
   -5.5293   53.7474   25.7954 C   0  0  0  0  0  0
   -5.6617   52.5436   26.4814 C   0  0  0  0  0  0
   -4.7531   51.5152   26.2488 C   0  0  0  0  0  0
   -0.4814   51.7109   24.8476 C   0  0  0  0  0  0
   -0.4375   52.4305   25.8458 O   0  0  0  0  0  0
    0.3162   51.8894   23.7631 N   0  0  0  0  0  0
    1.3867   52.8774   23.7822 C   0  0  0  0  0  0
    1.6833   53.1619   22.2855 C   0  0  2  0  0  0
    1.1057   54.0575   22.0745 H   0  0  0  0  0  0
    1.2194   51.8805   21.5147 C   0  0  0  0  0  0
    0.0844   51.3412   22.4239 C   0  0  0  0  0  0
    2.2905   50.7415   21.4001 C   0  0  0  0  0  0
    3.3633   50.9585   20.2964 C   0  0  0  0  0  0
    2.6990   51.2178   18.9358 N   0  3  0  0  0  0
    1.6957   52.3855   18.9859 C   0  0  0  0  0  0
    0.6496   52.0995   20.0828 C   0  0  0  0  0  0
    3.1685   53.5626   22.1090 C   0  0  0  0  0  0
    3.5462   54.0963   21.0717 O   0  0  0  0  0  0
    4.0366   53.2966   23.0870 N   0  0  0  0  0  0
    5.4863   53.4532   23.0316 C   0  0  0  0  0  0
    5.7484   54.8966   23.3104 C   0  0  2  0  0  0
    5.1962   55.2967   22.4724 H   0  0  0  0  0  0
    7.1101   55.5246   23.0931 C   0  0  0  0  0  0
    5.1057   55.2968   24.5272 O   0  0  0  0  0  0
    5.3610   54.7403   25.7572 C   0  0  0  0  0  0
    6.5626   54.1284   26.1218 C   0  0  0  0  0  0
    6.7039   53.6017   27.4021 C   0  0  0  0  0  0
    5.6443   53.6730   28.3007 C   0  0  0  0  0  0
    4.4481   54.2839   27.9467 C   0  0  0  0  0  0
    4.3155   54.8238   26.6740 C   0  0  0  0  0  0
    1.1008   49.1213   24.2215 H   0  0  0  0  0  0
    0.6435   48.2021   25.6361 H   0  0  0  0  0  0
    0.2205   47.6095   24.0489 H   0  0  0  0  0  0
   -2.8012   53.0476   23.9234 H   0  0  0  0  0  0
   -4.3991   54.8679   24.3487 H   0  0  0  0  0  0
   -6.2424   54.5381   25.9744 H   0  0  0  0  0  0
   -6.4647   52.4023   27.1895 H   0  0  0  0  0  0
   -4.8604   50.5860   26.7897 H   0  0  0  0  0  0
    2.2001   52.3415   24.2719 H   0  0  0  0  0  0
    1.1119   53.8011   24.2984 H   0  0  0  0  0  0
   -0.8468   51.8103   22.0984 H   0  0  0  0  0  0
   -0.0936   50.2682   22.3440 H   0  0  0  0  0  0
    2.7539   50.5480   22.3687 H   0  0  0  0  0  0
    1.7914   49.8015   21.1541 H   0  0  0  0  0  0
    4.0553   51.7799   20.4495 H   0  0  0  0  0  0
    3.9821   50.0963   20.1260 H   0  0  0  0  0  0
    3.4307   51.3812   18.2494 H   0  0  0  0  0  0
    2.2692   53.2949   19.1541 H   0  0  0  0  0  0
    1.2473   52.4437   17.9929 H   0  0  0  0  0  0
    0.0993   51.2086   19.7739 H   0  0  0  0  0  0
   -0.0939   52.8943   20.1011 H   0  0  0  0  0  0
    3.6738   52.9589   23.9646 H   0  0  0  0  0  0
    5.9049   53.1231   22.0803 H   0  0  0  0  0  0
    5.9638   52.8967   23.8191 H   0  0  0  0  0  0
    7.7646   54.8973   22.4852 H   0  0  0  0  0  0
    7.0186   56.4889   22.5816 H   0  0  0  0  0  0
    7.5654   55.7430   24.0536 H   0  0  0  0  0  0
    7.3798   54.0490   25.4234 H   0  0  0  0  0  0
    7.6193   53.1085   27.6908 H   0  0  0  0  0  0
    5.7453   53.2348   29.2787 H   0  0  0  0  0  0
    3.6291   54.3363   28.6490 H   0  0  0  0  0  0
    3.3882   55.2945   26.3893 H   0  0  0  0  0  0
    2.2337   50.3737   18.6267 H   0  0  0  0  0  0
  1  2  1  0  0  0
  1 40  1  0  0  0
  1 41  1  0  0  0
  1 42  1  0  0  0
  2  6  1  0  0  0
  2  3  2  0  0  0
  3  4  1  0  0  0
  3 13  1  0  0  0
  4  5  2  0  0  0
  4  7  1  0  0  0
  5  6  1  0  0  0
  7 12  2  0  0  0
  7  8  1  0  0  0
  8  9  2  0  0  0
  8 43  1  0  0  0
  9 10  1  0  0  0
  9 44  1  0  0  0
 10 11  2  0  0  0
 10 45  1  0  0  0
 11 12  1  0  0  0
 11 46  1  0  0  0
 12 47  1  0  0  0
 13 14  2  0  0  0
 13 15  1  0  0  0
 15 20  1  0  0  0
 15 16  1  0  0  0
 16 17  1  0  0  0
 16 48  1  0  0  0
 16 49  1  0  0  0
 17 18  1  0  0  0
 17 19  1  0  0  0
 17 26  1  0  0  0
 19 25  1  0  0  0
 19 20  1  0  0  0
 19 21  1  0  0  0
 20 50  1  0  0  0
 20 51  1  0  0  0
 21 22  1  0  0  0
 21 52  1  0  0  0
 21 53  1  0  0  0
 22 23  1  0  0  0
 22 54  1  0  0  0
 22 55  1  0  0  0
 23 24  1  0  0  0
 23 56  1  0  0  0
 23 72  1  0  0  0
 24 25  1  0  0  0
 24 57  1  0  0  0
 24 58  1  0  0  0
 25 59  1  0  0  0
 25 60  1  0  0  0
 26 27  2  0  0  0
 26 28  1  0  0  0
 28 29  1  0  0  0
 28 61  1  0  0  0
 29 30  1  0  0  0
 29 62  1  0  0  0
 29 63  1  0  0  0
 30 31  1  0  0  0
 30 32  1  0  0  0
 30 33  1  0  0  0
 32 64  1  0  0  0
 32 65  1  0  0  0
 32 66  1  0  0  0
 33 34  1  0  0  0
 34 39  2  0  0  0
 34 35  1  0  0  0
 35 36  2  0  0  0
 35 67  1  0  0  0
 36 37  1  0  0  0
 36 68  1  0  0  0
 37 38  2  0  0  0
 37 69  1  0  0  0
 38 39  1  0  0  0
 38 70  1  0  0  0
 39 71  1  0  0  0
M  CHG  1  23   1
M  END
> <i_i_glide_confnum>
162

> <i_i_glide_lignum>
381

> <i_i_glide_posenum>
227

> <i_i_glide_rotatable_bonds>
9

> <i_m_Source_File_Index>
810

> <b_m_subgroup_collapsed>
0

> <r_i_docking_score>
-4.03505

> <r_i_glide_ecoul>
1.44069

> <r_i_glide_eff_state_penalty>
0

> <r_i_glide_einternal>
6.11453

> <r_i_glide_emodel>
-41.3475

> <r_i_glide_energy>
-33.0252

> <r_i_glide_erotb>
0.644765

> <r_i_glide_esite>
-0.159024

> <r_i_glide_evdw>
-34.4659

> <r_i_glide_gscore>
-4.03505

> <r_i_glide_hbond>
-0.061225

> <r_i_glide_ligand_efficiency>
-0.109055

> <r_i_glide_ligand_efficiency_ln>
-0.875108

> <r_i_glide_ligand_efficiency_sa>
-0.363397

> <r_i_glide_lipo>
-2.82836

> <r_i_glide_metal>
0

> <r_i_glide_rewards>
-0.124017

> <s_i_glide_gridfile>
wee1_glide-grid

> <s_m_Source_File>
wee1_decoys_glide_SP.sdf

> <s_m_Source_Path>
/Users/zhangxujun/Desktop

> <s_m_entry_id>
1085

> <s_m_entry_name>
wee1_decoys_glide_SP.810

> <s_m_subgroup_title>
wee1_decoys_glide_SP

> <s_m_subgroupid>
wee1_decoys_glide_SP


$$$$
