ZINC10785850_3369
                    3D
 Schrodinger Suite 2024-2.
 61 64  0  0  1  0            999 V2000
    2.7047   50.7128   19.6856 C   0  0  0  0  0  0
    1.9278   52.0000   19.9863 C   0  0  0  0  0  0
    1.7166   52.1283   21.3903 O   0  0  0  0  0  0
    2.6330   52.8716   22.1000 C   0  0  0  0  0  0
    3.6333   53.4571   21.6732 O   0  0  0  0  0  0
    2.2329   52.8045   23.3830 N   0  0  0  0  0  0
    2.6652   53.5334   24.4333 C   0  0  0  0  0  0
    3.4257   54.4973   24.3322 O   0  0  0  0  0  0
    2.2029   53.0668   25.7472 C   0  0  0  0  0  0
    2.8490   53.4380   26.9681 C   0  0  0  0  0  0
    2.2452   52.8736   28.1041 C   0  0  0  0  0  0
    0.9010   51.8738   27.7057 S   0  0  0  0  0  0
    1.1041   52.2055   26.0210 C   0  0  0  0  0  0
    0.2345   51.4960   25.2074 N   0  0  0  0  0  0
   -0.6149   52.0276   24.3067 C   0  0  0  0  0  0
   -0.6787   53.2408   24.0807 O   0  0  0  0  0  0
   -1.4572   51.0177   23.4743 C   0  0  2  0  0  0
   -0.8067   50.1414   23.4562 H   0  0  0  0  0  0
   -1.7612   51.5893   22.0577 C   0  0  0  0  0  0
   -2.5514   50.5900   21.1898 C   0  0  0  0  0  0
   -3.8243   50.0915   21.8929 C   0  0  0  0  0  0
   -3.5157   49.5250   23.2847 C   0  0  0  0  0  0
   -2.7065   50.4517   24.1236 N   0  0  0  0  0  0
   -3.1856   50.5882   25.8485 S   0  0  0  0  0  0
   -4.1116   49.5011   26.1829 O   0  0  0  0  0  0
   -2.0304   50.8941   26.6930 O   0  0  0  0  0  0
   -4.1662   52.0964   25.8244 C   0  0  0  0  0  0
   -3.8518   53.2447   25.1197 C   0  0  0  0  0  0
   -4.6748   54.3145   25.4392 C   0  0  0  0  0  0
   -5.6980   53.9612   26.3117 C   0  0  0  0  0  0
   -5.5913   52.2955   26.7912 S   0  0  0  0  0  0
    2.7509   52.9900   29.5359 C   0  0  0  0  0  0
    3.7858   54.1261   29.6232 C   0  0  0  0  0  0
    4.8092   54.0470   28.4841 C   0  0  0  0  0  0
    4.1511   54.2436   27.1033 C   0  0  0  0  0  0
    2.8131   50.5643   18.6100 H   0  0  0  0  0  0
    2.1995   49.8358   20.0916 H   0  0  0  0  0  0
    3.7087   50.7547   20.1104 H   0  0  0  0  0  0
    2.4281   52.8707   19.5536 H   0  0  0  0  0  0
    0.9503   51.9415   19.5074 H   0  0  0  0  0  0
    1.4618   52.1849   23.5642 H   0  0  0  0  0  0
   -0.0273   50.5808   25.5504 H   0  0  0  0  0  0
   -2.3728   52.4920   22.1188 H   0  0  0  0  0  0
   -0.8385   51.7596   21.5033 H   0  0  0  0  0  0
   -2.8095   51.0444   20.2319 H   0  0  0  0  0  0
   -1.9160   49.7338   20.9544 H   0  0  0  0  0  0
   -4.5520   50.8968   21.9900 H   0  0  0  0  0  0
   -4.3104   49.3263   21.2861 H   0  0  0  0  0  0
   -4.4395   49.2645   23.8014 H   0  0  0  0  0  0
   -2.9422   48.6028   23.1784 H   0  0  0  0  0  0
   -3.0289   53.3342   24.4373 H   0  0  0  0  0  0
   -4.4956   55.2967   25.0332 H   0  0  0  0  0  0
   -6.4821   54.5857   26.7109 H   0  0  0  0  0  0
    1.9348   53.1649   30.2372 H   0  0  0  0  0  0
    3.2281   52.0556   29.8322 H   0  0  0  0  0  0
    3.2808   55.0927   29.5964 H   0  0  0  0  0  0
    4.3037   54.0806   30.5806 H   0  0  0  0  0  0
    5.5870   54.7984   28.6255 H   0  0  0  0  0  0
    5.3176   53.0814   28.5142 H   0  0  0  0  0  0
    4.8737   53.9633   26.3369 H   0  0  0  0  0  0
    3.9393   55.2963   26.9402 H   0  0  0  0  0  0
  1  2  1  0  0  0
  1 36  1  0  0  0
  1 37  1  0  0  0
  1 38  1  0  0  0
  2  3  1  0  0  0
  2 39  1  0  0  0
  2 40  1  0  0  0
  3  4  1  0  0  0
  4  5  2  0  0  0
  4  6  1  0  0  0
  6  7  1  0  0  0
  6 41  1  0  0  0
  7  8  2  0  0  0
  7  9  1  0  0  0
  9 13  2  0  0  0
  9 10  1  0  0  0
 10 35  1  0  0  0
 10 11  2  0  0  0
 11 12  1  0  0  0
 11 32  1  0  0  0
 12 13  1  0  0  0
 13 14  1  0  0  0
 14 15  1  0  0  0
 14 42  1  0  0  0
 15 16  2  0  0  0
 15 17  1  0  0  0
 17 18  1  0  0  0
 17 23  1  0  0  0
 17 19  1  0  0  0
 19 20  1  0  0  0
 19 43  1  0  0  0
 19 44  1  0  0  0
 20 21  1  0  0  0
 20 45  1  0  0  0
 20 46  1  0  0  0
 21 22  1  0  0  0
 21 47  1  0  0  0
 21 48  1  0  0  0
 22 23  1  0  0  0
 22 49  1  0  0  0
 22 50  1  0  0  0
 23 24  1  0  0  0
 24 25  2  0  0  0
 24 26  2  0  0  0
 24 27  1  0  0  0
 27 31  1  0  0  0
 27 28  2  0  0  0
 28 29  1  0  0  0
 28 51  1  0  0  0
 29 30  2  0  0  0
 29 52  1  0  0  0
 30 31  1  0  0  0
 30 53  1  0  0  0
 32 33  1  0  0  0
 32 54  1  0  0  0
 32 55  1  0  0  0
 33 34  1  0  0  0
 33 56  1  0  0  0
 33 57  1  0  0  0
 34 35  1  0  0  0
 34 58  1  0  0  0
 34 59  1  0  0  0
 35 60  1  0  0  0
 35 61  1  0  0  0
M  END
> <i_i_glide_confnum>
250

> <i_i_glide_lignum>
3370

> <i_i_glide_posenum>
86

> <i_i_glide_rotatable_bonds>
10

> <i_m_Source_File_Index>
551

> <b_m_subgroup_collapsed>
0

> <r_i_docking_score>
-3.05847

> <r_i_glide_ecoul>
1.88143

> <r_i_glide_eff_state_penalty>
0

> <r_i_glide_einternal>
20.1618

> <r_i_glide_emodel>
-41.7648

> <r_i_glide_energy>
-43.3523

> <r_i_glide_erotb>
0.670438

> <r_i_glide_esite>
-0.147724

> <r_i_glide_evdw>
-45.2337

> <r_i_glide_gscore>
-3.05847

> <r_i_glide_hbond>
0

> <r_i_glide_ligand_efficiency>
-0.0899551

> <r_i_glide_ligand_efficiency_ln>
-0.675702

> <r_i_glide_ligand_efficiency_sa>
-0.29142

> <r_i_glide_lipo>
-1.62237

> <r_i_glide_metal>
0

> <r_i_glide_rewards>
0.0206566

> <s_i_glide_gridfile>
wee1_glide-grid

> <s_m_Source_File>
wee1_decoys_glide_SP.sdf

> <s_m_Source_Path>
/Users/zhangxujun/Desktop

> <s_m_entry_id>
826

> <s_m_entry_name>
wee1_decoys_glide_SP.551

> <s_m_subgroup_title>
wee1_decoys_glide_SP

> <s_m_subgroupid>
wee1_decoys_glide_SP


$$$$
