ZINC04395344_863
                    3D
 Schrodinger Suite 2024-2.
 66 71  0  0  1  0            999 V2000
   -0.0775   50.8089   24.8148 C   0  0  0  0  0  0
    0.8948   50.8741   23.8245 C   0  0  0  0  0  0
    1.9043   51.8296   23.9106 C   0  0  0  0  0  0
    1.9593   52.7471   24.9767 C   0  0  0  0  0  0
    0.9636   52.6512   25.9610 C   0  0  0  0  0  0
   -0.0464   51.6955   25.8857 C   0  0  0  0  0  0
    3.1030   53.8018   25.1257 C   0  0  0  0  0  0
    3.6315   53.9296   26.5871 C   0  0  0  0  0  0
    4.8056   53.2973   27.0144 C   0  0  0  0  0  0
    5.3259   53.5095   28.2835 C   0  0  0  0  0  0
    4.6428   54.3265   29.1722 C   0  0  0  0  0  0
    3.4299   54.8967   28.8128 C   0  0  0  0  0  0
    2.9408   54.7114   27.5262 C   0  0  0  0  0  0
    3.6135   54.2594   22.6094 C   0  0  0  0  0  0
    4.6752   54.0720   21.5065 C   0  0  0  0  0  0
    5.8623   54.8960   21.7494 N   0  0  0  0  0  0
    6.4523   54.6549   23.0705 C   0  0  0  0  0  0
    5.4486   54.6886   24.2531 C   0  0  0  0  0  0
    6.4943   55.5963   20.7614 C   0  0  0  0  0  0
    7.7104   55.2970   20.3339 N   0  0  0  0  0  0
    7.9443   56.2539   19.4037 C   0  0  0  0  0  0
    9.0323   56.5042   18.6628 N   0  0  0  0  0  0
    9.0132   57.6316   17.8844 C   0  0  0  0  0  0
    7.9174   58.5174   17.8278 C   0  0  0  0  0  0
    6.7882   58.2114   18.5816 C   0  0  0  0  0  0
    6.8326   57.0882   19.3566 N   0  0  0  0  0  0
    5.9081   56.6455   20.2216 N   0  0  0  0  0  0
    7.9075   59.6967   17.0873 N   0  0  0  0  0  0
   10.5535   57.8937   16.9892 S   0  0  0  0  0  0
   10.3053   58.8505   15.9025 O   0  0  0  0  0  0
   11.5881   58.1636   17.9962 O   0  0  0  0  0  0
   10.9301   56.3158   16.2213 C   0  0  0  0  0  0
   10.3972   56.0139   14.9643 C   0  0  0  0  0  0
   10.6594   54.7746   14.3823 C   0  0  0  0  0  0
   11.4465   53.8451   15.0601 C   0  0  0  0  0  0
   11.9788   54.1426   16.3148 C   0  0  0  0  0  0
   11.7184   55.3809   16.8975 C   0  0  0  0  0  0
   -0.8505   50.0570   24.7648 H   0  0  0  0  0  0
    0.8849   50.1660   23.0066 H   0  0  0  0  0  0
    2.6694   51.7884   23.1517 H   0  0  0  0  0  0
    0.9475   53.3063   26.8158 H   0  0  0  0  0  0
   -0.7941   51.6301   26.6625 H   0  0  0  0  0  0
    2.6380   54.7624   24.9016 H   0  0  0  0  0  0
    5.3580   52.6466   26.3612 H   0  0  0  0  0  0
    6.2598   53.0478   28.5709 H   0  0  0  0  0  0
    5.0604   54.5225   30.1423 H   0  0  0  0  0  0
    2.8891   55.5196   29.5129 H   0  0  0  0  0  0
    2.0067   55.1867   27.2817 H   0  0  0  0  0  0
    2.7268   53.6904   22.3474 H   0  0  0  0  0  0
    3.3026   55.2966   22.7076 H   0  0  0  0  0  0
    5.0021   53.0357   21.4120 H   0  0  0  0  0  0
    4.2464   54.3312   20.5362 H   0  0  0  0  0  0
    7.2863   55.3370   23.2496 H   0  0  0  0  0  0
    6.8980   53.6624   22.9851 H   0  0  0  0  0  0
    5.1043   55.6965   24.4826 H   0  0  0  0  0  0
    5.9866   54.2874   25.1037 H   0  0  0  0  0  0
    5.9041   58.8272   18.6189 H   0  0  0  0  0  0
    8.6817   59.8944   16.4631 H   0  0  0  0  0  0
    7.1758   60.4004   17.2677 H   0  0  0  0  0  0
    9.7811   56.7312   14.4417 H   0  0  0  0  0  0
   10.2536   54.5349   13.4093 H   0  0  0  0  0  0
   11.6490   52.8839   14.6090 H   0  0  0  0  0  0
   12.5811   53.4140   16.8355 H   0  0  0  0  0  0
   12.1234   55.6063   17.8757 H   0  0  0  0  0  0
    4.1935   53.8035   23.9806 N   0  3  0  0  0  0
    4.5022   52.8489   23.8728 H   0  0  0  0  0  0
  1  6  2  0  0  0
  1  2  1  0  0  0
  1 38  1  0  0  0
  2  3  2  0  0  0
  2 39  1  0  0  0
  3  4  1  0  0  0
  3 40  1  0  0  0
  4  5  2  0  0  0
  4  7  1  0  0  0
  5  6  1  0  0  0
  5 41  1  0  0  0
  6 42  1  0  0  0
  7  8  1  0  0  0
  7 43  1  0  0  0
  7 65  1  0  0  0
  8 13  2  0  0  0
  8  9  1  0  0  0
  9 10  2  0  0  0
  9 44  1  0  0  0
 10 11  1  0  0  0
 10 45  1  0  0  0
 11 12  2  0  0  0
 11 46  1  0  0  0
 12 13  1  0  0  0
 12 47  1  0  0  0
 13 48  1  0  0  0
 14 15  1  0  0  0
 14 49  1  0  0  0
 14 50  1  0  0  0
 14 65  1  0  0  0
 15 16  1  0  0  0
 15 51  1  0  0  0
 15 52  1  0  0  0
 16 17  1  0  0  0
 16 19  1  0  0  0
 17 18  1  0  0  0
 17 53  1  0  0  0
 17 54  1  0  0  0
 18 55  1  0  0  0
 18 56  1  0  0  0
 18 65  1  0  0  0
 19 27  2  0  0  0
 19 20  1  0  0  0
 20 21  2  0  0  0
 21 26  1  0  0  0
 21 22  1  0  0  0
 22 23  2  0  0  0
 23 24  1  0  0  0
 23 29  1  0  0  0
 24 25  2  0  0  0
 24 28  1  0  0  0
 25 26  1  0  0  0
 25 57  1  0  0  0
 26 27  1  0  0  0
 28 58  1  0  0  0
 28 59  1  0  0  0
 29 30  2  0  0  0
 29 31  2  0  0  0
 29 32  1  0  0  0
 32 37  2  0  0  0
 32 33  1  0  0  0
 33 34  2  0  0  0
 33 60  1  0  0  0
 34 35  1  0  0  0
 34 61  1  0  0  0
 35 36  2  0  0  0
 35 62  1  0  0  0
 36 37  1  0  0  0
 36 63  1  0  0  0
 37 64  1  0  0  0
 65 66  1  0  0  0
M  CHG  1  65   1
M  END
> <i_i_glide_confnum>
17

> <i_i_glide_lignum>
864

> <i_i_glide_posenum>
263

> <i_i_glide_rotatable_bonds>
6

> <i_m_Source_File_Index>
1661

> <b_m_subgroup_collapsed>
0

> <r_i_docking_score>
-5.93686

> <r_i_glide_ecoul>
-6.04587

> <r_i_glide_eff_state_penalty>
0

> <r_i_glide_einternal>
15.1735

> <r_i_glide_emodel>
-48.296

> <r_i_glide_energy>
-39.9482

> <r_i_glide_erotb>
0.445446

> <r_i_glide_esite>
-0.140687

> <r_i_glide_evdw>
-33.9023

> <r_i_glide_gscore>
-5.93686

> <r_i_glide_hbond>
-0.16

> <r_i_glide_ligand_efficiency>
-0.156233

> <r_i_glide_ligand_efficiency_ln>
-1.28016

> <r_i_glide_ligand_efficiency_sa>
-0.525252

> <r_i_glide_lipo>
-2.81177

> <r_i_glide_metal>
0

> <r_i_glide_rewards>
-0.667858

> <s_i_glide_gridfile>
wee1_glide-grid

> <s_m_Source_File>
wee1_decoys_glide_SP.sdf

> <s_m_Source_Path>
/Users/zhangxujun/Desktop

> <s_m_entry_id>
1936

> <s_m_entry_name>
wee1_decoys_glide_SP.1661

> <s_m_subgroup_title>
wee1_decoys_glide_SP

> <s_m_subgroupid>
wee1_decoys_glide_SP


$$$$
