ZINC44579450_1748
                    3D
 Schrodinger Suite 2024-2.
 36 37  0  0  1  0            999 V2000
    1.2784   55.7499   30.4817 C   0  0  0  0  0  0
    1.9086   54.5499   29.7943 C   0  0  0  0  0  0
    3.1630   54.4018   29.6088 N   0  0  0  0  0  0
    3.3976   53.1844   28.8590 C   0  0  2  0  0  0
    2.0638   52.7448   28.4462 N   0  0  0  0  0  0
    1.1009   53.3252   29.3657 C   0  0  0  0  0  0
   -0.0956   53.6643   28.4926 C   0  0  0  0  0  0
    0.6161   52.4967   30.5914 C   0  0  0  0  0  0
    1.9328   51.3630   28.4466 O   0  0  0  0  0  0
    4.1261   52.1714   29.7903 C   0  0  0  0  0  0
    4.2928   53.6153   27.6581 C   0  0  0  0  0  0
    5.6286   54.0006   27.8738 C   0  0  0  0  0  0
    6.4362   54.4251   26.8207 C   0  0  0  0  0  0
    5.9132   54.4966   25.5326 C   0  0  0  0  0  0
    4.5882   54.1401   25.2979 C   0  0  0  0  0  0
    3.7876   53.6970   26.3487 C   0  0  0  0  0  0
    6.7044   54.9266   24.4670 N   0  0  0  0  0  0
    1.1043   55.5343   31.5347 H   0  0  0  0  0  0
    1.9211   56.6294   30.4291 H   0  0  0  0  0  0
    0.3086   56.0132   30.0741 H   0  0  0  0  0  0
    0.2056   54.3283   27.6848 H   0  0  0  0  0  0
   -0.5379   52.7737   28.0423 H   0  0  0  0  0  0
   -0.8750   54.1340   29.0857 H   0  0  0  0  0  0
   -0.0124   53.0915   31.2563 H   0  0  0  0  0  0
    0.0047   51.6520   30.2769 H   0  0  0  0  0  0
    1.4333   52.1052   31.1943 H   0  0  0  0  0  0
    1.4877   51.2155   27.6081 H   0  0  0  0  0  0
    3.5743   51.9600   30.7038 H   0  0  0  0  0  0
    4.2969   51.2308   29.2817 H   0  0  0  0  0  0
    5.1044   52.4967   30.0817 H   0  0  0  0  0  0
    6.0537   53.9973   28.8659 H   0  0  0  0  0  0
    7.4580   54.7069   27.0226 H   0  0  0  0  0  0
    4.1731   54.1969   24.3023 H   0  0  0  0  0  0
    2.7650   53.4310   26.1284 H   0  0  0  0  0  0
    7.7129   54.8966   24.5347 H   0  0  0  0  0  0
    6.2867   54.8934   23.5488 H   0  0  0  0  0  0
  1  2  1  0  0  0
  1 18  1  0  0  0
  1 19  1  0  0  0
  1 20  1  0  0  0
  2  6  1  0  0  0
  2  3  2  0  0  0
  3  4  1  0  0  0
  4  5  1  0  0  0
  4 10  1  0  0  0
  4 11  1  0  0  0
  5  6  1  0  0  0
  5  9  1  0  0  0
  6  7  1  0  0  0
  6  8  1  0  0  0
  7 21  1  0  0  0
  7 22  1  0  0  0
  7 23  1  0  0  0
  8 24  1  0  0  0
  8 25  1  0  0  0
  8 26  1  0  0  0
  9 27  1  0  0  0
 10 28  1  0  0  0
 10 29  1  0  0  0
 10 30  1  0  0  0
 11 16  2  0  0  0
 11 12  1  0  0  0
 12 13  2  0  0  0
 12 31  1  0  0  0
 13 14  1  0  0  0
 13 32  1  0  0  0
 14 15  2  0  0  0
 14 17  1  0  0  0
 15 16  1  0  0  0
 15 33  1  0  0  0
 16 34  1  0  0  0
 17 35  1  0  0  0
 17 36  1  0  0  0
M  END
> <i_i_glide_confnum>
4

> <i_i_glide_lignum>
1749

> <i_i_glide_posenum>
397

> <i_i_glide_rotatable_bonds>
2

> <i_m_Source_File_Index>
1548

> <b_m_subgroup_collapsed>
0

> <r_i_docking_score>
-6.69648

> <r_i_glide_ecoul>
-1.8094

> <r_i_glide_eff_state_penalty>
0

> <r_i_glide_einternal>
1.20051

> <r_i_glide_emodel>
-44.6953

> <r_i_glide_energy>
-32.1016

> <r_i_glide_erotb>
0.315055

> <r_i_glide_esite>
0

> <r_i_glide_evdw>
-30.2922

> <r_i_glide_gscore>
-6.69648

> <r_i_glide_hbond>
-0.433346

> <r_i_glide_ligand_efficiency>
-0.39391

> <r_i_glide_ligand_efficiency_ln>
-1.74696

> <r_i_glide_ligand_efficiency_sa>
-1.01285

> <r_i_glide_lipo>
-2.29449

> <r_i_glide_metal>
0

> <r_i_glide_rewards>
-2.49768

> <s_i_glide_gridfile>
wee1_glide-grid

> <s_m_Source_File>
wee1_decoys_glide_SP.sdf

> <s_m_Source_Path>
/Users/zhangxujun/Desktop

> <s_m_entry_id>
1823

> <s_m_entry_name>
wee1_decoys_glide_SP.1548

> <s_m_subgroup_title>
wee1_decoys_glide_SP

> <s_m_subgroupid>
wee1_decoys_glide_SP


$$$$
