ZINC66160781_1355
                    3D
 Schrodinger Suite 2024-2.
 57 59  0  0  1  0            999 V2000
    7.5818   58.5179   18.4437 C   0  0  0  0  0  0
    7.8781   57.2437   17.6307 C   0  0  0  0  0  0
    8.5936   56.1164   18.4195 C   0  0  2  0  0  0
    9.5728   56.5146   18.6954 H   0  0  0  0  0  0
    8.8675   54.8776   17.5460 C   0  0  0  0  0  0
    7.9596   55.7539   19.6927 N   0  0  0  0  0  0
    6.6953   55.3253   19.8851 C   0  0  0  0  0  0
    5.8894   55.1788   18.9655 O   0  0  0  0  0  0
    6.3003   55.0296   21.3166 C   0  0  0  0  0  0
    5.1034   54.3493   21.5850 C   0  0  0  0  0  0
    4.7146   54.0851   22.8971 C   0  0  0  0  0  0
    5.5117   54.4968   23.9678 C   0  0  0  0  0  0
    6.7044   55.1782   23.7027 C   0  0  0  0  0  0
    7.1000   55.4319   22.3946 C   0  0  0  0  0  0
    5.0276   54.2232   25.2609 N   0  0  0  0  0  0
    5.5853   54.4655   26.4730 C   0  0  0  0  0  0
    6.7044   54.9585   26.6332 O   0  0  0  0  0  0
    4.8134   54.0955   27.5280 N   0  0  0  0  0  0
    5.3800   53.9562   28.8769 C   0  0  0  0  0  0
    4.1497   53.6638   29.7277 C   0  0  0  0  0  0
    3.2463   52.8765   28.8087 C   0  0  2  0  0  0
    3.6144   51.8488   28.7313 H   0  0  0  0  0  0
    3.4488   53.5385   27.4399 C   0  0  0  0  0  0
    1.8266   52.6577   29.3538 N   0  3  0  0  0  0
    1.0814   53.9274   29.7755 C   0  0  0  0  0  0
   -0.3363   53.4335   29.9504 C   0  0  0  0  0  0
   -0.5277   52.2467   28.9974 C   0  0  0  0  0  0
    0.8484   51.9385   28.4101 C   0  0  0  0  0  0
    7.1422   59.2916   17.8113 H   0  0  0  0  0  0
    8.4910   58.9300   18.8807 H   0  0  0  0  0  0
    6.8739   58.3236   19.2500 H   0  0  0  0  0  0
    6.9393   56.8707   17.2192 H   0  0  0  0  0  0
    8.4885   57.5207   16.7687 H   0  0  0  0  0  0
    9.3097   55.1646   16.5918 H   0  0  0  0  0  0
    9.5699   54.1962   18.0278 H   0  0  0  0  0  0
    7.9512   54.3323   17.3122 H   0  0  0  0  0  0
    8.5817   55.7242   20.4853 H   0  0  0  0  0  0
    4.4625   54.0233   20.7763 H   0  0  0  0  0  0
    3.7829   53.5662   23.0719 H   0  0  0  0  0  0
    7.3600   55.5302   24.4813 H   0  0  0  0  0  0
    8.0227   55.9724   22.2474 H   0  0  0  0  0  0
    4.1207   53.7842   25.2773 H   0  0  0  0  0  0
    6.0722   53.1126   28.8816 H   0  0  0  0  0  0
    5.9047   54.8576   29.1983 H   0  0  0  0  0  0
    4.3071   53.1456   30.6721 H   0  0  0  0  0  0
    3.7029   54.6275   29.9755 H   0  0  0  0  0  0
    2.7104   54.3301   27.3158 H   0  0  0  0  0  0
    3.3371   52.7726   26.6727 H   0  0  0  0  0  0
    1.5209   54.3370   30.6846 H   0  0  0  0  0  0
    1.1950   54.6524   28.9672 H   0  0  0  0  0  0
   -0.5020   53.1355   30.9886 H   0  0  0  0  0  0
   -0.9838   54.2679   29.7214 H   0  0  0  0  0  0
   -1.2330   52.4808   28.1969 H   0  0  0  0  0  0
   -0.9279   51.3774   29.5251 H   0  0  0  0  0  0
    0.9808   52.3777   27.4199 H   0  0  0  0  0  0
    1.1241   50.8886   28.3671 H   0  0  0  0  0  0
    1.9222   52.0947   30.1870 H   0  0  0  0  0  0
  1  2  1  0  0  0
  1 29  1  0  0  0
  1 30  1  0  0  0
  1 31  1  0  0  0
  2  3  1  0  0  0
  2 32  1  0  0  0
  2 33  1  0  0  0
  3  4  1  0  0  0
  3  5  1  0  0  0
  3  6  1  0  0  0
  5 34  1  0  0  0
  5 35  1  0  0  0
  5 36  1  0  0  0
  6  7  1  0  0  0
  6 37  1  0  0  0
  7  8  2  0  0  0
  7  9  1  0  0  0
  9 14  2  0  0  0
  9 10  1  0  0  0
 10 11  2  0  0  0
 10 38  1  0  0  0
 11 12  1  0  0  0
 11 39  1  0  0  0
 12 13  2  0  0  0
 12 15  1  0  0  0
 13 14  1  0  0  0
 13 40  1  0  0  0
 14 41  1  0  0  0
 15 16  1  0  0  0
 15 42  1  0  0  0
 16 17  2  0  0  0
 16 18  1  0  0  0
 18 23  1  0  0  0
 18 19  1  0  0  0
 19 20  1  0  0  0
 19 43  1  0  0  0
 19 44  1  0  0  0
 20 21  1  0  0  0
 20 45  1  0  0  0
 20 46  1  0  0  0
 21 22  1  0  0  0
 21 23  1  0  0  0
 21 24  1  0  0  0
 23 47  1  0  0  0
 23 48  1  0  0  0
 24 28  1  0  0  0
 24 25  1  0  0  0
 24 57  1  0  0  0
 25 26  1  0  0  0
 25 49  1  0  0  0
 25 50  1  0  0  0
 26 27  1  0  0  0
 26 51  1  0  0  0
 26 52  1  0  0  0
 27 28  1  0  0  0
 27 53  1  0  0  0
 27 54  1  0  0  0
 28 55  1  0  0  0
 28 56  1  0  0  0
M  CHG  1  24   1
M  END
> <i_i_glide_confnum>
266

> <i_i_glide_lignum>
1356

> <i_i_glide_posenum>
235

> <i_i_glide_rotatable_bonds>
8

> <i_m_Source_File_Index>
5771

> <b_m_subgroup_collapsed>
0

> <r_i_docking_score>
-5.34526

> <r_i_glide_ecoul>
-1.51722

> <r_i_glide_eff_state_penalty>
0

> <r_i_glide_einternal>
8.67087

> <r_i_glide_emodel>
-47.6415

> <r_i_glide_energy>
-39.5481

> <r_i_glide_erotb>
1.03827

> <r_i_glide_esite>
0

> <r_i_glide_evdw>
-38.0309

> <r_i_glide_gscore>
-5.34526

> <r_i_glide_hbond>
-0.236346

> <r_i_glide_ligand_efficiency>
-0.205587

> <r_i_glide_ligand_efficiency_ln>
-1.25532

> <r_i_glide_ligand_efficiency_sa>
-0.60905

> <r_i_glide_lipo>
-2.09377

> <r_i_glide_metal>
0

> <r_i_glide_rewards>
-1.92429

> <s_i_glide_gridfile>
wee1_glide-grid

> <s_m_Source_File>
wee1_decoys_glide_SP.sdf

> <s_m_Source_Path>
/Users/zhangxujun/Desktop

> <s_m_entry_id>
6046

> <s_m_entry_name>
wee1_decoys_glide_SP.5771

> <s_m_subgroup_title>
wee1_decoys_glide_SP

> <s_m_subgroupid>
wee1_decoys_glide_SP


$$$$
