ZINC38547071_4892
                    3D
 Schrodinger Suite 2024-2.
 62 65  0  0  1  0            999 V2000
   -4.2757   49.1220   20.1001 C   0  0  0  0  0  0
   -4.2281   50.3237   19.1418 C   0  0  0  0  0  0
   -2.8591   50.9680   19.0297 C   0  0  0  0  0  0
   -1.6314   50.5955   19.5743 C   0  0  0  0  0  0
   -0.5401   51.4395   19.2937 C   0  0  0  0  0  0
   -0.9420   52.4971   18.4793 C   0  0  0  0  0  0
   -2.6401   52.4001   18.0805 S   0  0  0  0  0  0
   -0.0943   53.4959   18.0024 N   0  0  0  0  0  0
   -0.4089   54.5989   17.2817 C   0  0  0  0  0  0
   -1.5613   54.9500   17.0184 O   0  0  0  0  0  0
    0.7622   55.4699   16.8692 C   0  0  0  0  0  0
    2.0840   54.9877   16.8776 C   0  0  0  0  0  0
    3.1413   55.8149   16.5063 C   0  0  0  0  0  0
    2.8902   57.1264   16.1143 C   0  0  0  0  0  0
    1.5884   57.6157   16.0816 C   0  0  0  0  0  0
    0.5309   56.7930   16.4616 C   0  0  0  0  0  0
    0.8949   51.2085   19.7787 C   0  0  1  0  0  0
    1.5751   51.6786   19.0675 H   0  0  0  0  0  0
    1.1676   51.8037   21.1667 C   0  0  0  0  0  0
    0.2407   51.6391   22.2047 C   0  0  0  0  0  0
    0.4838   52.1705   23.4670 C   0  0  0  0  0  0
    1.6590   52.8732   23.7120 C   0  0  0  0  0  0
    2.6132   53.0484   22.6965 C   0  0  0  0  0  0
    2.3643   52.4965   21.4264 C   0  0  0  0  0  0
    3.2764   52.6752   20.4126 O   0  0  0  0  0  0
    4.4098   51.8195   20.4745 C   0  0  0  0  0  0
    3.8001   53.7376   22.8758 O   0  0  0  0  0  0
    4.1150   54.2699   24.1579 C   0  0  0  0  0  0
    1.2973   49.7927   19.7420 N   0  0  0  0  0  0
    1.3554   49.0323   18.5383 C   0  0  0  0  0  0
    1.6430   47.6655   18.5810 C   0  0  0  0  0  0
    1.6529   46.9224   17.3948 C   0  0  0  0  0  0
    1.3778   47.5565   16.1802 C   0  0  0  0  0  0
    1.1040   48.9259   16.1716 C   0  0  0  0  0  0
    1.1042   49.6024   17.3377 N   0  3  0  0  0  0
   -5.2817   48.7046   20.1519 H   0  0  0  0  0  0
   -3.6059   48.3247   19.7743 H   0  0  0  0  0  0
   -3.9855   49.4076   21.1121 H   0  0  0  0  0  0
   -4.9584   51.0632   19.4750 H   0  0  0  0  0  0
   -4.5666   50.0017   18.1554 H   0  0  0  0  0  0
   -1.5235   49.7132   20.1881 H   0  0  0  0  0  0
    0.8597   53.4556   18.3284 H   0  0  0  0  0  0
    2.3174   53.9747   17.1726 H   0  0  0  0  0  0
    4.1546   55.4407   16.5263 H   0  0  0  0  0  0
    3.7102   57.7733   15.8342 H   0  0  0  0  0  0
    1.4021   58.6385   15.7873 H   0  0  0  0  0  0
   -0.4701   57.2007   16.4427 H   0  0  0  0  0  0
   -0.6770   51.0933   22.0463 H   0  0  0  0  0  0
   -0.2396   52.0351   24.2584 H   0  0  0  0  0  0
    1.8130   53.2726   24.7022 H   0  0  0  0  0  0
    5.1058   52.0974   19.6827 H   0  0  0  0  0  0
    4.9435   51.8994   21.4230 H   0  0  0  0  0  0
    4.1236   50.7777   20.3225 H   0  0  0  0  0  0
    5.0756   54.7832   24.1088 H   0  0  0  0  0  0
    3.3686   54.9950   24.4847 H   0  0  0  0  0  0
    4.2004   53.4824   24.9085 H   0  0  0  0  0  0
    1.4583   49.3287   20.6243 H   0  0  0  0  0  0
    1.8569   47.1810   19.5220 H   0  0  0  0  0  0
    1.8709   45.8650   17.4117 H   0  0  0  0  0  0
    1.3944   46.9963   15.2566 H   0  0  0  0  0  0
    0.9042   49.5050   15.2806 H   0  0  0  0  0  0
    0.9169   50.5938   17.3185 H   0  0  0  0  0  0
  1  2  1  0  0  0
  1 36  1  0  0  0
  1 37  1  0  0  0
  1 38  1  0  0  0
  2  3  1  0  0  0
  2 39  1  0  0  0
  2 40  1  0  0  0
  3  7  1  0  0  0
  3  4  2  0  0  0
  4  5  1  0  0  0
  4 41  1  0  0  0
  5  6  2  0  0  0
  5 17  1  0  0  0
  6  7  1  0  0  0
  6  8  1  0  0  0
  8  9  1  0  0  0
  8 42  1  0  0  0
  9 10  2  0  0  0
  9 11  1  0  0  0
 11 16  2  0  0  0
 11 12  1  0  0  0
 12 13  2  0  0  0
 12 43  1  0  0  0
 13 14  1  0  0  0
 13 44  1  0  0  0
 14 15  2  0  0  0
 14 45  1  0  0  0
 15 16  1  0  0  0
 15 46  1  0  0  0
 16 47  1  0  0  0
 17 18  1  0  0  0
 17 19  1  0  0  0
 17 29  1  0  0  0
 19 24  2  0  0  0
 19 20  1  0  0  0
 20 21  2  0  0  0
 20 48  1  0  0  0
 21 22  1  0  0  0
 21 49  1  0  0  0
 22 23  2  0  0  0
 22 50  1  0  0  0
 23 24  1  0  0  0
 23 27  1  0  0  0
 24 25  1  0  0  0
 25 26  1  0  0  0
 26 51  1  0  0  0
 26 52  1  0  0  0
 26 53  1  0  0  0
 27 28  1  0  0  0
 28 54  1  0  0  0
 28 55  1  0  0  0
 28 56  1  0  0  0
 29 30  1  0  0  0
 29 57  1  0  0  0
 30 35  2  0  0  0
 30 31  1  0  0  0
 31 32  2  0  0  0
 31 58  1  0  0  0
 32 33  1  0  0  0
 32 59  1  0  0  0
 33 34  2  0  0  0
 33 60  1  0  0  0
 34 35  1  0  0  0
 34 61  1  0  0  0
 35 62  1  0  0  0
M  CHG  1  35   1
M  END
> <i_i_glide_confnum>
163

> <i_i_glide_lignum>
4893

> <i_i_glide_posenum>
280

> <i_i_glide_rotatable_bonds>
10

> <i_m_Source_File_Index>
3363

> <b_m_subgroup_collapsed>
0

> <r_i_docking_score>
-2.12061

> <r_i_glide_ecoul>
-1.01489

> <r_i_glide_eff_state_penalty>
0

> <r_i_glide_einternal>
4.63172

> <r_i_glide_emodel>
-35.968

> <r_i_glide_energy>
-31.4898

> <r_i_glide_erotb>
0.628895

> <r_i_glide_esite>
-0.134152

> <r_i_glide_evdw>
-30.475

> <r_i_glide_gscore>
-2.12061

> <r_i_glide_hbond>
0

> <r_i_glide_ligand_efficiency>
-0.0623708

> <r_i_glide_ligand_efficiency_ln>
-0.468502

> <r_i_glide_ligand_efficiency_sa>
-0.202057

> <r_i_glide_lipo>
-0.766811

> <r_i_glide_metal>
0

> <r_i_glide_rewards>
-0.172558

> <s_i_glide_gridfile>
wee1_glide-grid

> <s_m_Source_File>
wee1_decoys_glide_SP.sdf

> <s_m_Source_Path>
/Users/zhangxujun/Desktop

> <s_m_entry_id>
3638

> <s_m_entry_name>
wee1_decoys_glide_SP.3363

> <s_m_subgroup_title>
wee1_decoys_glide_SP

> <s_m_subgroupid>
wee1_decoys_glide_SP


$$$$
