ZINC03111070_1125
                    3D
 Schrodinger Suite 2024-2.
 47 49  0  0  1  0            999 V2000
   -0.2199   52.1534   27.5785 C   0  0  0  0  0  0
    1.0796   52.6495   27.6383 C   0  0  0  0  0  0
    1.7440   52.8254   28.8675 C   0  0  0  0  0  0
    1.0568   52.4600   30.0445 C   0  0  0  0  0  0
   -0.2628   52.0077   29.9796 C   0  0  0  0  0  0
   -0.8957   51.8441   28.7520 C   0  0  0  0  0  0
   -2.5298   51.2967   28.6848 Cl  0  0  0  0  0  0
    1.7984   52.4936   31.6088 Cl  0  0  0  0  0  0
    3.1034   53.4022   28.8947 C   0  0  0  0  0  0
    3.8170   53.5035   27.8483 N   0  0  0  0  0  0
    4.9551   54.2045   28.0001 N   0  0  0  0  0  0
    5.7230   54.5747   26.9536 C   0  0  0  0  0  0
    6.7019   55.2906   27.1407 O   0  0  0  0  0  0
    5.4400   54.0465   25.5208 C   0  0  0  0  0  0
    4.1464   54.6259   24.9347 C   0  0  0  0  0  0
    3.8626   54.0628   23.5179 C   0  0  0  0  0  0
    5.0281   54.2077   22.6101 N   0  0  0  0  0  0
    6.3112   53.7257   23.1587 C   0  0  0  0  0  0
    6.6179   54.2821   24.5590 C   0  0  0  0  0  0
    4.8746   54.0980   21.1956 C   0  0  0  0  0  0
    5.4916   54.9954   20.3065 C   0  0  0  0  0  0
    5.3517   54.8044   18.9280 C   0  0  0  0  0  0
    4.6046   53.7219   18.4416 C   0  0  0  0  0  0
    3.9905   52.8646   19.3625 C   0  0  0  0  0  0
    4.4645   53.4994   16.9372 C   0  0  0  0  0  0
    5.6353   53.1025   16.4409 F   0  0  0  0  0  0
    3.5433   52.5783   16.6491 F   0  0  0  0  0  0
    4.1124   54.6406   16.3429 F   0  0  0  0  0  0
    6.4171   56.3428   20.8766 Cl  0  0  0  0  0  0
   -0.7084   52.0259   26.6233 H   0  0  0  0  0  0
    1.5643   52.9015   26.7059 H   0  0  0  0  0  0
   -0.7901   51.7376   30.8851 H   0  0  0  0  0  0
    3.4370   53.7638   29.8652 H   0  0  0  0  0  0
    5.1601   54.5363   28.9312 H   0  0  0  0  0  0
    5.2647   52.9847   25.6832 H   0  0  0  0  0  0
    3.2602   54.4048   25.5280 H   0  0  0  0  0  0
    4.2981   55.6967   24.8411 H   0  0  0  0  0  0
    3.5854   53.0094   23.5634 H   0  0  0  0  0  0
    3.0308   54.6151   23.0781 H   0  0  0  0  0  0
    6.2789   52.6387   23.1374 H   0  0  0  0  0  0
    7.1136   54.0549   22.4968 H   0  0  0  0  0  0
    6.8184   55.3484   24.4309 H   0  0  0  0  0  0
    7.5044   53.7534   24.8981 H   0  0  0  0  0  0
    5.8291   55.4895   18.2392 H   0  0  0  0  0  0
    3.4102   51.9919   19.0846 H   0  0  0  0  0  0
    4.1455   53.0822   20.6841 N   0  3  0  0  0  0
    3.7050   52.4417   21.3289 H   0  0  0  0  0  0
  1  6  2  0  0  0
  1  2  1  0  0  0
  1 30  1  0  0  0
  2  3  2  0  0  0
  2 31  1  0  0  0
  3  4  1  0  0  0
  3  9  1  0  0  0
  4  5  2  0  0  0
  4  8  1  0  0  0
  5  6  1  0  0  0
  5 32  1  0  0  0
  6  7  1  0  0  0
  9 10  2  0  0  0
  9 33  1  0  0  0
 10 11  1  0  0  0
 11 12  1  0  0  0
 11 34  1  0  0  0
 12 13  2  0  0  0
 12 14  1  0  0  0
 14 19  1  0  0  0
 14 15  1  0  0  0
 14 35  1  0  0  0
 15 16  1  0  0  0
 15 36  1  0  0  0
 15 37  1  0  0  0
 16 17  1  0  0  0
 16 38  1  0  0  0
 16 39  1  0  0  0
 17 18  1  0  0  0
 17 20  1  0  0  0
 18 19  1  0  0  0
 18 40  1  0  0  0
 18 41  1  0  0  0
 19 42  1  0  0  0
 19 43  1  0  0  0
 20 21  2  0  0  0
 20 46  1  0  0  0
 21 22  1  0  0  0
 21 29  1  0  0  0
 22 23  2  0  0  0
 22 44  1  0  0  0
 23 24  1  0  0  0
 23 25  1  0  0  0
 24 45  1  0  0  0
 24 46  2  0  0  0
 25 26  1  0  0  0
 25 27  1  0  0  0
 25 28  1  0  0  0
 46 47  1  0  0  0
M  CHG  1  46   1
M  END
> <i_i_glide_confnum>
62

> <i_i_glide_lignum>
1126

> <i_i_glide_posenum>
221

> <i_i_glide_rotatable_bonds>
6

> <i_m_Source_File_Index>
2454

> <b_m_subgroup_collapsed>
0

> <r_i_docking_score>
-5.2001

> <r_i_glide_ecoul>
-1.89804

> <r_i_glide_eff_state_penalty>
0

> <r_i_glide_einternal>
5.86579

> <r_i_glide_emodel>
-49.2584

> <r_i_glide_energy>
-40.5559

> <r_i_glide_erotb>
0.351051

> <r_i_glide_esite>
-0.115798

> <r_i_glide_evdw>
-38.6579

> <r_i_glide_gscore>
-5.2001

> <r_i_glide_hbond>
-0.160699

> <r_i_glide_ligand_efficiency>
-0.173337

> <r_i_glide_ligand_efficiency_ln>
-1.18152

> <r_i_glide_ligand_efficiency_sa>
-0.538597

> <r_i_glide_lipo>
-1.95649

> <r_i_glide_metal>
0

> <r_i_glide_rewards>
-1.10056

> <s_i_glide_gridfile>
wee1_glide-grid

> <s_m_Source_File>
wee1_decoys_glide_SP.sdf

> <s_m_Source_Path>
/Users/zhangxujun/Desktop

> <s_m_entry_id>
2729

> <s_m_entry_name>
wee1_decoys_glide_SP.2454

> <s_m_subgroup_title>
wee1_decoys_glide_SP

> <s_m_subgroupid>
wee1_decoys_glide_SP


$$$$
