ZINC64953654_3193
                    3D
 Schrodinger Suite 2024-2.
 60 63  0  0  1  0            999 V2000
   -5.8936   53.7000   24.7936 C   0  0  0  0  0  0
   -4.9272   52.5117   24.7038 C   0  0  0  0  0  0
   -3.4961   52.8908   25.1249 C   0  0  0  0  0  0
   -2.5088   51.8066   24.9236 N   0  0  0  0  0  0
   -1.8801   51.7769   23.6881 C   0  0  0  0  0  0
   -2.2591   52.4968   22.7631 O   0  0  0  0  0  0
   -0.8033   50.7910   23.5984 C   0  0  0  0  0  0
    0.2110   50.4967   22.6458 C   0  0  0  0  0  0
    0.8448   49.3744   22.9845 N   0  0  0  0  0  0
    0.3044   48.9687   24.0980 C   0  0  0  0  0  0
   -0.6732   49.8019   24.5453 N   0  0  0  0  0  0
   -1.5111   49.6531   25.7087 C   0  0  0  0  0  0
   -2.0249   51.0628   26.1495 C   0  0  2  0  0  0
   -3.1428   50.7944   27.2108 C   0  0  0  0  0  0
   -0.8364   51.8498   26.8336 C   0  0  0  0  0  0
   -0.0478   52.4967   26.1412 O   0  0  0  0  0  0
   -0.6912   51.8098   28.1735 N   0  0  0  0  0  0
    0.2916   52.6022   28.9210 C   0  0  0  0  0  0
   -0.1524   52.8575   30.3736 C   0  0  0  0  0  0
    1.0614   52.6146   31.2767 C   0  0  0  0  0  0
    2.2610   52.4983   30.3318 C   0  0  0  0  0  0
    1.6582   51.9123   29.0520 C   0  0  0  0  0  0
    0.5661   51.2726   21.4610 C   0  0  0  0  0  0
   -0.2022   52.0890   20.9514 O   0  0  0  0  0  0
    1.8271   51.0554   21.0225 N   0  0  0  0  0  0
    2.4987   51.8052   20.0427 C   0  0  0  0  0  0
    1.9872   51.9826   18.7446 C   0  0  0  0  0  0
    2.6913   52.7549   17.8179 C   0  0  0  0  0  0
    3.9077   53.3415   18.1727 C   0  0  0  0  0  0
    4.4325   53.1452   19.4510 C   0  0  0  0  0  0
    3.7371   52.3707   20.3816 C   0  0  0  0  0  0
    4.2626   52.1834   21.6169 F   0  0  0  0  0  0
    5.6179   53.7074   19.7902 F   0  0  0  0  0  0
    4.5807   54.0994   17.2756 F   0  0  0  0  0  0
    2.1907   52.9411   16.5732 F   0  0  0  0  0  0
    0.8238   51.4003   18.3696 F   0  0  0  0  0  0
   -6.9040   53.3991   24.5161 H   0  0  0  0  0  0
   -5.9327   54.1077   25.8044 H   0  0  0  0  0  0
   -5.5953   54.4981   24.1121 H   0  0  0  0  0  0
   -4.9290   52.1312   23.6817 H   0  0  0  0  0  0
   -5.2984   51.7043   25.3357 H   0  0  0  0  0  0
   -3.4916   53.2303   26.1600 H   0  0  0  0  0  0
   -3.1985   53.7805   24.5673 H   0  0  0  0  0  0
    0.5718   48.0967   24.6760 H   0  0  0  0  0  0
   -0.9123   49.1726   26.4816 H   0  0  0  0  0  0
   -2.3334   48.9774   25.4707 H   0  0  0  0  0  0
   -2.8298   50.0968   27.9893 H   0  0  0  0  0  0
   -3.4793   51.7021   27.7124 H   0  0  0  0  0  0
   -4.0180   50.3438   26.7428 H   0  0  0  0  0  0
   -1.2317   51.1349   28.6963 H   0  0  0  0  0  0
    0.4970   53.5755   28.4641 H   0  0  0  0  0  0
   -0.9537   52.1867   30.6861 H   0  0  0  0  0  0
   -0.4973   53.8844   30.4823 H   0  0  0  0  0  0
    0.9280   51.6967   31.8465 H   0  0  0  0  0  0
    1.1555   53.4091   32.0135 H   0  0  0  0  0  0
    3.0606   51.8823   30.7429 H   0  0  0  0  0  0
    2.6775   53.4865   30.1250 H   0  0  0  0  0  0
    2.2786   52.0471   28.1652 H   0  0  0  0  0  0
    1.5204   50.8407   29.1639 H   0  0  0  0  0  0
    2.3884   50.4053   21.5529 H   0  0  0  0  0  0
  1  2  1  0  0  0
  1 37  1  0  0  0
  1 38  1  0  0  0
  1 39  1  0  0  0
  2  3  1  0  0  0
  2 40  1  0  0  0
  2 41  1  0  0  0
  3  4  1  0  0  0
  3 42  1  0  0  0
  3 43  1  0  0  0
  4 13  1  0  0  0
  4  5  1  0  0  0
  5  6  2  0  0  0
  5  7  1  0  0  0
  7 11  1  0  0  0
  7  8  2  0  0  0
  8  9  1  0  0  0
  8 23  1  0  0  0
  9 10  2  0  0  0
 10 11  1  0  0  0
 10 44  1  0  0  0
 11 12  1  0  0  0
 12 13  1  0  0  0
 12 45  1  0  0  0
 12 46  1  0  0  0
 13 14  1  0  0  0
 13 15  1  0  0  0
 14 47  1  0  0  0
 14 48  1  0  0  0
 14 49  1  0  0  0
 15 16  2  0  0  0
 15 17  1  0  0  0
 17 18  1  0  0  0
 17 50  1  0  0  0
 18 22  1  0  0  0
 18 19  1  0  0  0
 18 51  1  0  0  0
 19 20  1  0  0  0
 19 52  1  0  0  0
 19 53  1  0  0  0
 20 21  1  0  0  0
 20 54  1  0  0  0
 20 55  1  0  0  0
 21 22  1  0  0  0
 21 56  1  0  0  0
 21 57  1  0  0  0
 22 58  1  0  0  0
 22 59  1  0  0  0
 23 24  2  0  0  0
 23 25  1  0  0  0
 25 26  1  0  0  0
 25 60  1  0  0  0
 26 31  2  0  0  0
 26 27  1  0  0  0
 27 28  2  0  0  0
 27 36  1  0  0  0
 28 29  1  0  0  0
 28 35  1  0  0  0
 29 30  2  0  0  0
 29 34  1  0  0  0
 30 31  1  0  0  0
 30 33  1  0  0  0
 31 32  1  0  0  0
M  END
> <i_i_glide_confnum>
270

> <i_i_glide_lignum>
3194

> <i_i_glide_posenum>
138

> <i_i_glide_rotatable_bonds>
8

> <i_m_Source_File_Index>
619

> <b_m_subgroup_collapsed>
0

> <r_i_docking_score>
-3.15323

> <r_i_glide_ecoul>
-7.02597

> <r_i_glide_eff_state_penalty>
0

> <r_i_glide_einternal>
5.66756

> <r_i_glide_emodel>
-49.5266

> <r_i_glide_energy>
-43.5073

> <r_i_glide_erotb>
0.544466

> <r_i_glide_esite>
-0.209491

> <r_i_glide_evdw>
-36.4813

> <r_i_glide_gscore>
-3.15323

> <r_i_glide_hbond>
0

> <r_i_glide_ligand_efficiency>
-0.0875898

> <r_i_glide_ligand_efficiency_ln>
-0.68795

> <r_i_glide_ligand_efficiency_sa>
-0.289215

> <r_i_glide_lipo>
-0.503977

> <r_i_glide_metal>
0

> <r_i_glide_rewards>
-0.106272

> <s_i_glide_gridfile>
wee1_glide-grid

> <s_m_Source_File>
wee1_decoys_glide_SP.sdf

> <s_m_Source_Path>
/Users/zhangxujun/Desktop

> <s_m_entry_id>
894

> <s_m_entry_name>
wee1_decoys_glide_SP.619

> <s_m_subgroup_title>
wee1_decoys_glide_SP

> <s_m_subgroupid>
wee1_decoys_glide_SP


$$$$
