ZINC03423478_914
                    3D
 Schrodinger Suite 2024-2.
 55 58  0  0  1  0            999 V2000
   -3.3509   47.7926   24.1223 C   0  0  0  0  0  0
   -2.1918   48.2047   25.0497 C   0  0  0  0  0  0
   -0.9013   47.4407   24.6751 C   0  0  0  0  0  0
   -2.0408   49.7581   25.1832 C   0  0  2  0  0  0
   -3.0214   50.2375   25.1960 H   0  0  0  0  0  0
   -1.2543   50.3601   23.9677 C   0  0  0  0  0  0
   -1.6946   50.1874   22.8301 O   0  0  0  0  0  0
   -0.1352   51.0520   24.2613 N   0  0  0  0  0  0
    0.7522   51.6997   23.4215 C   0  0  0  0  0  0
    1.7291   52.3900   23.9383 N   0  0  0  0  0  0
    2.5397   52.9270   23.0420 C   0  0  0  0  0  0
    2.1793   52.6419   21.7203 C   0  0  0  0  0  0
    0.7316   51.6717   21.6825 S   0  0  0  0  0  0
    3.7270   53.7064   23.5222 C   0  0  0  0  0  0
    3.7283   54.2639   24.8092 C   0  0  0  0  0  0
    4.8599   54.8966   25.3169 C   0  0  0  0  0  0
    6.0070   55.0012   24.5389 C   0  0  0  0  0  0
    6.0085   54.4897   23.2421 C   0  0  0  0  0  0
    4.8768   53.8454   22.7342 C   0  0  0  0  0  0
    7.1105   54.6149   22.4776 F   0  0  0  0  0  0
    7.1043   55.6126   25.0413 F   0  0  0  0  0  0
   -1.3690   50.0967   26.4815 N   0  0  0  0  0  0
   -1.8285   51.5846   27.2870 S   0  0  0  0  0  0
   -2.9263   51.2906   28.2131 O   0  0  0  0  0  0
   -1.9878   52.6112   26.2523 O   0  0  0  0  0  0
   -0.3887   52.0484   28.2440 C   0  0  0  0  0  0
   -0.4314   52.0530   29.6446 C   0  0  0  0  0  0
    0.6631   52.4967   30.3852 C   0  0  0  0  0  0
    1.8203   52.8892   29.7204 C   0  0  0  0  0  0
    1.9002   52.8099   28.3217 C   0  0  0  0  0  0
    0.7867   52.4196   27.5829 C   0  0  0  0  0  0
    3.0406   53.1829   27.6360 O   0  0  0  0  0  0
    4.2095   53.3039   28.4588 C   0  0  0  0  0  0
    3.8432   54.0711   29.7479 C   0  0  0  0  0  0
    2.8919   53.2981   30.4817 O   0  0  0  0  0  0
   -3.1682   48.0782   23.0867 H   0  0  0  0  0  0
   -3.5006   46.7132   24.1415 H   0  0  0  0  0  0
   -4.2868   48.2566   24.4350 H   0  0  0  0  0  0
   -2.4745   47.8402   26.0402 H   0  0  0  0  0  0
   -0.6286   47.5914   23.6303 H   0  0  0  0  0  0
   -0.0579   47.7679   25.2817 H   0  0  0  0  0  0
   -1.0228   46.3695   24.8353 H   0  0  0  0  0  0
    0.0643   51.1042   25.2484 H   0  0  0  0  0  0
    2.6623   52.9478   20.8034 H   0  0  0  0  0  0
    2.8508   54.1908   25.4326 H   0  0  0  0  0  0
    4.8479   55.2972   26.3166 H   0  0  0  0  0  0
    4.9108   53.4322   21.7369 H   0  0  0  0  0  0
   -1.4197   49.3095   27.1562 H   0  0  0  0  0  0
   -1.2975   51.6967   30.1762 H   0  0  0  0  0  0
    0.6150   52.5104   31.4652 H   0  0  0  0  0  0
    0.8371   52.4192   26.5064 H   0  0  0  0  0  0
    4.5667   52.3072   28.7247 H   0  0  0  0  0  0
    5.0156   53.8006   27.9234 H   0  0  0  0  0  0
    4.7044   54.2815   30.3701 H   0  0  0  0  0  0
    3.4045   55.0344   29.4779 H   0  0  0  0  0  0
  1  2  1  0  0  0
  1 36  1  0  0  0
  1 37  1  0  0  0
  1 38  1  0  0  0
  2  3  1  0  0  0
  2  4  1  0  0  0
  2 39  1  0  0  0
  3 40  1  0  0  0
  3 41  1  0  0  0
  3 42  1  0  0  0
  4  5  1  0  0  0
  4  6  1  0  0  0
  4 22  1  0  0  0
  6  7  2  0  0  0
  6  8  1  0  0  0
  8  9  1  0  0  0
  8 43  1  0  0  0
  9 13  1  0  0  0
  9 10  2  0  0  0
 10 11  1  0  0  0
 11 12  2  0  0  0
 11 14  1  0  0  0
 12 13  1  0  0  0
 12 44  1  0  0  0
 14 19  2  0  0  0
 14 15  1  0  0  0
 15 16  2  0  0  0
 15 45  1  0  0  0
 16 17  1  0  0  0
 16 46  1  0  0  0
 17 18  2  0  0  0
 17 21  1  0  0  0
 18 19  1  0  0  0
 18 20  1  0  0  0
 19 47  1  0  0  0
 22 23  1  0  0  0
 22 48  1  0  0  0
 23 24  2  0  0  0
 23 25  2  0  0  0
 23 26  1  0  0  0
 26 31  2  0  0  0
 26 27  1  0  0  0
 27 28  2  0  0  0
 27 49  1  0  0  0
 28 29  1  0  0  0
 28 50  1  0  0  0
 29 35  1  0  0  0
 29 30  2  0  0  0
 30 31  1  0  0  0
 30 32  1  0  0  0
 31 51  1  0  0  0
 32 33  1  0  0  0
 33 34  1  0  0  0
 33 52  1  0  0  0
 33 53  1  0  0  0
 34 35  1  0  0  0
 34 54  1  0  0  0
 34 55  1  0  0  0
M  END
> <i_i_glide_confnum>
132

> <i_i_glide_lignum>
915

> <i_i_glide_posenum>
362

> <i_i_glide_rotatable_bonds>
8

> <i_m_Source_File_Index>
1867

> <b_m_subgroup_collapsed>
0

> <r_i_docking_score>
-3.93165

> <r_i_glide_ecoul>
-8.25226

> <r_i_glide_eff_state_penalty>
0

> <r_i_glide_einternal>
9.49932

> <r_i_glide_emodel>
-52.9331

> <r_i_glide_energy>
-51.2179

> <r_i_glide_erotb>
0.473287

> <r_i_glide_esite>
-0.248341

> <r_i_glide_evdw>
-42.9656

> <r_i_glide_gscore>
-3.93165

> <r_i_glide_hbond>
-0.456

> <r_i_glide_ligand_efficiency>
-0.115637

> <r_i_glide_ligand_efficiency_ln>
-0.868611

> <r_i_glide_ligand_efficiency_sa>
-0.374618

> <r_i_glide_lipo>
-2.51904

> <r_i_glide_metal>
0

> <r_i_glide_rewards>
2.20457

> <s_i_glide_gridfile>
wee1_glide-grid

> <s_m_Source_File>
wee1_decoys_glide_SP.sdf

> <s_m_Source_Path>
/Users/zhangxujun/Desktop

> <s_m_entry_id>
2142

> <s_m_entry_name>
wee1_decoys_glide_SP.1867

> <s_m_subgroup_title>
wee1_decoys_glide_SP

> <s_m_subgroupid>
wee1_decoys_glide_SP


$$$$
