ZINC08271826_2651
                    3D
 Schrodinger Suite 2024-2.
 40 42  0  0  1  0            999 V2000
    5.8162   55.0844   20.3050 C   0  0  0  0  0  0
    5.0373   54.4435   21.4696 C   0  0  1  0  0  0
    4.1693   55.0708   21.6811 H   0  0  0  0  0  0
    4.5880   53.0035   21.1223 C   0  0  0  0  0  0
    5.1050   52.0338   21.6814 O   0  0  0  0  0  0
    3.6127   52.8949   20.1900 N   0  0  0  0  0  0
    3.0621   51.6442   19.8666 N   0  0  0  0  0  0
    2.1568   51.0733   20.7003 C   0  0  0  0  0  0
    1.7756   51.5960   21.7541 O   0  0  0  0  0  0
    1.5521   49.7609   20.2439 C   0  0  0  0  0  0
    0.3687   49.2926   20.8645 C   0  0  0  0  0  0
   -0.2505   48.1018   20.4610 C   0  0  0  0  0  0
    0.3386   47.3935   19.4235 C   0  0  0  0  0  0
    1.4856   47.8224   18.8191 C   0  0  0  0  0  0
    2.1272   48.9934   19.2054 C   0  0  0  0  0  0
    1.8514   46.9211   17.8698 O   0  0  0  0  0  0
    0.7586   46.0539   17.7377 C   0  0  0  0  0  0
   -0.0479   46.2130   18.8727 O   0  0  0  0  0  0
    5.9480   54.4630   22.5800 O   0  0  0  0  0  0
    5.5059   54.3651   23.8867 C   0  0  0  0  0  0
    4.1704   54.1593   24.2680 C   0  0  0  0  0  0
    3.8318   54.0956   25.6188 C   0  0  0  0  0  0
    4.8227   54.2209   26.5911 C   0  0  0  0  0  0
    6.1486   54.4264   26.2227 C   0  0  0  0  0  0
    6.4832   54.4980   24.8728 C   0  0  0  0  0  0
    4.3684   54.0981   28.4368 Br  0  0  0  0  0  0
    5.2035   55.1769   19.4080 H   0  0  0  0  0  0
    6.1475   56.0869   20.5719 H   0  0  0  0  0  0
    6.7038   54.5052   20.0469 H   0  0  0  0  0  0
    3.1173   53.6712   19.7752 H   0  0  0  0  0  0
    3.6303   51.1338   19.2002 H   0  0  0  0  0  0
   -0.0834   49.8576   21.6677 H   0  0  0  0  0  0
   -1.1537   47.7553   20.9449 H   0  0  0  0  0  0
    3.0388   49.2902   18.7023 H   0  0  0  0  0  0
    1.1026   45.0213   17.6465 H   0  0  0  0  0  0
    0.1898   46.3214   16.8429 H   0  0  0  0  0  0
    3.3874   54.0403   23.5332 H   0  0  0  0  0  0
    2.8059   53.9302   25.9098 H   0  0  0  0  0  0
    6.9116   54.5219   26.9816 H   0  0  0  0  0  0
    7.5075   54.6585   24.5752 H   0  0  0  0  0  0
  1  2  1  0  0  0
  1 27  1  0  0  0
  1 28  1  0  0  0
  1 29  1  0  0  0
  2  3  1  0  0  0
  2  4  1  0  0  0
  2 19  1  0  0  0
  4  5  2  0  0  0
  4  6  1  0  0  0
  6  7  1  0  0  0
  6 30  1  0  0  0
  7  8  1  0  0  0
  7 31  1  0  0  0
  8  9  2  0  0  0
  8 10  1  0  0  0
 10 15  2  0  0  0
 10 11  1  0  0  0
 11 12  2  0  0  0
 11 32  1  0  0  0
 12 13  1  0  0  0
 12 33  1  0  0  0
 13 18  1  0  0  0
 13 14  2  0  0  0
 14 15  1  0  0  0
 14 16  1  0  0  0
 15 34  1  0  0  0
 16 17  1  0  0  0
 17 18  1  0  0  0
 17 35  1  0  0  0
 17 36  1  0  0  0
 19 20  1  0  0  0
 20 25  2  0  0  0
 20 21  1  0  0  0
 21 22  2  0  0  0
 21 37  1  0  0  0
 22 23  1  0  0  0
 22 38  1  0  0  0
 23 24  2  0  0  0
 23 26  1  0  0  0
 24 25  1  0  0  0
 24 39  1  0  0  0
 25 40  1  0  0  0
M  END
> <i_i_glide_confnum>
6

> <i_i_glide_lignum>
2652

> <i_i_glide_posenum>
122

> <i_i_glide_rotatable_bonds>
7

> <i_m_Source_File_Index>
5956

> <b_m_subgroup_collapsed>
0

> <r_i_docking_score>
-5.3184

> <r_i_glide_ecoul>
-5.30546

> <r_i_glide_eff_state_penalty>
0

> <r_i_glide_einternal>
1.7249

> <r_i_glide_emodel>
-58.2588

> <r_i_glide_energy>
-43.4863

> <r_i_glide_erotb>
0.593088

> <r_i_glide_esite>
-0.067316

> <r_i_glide_evdw>
-38.1809

> <r_i_glide_gscore>
-5.3184

> <r_i_glide_hbond>
-0.159096

> <r_i_glide_ligand_efficiency>
-0.212736

> <r_i_glide_ligand_efficiency_ln>
-1.26062

> <r_i_glide_ligand_efficiency_sa>
-0.622044

> <r_i_glide_lipo>
-2.1338

> <r_i_glide_metal>
0

> <r_i_glide_rewards>
-0.846414

> <s_i_glide_gridfile>
wee1_glide-grid

> <s_m_Source_File>
wee1_decoys_glide_SP.sdf

> <s_m_Source_Path>
/Users/zhangxujun/Desktop

> <s_m_entry_id>
6231

> <s_m_entry_name>
wee1_decoys_glide_SP.5956

> <s_m_subgroup_title>
wee1_decoys_glide_SP

> <s_m_subgroupid>
wee1_decoys_glide_SP


$$$$
