ZINC39006685_910
                    3D
 Schrodinger Suite 2024-2.
 55 58  0  0  1  0            999 V2000
   -0.5884   50.9879   26.8933 C   0  0  0  0  0  0
    0.2350   51.4043   25.6799 C   0  0  0  0  0  0
    0.7728   52.5093   25.6726 O   0  0  0  0  0  0
    0.3305   50.4872   24.6980 N   0  0  0  0  0  0
    1.0466   50.5562   23.4884 C   0  0  0  0  0  0
    1.2923   49.3396   22.8545 C   0  0  0  0  0  0
    2.0344   49.2875   21.6760 C   0  0  0  0  0  0
    2.5286   50.4562   21.1083 C   0  0  0  0  0  0
    2.2685   51.6884   21.7130 C   0  0  0  0  0  0
    1.5165   51.7379   22.8918 C   0  0  0  0  0  0
    2.7044   52.8968   21.1595 N   0  0  0  0  0  0
    3.9454   53.0528   20.3928 C   0  0  2  0  0  0
    4.3433   52.0783   20.1075 H   0  0  0  0  0  0
    5.0567   53.7609   21.2493 C   0  0  0  0  0  0
    5.2369   53.3405   22.4428 N   0  0  0  0  0  0
    6.4653   54.1164   23.4475 S   0  0  0  0  0  0
    7.6574   53.2969   23.6821 O   0  0  0  0  0  0
    6.7043   55.5531   23.2724 O   0  0  0  0  0  0
    5.6267   54.0970   25.0473 C   0  0  0  0  0  0
    6.4115   54.1010   26.2059 C   0  0  0  0  0  0
    5.8141   54.1042   27.4623 C   0  0  0  0  0  0
    4.4258   54.1029   27.5637 C   0  0  0  0  0  0
    3.6341   54.1033   26.4168 C   0  0  0  0  0  0
    4.2305   54.1079   25.1571 C   0  0  0  0  0  0
    3.6835   54.1182   29.1226 Cl  0  0  0  0  0  0
    5.8023   54.7797   20.6419 N   0  0  0  0  0  0
    5.5049   55.2967   19.5059 C   0  0  0  0  0  0
    6.2014   56.4393   18.9647 C   0  0  0  0  0  0
    5.7961   57.0752   17.8411 C   0  0  0  0  0  0
    4.6152   56.6020   17.0917 C   0  0  0  0  0  0
    3.9562   55.4764   17.4879 C   0  0  0  0  0  0
    4.3436   54.7989   18.6463 C   0  0  0  0  0  0
    3.6843   53.7284   19.0741 N   0  3  0  0  0  0
    4.0851   57.2733   16.0313 O   0  0  0  0  0  0
    4.5461   58.5960   15.7522 C   0  0  0  0  0  0
    0.0714   50.6387   27.6882 H   0  0  0  0  0  0
   -1.2850   50.1814   26.6591 H   0  0  0  0  0  0
   -1.1627   51.8333   27.2730 H   0  0  0  0  0  0
   -0.0938   49.5928   24.8924 H   0  0  0  0  0  0
    0.9351   48.4236   23.2970 H   0  0  0  0  0  0
    2.2394   48.3388   21.2024 H   0  0  0  0  0  0
    3.0847   50.3861   20.1852 H   0  0  0  0  0  0
    1.3147   52.6987   23.3390 H   0  0  0  0  0  0
    2.2952   53.7498   21.5184 H   0  0  0  0  0  0
    7.4884   54.0985   26.1369 H   0  0  0  0  0  0
    6.4262   54.1129   28.3532 H   0  0  0  0  0  0
    2.5579   54.1035   26.5038 H   0  0  0  0  0  0
    3.5987   54.1190   24.2814 H   0  0  0  0  0  0
    7.0794   56.8099   19.4727 H   0  0  0  0  0  0
    6.3691   57.9211   17.4898 H   0  0  0  0  0  0
    3.0835   55.1460   16.9425 H   0  0  0  0  0  0
    3.9549   59.0199   14.9402 H   0  0  0  0  0  0
    4.4291   59.2614   16.6106 H   0  0  0  0  0  0
    5.5889   58.6067   15.4318 H   0  0  0  0  0  0
    2.8931   53.3965   18.5310 H   0  0  0  0  0  0
  1  2  1  0  0  0
  1 36  1  0  0  0
  1 37  1  0  0  0
  1 38  1  0  0  0
  2  3  2  0  0  0
  2  4  1  0  0  0
  4  5  1  0  0  0
  4 39  1  0  0  0
  5 10  2  0  0  0
  5  6  1  0  0  0
  6  7  2  0  0  0
  6 40  1  0  0  0
  7  8  1  0  0  0
  7 41  1  0  0  0
  8  9  2  0  0  0
  8 42  1  0  0  0
  9 10  1  0  0  0
  9 11  1  0  0  0
 10 43  1  0  0  0
 11 12  1  0  0  0
 11 44  1  0  0  0
 12 13  1  0  0  0
 12 33  1  0  0  0
 12 14  1  0  0  0
 14 15  2  0  0  0
 14 26  1  0  0  0
 15 16  1  0  0  0
 16 17  2  0  0  0
 16 18  2  0  0  0
 16 19  1  0  0  0
 19 24  2  0  0  0
 19 20  1  0  0  0
 20 21  2  0  0  0
 20 45  1  0  0  0
 21 22  1  0  0  0
 21 46  1  0  0  0
 22 23  2  0  0  0
 22 25  1  0  0  0
 23 24  1  0  0  0
 23 47  1  0  0  0
 24 48  1  0  0  0
 26 27  2  0  0  0
 27 32  1  0  0  0
 27 28  1  0  0  0
 28 29  2  0  0  0
 28 49  1  0  0  0
 29 30  1  0  0  0
 29 50  1  0  0  0
 30 31  2  0  0  0
 30 34  1  0  0  0
 31 32  1  0  0  0
 31 51  1  0  0  0
 32 33  2  0  0  0
 33 55  1  0  0  0
 34 35  1  0  0  0
 35 52  1  0  0  0
 35 53  1  0  0  0
 35 54  1  0  0  0
M  CHG  1  33   1
M  END
> <i_i_glide_confnum>
17

> <i_i_glide_lignum>
911

> <i_i_glide_posenum>
136

> <i_i_glide_rotatable_bonds>
7

> <i_m_Source_File_Index>
613

> <b_m_subgroup_collapsed>
0

> <r_i_docking_score>
-5.31239

> <r_i_glide_ecoul>
-3.73383

> <r_i_glide_eff_state_penalty>
0

> <r_i_glide_einternal>
11.4599

> <r_i_glide_emodel>
-60.4146

> <r_i_glide_energy>
-50.1176

> <r_i_glide_erotb>
0.327913

> <r_i_glide_esite>
-0.0535459

> <r_i_glide_evdw>
-46.3837

> <r_i_glide_gscore>
-5.31239

> <r_i_glide_hbond>
-0.0669219

> <r_i_glide_ligand_efficiency>
-0.156247

> <r_i_glide_ligand_efficiency_ln>
-1.17365

> <r_i_glide_ligand_efficiency_sa>
-0.506178

> <r_i_glide_lipo>
-2.57325

> <r_i_glide_metal>
0

> <r_i_glide_rewards>
-0.0673164

> <s_i_glide_gridfile>
wee1_glide-grid

> <s_m_Source_File>
wee1_decoys_glide_SP.sdf

> <s_m_Source_Path>
/Users/zhangxujun/Desktop

> <s_m_entry_id>
888

> <s_m_entry_name>
wee1_decoys_glide_SP.613

> <s_m_subgroup_title>
wee1_decoys_glide_SP

> <s_m_subgroupid>
wee1_decoys_glide_SP


$$$$
