ZINC06057116_1609
                    3D
 Schrodinger Suite 2024-2.
 32 33  0  0  1  0            999 V2000
    2.6760   53.7964   29.0397 C   0  0  0  0  0  0
    2.6133   54.1172   27.6800 C   0  0  0  0  0  0
    3.8559   54.0971   27.0485 C   0  0  0  0  0  0
    5.1240   53.6963   28.1776 S   0  0  0  0  0  0
    3.9696   53.5328   29.4617 C   0  0  0  0  0  0
    4.1187   54.3569   25.6372 C   0  0  0  0  0  0
    5.2665   54.1926   25.1070 N   0  0  0  0  0  0
    5.4753   54.4526   23.7441 C   0  0  0  0  0  0
    6.7043   54.9977   23.3676 C   0  0  0  0  0  0
    6.9865   55.2968   22.0382 C   0  0  0  0  0  0
    6.0340   55.0416   21.0498 C   0  0  0  0  0  0
    4.8342   54.4141   21.3928 C   0  0  0  0  0  0
    4.5723   54.0971   22.7241 C   0  0  0  0  0  0
    6.3914   55.4676   19.3373 S   0  0  0  0  0  0
    7.4294   54.4967   18.9829 O   0  0  0  0  0  0
    5.1034   55.3131   18.6486 O   0  0  0  0  0  0
    6.9527   57.1128   19.6305 N   0  0  0  0  0  0
    6.7044   57.9917   18.7560 C   0  0  0  0  0  0
    7.1988   59.2967   18.8816 N   0  0  0  0  0  0
    5.9493   57.8461   17.5746 N   0  0  0  0  0  0
    1.8087   53.7494   29.6824 H   0  0  0  0  0  0
    1.6864   54.3424   27.1729 H   0  0  0  0  0  0
    4.3035   53.2501   30.4488 H   0  0  0  0  0  0
    3.2415   54.6977   25.0921 H   0  0  0  0  0  0
    7.4477   55.2181   24.1199 H   0  0  0  0  0  0
    7.9417   55.7336   21.7824 H   0  0  0  0  0  0
    4.1024   54.1695   20.6351 H   0  0  0  0  0  0
    3.6403   53.6084   22.9657 H   0  0  0  0  0  0
    7.6164   59.5748   19.7534 H   0  0  0  0  0  0
    5.3755   57.0147   17.5118 H   0  0  0  0  0  0
    5.4378   58.6524   17.2444 H   0  0  0  0  0  0
    6.7045   60.0649   18.4269 H   0  0  0  0  0  0
  1  5  2  0  0  0
  1  2  1  0  0  0
  1 21  1  0  0  0
  2  3  2  0  0  0
  2 22  1  0  0  0
  3  4  1  0  0  0
  3  6  1  0  0  0
  4  5  1  0  0  0
  5 23  1  0  0  0
  6  7  2  0  0  0
  6 24  1  0  0  0
  7  8  1  0  0  0
  8 13  2  0  0  0
  8  9  1  0  0  0
  9 10  2  0  0  0
  9 25  1  0  0  0
 10 11  1  0  0  0
 10 26  1  0  0  0
 11 12  2  0  0  0
 11 14  1  0  0  0
 12 13  1  0  0  0
 12 27  1  0  0  0
 13 28  1  0  0  0
 14 15  2  0  0  0
 14 16  2  0  0  0
 14 17  1  0  0  0
 17 18  2  0  0  0
 18 19  1  0  0  0
 18 20  1  0  0  0
 19 29  1  0  0  0
 19 32  1  0  0  0
 20 30  1  0  0  0
 20 31  1  0  0  0
M  END
> <i_i_glide_confnum>
7

> <i_i_glide_lignum>
1610

> <i_i_glide_posenum>
58

> <i_i_glide_rotatable_bonds>
4

> <i_m_Source_File_Index>
4960

> <b_m_subgroup_collapsed>
0

> <r_i_docking_score>
-5.50507

> <r_i_glide_ecoul>
-4.62336

> <r_i_glide_eff_state_penalty>
0

> <r_i_glide_einternal>
7.29893

> <r_i_glide_emodel>
-49.2754

> <r_i_glide_energy>
-38.1923

> <r_i_glide_erotb>
0.778166

> <r_i_glide_esite>
-0.127004

> <r_i_glide_evdw>
-33.5689

> <r_i_glide_gscore>
-5.50507

> <r_i_glide_hbond>
-0.569665

> <r_i_glide_ligand_efficiency>
-0.275253

> <r_i_glide_ligand_efficiency_ln>
-1.37774

> <r_i_glide_ligand_efficiency_sa>
-0.747152

> <r_i_glide_lipo>
-2.07443

> <r_i_glide_metal>
0

> <r_i_glide_rewards>
-1.14018

> <s_i_glide_gridfile>
wee1_glide-grid

> <s_m_Source_File>
wee1_decoys_glide_SP.sdf

> <s_m_Source_Path>
/Users/zhangxujun/Desktop

> <s_m_entry_id>
5235

> <s_m_entry_name>
wee1_decoys_glide_SP.4960

> <s_m_subgroup_title>
wee1_decoys_glide_SP

> <s_m_subgroupid>
wee1_decoys_glide_SP


$$$$
