ZINC61888210_1612
                    3D
 Schrodinger Suite 2024-2.
 39 40  0  0  1  0            999 V2000
    6.1520   54.7171   26.7125 C   0  0  0  0  0  0
    4.7894   54.4832   26.8846 C   0  0  0  0  0  0
    3.9809   54.2438   25.7737 C   0  0  0  0  0  0
    4.5327   54.2446   24.4889 C   0  0  0  0  0  0
    5.8971   54.5130   24.3269 C   0  0  0  0  0  0
    6.7044   54.7316   25.4351 C   0  0  0  0  0  0
    3.6252   53.9632   23.2925 C   0  0  0  0  0  0
    4.5235   53.4012   21.7204 S   0  0  0  0  0  0
    5.5022   52.3688   22.0812 O   0  0  0  0  0  0
    4.9555   54.6099   21.0130 O   0  0  0  0  0  0
    3.2537   52.6597   20.7518 N   0  0  0  0  0  0
    2.9454   51.2133   20.8699 C   0  0  1  0  0  0
    3.9408   50.7938   21.0269 H   0  0  0  0  0  0
    2.1204   50.7960   22.0892 C   0  0  0  0  0  0
    1.6967   49.3682   21.7432 C   0  0  0  0  0  0
    1.4334   49.3702   20.2302 C   0  0  0  0  0  0
    2.3209   50.4975   19.6365 C   0  0  1  0  0  0
    3.1662   49.9772   19.1805 H   0  0  0  0  0  0
    1.6516   51.3803   18.5408 C   0  0  0  0  0  0
    0.6137   52.1056   18.7231 N   0  0  0  0  0  0
    0.0727   52.0943   20.0212 O   0  0  0  0  0  0
    2.3040   51.2966   17.3365 N   0  0  0  0  0  0
    6.7781   54.8887   27.5774 H   0  0  0  0  0  0
    4.3617   54.4744   27.8757 H   0  0  0  0  0  0
    2.9279   54.0482   25.9132 H   0  0  0  0  0  0
    6.3555   54.5404   23.3498 H   0  0  0  0  0  0
    7.7580   54.9001   25.2816 H   0  0  0  0  0  0
    3.0471   54.8491   23.0314 H   0  0  0  0  0  0
    2.9268   53.1689   23.5513 H   0  0  0  0  0  0
    2.4993   53.2787   20.4382 H   0  0  0  0  0  0
    2.7042   50.8068   23.0080 H   0  0  0  0  0  0
    1.2531   51.4389   22.2376 H   0  0  0  0  0  0
    2.5111   48.6784   21.9783 H   0  0  0  0  0  0
    0.8287   49.0431   22.3182 H   0  0  0  0  0  0
    0.3676   49.5364   20.0643 H   0  0  0  0  0  0
    1.6871   48.3948   19.8108 H   0  0  0  0  0  0
    0.6691   51.4970   20.4827 H   0  0  0  0  0  0
    1.9788   51.8304   16.5473 H   0  0  0  0  0  0
    3.0800   50.6476   17.2057 H   0  0  0  0  0  0
  1  6  2  0  0  0
  1  2  1  0  0  0
  1 23  1  0  0  0
  2  3  2  0  0  0
  2 24  1  0  0  0
  3  4  1  0  0  0
  3 25  1  0  0  0
  4  5  2  0  0  0
  4  7  1  0  0  0
  5  6  1  0  0  0
  5 26  1  0  0  0
  6 27  1  0  0  0
  7  8  1  0  0  0
  7 28  1  0  0  0
  7 29  1  0  0  0
  8  9  2  0  0  0
  8 10  2  0  0  0
  8 11  1  0  0  0
 11 12  1  0  0  0
 11 30  1  0  0  0
 12 13  1  0  0  0
 12 17  1  0  0  0
 12 14  1  0  0  0
 14 15  1  0  0  0
 14 31  1  0  0  0
 14 32  1  0  0  0
 15 16  1  0  0  0
 15 33  1  0  0  0
 15 34  1  0  0  0
 16 17  1  0  0  0
 16 35  1  0  0  0
 16 36  1  0  0  0
 17 18  1  0  0  0
 17 19  1  0  0  0
 19 20  2  0  0  0
 19 22  1  0  0  0
 20 21  1  0  0  0
 21 37  1  0  0  0
 22 38  1  0  0  0
 22 39  1  0  0  0
M  END
> <i_i_glide_confnum>
19

> <i_i_glide_lignum>
1613

> <i_i_glide_posenum>
131

> <i_i_glide_rotatable_bonds>
6

> <i_m_Source_File_Index>
4538

> <b_m_subgroup_collapsed>
0

> <r_i_docking_score>
-5.53725

> <r_i_glide_ecoul>
-4.99555

> <r_i_glide_eff_state_penalty>
0

> <r_i_glide_einternal>
12.5524

> <r_i_glide_emodel>
-42.8052

> <r_i_glide_energy>
-36.192

> <r_i_glide_erotb>
1.03665

> <r_i_glide_esite>
-0.173351

> <r_i_glide_evdw>
-31.1964

> <r_i_glide_gscore>
-5.53725

> <r_i_glide_hbond>
-0.286136

> <r_i_glide_ligand_efficiency>
-0.276863

> <r_i_glide_ligand_efficiency_ln>
-1.38579

> <r_i_glide_ligand_efficiency_sa>
-0.751521

> <r_i_glide_lipo>
-2.09854

> <r_i_glide_metal>
0

> <r_i_glide_rewards>
-1.70673

> <s_i_glide_gridfile>
wee1_glide-grid

> <s_m_Source_File>
wee1_decoys_glide_SP.sdf

> <s_m_Source_Path>
/Users/zhangxujun/Desktop

> <s_m_entry_id>
4813

> <s_m_entry_name>
wee1_decoys_glide_SP.4538

> <s_m_subgroup_title>
wee1_decoys_glide_SP

> <s_m_subgroupid>
wee1_decoys_glide_SP


$$$$
