ZINC52010982_1805
                    3D
 Schrodinger Suite 2024-2.
 43 45  0  0  1  0            999 V2000
    5.6441   54.4974   26.8808 C   0  0  0  0  0  0
    6.2635   54.4900   25.6339 C   0  0  0  0  0  0
    5.5087   54.3179   24.4718 C   0  0  0  0  0  0
    4.1169   54.0989   24.5498 C   0  0  0  0  0  0
    3.5111   54.1522   25.8052 C   0  0  0  0  0  0
    4.2588   54.3424   26.9678 C   0  0  0  0  0  0
    3.4384   54.3723   28.5569 S   0  0  0  0  0  0
    4.4182   54.8441   29.5387 O   0  0  0  0  0  0
    2.1642   55.0753   28.3711 O   0  0  0  0  0  0
    3.1209   52.6789   28.9428 N   0  0  0  0  0  0
    1.7821   52.0279   28.8601 C   0  0  2  0  0  0
    1.9096   50.9636   29.0684 H   0  0  0  0  0  0
    1.2223   52.0982   27.4214 C   0  0  0  0  0  0
   -0.0760   51.2961   27.3116 C   0  0  0  0  0  0
   -1.0913   51.8809   28.2952 C   0  0  0  0  0  0
   -0.5699   51.9256   29.7506 C   0  0  0  0  0  0
    0.8056   52.6028   29.9183 C   0  0  1  0  0  0
    0.6710   53.6680   29.7336 H   0  0  0  0  0  0
    1.2606   52.4396   31.2534 O   0  0  0  0  0  0
    3.2891   53.7847   23.3099 C   0  0  0  0  0  0
    4.0237   54.2132   22.0361 C   0  0  0  0  0  0
    5.5021   53.7910   22.0508 C   0  0  0  0  0  0
    6.1866   54.3088   23.2384 N   0  0  0  0  0  0
    6.2406   54.6371   27.7725 H   0  0  0  0  0  0
    7.3325   54.6150   25.5692 H   0  0  0  0  0  0
    2.4422   54.0326   25.8651 H   0  0  0  0  0  0
    3.7240   52.3072   29.6801 H   0  0  0  0  0  0
    1.0109   53.1299   27.1455 H   0  0  0  0  0  0
    1.9110   51.7052   26.6884 H   0  0  0  0  0  0
    0.0920   50.2392   27.5203 H   0  0  0  0  0  0
   -0.4691   51.3506   26.2955 H   0  0  0  0  0  0
   -2.0301   51.3269   28.2477 H   0  0  0  0  0  0
   -1.2948   52.8950   27.9546 H   0  0  0  0  0  0
   -0.4981   50.8967   30.0813 H   0  0  0  0  0  0
   -1.2955   52.3924   30.4094 H   0  0  0  0  0  0
    0.5009   52.4973   31.8452 H   0  0  0  0  0  0
    2.3100   54.2640   23.3623 H   0  0  0  0  0  0
    3.1042   52.7108   23.2748 H   0  0  0  0  0  0
    3.5224   53.8097   21.1542 H   0  0  0  0  0  0
    3.9631   55.2966   21.9409 H   0  0  0  0  0  0
    5.5707   52.7050   22.1297 H   0  0  0  0  0  0
    6.0203   54.0970   21.1417 H   0  0  0  0  0  0
    7.1910   54.2011   23.2346 H   0  0  0  0  0  0
  1  6  2  0  0  0
  1  2  1  0  0  0
  1 24  1  0  0  0
  2  3  2  0  0  0
  2 25  1  0  0  0
  3 23  1  0  0  0
  3  4  1  0  0  0
  4  5  2  0  0  0
  4 20  1  0  0  0
  5  6  1  0  0  0
  5 26  1  0  0  0
  6  7  1  0  0  0
  7  8  2  0  0  0
  7  9  2  0  0  0
  7 10  1  0  0  0
 10 11  1  0  0  0
 10 27  1  0  0  0
 11 12  1  0  0  0
 11 17  1  0  0  0
 11 13  1  0  0  0
 13 14  1  0  0  0
 13 28  1  0  0  0
 13 29  1  0  0  0
 14 15  1  0  0  0
 14 30  1  0  0  0
 14 31  1  0  0  0
 15 16  1  0  0  0
 15 32  1  0  0  0
 15 33  1  0  0  0
 16 17  1  0  0  0
 16 34  1  0  0  0
 16 35  1  0  0  0
 17 18  1  0  0  0
 17 19  1  0  0  0
 19 36  1  0  0  0
 20 21  1  0  0  0
 20 37  1  0  0  0
 20 38  1  0  0  0
 21 22  1  0  0  0
 21 39  1  0  0  0
 21 40  1  0  0  0
 22 23  1  0  0  0
 22 41  1  0  0  0
 22 42  1  0  0  0
 23 43  1  0  0  0
M  END
> <i_i_glide_confnum>
78

> <i_i_glide_lignum>
1806

> <i_i_glide_posenum>
29

> <i_i_glide_rotatable_bonds>
4

> <i_m_Source_File_Index>
5556

> <b_m_subgroup_collapsed>
0

> <r_i_docking_score>
-5.89203

> <r_i_glide_ecoul>
-2.93372

> <r_i_glide_eff_state_penalty>
0

> <r_i_glide_einternal>
10.6718

> <r_i_glide_emodel>
-48.361

> <r_i_glide_energy>
-39.49

> <r_i_glide_erotb>
0.576935

> <r_i_glide_esite>
0

> <r_i_glide_evdw>
-36.5563

> <r_i_glide_gscore>
-5.89203

> <r_i_glide_hbond>
0

> <r_i_glide_ligand_efficiency>
-0.280573

> <r_i_glide_ligand_efficiency_ln>
-1.45679

> <r_i_glide_ligand_efficiency_sa>
-0.774079

> <r_i_glide_lipo>
-2.58019

> <r_i_glide_metal>
0

> <r_i_glide_rewards>
-1.6209

> <s_i_glide_gridfile>
wee1_glide-grid

> <s_m_Source_File>
wee1_decoys_glide_SP.sdf

> <s_m_Source_Path>
/Users/zhangxujun/Desktop

> <s_m_entry_id>
5831

> <s_m_entry_name>
wee1_decoys_glide_SP.5556

> <s_m_subgroup_title>
wee1_decoys_glide_SP

> <s_m_subgroupid>
wee1_decoys_glide_SP


$$$$
