ZINC13124156_2170
                    3D
 Schrodinger Suite 2024-2.
 49 52  0  0  1  0            999 V2000
    5.0786   54.9945   16.0407 C   0  0  0  0  0  0
    5.5903   54.8299   14.7558 C   0  0  0  0  0  0
    6.7818   54.1337   14.5690 C   0  0  0  0  0  0
    7.4684   53.6001   15.6563 C   0  0  0  0  0  0
    6.9604   53.7661   16.9419 C   0  0  0  0  0  0
    5.7648   54.4681   17.1396 C   0  0  0  0  0  0
    5.1907   54.6318   18.5446 C   0  0  1  0  0  0
    4.4143   55.3952   18.4623 H   0  0  0  0  0  0
    4.5350   53.3144   19.0277 C   0  0  0  0  0  0
    3.9454   53.4079   20.4536 C   0  0  2  0  0  0
    3.1052   54.0970   20.4176 H   0  0  0  0  0  0
    4.9908   54.0218   21.2892 N   0  0  0  0  0  0
    5.9699   54.8965   20.8565 C   0  0  0  0  0  0
    6.6610   55.2730   21.9923 C   0  0  0  0  0  0
    6.0334   54.6198   23.0661 C   0  0  0  0  0  0
    5.0077   53.9122   22.6272 N   0  0  0  0  0  0
    6.4026   54.7695   24.4544 C   0  0  0  0  0  0
    7.1042   55.6967   24.8574 O   0  0  0  0  0  0
    5.9437   53.8027   25.2598 N   0  0  0  0  0  0
    6.2157   53.7108   26.6871 C   0  0  0  0  0  0
    5.3628   54.6739   27.5320 C   0  0  2  0  0  0
    5.6457   55.6967   27.2925 H   0  0  0  0  0  0
    5.4303   54.3981   29.0198 C   0  0  0  0  0  0
    4.3367   53.3810   29.2868 C   0  0  0  0  0  0
    3.4202   53.4752   28.0650 C   0  0  0  0  0  0
    3.9705   54.5147   27.2564 O   0  0  0  0  0  0
    6.1645   55.1541   19.5146 N   0  0  0  0  0  0
    3.3608   52.0766   20.9836 C   0  0  0  0  0  0
    2.5129   51.5365   20.1085 F   0  0  0  0  0  0
    4.3195   51.1826   21.2059 F   0  0  0  0  0  0
    2.6869   52.2436   22.1226 F   0  0  0  0  0  0
    7.2739   53.9725   13.3205 F   0  0  0  0  0  0
    4.1513   55.5311   16.1775 H   0  0  0  0  0  0
    5.0652   55.2376   13.9055 H   0  0  0  0  0  0
    8.3887   53.0570   15.5012 H   0  0  0  0  0  0
    7.4892   53.3426   17.7840 H   0  0  0  0  0  0
    5.2577   52.4970   18.9851 H   0  0  0  0  0  0
    3.7551   53.0088   18.3278 H   0  0  0  0  0  0
    7.5246   55.9208   22.0484 H   0  0  0  0  0  0
    5.3443   53.0930   24.8655 H   0  0  0  0  0  0
    7.2750   53.8966   26.8769 H   0  0  0  0  0  0
    6.0391   52.6875   27.0156 H   0  0  0  0  0  0
    5.2560   55.3171   29.5792 H   0  0  0  0  0  0
    6.4408   54.0871   29.2815 H   0  0  0  0  0  0
    3.8052   53.5990   30.2132 H   0  0  0  0  0  0
    4.7530   52.3755   29.3726 H   0  0  0  0  0  0
    2.3914   53.7156   28.3356 H   0  0  0  0  0  0
    3.4109   52.5397   27.5038 H   0  0  0  0  0  0
    6.5305   56.0502   19.2287 H   0  0  0  0  0  0
  1  6  2  0  0  0
  1  2  1  0  0  0
  1 33  1  0  0  0
  2  3  2  0  0  0
  2 34  1  0  0  0
  3  4  1  0  0  0
  3 32  1  0  0  0
  4  5  2  0  0  0
  4 35  1  0  0  0
  5  6  1  0  0  0
  5 36  1  0  0  0
  6  7  1  0  0  0
  7  8  1  0  0  0
  7 27  1  0  0  0
  7  9  1  0  0  0
  9 10  1  0  0  0
  9 37  1  0  0  0
  9 38  1  0  0  0
 10 11  1  0  0  0
 10 12  1  0  0  0
 10 28  1  0  0  0
 12 16  1  0  0  0
 12 13  1  0  0  0
 13 14  2  0  0  0
 13 27  1  0  0  0
 14 15  1  0  0  0
 14 39  1  0  0  0
 15 16  2  0  0  0
 15 17  1  0  0  0
 17 18  2  0  0  0
 17 19  1  0  0  0
 19 20  1  0  0  0
 19 40  1  0  0  0
 20 21  1  0  0  0
 20 41  1  0  0  0
 20 42  1  0  0  0
 21 22  1  0  0  0
 21 26  1  0  0  0
 21 23  1  0  0  0
 23 24  1  0  0  0
 23 43  1  0  0  0
 23 44  1  0  0  0
 24 25  1  0  0  0
 24 45  1  0  0  0
 24 46  1  0  0  0
 25 26  1  0  0  0
 25 47  1  0  0  0
 25 48  1  0  0  0
 27 49  1  0  0  0
 28 29  1  0  0  0
 28 30  1  0  0  0
 28 31  1  0  0  0
M  END
> <i_i_glide_confnum>
52

> <i_i_glide_lignum>
2171

> <i_i_glide_posenum>
241

> <i_i_glide_rotatable_bonds>
6

> <i_m_Source_File_Index>
934

> <b_m_subgroup_collapsed>
0

> <r_i_docking_score>
-5.19051

> <r_i_glide_ecoul>
-4.85855

> <r_i_glide_eff_state_penalty>
0

> <r_i_glide_einternal>
2.53654

> <r_i_glide_emodel>
-47.3768

> <r_i_glide_energy>
-36.3712

> <r_i_glide_erotb>
0.463803

> <r_i_glide_esite>
-0.0362356

> <r_i_glide_evdw>
-31.5126

> <r_i_glide_gscore>
-5.19051

> <r_i_glide_hbond>
-0.32

> <r_i_glide_ligand_efficiency>
-0.178983

> <r_i_glide_ligand_efficiency_ln>
-1.1885

> <r_i_glide_ligand_efficiency_sa>
-0.549893

> <r_i_glide_lipo>
-1.67546

> <r_i_glide_metal>
0

> <r_i_glide_rewards>
-1.31821

> <s_i_glide_gridfile>
wee1_glide-grid

> <s_m_Source_File>
wee1_decoys_glide_SP.sdf

> <s_m_Source_Path>
/Users/zhangxujun/Desktop

> <s_m_entry_id>
1209

> <s_m_entry_name>
wee1_decoys_glide_SP.934

> <s_m_subgroup_title>
wee1_decoys_glide_SP

> <s_m_subgroupid>
wee1_decoys_glide_SP


$$$$
