ZINC09635818_2408
                    3D
 Schrodinger Suite 2024-2.
 54 57  0  0  1  0            999 V2000
    5.8527   54.2407   23.5665 C   0  0  0  0  0  0
    6.7043   54.4139   24.6529 C   0  0  0  0  0  0
    6.1899   54.4378   25.9463 C   0  0  0  0  0  0
    4.8169   54.2815   26.1507 C   0  0  0  0  0  0
    3.9617   54.1236   25.0508 C   0  0  0  0  0  0
    4.4810   54.0967   23.7597 C   0  0  0  0  0  0
    4.2769   54.2747   27.5774 C   0  0  0  0  0  0
    3.1392   53.4298   27.6643 O   0  0  0  0  0  0
    2.3449   53.3982   28.7574 C   0  0  0  0  0  0
    2.5778   54.0556   29.7784 O   0  0  0  0  0  0
    1.2375   52.5485   28.5633 N   0  0  0  0  0  0
    0.3452   52.3333   29.7165 C   0  0  0  0  0  0
   -0.9664   51.6967   29.2615 C   0  0  0  0  0  0
   -1.3463   51.4534   27.9840 C   0  0  0  0  0  0
   -0.3725   51.7650   26.8416 C   0  0  1  0  0  0
   -0.6076   52.7769   26.5148 H   0  0  0  0  0  0
    1.0945   51.7217   27.3440 C   0  0  0  0  0  0
   -0.6004   50.7600   25.6698 C   0  0  1  0  0  0
   -0.3426   49.7868   26.0980 H   0  0  0  0  0  0
   -2.0940   50.6352   25.2197 C   0  0  0  0  0  0
   -3.0407   50.5397   26.4278 C   0  0  0  0  0  0
   -2.6805   50.9245   27.6744 C   0  0  0  0  0  0
   -3.6726   50.8725   28.7104 C   0  0  0  0  0  0
   -4.5095   50.8906   29.5108 N   0  0  0  0  0  0
   -4.3153   50.1019   26.1306 N   0  0  0  0  0  0
   -2.5324   51.7924   24.4151 C   0  0  0  0  0  0
   -2.8829   52.6974   23.7833 N   0  0  0  0  0  0
   -2.2269   49.4274   24.3755 C   0  0  0  0  0  0
   -2.3316   48.4834   23.7121 N   0  0  0  0  0  0
    0.3655   50.9362   24.4755 C   0  0  0  0  0  0
    1.0384   49.8172   23.9657 C   0  0  0  0  0  0
    1.8883   49.9303   22.8645 C   0  0  0  0  0  0
    2.0706   51.1650   22.2464 C   0  0  0  0  0  0
    1.4156   52.2892   22.7432 C   0  0  0  0  0  0
    0.5736   52.1795   23.8510 C   0  0  0  0  0  0
   -0.0354   53.2968   24.3036 F   0  0  0  0  0  0
    6.2590   54.2216   22.5653 H   0  0  0  0  0  0
    7.7656   54.5072   24.4841 H   0  0  0  0  0  0
    6.8562   54.5558   26.7884 H   0  0  0  0  0  0
    2.8959   54.0111   25.1897 H   0  0  0  0  0  0
    3.8259   53.9703   22.9096 H   0  0  0  0  0  0
    4.0218   55.2941   27.8693 H   0  0  0  0  0  0
    5.0444   53.9141   28.2640 H   0  0  0  0  0  0
    0.1254   53.2706   30.2304 H   0  0  0  0  0  0
    0.8357   51.6969   30.4530 H   0  0  0  0  0  0
   -1.6528   51.4419   30.0566 H   0  0  0  0  0  0
    1.4597   50.7145   27.5448 H   0  0  0  0  0  0
    1.6956   52.1035   26.5189 H   0  0  0  0  0  0
   -4.5743   49.8165   25.1977 H   0  0  0  0  0  0
   -4.9999   49.9758   26.8633 H   0  0  0  0  0  0
    0.9071   48.8469   24.4227 H   0  0  0  0  0  0
    2.3977   49.0546   22.4866 H   0  0  0  0  0  0
    2.7174   51.2468   21.3849 H   0  0  0  0  0  0
    1.5520   53.2473   22.2616 H   0  0  0  0  0  0
  1  6  2  0  0  0
  1  2  1  0  0  0
  1 37  1  0  0  0
  2  3  2  0  0  0
  2 38  1  0  0  0
  3  4  1  0  0  0
  3 39  1  0  0  0
  4  5  2  0  0  0
  4  7  1  0  0  0
  5  6  1  0  0  0
  5 40  1  0  0  0
  6 41  1  0  0  0
  7  8  1  0  0  0
  7 42  1  0  0  0
  7 43  1  0  0  0
  8  9  1  0  0  0
  9 10  2  0  0  0
  9 11  1  0  0  0
 11 17  1  0  0  0
 11 12  1  0  0  0
 12 13  1  0  0  0
 12 44  1  0  0  0
 12 45  1  0  0  0
 13 14  2  0  0  0
 13 46  1  0  0  0
 14 22  1  0  0  0
 14 15  1  0  0  0
 15 16  1  0  0  0
 15 17  1  0  0  0
 15 18  1  0  0  0
 17 47  1  0  0  0
 17 48  1  0  0  0
 18 19  1  0  0  0
 18 20  1  0  0  0
 18 30  1  0  0  0
 20 21  1  0  0  0
 20 26  1  0  0  0
 20 28  1  0  0  0
 21 22  2  0  0  0
 21 25  1  0  0  0
 22 23  1  0  0  0
 23 24  3  0  0  0
 25 49  1  0  0  0
 25 50  1  0  0  0
 26 27  3  0  0  0
 28 29  3  0  0  0
 30 35  2  0  0  0
 30 31  1  0  0  0
 31 32  2  0  0  0
 31 51  1  0  0  0
 32 33  1  0  0  0
 32 52  1  0  0  0
 33 34  2  0  0  0
 33 53  1  0  0  0
 34 35  1  0  0  0
 34 54  1  0  0  0
 35 36  1  0  0  0
M  END
> <i_i_glide_confnum>
12

> <i_i_glide_lignum>
2409

> <i_i_glide_posenum>
280

> <i_i_glide_rotatable_bonds>
8

> <i_m_Source_File_Index>
2686

> <b_m_subgroup_collapsed>
0

> <r_i_docking_score>
-6.46033

> <r_i_glide_ecoul>
-6.04355

> <r_i_glide_eff_state_penalty>
0

> <r_i_glide_einternal>
9.49734

> <r_i_glide_emodel>
-64.865

> <r_i_glide_energy>
-49.8072

> <r_i_glide_erotb>
0.39047

> <r_i_glide_esite>
-0.127997

> <r_i_glide_evdw>
-43.7636

> <r_i_glide_gscore>
-6.46033

> <r_i_glide_hbond>
-0.24956

> <r_i_glide_ligand_efficiency>
-0.19001

> <r_i_glide_ligand_efficiency_ln>
-1.42727

> <r_i_glide_ligand_efficiency_sa>
-0.615557

> <r_i_glide_lipo>
-2.3843

> <r_i_glide_metal>
0

> <r_i_glide_rewards>
-0.99423

> <s_i_glide_gridfile>
wee1_glide-grid

> <s_m_Source_File>
wee1_decoys_glide_SP.sdf

> <s_m_Source_Path>
/Users/zhangxujun/Desktop

> <s_m_entry_id>
2961

> <s_m_entry_name>
wee1_decoys_glide_SP.2686

> <s_m_subgroup_title>
wee1_decoys_glide_SP

> <s_m_subgroupid>
wee1_decoys_glide_SP


$$$$
