ZINC48503243_3589
                    3D
 Schrodinger Suite 2024-2.
 49 52  0  0  1  0            999 V2000
    1.4295   53.1069   22.2044 C   0  0  0  0  0  0
    2.5190   53.3378   23.1251 N   0  0  0  0  0  0
    3.6084   54.0495   22.8019 C   0  0  0  0  0  0
    3.8485   54.4943   21.6806 O   0  0  0  0  0  0
    4.5800   54.2431   23.9202 C   0  0  0  0  0  0
    5.9488   54.1584   23.6565 C   0  0  0  0  0  0
    6.8605   54.2660   24.6965 C   0  0  0  0  0  0
    6.4186   54.4713   25.9995 C   0  0  0  0  0  0
    5.0645   54.5956   26.2699 C   0  0  0  0  0  0
    4.1393   54.4976   25.2267 C   0  0  0  0  0  0
    4.6975   54.7314   27.6182 N   0  0  0  0  0  0
    3.8990   53.9248   28.3267 C   0  0  0  0  0  0
    3.7925   54.0522   29.5461 O   0  0  0  0  0  0
    3.1900   53.0473   27.5969 N   0  0  0  0  0  0
    1.7791   52.7473   27.7621 C   0  0  0  0  0  0
    1.6184   51.5662   28.7686 C   0  0  0  0  0  0
    0.1270   51.2397   28.9459 C   0  0  2  0  0  0
   -0.4204   50.7670   27.5725 C   0  0  0  0  0  0
   -0.3660   51.9273   26.5703 C   0  0  2  0  0  0
    1.0989   52.4189   26.3902 C   0  0  0  0  0  0
   -1.2530   53.0051   27.2142 C   0  0  0  0  0  0
   -0.4956   53.5859   28.4761 C   0  0  1  0  0  0
   -0.5971   52.4665   29.5122 C   0  0  0  0  0  0
    0.9681   53.9643   28.2732 C   0  0  0  0  0  0
    7.5230   54.4967   27.3090 Cl  0  0  0  0  0  0
    0.5987   52.6023   22.6981 H   0  0  0  0  0  0
    1.7489   52.5218   21.3405 H   0  0  0  0  0  0
    1.1044   54.0858   21.8716 H   0  0  0  0  0  0
    2.4557   52.9184   24.0392 H   0  0  0  0  0  0
    6.3118   53.9745   22.6542 H   0  0  0  0  0  0
    7.9045   54.1428   24.4817 H   0  0  0  0  0  0
    3.0854   54.6008   25.4397 H   0  0  0  0  0  0
    5.2964   55.3260   28.1726 H   0  0  0  0  0  0
    3.6078   52.7214   26.7389 H   0  0  0  0  0  0
    2.1582   50.6858   28.4176 H   0  0  0  0  0  0
    2.0579   51.8241   29.7335 H   0  0  0  0  0  0
   -0.0955   50.4967   29.6815 H   0  0  0  0  0  0
    0.1243   49.8992   27.1989 H   0  0  0  0  0  0
   -1.4597   50.4606   27.6818 H   0  0  0  0  0  0
   -0.7868   51.6142   25.6137 H   0  0  0  0  0  0
    1.0966   53.3013   25.7488 H   0  0  0  0  0  0
    1.6693   51.6967   25.8268 H   0  0  0  0  0  0
   -1.6957   53.6967   26.5091 H   0  0  0  0  0  0
   -2.1756   52.4967   27.5137 H   0  0  0  0  0  0
   -0.8957   54.4946   28.8947 H   0  0  0  0  0  0
   -1.6374   52.1939   29.6817 H   0  0  0  0  0  0
   -0.1838   52.7659   30.4774 H   0  0  0  0  0  0
    1.3443   54.3146   29.2351 H   0  0  0  0  0  0
    1.0737   54.8176   27.6031 H   0  0  0  0  0  0
  1  2  1  0  0  0
  1 26  1  0  0  0
  1 27  1  0  0  0
  1 28  1  0  0  0
  2  3  1  0  0  0
  2 29  1  0  0  0
  3  4  2  0  0  0
  3  5  1  0  0  0
  5 10  2  0  0  0
  5  6  1  0  0  0
  6  7  2  0  0  0
  6 30  1  0  0  0
  7  8  1  0  0  0
  7 31  1  0  0  0
  8  9  2  0  0  0
  8 25  1  0  0  0
  9 10  1  0  0  0
  9 11  1  0  0  0
 10 32  1  0  0  0
 11 12  1  0  0  0
 11 33  1  0  0  0
 12 13  2  0  0  0
 12 14  1  0  0  0
 14 15  1  0  0  0
 14 34  1  0  0  0
 15 20  1  0  0  0
 15 24  1  0  0  0
 15 16  1  0  0  0
 16 17  1  0  0  0
 16 35  1  0  0  0
 16 36  1  0  0  0
 17 23  1  0  0  0
 17 18  1  0  0  0
 17 37  1  0  0  0
 18 19  1  0  0  0
 18 38  1  0  0  0
 18 39  1  0  0  0
 19 20  1  0  0  0
 19 21  1  0  0  0
 19 40  1  0  0  0
 20 41  1  0  0  0
 20 42  1  0  0  0
 21 22  1  0  0  0
 21 43  1  0  0  0
 21 44  1  0  0  0
 22 23  1  0  0  0
 22 24  1  0  0  0
 22 45  1  0  0  0
 23 46  1  0  0  0
 23 47  1  0  0  0
 24 48  1  0  0  0
 24 49  1  0  0  0
M  END
> <i_i_glide_confnum>
9

> <i_i_glide_lignum>
3590

> <i_i_glide_posenum>
378

> <i_i_glide_rotatable_bonds>
6

> <i_m_Source_File_Index>
4371

> <b_m_subgroup_collapsed>
0

> <r_i_docking_score>
-3.18377

> <r_i_glide_ecoul>
-2.43799

> <r_i_glide_eff_state_penalty>
0

> <r_i_glide_einternal>
1.30529

> <r_i_glide_emodel>
-25.5902

> <r_i_glide_energy>
-23.5251

> <r_i_glide_erotb>
0.586359

> <r_i_glide_esite>
0

> <r_i_glide_evdw>
-21.0871

> <r_i_glide_gscore>
-3.18377

> <r_i_glide_hbond>
-0.0124413

> <r_i_glide_ligand_efficiency>
-0.127351

> <r_i_glide_ligand_efficiency_ln>
-0.754648

> <r_i_glide_ligand_efficiency_sa>
-0.372376

> <r_i_glide_lipo>
-2.22095

> <r_i_glide_metal>
0

> <r_i_glide_rewards>
-0.116679

> <s_i_glide_gridfile>
wee1_glide-grid

> <s_m_Source_File>
wee1_decoys_glide_SP.sdf

> <s_m_Source_Path>
/Users/zhangxujun/Desktop

> <s_m_entry_id>
4646

> <s_m_entry_name>
wee1_decoys_glide_SP.4371

> <s_m_subgroup_title>
wee1_decoys_glide_SP

> <s_m_subgroupid>
wee1_decoys_glide_SP


$$$$
