ZINC40875872_5561
                    3D
 Schrodinger Suite 2024-2.
 75 79  0  0  1  0            999 V2000
    5.0389   53.9026   17.5360 C   0  0  0  0  0  0
    6.0833   54.9377   17.9917 C   0  0  0  0  0  0
    6.2461   55.0272   19.4963 C   0  0  0  0  0  0
    5.5028   54.4979   20.4303 N   0  0  0  0  0  0
    6.1191   54.8804   21.5328 C   0  0  0  0  0  0
    7.1828   55.6414   21.3619 N   0  0  0  0  0  0
    7.2840   55.7526   19.9782 O   0  0  0  0  0  0
    5.6193   54.4973   22.8960 C   0  0  0  0  0  0
    6.4599   54.5791   24.0104 C   0  0  0  0  0  0
    5.9584   54.4163   25.2977 C   0  0  0  0  0  0
    4.5929   54.1726   25.5190 C   0  0  0  0  0  0
    3.7545   54.0748   24.3911 C   0  0  0  0  0  0
    4.2701   54.1938   23.1003 C   0  0  0  0  0  0
    2.4174   53.9132   24.5181 F   0  0  0  0  0  0
    4.0702   54.1279   26.8138 N   0  0  0  0  0  0
    4.8609   54.5237   27.9973 C   0  0  0  0  0  0
    3.9729   54.9217   29.1983 C   0  0  0  0  0  0
    2.9149   53.8693   29.5694 C   0  0  0  0  0  0
    2.1876   53.4464   28.2697 C   0  0  1  0  0  0
    1.6410   54.3134   27.9011 H   0  0  0  0  0  0
    3.2397   52.9856   27.2279 C   0  0  0  0  0  0
    1.0290   52.4302   28.4973 C   0  0  0  0  0  0
    0.8189   52.0940   29.6644 O   0  0  0  0  0  0
    0.3442   51.8582   27.4582 N   0  0  0  0  0  0
   -0.4989   50.6727   27.7341 C   0  0  0  0  0  0
   -1.9300   50.9147   27.2243 C   0  0  0  0  0  0
   -2.0564   51.3020   25.7205 C   0  0  0  0  0  0
   -1.0873   52.4958   25.5053 C   0  0  0  0  0  0
    0.3515   52.4178   26.0910 C   0  0  0  0  0  0
   -3.4901   51.7775   25.3169 C   0  0  0  0  0  0
   -3.7158   52.1301   24.1615 O   0  0  0  0  0  0
   -4.4729   51.7851   26.2186 N   0  0  0  0  0  0
   -1.7172   50.1123   24.7419 N   0  3  0  0  0  0
   -0.2350   49.8575   24.3553 C   0  0  0  0  0  0
   -0.1680   48.7926   23.2472 C   0  0  0  0  0  0
   -0.8950   47.4944   23.6245 C   0  0  0  0  0  0
   -2.3370   47.7695   24.0628 C   0  0  0  0  0  0
   -2.3722   48.7818   25.2130 C   0  0  0  0  0  0
    4.9716   53.8634   16.4471 H   0  0  0  0  0  0
    5.2932   52.8993   17.8844 H   0  0  0  0  0  0
    4.0449   54.1411   17.9222 H   0  0  0  0  0  0
    5.8161   55.9173   17.5911 H   0  0  0  0  0  0
    7.0421   54.6809   17.5381 H   0  0  0  0  0  0
    7.5041   54.8139   23.8809 H   0  0  0  0  0  0
    6.6495   54.4978   26.1215 H   0  0  0  0  0  0
    3.5887   54.1438   22.2630 H   0  0  0  0  0  0
    5.4714   55.3899   27.7452 H   0  0  0  0  0  0
    5.5556   53.7266   28.2686 H   0  0  0  0  0  0
    3.4930   55.8789   29.0014 H   0  0  0  0  0  0
    4.6303   55.1029   30.0456 H   0  0  0  0  0  0
    2.2326   54.3345   30.2812 H   0  0  0  0  0  0
    3.4523   53.0286   30.0136 H   0  0  0  0  0  0
    3.8947   52.2389   27.6813 H   0  0  0  0  0  0
    2.7944   52.4965   26.3718 H   0  0  0  0  0  0
   -0.6057   50.4969   28.8052 H   0  0  0  0  0  0
   -0.0705   49.7828   27.2768 H   0  0  0  0  0  0
   -2.2822   51.7522   27.8286 H   0  0  0  0  0  0
   -2.6121   50.1108   27.5089 H   0  0  0  0  0  0
   -1.1062   52.8835   24.4855 H   0  0  0  0  0  0
   -1.5316   53.2966   26.0939 H   0  0  0  0  0  0
    0.7061   53.4459   26.1072 H   0  0  0  0  0  0
    1.0163   51.8228   25.4700 H   0  0  0  0  0  0
   -4.3147   51.4545   27.1586 H   0  0  0  0  0  0
   -5.3940   52.0854   25.9363 H   0  0  0  0  0  0
    0.3291   49.5744   25.2417 H   0  0  0  0  0  0
    0.1448   50.7763   23.9179 H   0  0  0  0  0  0
    0.8788   48.5736   23.0274 H   0  0  0  0  0  0
   -0.5867   49.1970   22.3229 H   0  0  0  0  0  0
   -0.8966   46.8128   22.7759 H   0  0  0  0  0  0
   -0.3579   46.9958   24.4354 H   0  0  0  0  0  0
   -2.9258   48.1403   23.2240 H   0  0  0  0  0  0
   -2.8103   46.8397   24.3828 H   0  0  0  0  0  0
   -1.8248   48.4211   26.0822 H   0  0  0  0  0  0
   -3.4089   48.9887   25.4771 H   0  0  0  0  0  0
   -2.1843   50.3847   23.8861 H   0  0  0  0  0  0
  1  2  1  0  0  0
  1 39  1  0  0  0
  1 40  1  0  0  0
  1 41  1  0  0  0
  2  3  1  0  0  0
  2 42  1  0  0  0
  2 43  1  0  0  0
  3  7  1  0  0  0
  3  4  2  0  0  0
  4  5  1  0  0  0
  5  6  2  0  0  0
  5  8  1  0  0  0
  6  7  1  0  0  0
  8 13  2  0  0  0
  8  9  1  0  0  0
  9 10  2  0  0  0
  9 44  1  0  0  0
 10 11  1  0  0  0
 10 45  1  0  0  0
 11 12  2  0  0  0
 11 15  1  0  0  0
 12 13  1  0  0  0
 12 14  1  0  0  0
 13 46  1  0  0  0
 15 21  1  0  0  0
 15 16  1  0  0  0
 16 17  1  0  0  0
 16 47  1  0  0  0
 16 48  1  0  0  0
 17 18  1  0  0  0
 17 49  1  0  0  0
 17 50  1  0  0  0
 18 19  1  0  0  0
 18 51  1  0  0  0
 18 52  1  0  0  0
 19 20  1  0  0  0
 19 21  1  0  0  0
 19 22  1  0  0  0
 21 53  1  0  0  0
 21 54  1  0  0  0
 22 23  2  0  0  0
 22 24  1  0  0  0
 24 29  1  0  0  0
 24 25  1  0  0  0
 25 26  1  0  0  0
 25 55  1  0  0  0
 25 56  1  0  0  0
 26 27  1  0  0  0
 26 57  1  0  0  0
 26 58  1  0  0  0
 27 28  1  0  0  0
 27 30  1  0  0  0
 27 33  1  0  0  0
 28 29  1  0  0  0
 28 59  1  0  0  0
 28 60  1  0  0  0
 29 61  1  0  0  0
 29 62  1  0  0  0
 30 31  2  0  0  0
 30 32  1  0  0  0
 32 63  1  0  0  0
 32 64  1  0  0  0
 33 38  1  0  0  0
 33 34  1  0  0  0
 33 75  1  0  0  0
 34 35  1  0  0  0
 34 65  1  0  0  0
 34 66  1  0  0  0
 35 36  1  0  0  0
 35 67  1  0  0  0
 35 68  1  0  0  0
 36 37  1  0  0  0
 36 69  1  0  0  0
 36 70  1  0  0  0
 37 38  1  0  0  0
 37 71  1  0  0  0
 37 72  1  0  0  0
 38 73  1  0  0  0
 38 74  1  0  0  0
M  CHG  1  33   1
M  END
> <i_i_glide_confnum>
272

> <i_i_glide_lignum>
5562

> <i_i_glide_posenum>
234

> <i_i_glide_rotatable_bonds>
7

> <i_m_Source_File_Index>
5444

> <b_m_subgroup_collapsed>
0

> <r_i_docking_score>
-6.04217

> <r_i_glide_ecoul>
-4.15214

> <r_i_glide_eff_state_penalty>
0

> <r_i_glide_einternal>
11.3705

> <r_i_glide_emodel>
-59.8574

> <r_i_glide_energy>
-46.4633

> <r_i_glide_erotb>
0.388672

> <r_i_glide_esite>
-0.0289141

> <r_i_glide_evdw>
-42.3112

> <r_i_glide_gscore>
-6.04217

> <r_i_glide_hbond>
0

> <r_i_glide_ligand_efficiency>
-0.163302

> <r_i_glide_ligand_efficiency_ln>
-1.31041

> <r_i_glide_ligand_efficiency_sa>
-0.544159

> <r_i_glide_lipo>
-2.37708

> <r_i_glide_metal>
0

> <r_i_glide_rewards>
-1.28647

> <s_i_glide_gridfile>
wee1_glide-grid

> <s_m_Source_File>
wee1_decoys_glide_SP.sdf

> <s_m_Source_Path>
/Users/zhangxujun/Desktop

> <s_m_entry_id>
5719

> <s_m_entry_name>
wee1_decoys_glide_SP.5444

> <s_m_subgroup_title>
wee1_decoys_glide_SP

> <s_m_subgroupid>
wee1_decoys_glide_SP


$$$$
