ZINC20689968_3616
                    3D
 Schrodinger Suite 2024-2.
 62 66  0  0  1  0            999 V2000
   -6.7495   53.1995   27.0148 C   0  0  0  0  0  0
   -5.7230   53.4516   26.0593 O   0  0  0  0  0  0
   -4.5919   52.6563   26.0580 C   0  0  0  0  0  0
   -4.3155   51.6758   27.0258 C   0  0  0  0  0  0
   -3.1343   50.9333   26.9684 C   0  0  0  0  0  0
   -2.2108   51.1431   25.9405 C   0  0  0  0  0  0
   -2.5029   52.0940   24.9552 C   0  0  0  0  0  0
   -3.6637   52.8574   25.0292 C   0  0  0  0  0  0
   -3.8896   53.8209   24.0821 O   0  0  0  0  0  0
   -0.8847   50.3675   25.9434 C   0  0  2  0  0  0
   -1.0761   49.4392   26.4812 H   0  0  0  0  0  0
    0.2486   51.1433   26.6700 C   0  0  2  0  0  0
    1.0809   50.4363   26.7218 H   0  0  0  0  0  0
    0.1058   51.6786   28.0937 C   0  0  0  0  0  0
    1.2057   52.7337   28.1015 C   0  0  0  0  0  0
    1.5828   53.0538   26.8465 C   0  0  0  0  0  0
    0.6654   52.3595   25.8609 C   0  0  1  0  0  0
   -0.1769   53.0140   25.6639 H   0  0  0  0  0  0
    1.1482   51.9057   24.4916 C   0  0  0  0  0  0
    2.0821   52.6342   23.7502 C   0  0  0  0  0  0
    2.5300   52.1798   22.5104 C   0  0  0  0  0  0
    2.0365   50.9846   21.9903 C   0  0  0  0  0  0
    1.0642   50.2680   22.6913 C   0  0  0  0  0  0
    0.6098   50.7287   23.9273 C   0  0  0  0  0  0
   -0.3754   49.9693   24.6128 N   0  0  0  0  0  0
    3.7604   53.1248   21.6279 S   0  0  0  0  0  0
    3.7977   54.4630   22.2300 O   0  0  0  0  0  0
    4.9676   52.2945   21.5636 O   0  0  0  0  0  0
    3.1050   53.2952   20.0133 N   0  0  0  0  0  0
    3.5276   52.4197   18.9044 C   0  0  0  0  0  0
    2.2806   51.7618   18.2637 C   0  0  0  0  0  0
    1.3006   52.7935   17.6660 C   0  0  0  0  0  0
    2.0090   53.7381   16.6695 C   0  0  0  0  0  0
    3.2885   54.3815   17.2524 C   0  0  0  0  0  0
    4.2317   53.3159   17.8602 C   0  0  0  0  0  0
   -7.5877   53.8713   26.8310 H   0  0  0  0  0  0
   -6.4005   53.3761   28.0328 H   0  0  0  0  0  0
   -7.1210   52.1765   26.9378 H   0  0  0  0  0  0
   -4.9968   51.4813   27.8408 H   0  0  0  0  0  0
   -2.9269   50.1977   27.7356 H   0  0  0  0  0  0
   -1.8053   52.2738   24.1498 H   0  0  0  0  0  0
   -4.7562   54.2116   24.2203 H   0  0  0  0  0  0
   -0.8789   52.0969   28.2974 H   0  0  0  0  0  0
    0.2830   50.8958   28.8307 H   0  0  0  0  0  0
    1.6210   53.1321   29.0149 H   0  0  0  0  0  0
    2.3255   53.7844   26.5594 H   0  0  0  0  0  0
    2.4803   53.5521   24.1572 H   0  0  0  0  0  0
    2.4024   50.6049   21.0487 H   0  0  0  0  0  0
    0.6769   49.3517   22.2732 H   0  0  0  0  0  0
   -0.7821   49.1326   24.2208 H   0  0  0  0  0  0
    2.5737   54.1506   19.7979 H   0  0  0  0  0  0
    4.2546   51.6964   19.2681 H   0  0  0  0  0  0
    2.6072   51.0739   17.4803 H   0  0  0  0  0  0
    1.7506   51.1546   18.9957 H   0  0  0  0  0  0
    0.4815   52.2745   17.1651 H   0  0  0  0  0  0
    0.8434   53.3751   18.4680 H   0  0  0  0  0  0
    2.2744   53.1741   15.7736 H   0  0  0  0  0  0
    1.3180   54.5176   16.3442 H   0  0  0  0  0  0
    3.8094   54.9423   16.4741 H   0  0  0  0  0  0
    3.0172   55.1148   18.0142 H   0  0  0  0  0  0
    5.0931   53.8096   18.3115 H   0  0  0  0  0  0
    4.6280   52.6849   17.0605 H   0  0  0  0  0  0
  1  2  1  0  0  0
  1 36  1  0  0  0
  1 37  1  0  0  0
  1 38  1  0  0  0
  2  3  1  0  0  0
  3  8  2  0  0  0
  3  4  1  0  0  0
  4  5  2  0  0  0
  4 39  1  0  0  0
  5  6  1  0  0  0
  5 40  1  0  0  0
  6  7  2  0  0  0
  6 10  1  0  0  0
  7  8  1  0  0  0
  7 41  1  0  0  0
  8  9  1  0  0  0
  9 42  1  0  0  0
 10 11  1  0  0  0
 10 25  1  0  0  0
 10 12  1  0  0  0
 12 13  1  0  0  0
 12 17  1  0  0  0
 12 14  1  0  0  0
 14 15  1  0  0  0
 14 43  1  0  0  0
 14 44  1  0  0  0
 15 16  2  0  0  0
 15 45  1  0  0  0
 16 17  1  0  0  0
 16 46  1  0  0  0
 17 18  1  0  0  0
 17 19  1  0  0  0
 19 24  2  0  0  0
 19 20  1  0  0  0
 20 21  2  0  0  0
 20 47  1  0  0  0
 21 22  1  0  0  0
 21 26  1  0  0  0
 22 23  2  0  0  0
 22 48  1  0  0  0
 23 24  1  0  0  0
 23 49  1  0  0  0
 24 25  1  0  0  0
 25 50  1  0  0  0
 26 27  2  0  0  0
 26 28  2  0  0  0
 26 29  1  0  0  0
 29 30  1  0  0  0
 29 51  1  0  0  0
 30 35  1  0  0  0
 30 31  1  0  0  0
 30 52  1  0  0  0
 31 32  1  0  0  0
 31 53  1  0  0  0
 31 54  1  0  0  0
 32 33  1  0  0  0
 32 55  1  0  0  0
 32 56  1  0  0  0
 33 34  1  0  0  0
 33 57  1  0  0  0
 33 58  1  0  0  0
 34 35  1  0  0  0
 34 59  1  0  0  0
 34 60  1  0  0  0
 35 61  1  0  0  0
 35 62  1  0  0  0
M  END
> <i_i_glide_confnum>
167

> <i_i_glide_lignum>
3617

> <i_i_glide_posenum>
232

> <i_i_glide_rotatable_bonds>
6

> <i_m_Source_File_Index>
5968

> <b_m_subgroup_collapsed>
0

> <r_i_docking_score>
-3.31024

> <r_i_glide_ecoul>
-6.9282

> <r_i_glide_eff_state_penalty>
0

> <r_i_glide_einternal>
5.95674

> <r_i_glide_emodel>
-41.4931

> <r_i_glide_energy>
-36.8805

> <r_i_glide_erotb>
0.388729

> <r_i_glide_esite>
-0.028996

> <r_i_glide_evdw>
-29.9523

> <r_i_glide_gscore>
-3.31024

> <r_i_glide_hbond>
-0.32

> <r_i_glide_ligand_efficiency>
-0.103445

> <r_i_glide_ligand_efficiency_ln>
-0.741252

> <r_i_glide_ligand_efficiency_sa>
-0.328417

> <r_i_glide_lipo>
-1.13622

> <r_i_glide_metal>
0

> <r_i_glide_rewards>
0.323101

> <s_i_glide_gridfile>
wee1_glide-grid

> <s_m_Source_File>
wee1_decoys_glide_SP.sdf

> <s_m_Source_Path>
/Users/zhangxujun/Desktop

> <s_m_entry_id>
6243

> <s_m_entry_name>
wee1_decoys_glide_SP.5968

> <s_m_subgroup_title>
wee1_decoys_glide_SP

> <s_m_subgroupid>
wee1_decoys_glide_SP


$$$$
