ZINC34762182_1229
                    3D
 Schrodinger Suite 2024-2.
 64 67  0  0  1  0            999 V2000
    1.0812   52.9946   28.5925 C   0  0  0  0  0  0
    1.7028   54.2101   27.8697 C   0  0  0  0  0  0
    3.2048   54.0906   27.5900 C   0  0  0  0  0  0
    4.1490   54.0408   28.6170 C   0  0  0  0  0  0
    5.8021   54.0950   28.0620 S   0  0  0  0  0  0
    5.2630   54.2389   26.4206 C   0  0  0  0  0  0
    3.8461   54.0964   26.2812 C   0  0  0  0  0  0
    3.4012   54.0501   24.9172 C   0  0  0  0  0  0
    4.2737   54.3024   23.9013 N   0  0  0  0  0  0
    5.5778   54.4959   24.2008 C   0  0  0  0  0  0
    6.1312   54.4396   25.4309 N   0  0  0  0  0  0
    6.7042   54.8244   22.8809 S   0  0  0  0  0  0
    5.8055   54.7776   21.2957 C   0  0  0  0  0  0
    6.3570   55.7627   20.2625 C   0  0  0  0  0  0
    6.7024   56.8970   20.5812 O   0  0  0  0  0  0
    6.4213   55.3524   18.9976 N   0  0  0  0  0  0
    2.1083   53.6979   24.5129 N   0  0  0  0  0  0
    1.5606   53.9269   23.1541 C   0  0  0  0  0  0
    1.3194   52.6602   22.2897 C   0  0  0  0  0  0
    0.4558   51.6734   23.1012 N   0  3  0  0  0  0
    1.2266   51.3316   24.3843 C   0  0  0  0  0  0
    1.3749   52.6217   25.1961 C   0  0  0  0  0  0
    0.0931   50.3835   22.3262 C   0  0  0  0  0  0
   -0.9071   49.5167   23.0960 C   0  0  0  0  0  0
   -0.4265   48.4460   23.8586 C   0  0  0  0  0  0
   -1.2895   47.6975   24.6570 C   0  0  0  0  0  0
   -2.6512   47.9903   24.6834 C   0  0  0  0  0  0
   -3.1450   49.0341   23.8966 C   0  0  0  0  0  0
   -2.2853   49.8018   23.1036 C   0  0  0  0  0  0
   -2.8691   50.9504   22.2939 C   0  0  0  0  0  0
   -3.5770   47.2141   25.6005 C   0  0  0  0  0  0
    3.9149   53.9711   30.1027 C   0  0  0  0  0  0
   -0.0046   53.0863   28.6322 H   0  0  0  0  0  0
    1.4250   52.9063   29.6219 H   0  0  0  0  0  0
    1.3035   52.0462   28.1108 H   0  0  0  0  0  0
    1.1118   54.4492   26.9916 H   0  0  0  0  0  0
    1.5349   55.0820   28.5061 H   0  0  0  0  0  0
    5.8670   53.7600   20.9113 H   0  0  0  0  0  0
    4.7508   55.0065   21.4434 H   0  0  0  0  0  0
    6.1180   54.4304   18.7241 H   0  0  0  0  0  0
    6.7744   55.9903   18.2996 H   0  0  0  0  0  0
    0.6074   54.4192   23.3425 H   0  0  0  0  0  0
    2.1625   54.6415   22.5896 H   0  0  0  0  0  0
    2.2432   52.1562   21.9961 H   0  0  0  0  0  0
    0.7361   52.9142   21.4029 H   0  0  0  0  0  0
    2.1709   50.8744   24.0813 H   0  0  0  0  0  0
    0.6313   50.6266   24.9635 H   0  0  0  0  0  0
    1.8945   52.3361   26.1043 H   0  0  0  0  0  0
    0.3900   53.0040   25.4613 H   0  0  0  0  0  0
   -0.3053   50.7085   21.3630 H   0  0  0  0  0  0
    1.0367   49.8643   22.1403 H   0  0  0  0  0  0
    0.6307   48.2185   23.8820 H   0  0  0  0  0  0
   -0.8951   46.9067   25.2799 H   0  0  0  0  0  0
   -4.2002   49.2623   23.9258 H   0  0  0  0  0  0
   -3.9354   51.0810   22.4820 H   0  0  0  0  0  0
   -2.3743   51.8884   22.5410 H   0  0  0  0  0  0
   -2.7305   50.7732   21.2270 H   0  0  0  0  0  0
   -3.0534   46.9147   26.5122 H   0  0  0  0  0  0
   -4.4176   47.8304   25.9219 H   0  0  0  0  0  0
   -3.9616   46.3228   25.1041 H   0  0  0  0  0  0
    3.9222   52.9421   30.4594 H   0  0  0  0  0  0
    4.7035   54.4968   30.6349 H   0  0  0  0  0  0
    2.9704   54.4207   30.4045 H   0  0  0  0  0  0
   -0.4114   52.1200   23.3651 H   0  0  0  0  0  0
  1  2  1  0  0  0
  1 33  1  0  0  0
  1 34  1  0  0  0
  1 35  1  0  0  0
  2  3  1  0  0  0
  2 36  1  0  0  0
  2 37  1  0  0  0
  3  7  1  0  0  0
  3  4  2  0  0  0
  4  5  1  0  0  0
  4 32  1  0  0  0
  5  6  1  0  0  0
  6 11  2  0  0  0
  6  7  1  0  0  0
  7  8  2  0  0  0
  8  9  1  0  0  0
  8 17  1  0  0  0
  9 10  2  0  0  0
 10 11  1  0  0  0
 10 12  1  0  0  0
 12 13  1  0  0  0
 13 14  1  0  0  0
 13 38  1  0  0  0
 13 39  1  0  0  0
 14 15  2  0  0  0
 14 16  1  0  0  0
 16 40  1  0  0  0
 16 41  1  0  0  0
 17 22  1  0  0  0
 17 18  1  0  0  0
 18 19  1  0  0  0
 18 42  1  0  0  0
 18 43  1  0  0  0
 19 20  1  0  0  0
 19 44  1  0  0  0
 19 45  1  0  0  0
 20 21  1  0  0  0
 20 23  1  0  0  0
 20 64  1  0  0  0
 21 22  1  0  0  0
 21 46  1  0  0  0
 21 47  1  0  0  0
 22 48  1  0  0  0
 22 49  1  0  0  0
 23 24  1  0  0  0
 23 50  1  0  0  0
 23 51  1  0  0  0
 24 29  2  0  0  0
 24 25  1  0  0  0
 25 26  2  0  0  0
 25 52  1  0  0  0
 26 27  1  0  0  0
 26 53  1  0  0  0
 27 28  2  0  0  0
 27 31  1  0  0  0
 28 29  1  0  0  0
 28 54  1  0  0  0
 29 30  1  0  0  0
 30 55  1  0  0  0
 30 56  1  0  0  0
 30 57  1  0  0  0
 31 58  1  0  0  0
 31 59  1  0  0  0
 31 60  1  0  0  0
 32 61  1  0  0  0
 32 62  1  0  0  0
 32 63  1  0  0  0
M  CHG  1  20   1
M  END
> <i_i_glide_confnum>
57

> <i_i_glide_lignum>
1230

> <i_i_glide_posenum>
188

> <i_i_glide_rotatable_bonds>
7

> <i_m_Source_File_Index>
5853

> <b_m_subgroup_collapsed>
0

> <r_i_docking_score>
-6.87522

> <r_i_glide_ecoul>
-4.03341

> <r_i_glide_eff_state_penalty>
0

> <r_i_glide_einternal>
5.46068

> <r_i_glide_emodel>
-69.7013

> <r_i_glide_energy>
-51.0568

> <r_i_glide_erotb>
0.456063

> <r_i_glide_esite>
0

> <r_i_glide_evdw>
-47.0234

> <r_i_glide_gscore>
-6.87522

> <r_i_glide_hbond>
-0.32

> <r_i_glide_ligand_efficiency>
-0.214851

> <r_i_glide_ligand_efficiency_ln>
-1.53955

> <r_i_glide_ligand_efficiency_sa>
-0.682108

> <r_i_glide_lipo>
-2.89131

> <r_i_glide_metal>
0

> <r_i_glide_rewards>
-1.16379

> <s_i_glide_gridfile>
wee1_glide-grid

> <s_m_Source_File>
wee1_decoys_glide_SP.sdf

> <s_m_Source_Path>
/Users/zhangxujun/Desktop

> <s_m_entry_id>
6128

> <s_m_entry_name>
wee1_decoys_glide_SP.5853

> <s_m_subgroup_title>
wee1_decoys_glide_SP

> <s_m_subgroupid>
wee1_decoys_glide_SP


$$$$
