ZINC03965943_5224
                    3D
 Schrodinger Suite 2024-2.
 64 67  0  0  1  0            999 V2000
    2.3538   52.5166   30.3957 C   0  0  0  0  0  0
    0.9353   52.8519   29.8871 C   0  0  0  0  0  0
    0.5362   54.3169   30.1396 C   0  0  0  0  0  0
    0.6486   52.3647   28.4496 C   0  0  0  0  0  0
   -0.3991   51.4450   28.2880 C   0  0  0  0  0  0
   -0.6954   50.8968   27.0442 C   0  0  0  0  0  0
    0.0653   51.2393   25.9380 C   0  0  0  0  0  0
    1.1040   52.1506   26.0748 C   0  0  0  0  0  0
    1.3983   52.7534   27.3094 C   0  0  0  0  0  0
    2.6883   53.9961   27.4616 S   0  0  0  0  0  0
    3.5912   54.1619   25.9279 C   0  0  0  0  0  0
    2.8924   54.3895   24.7429 C   0  0  0  0  0  0
    3.5582   54.4951   23.5303 C   0  0  0  0  0  0
    4.9536   54.4204   23.4627 C   0  0  0  0  0  0
    5.6608   54.2667   24.6626 C   0  0  0  0  0  0
    5.0036   54.1647   25.9031 C   0  0  0  0  0  0
    5.8476   54.1190   27.1884 C   0  0  0  0  0  0
    5.8729   52.8923   27.6817 F   0  0  0  0  0  0
    7.1042   54.5010   26.9693 F   0  0  0  0  0  0
    5.3655   54.8980   28.1462 F   0  0  0  0  0  0
    5.6400   54.5798   22.1445 C   0  0  0  0  0  0
    6.8430   55.2963   22.0153 C   0  0  0  0  0  0
    7.4027   55.5080   20.7511 C   0  0  0  0  0  0
    5.6175   54.3216   19.7161 C   0  0  0  0  0  0
    5.0483   54.0826   20.9731 C   0  0  0  0  0  0
    5.0066   53.8402   18.5174 N   0  0  0  0  0  0
    5.5184   54.0450   17.1483 C   0  0  0  0  0  0
    4.7096   53.0686   16.2981 C   0  0  0  0  0  0
    3.3704   52.9645   16.9996 C   0  0  2  0  0  0
    2.7676   53.8326   16.7161 H   0  0  0  0  0  0
    3.7400   53.0775   18.4787 C   0  0  0  0  0  0
    2.7042   51.6941   16.7162 N   0  0  0  0  0  0
    1.3895   51.4761   16.8564 C   0  0  0  0  0  0
    0.5823   52.3416   17.1949 O   0  0  0  0  0  0
    0.9120   50.0553   16.5838 C   0  0  0  0  0  0
    2.7039   51.5647   29.9988 H   0  0  0  0  0  0
    3.0843   53.2723   30.1138 H   0  0  0  0  0  0
    2.3716   52.4497   31.4845 H   0  0  0  0  0  0
    0.2780   52.2761   30.5427 H   0  0  0  0  0  0
   -0.4958   54.4961   29.8456 H   0  0  0  0  0  0
    0.6161   54.5691   31.1975 H   0  0  0  0  0  0
    1.1610   55.0196   29.5927 H   0  0  0  0  0  0
   -0.9838   51.1095   29.1344 H   0  0  0  0  0  0
   -1.4913   50.1712   26.9498 H   0  0  0  0  0  0
   -0.1391   50.7832   24.9798 H   0  0  0  0  0  0
    1.6872   52.3255   25.1917 H   0  0  0  0  0  0
    1.8176   54.4958   24.7571 H   0  0  0  0  0  0
    2.9726   54.6697   22.6387 H   0  0  0  0  0  0
    6.7405   54.2379   24.6280 H   0  0  0  0  0  0
    7.3438   55.6974   22.8854 H   0  0  0  0  0  0
    8.3332   56.0337   20.5750 H   0  0  0  0  0  0
    4.1303   53.5169   21.0415 H   0  0  0  0  0  0
    6.5848   53.8240   17.0971 H   0  0  0  0  0  0
    5.3480   55.0853   16.8666 H   0  0  0  0  0  0
    5.2081   52.0967   16.2906 H   0  0  0  0  0  0
    4.6209   53.3636   15.2518 H   0  0  0  0  0  0
    2.9585   53.5942   19.0385 H   0  0  0  0  0  0
    3.9307   52.1022   18.9323 H   0  0  0  0  0  0
    3.2998   50.8718   16.6354 H   0  0  0  0  0  0
    0.8029   49.5113   17.5228 H   0  0  0  0  0  0
    1.6206   49.5112   15.9562 H   0  0  0  0  0  0
   -0.0537   50.0740   16.0775 H   0  0  0  0  0  0
    6.7704   55.0233   19.6622 N   0  3  0  0  0  0
    7.1808   55.1837   18.7527 H   0  0  0  0  0  0
  1  2  1  0  0  0
  1 36  1  0  0  0
  1 37  1  0  0  0
  1 38  1  0  0  0
  2  3  1  0  0  0
  2  4  1  0  0  0
  2 39  1  0  0  0
  3 40  1  0  0  0
  3 41  1  0  0  0
  3 42  1  0  0  0
  4  9  2  0  0  0
  4  5  1  0  0  0
  5  6  2  0  0  0
  5 43  1  0  0  0
  6  7  1  0  0  0
  6 44  1  0  0  0
  7  8  2  0  0  0
  7 45  1  0  0  0
  8  9  1  0  0  0
  8 46  1  0  0  0
  9 10  1  0  0  0
 10 11  1  0  0  0
 11 16  2  0  0  0
 11 12  1  0  0  0
 12 13  2  0  0  0
 12 47  1  0  0  0
 13 14  1  0  0  0
 13 48  1  0  0  0
 14 15  2  0  0  0
 14 21  1  0  0  0
 15 16  1  0  0  0
 15 49  1  0  0  0
 16 17  1  0  0  0
 17 18  1  0  0  0
 17 19  1  0  0  0
 17 20  1  0  0  0
 21 25  2  0  0  0
 21 22  1  0  0  0
 22 23  2  0  0  0
 22 50  1  0  0  0
 23 51  1  0  0  0
 23 63  1  0  0  0
 24 25  1  0  0  0
 24 26  1  0  0  0
 24 63  2  0  0  0
 25 52  1  0  0  0
 26 31  1  0  0  0
 26 27  1  0  0  0
 27 28  1  0  0  0
 27 53  1  0  0  0
 27 54  1  0  0  0
 28 29  1  0  0  0
 28 55  1  0  0  0
 28 56  1  0  0  0
 29 30  1  0  0  0
 29 31  1  0  0  0
 29 32  1  0  0  0
 31 57  1  0  0  0
 31 58  1  0  0  0
 32 33  1  0  0  0
 32 59  1  0  0  0
 33 34  2  0  0  0
 33 35  1  0  0  0
 35 60  1  0  0  0
 35 61  1  0  0  0
 35 62  1  0  0  0
 63 64  1  0  0  0
M  CHG  1  63   1
M  END
> <i_i_glide_confnum>
138

> <i_i_glide_lignum>
5225

> <i_i_glide_posenum>
161

> <i_i_glide_rotatable_bonds>
8

> <i_m_Source_File_Index>
5747

> <b_m_subgroup_collapsed>
0

> <r_i_docking_score>
-6.75135

> <r_i_glide_ecoul>
-5.99454

> <r_i_glide_eff_state_penalty>
0

> <r_i_glide_einternal>
7.0561

> <r_i_glide_emodel>
-65.2719

> <r_i_glide_energy>
-46.3784

> <r_i_glide_erotb>
0.407437

> <r_i_glide_esite>
-0.152808

> <r_i_glide_evdw>
-40.3839

> <r_i_glide_gscore>
-6.75135

> <r_i_glide_hbond>
-0.16

> <r_i_glide_ligand_efficiency>
-0.192896

> <r_i_glide_ligand_efficiency_ln>
-1.48207

> <r_i_glide_ligand_efficiency_sa>
-0.630974

> <r_i_glide_lipo>
-3.15479

> <r_i_glide_metal>
0

> <r_i_glide_rewards>
-0.772808

> <s_i_glide_gridfile>
wee1_glide-grid

> <s_m_Source_File>
wee1_decoys_glide_SP.sdf

> <s_m_Source_Path>
/Users/zhangxujun/Desktop

> <s_m_entry_id>
6022

> <s_m_entry_name>
wee1_decoys_glide_SP.5747

> <s_m_subgroup_title>
wee1_decoys_glide_SP

> <s_m_subgroupid>
wee1_decoys_glide_SP


$$$$
