ZINC66187597_250
                    3D
 Schrodinger Suite 2024-2.
 60 62  0  0  1  0            999 V2000
    1.5045   56.7509   29.2693 C   0  0  0  0  0  0
    1.3546   55.6199   30.2944 C   0  0  0  0  0  0
    0.9264   54.2410   29.7342 C   0  0  0  0  0  0
    1.7237   53.7255   28.5012 C   0  0  1  0  0  0
    1.4801   54.4512   27.7289 H   0  0  0  0  0  0
    3.2623   53.6945   28.7450 C   0  0  0  0  0  0
    3.6523   53.2785   29.8416 O   0  0  0  0  0  0
    4.1073   54.1979   27.7987 N   0  0  0  0  0  0
    5.5122   54.5287   28.1479 C   0  0  0  0  0  0
    6.4813   53.8637   27.1386 C   0  0  0  0  0  0
    6.0181   54.1538   25.7213 C   0  0  0  0  0  0
    4.6956   54.4124   25.3965 C   0  0  0  0  0  0
    4.4865   54.4781   24.0156 C   0  0  0  0  0  0
    5.6537   54.3304   23.2831 C   0  0  0  0  0  0
    7.0231   54.0964   24.3083 S   0  0  0  0  0  0
    3.6340   54.5974   26.4545 C   0  0  0  0  0  0
    1.2455   52.3989   28.0816 N   0  0  0  0  0  0
    0.7492   52.1034   26.8665 C   0  0  0  0  0  0
    0.7065   52.8966   25.9278 O   0  0  0  0  0  0
    0.3044   50.8428   26.7700 N   0  0  0  0  0  0
   -0.2607   50.2514   25.5487 C   0  0  1  0  0  0
   -0.9118   51.0124   25.1069 H   0  0  0  0  0  0
    0.7985   49.8906   24.4815 C   0  0  0  0  0  0
    0.1948   49.2203   23.2341 C   0  0  0  0  0  0
   -0.6810   48.0092   23.5917 C   0  0  0  0  0  0
   -1.7943   48.4730   24.5617 N   0  3  2  0  0  0
   -1.1617   49.0399   25.8571 C   0  0  0  0  0  0
   -2.7462   47.3121   24.9474 C   0  0  0  0  0  0
   -3.6329   46.9036   23.7594 C   0  0  0  0  0  0
    1.7064   57.6908   29.7756 H   0  0  0  0  0  0
    2.3059   56.5590   28.5631 H   0  0  0  0  0  0
    0.6151   56.8961   28.6728 H   0  0  0  0  0  0
    0.6459   55.9213   31.0649 H   0  0  0  0  0  0
    2.3038   55.5312   30.8084 H   0  0  0  0  0  0
   -0.1290   54.2914   29.4675 H   0  0  0  0  0  0
    0.9726   53.5039   30.5406 H   0  0  0  0  0  0
    5.7792   54.2297   29.1630 H   0  0  0  0  0  0
    5.6429   55.6085   28.0931 H   0  0  0  0  0  0
    6.5117   52.7909   27.3184 H   0  0  0  0  0  0
    7.4985   54.2150   27.3073 H   0  0  0  0  0  0
    3.5172   54.6419   23.5651 H   0  0  0  0  0  0
    5.7706   54.3529   22.2085 H   0  0  0  0  0  0
    3.3354   55.6459   26.4821 H   0  0  0  0  0  0
    2.7407   54.0668   26.1395 H   0  0  0  0  0  0
    1.3399   51.6693   28.7707 H   0  0  0  0  0  0
    0.3219   50.2501   27.5871 H   0  0  0  0  0  0
    1.3669   50.7744   24.1849 H   0  0  0  0  0  0
    1.5045   49.1949   24.9281 H   0  0  0  0  0  0
   -0.3930   49.9473   22.6718 H   0  0  0  0  0  0
    0.9977   48.8977   22.5700 H   0  0  0  0  0  0
   -1.1590   47.6180   22.6939 H   0  0  0  0  0  0
   -0.1140   47.2257   24.0949 H   0  0  0  0  0  0
   -0.6100   48.2279   26.3412 H   0  0  0  0  0  0
   -2.0006   49.3521   26.4817 H   0  0  0  0  0  0
   -2.1236   46.5014   25.3344 H   0  0  0  0  0  0
   -3.3637   47.6926   25.7645 H   0  0  0  0  0  0
   -4.3971   46.1960   24.0805 H   0  0  0  0  0  0
   -4.1525   47.7623   23.3355 H   0  0  0  0  0  0
   -3.0666   46.4252   22.9630 H   0  0  0  0  0  0
   -2.3393   49.2053   24.1254 H   0  0  0  0  0  0
  1  2  1  0  0  0
  1 30  1  0  0  0
  1 31  1  0  0  0
  1 32  1  0  0  0
  2  3  1  0  0  0
  2 33  1  0  0  0
  2 34  1  0  0  0
  3  4  1  0  0  0
  3 35  1  0  0  0
  3 36  1  0  0  0
  4  5  1  0  0  0
  4  6  1  0  0  0
  4 17  1  0  0  0
  6  7  2  0  0  0
  6  8  1  0  0  0
  8 16  1  0  0  0
  8  9  1  0  0  0
  9 10  1  0  0  0
  9 37  1  0  0  0
  9 38  1  0  0  0
 10 11  1  0  0  0
 10 39  1  0  0  0
 10 40  1  0  0  0
 11 15  1  0  0  0
 11 12  2  0  0  0
 12 13  1  0  0  0
 12 16  1  0  0  0
 13 14  2  0  0  0
 13 41  1  0  0  0
 14 15  1  0  0  0
 14 42  1  0  0  0
 16 43  1  0  0  0
 16 44  1  0  0  0
 17 18  1  0  0  0
 17 45  1  0  0  0
 18 19  2  0  0  0
 18 20  1  0  0  0
 20 21  1  0  0  0
 20 46  1  0  0  0
 21 22  1  0  0  0
 21 27  1  0  0  0
 21 23  1  0  0  0
 23 24  1  0  0  0
 23 47  1  0  0  0
 23 48  1  0  0  0
 24 25  1  0  0  0
 24 49  1  0  0  0
 24 50  1  0  0  0
 25 26  1  0  0  0
 25 51  1  0  0  0
 25 52  1  0  0  0
 26 27  1  0  0  0
 26 28  1  0  0  0
 26 60  1  0  0  0
 27 53  1  0  0  0
 27 54  1  0  0  0
 28 29  1  0  0  0
 28 55  1  0  0  0
 28 56  1  0  0  0
 29 57  1  0  0  0
 29 58  1  0  0  0
 29 59  1  0  0  0
M  CHG  1  26   1
M  END
> <i_i_glide_confnum>
136

> <i_i_glide_lignum>
251

> <i_i_glide_posenum>
54

> <i_i_glide_rotatable_bonds>
9

> <i_m_Source_File_Index>
5465

> <b_m_subgroup_collapsed>
0

> <r_i_docking_score>
-6.34094

> <r_i_glide_ecoul>
-4.00022

> <r_i_glide_eff_state_penalty>
0

> <r_i_glide_einternal>
10.9666

> <r_i_glide_emodel>
-55.4296

> <r_i_glide_energy>
-41.1817

> <r_i_glide_erotb>
0.756748

> <r_i_glide_esite>
-0.0878143

> <r_i_glide_evdw>
-37.1815

> <r_i_glide_gscore>
-6.34094

> <r_i_glide_hbond>
-0.0452003

> <r_i_glide_ligand_efficiency>
-0.23485

> <r_i_glide_ligand_efficiency_ln>
-1.47607

> <r_i_glide_ligand_efficiency_sa>
-0.704549

> <r_i_glide_lipo>
-2.99604

> <r_i_glide_metal>
0

> <r_i_glide_rewards>
-1.50952

> <s_i_glide_gridfile>
wee1_glide-grid

> <s_m_Source_File>
wee1_decoys_glide_SP.sdf

> <s_m_Source_Path>
/Users/zhangxujun/Desktop

> <s_m_entry_id>
5740

> <s_m_entry_name>
wee1_decoys_glide_SP.5465

> <s_m_subgroup_title>
wee1_decoys_glide_SP

> <s_m_subgroupid>
wee1_decoys_glide_SP


$$$$
