ZINC33821696_5498
                    3D
 Schrodinger Suite 2024-2.
 57 59  0  0  1  0            999 V2000
    5.8069   52.9993   27.5659 C   0  0  0  0  0  0
    4.9644   54.2519   27.8351 C   0  0  0  0  0  0
    3.5891   54.4117   27.0760 C   0  0  2  0  0  0
    3.4597   55.4814   26.9456 H   0  0  0  0  0  0
    2.3083   53.9411   27.9038 C   0  0  1  0  0  0
    1.4424   54.1643   27.2757 H   0  0  0  0  0  0
    2.3326   52.4455   28.2998 C   0  0  1  0  0  0
    2.9960   51.8511   27.6807 H   0  0  0  0  0  0
    2.9069   52.5573   29.7134 C   0  0  0  0  0  0
    3.4740   51.6970   30.3819 O   0  0  0  0  0  0
    2.7859   53.8335   30.1563 O   0  0  0  0  0  0
    2.0472   54.6564   29.2596 C   0  0  0  0  0  0
    2.5730   56.0963   29.3386 C   0  0  0  0  0  0
    0.5767   54.6352   29.7604 C   0  0  0  0  0  0
    0.9305   51.7832   28.2302 C   0  0  0  0  0  0
    0.2250   51.6962   29.2402 O   0  0  0  0  0  0
    0.5194   51.3747   27.0115 N   0  0  0  0  0  0
   -0.7860   50.8950   26.8857 N   0  0  0  0  0  0
   -1.6326   51.5614   26.0702 C   0  0  0  0  0  0
   -1.2880   52.4964   25.3411 O   0  0  0  0  0  0
   -3.0718   51.0943   26.0666 C   0  0  0  0  0  0
   -3.9074   51.4306   24.9913 C   0  0  0  0  0  0
   -5.2419   51.0342   24.9813 C   0  0  0  0  0  0
   -5.7510   50.2991   26.0486 C   0  0  0  0  0  0
   -4.9381   49.9611   27.1273 C   0  0  0  0  0  0
   -3.6052   50.3614   27.1401 C   0  0  0  0  0  0
    3.5458   53.9595   25.5772 C   0  0  0  0  0  0
    2.5768   53.2863   25.2167 O   0  0  0  0  0  0
    4.6306   54.3269   24.5857 C   0  0  0  0  0  0
    5.7101   55.1775   24.8787 C   0  0  0  0  0  0
    6.6972   55.4319   23.9285 C   0  0  0  0  0  0
    6.5873   54.8966   22.6501 C   0  0  0  0  0  0
    5.5052   54.0864   22.3234 C   0  0  0  0  0  0
    4.5408   53.8002   23.2845 C   0  0  0  0  0  0
    7.8932   55.3163   21.3278 Br  0  0  0  0  0  0
    6.7498   53.0474   28.1105 H   0  0  0  0  0  0
    5.2959   52.0981   27.9018 H   0  0  0  0  0  0
    6.0558   52.8966   26.5123 H   0  0  0  0  0  0
    5.5810   55.1377   27.7132 H   0  0  0  0  0  0
    4.8255   54.2808   28.9102 H   0  0  0  0  0  0
    2.1894   56.7073   28.5217 H   0  0  0  0  0  0
    2.3046   56.5902   30.2729 H   0  0  0  0  0  0
    3.6512   56.0956   29.2821 H   0  0  0  0  0  0
    0.3043   55.5544   30.2780 H   0  0  0  0  0  0
   -0.1187   54.4957   28.9345 H   0  0  0  0  0  0
    0.3771   53.8382   30.4772 H   0  0  0  0  0  0
    1.1123   51.1979   26.2133 H   0  0  0  0  0  0
   -0.8846   49.9118   27.1152 H   0  0  0  0  0  0
   -3.5293   52.0037   24.1557 H   0  0  0  0  0  0
   -5.8796   51.2955   24.1492 H   0  0  0  0  0  0
   -6.7862   49.9899   26.0399 H   0  0  0  0  0  0
   -5.3380   49.3922   27.9551 H   0  0  0  0  0  0
   -2.9971   50.0975   27.9967 H   0  0  0  0  0  0
    5.8042   55.6906   25.8141 H   0  0  0  0  0  0
    7.5150   56.0958   24.1634 H   0  0  0  0  0  0
    5.4140   53.6798   21.3258 H   0  0  0  0  0  0
    3.7176   53.1603   22.9967 H   0  0  0  0  0  0
  1  2  1  0  0  0
  1 36  1  0  0  0
  1 37  1  0  0  0
  1 38  1  0  0  0
  2  3  1  0  0  0
  2 39  1  0  0  0
  2 40  1  0  0  0
  3  4  1  0  0  0
  3  5  1  0  0  0
  3 27  1  0  0  0
  5  6  1  0  0  0
  5 12  1  0  0  0
  5  7  1  0  0  0
  7  8  1  0  0  0
  7  9  1  0  0  0
  7 15  1  0  0  0
  9 10  2  0  0  0
  9 11  1  0  0  0
 11 12  1  0  0  0
 12 13  1  0  0  0
 12 14  1  0  0  0
 13 41  1  0  0  0
 13 42  1  0  0  0
 13 43  1  0  0  0
 14 44  1  0  0  0
 14 45  1  0  0  0
 14 46  1  0  0  0
 15 16  2  0  0  0
 15 17  1  0  0  0
 17 18  1  0  0  0
 17 47  1  0  0  0
 18 19  1  0  0  0
 18 48  1  0  0  0
 19 20  2  0  0  0
 19 21  1  0  0  0
 21 26  2  0  0  0
 21 22  1  0  0  0
 22 23  2  0  0  0
 22 49  1  0  0  0
 23 24  1  0  0  0
 23 50  1  0  0  0
 24 25  2  0  0  0
 24 51  1  0  0  0
 25 26  1  0  0  0
 25 52  1  0  0  0
 26 53  1  0  0  0
 27 28  2  0  0  0
 27 29  1  0  0  0
 29 34  2  0  0  0
 29 30  1  0  0  0
 30 31  2  0  0  0
 30 54  1  0  0  0
 31 32  1  0  0  0
 31 55  1  0  0  0
 32 33  2  0  0  0
 32 35  1  0  0  0
 33 34  1  0  0  0
 33 56  1  0  0  0
 34 57  1  0  0  0
M  END
> <i_i_glide_confnum>
62

> <i_i_glide_lignum>
5499

> <i_i_glide_posenum>
325

> <i_i_glide_rotatable_bonds>
9

> <i_m_Source_File_Index>
1437

> <b_m_subgroup_collapsed>
0

> <r_i_docking_score>
-7.86378

> <r_i_glide_ecoul>
-9.0581

> <r_i_glide_eff_state_penalty>
0

> <r_i_glide_einternal>
9.43925

> <r_i_glide_emodel>
-57.0012

> <r_i_glide_energy>
-51.1771

> <r_i_glide_erotb>
0.568806

> <r_i_glide_esite>
-0.119931

> <r_i_glide_evdw>
-42.119

> <r_i_glide_gscore>
-7.86378

> <r_i_glide_hbond>
-0.706325

> <r_i_glide_ligand_efficiency>
-0.245743

> <r_i_glide_ligand_efficiency_ln>
-1.76092

> <r_i_glide_ligand_efficiency_sa>
-0.780186

> <r_i_glide_lipo>
-3.3053

> <r_i_glide_metal>
0

> <r_i_glide_rewards>
-0.836371

> <s_i_glide_gridfile>
wee1_glide-grid

> <s_m_Source_File>
wee1_decoys_glide_SP.sdf

> <s_m_Source_Path>
/Users/zhangxujun/Desktop

> <s_m_entry_id>
1712

> <s_m_entry_name>
wee1_decoys_glide_SP.1437

> <s_m_subgroup_title>
wee1_decoys_glide_SP

> <s_m_subgroupid>
wee1_decoys_glide_SP


$$$$
