ZINC48488365_3891
                    3D
 Schrodinger Suite 2024-2.
 43 44  0  0  1  0            999 V2000
    1.9357   53.8733   24.8817 C   0  0  0  0  0  0
    3.3119   54.0208   24.2435 C   0  0  0  0  0  0
    3.3696   54.0604   22.8467 C   0  0  0  0  0  0
    4.5935   54.1052   22.1923 C   0  0  0  0  0  0
    5.7673   54.1355   22.9291 C   0  0  0  0  0  0
    5.7447   54.0967   24.3248 C   0  0  0  0  0  0
    4.4998   54.0664   25.0109 C   0  0  0  0  0  0
    4.3565   53.9308   26.4175 N   0  0  0  0  0  0
    5.0360   54.5432   27.4085 C   0  0  0  0  0  0
    5.9897   55.2962   27.2293 O   0  0  0  0  0  0
    4.6290   54.2922   28.6690 N   0  0  0  0  0  0
    3.3590   53.7476   29.1877 C   0  0  2  0  0  0
    3.5616   53.7506   30.2594 H   0  0  0  0  0  0
    3.1015   52.2640   28.8355 C   0  0  0  0  0  0
    1.8822   51.6976   29.5920 C   0  0  0  0  0  0
    0.6141   52.5493   29.4316 C   0  0  0  0  0  0
    0.9018   54.0024   29.8321 C   0  0  0  0  0  0
    2.0575   54.5938   28.9913 C   0  0  1  0  0  0
    1.7492   54.4877   27.9529 H   0  0  0  0  0  0
    2.2165   56.0833   29.3392 C   0  0  0  0  0  0
    7.1042   53.9484   24.9913 C   0  0  0  0  0  0
    4.6785   54.0966   20.2920 Br  0  0  0  0  0  0
    1.1352   54.1882   24.2100 H   0  0  0  0  0  0
    1.7637   52.8385   25.1813 H   0  0  0  0  0  0
    1.8557   54.4931   25.7690 H   0  0  0  0  0  0
    2.4647   54.0241   22.2562 H   0  0  0  0  0  0
    6.7099   54.1512   22.4025 H   0  0  0  0  0  0
    3.5390   53.4190   26.7081 H   0  0  0  0  0  0
    5.2096   54.7337   29.3669 H   0  0  0  0  0  0
    3.9868   51.6741   29.0737 H   0  0  0  0  0  0
    2.9273   52.1473   27.7661 H   0  0  0  0  0  0
    2.1198   51.6476   30.6554 H   0  0  0  0  0  0
    1.6797   50.6835   29.2572 H   0  0  0  0  0  0
   -0.1903   52.1413   30.0464 H   0  0  0  0  0  0
    0.2640   52.5061   28.3988 H   0  0  0  0  0  0
   -0.0034   54.5927   29.6940 H   0  0  0  0  0  0
    1.1160   54.0786   30.8994 H   0  0  0  0  0  0
    2.3039   56.2411   30.4145 H   0  0  0  0  0  0
    3.1040   56.4967   28.8818 H   0  0  0  0  0  0
    1.3628   56.6668   28.9920 H   0  0  0  0  0  0
    7.8135   53.4596   24.3209 H   0  0  0  0  0  0
    7.5045   54.9256   25.2527 H   0  0  0  0  0  0
    7.0569   53.3162   25.8778 H   0  0  0  0  0  0
  1  2  1  0  0  0
  1 23  1  0  0  0
  1 24  1  0  0  0
  1 25  1  0  0  0
  2  7  2  0  0  0
  2  3  1  0  0  0
  3  4  2  0  0  0
  3 26  1  0  0  0
  4  5  1  0  0  0
  4 22  1  0  0  0
  5  6  2  0  0  0
  5 27  1  0  0  0
  6  7  1  0  0  0
  6 21  1  0  0  0
  7  8  1  0  0  0
  8  9  1  0  0  0
  8 28  1  0  0  0
  9 10  2  0  0  0
  9 11  1  0  0  0
 11 12  1  0  0  0
 11 29  1  0  0  0
 12 13  1  0  0  0
 12 18  1  0  0  0
 12 14  1  0  0  0
 14 15  1  0  0  0
 14 30  1  0  0  0
 14 31  1  0  0  0
 15 16  1  0  0  0
 15 32  1  0  0  0
 15 33  1  0  0  0
 16 17  1  0  0  0
 16 34  1  0  0  0
 16 35  1  0  0  0
 17 18  1  0  0  0
 17 36  1  0  0  0
 17 37  1  0  0  0
 18 19  1  0  0  0
 18 20  1  0  0  0
 20 38  1  0  0  0
 20 39  1  0  0  0
 20 40  1  0  0  0
 21 41  1  0  0  0
 21 42  1  0  0  0
 21 43  1  0  0  0
M  END
> <i_i_glide_confnum>
5

> <i_i_glide_lignum>
3892

> <i_i_glide_posenum>
294

> <i_i_glide_rotatable_bonds>
4

> <i_m_Source_File_Index>
3907

> <b_m_subgroup_collapsed>
0

> <r_i_docking_score>
-4.49651

> <r_i_glide_ecoul>
1.10316

> <r_i_glide_eff_state_penalty>
0

> <r_i_glide_einternal>
3.93105

> <r_i_glide_emodel>
-33.9481

> <r_i_glide_energy>
-32.4176

> <r_i_glide_erotb>
0.657579

> <r_i_glide_esite>
0

> <r_i_glide_evdw>
-33.5207

> <r_i_glide_gscore>
-4.49651

> <r_i_glide_hbond>
0

> <r_i_glide_ligand_efficiency>
-0.224825

> <r_i_glide_ligand_efficiency_ln>
-1.12533

> <r_i_glide_ligand_efficiency_sa>
-0.61027

> <r_i_glide_lipo>
-3.10111

> <r_i_glide_metal>
0

> <r_i_glide_rewards>
-0.542415

> <s_i_glide_gridfile>
wee1_glide-grid

> <s_m_Source_File>
wee1_decoys_glide_SP.sdf

> <s_m_Source_Path>
/Users/zhangxujun/Desktop

> <s_m_entry_id>
4182

> <s_m_entry_name>
wee1_decoys_glide_SP.3907

> <s_m_subgroup_title>
wee1_decoys_glide_SP

> <s_m_subgroupid>
wee1_decoys_glide_SP


$$$$
