ZINC36063053_5659
                    3D
 Schrodinger Suite 2024-2.
 62 65  0  0  1  0            999 V2000
    5.9779   55.3054   20.6124 C   0  0  0  0  0  0
    4.9707   54.7390   19.5988 C   0  0  0  0  0  0
    3.9045   54.0210   20.2167 O   0  0  0  0  0  0
    4.0636   52.7438   20.6244 C   0  0  0  0  0  0
    5.1249   52.1254   20.6211 O   0  0  0  0  0  0
    2.8271   52.1117   21.0379 C   0  0  0  0  0  0
    2.2191   52.2206   22.2725 C   0  0  0  0  0  0
    1.0832   51.4832   22.5277 N   0  0  0  0  0  0
    0.7487   50.5173   21.7606 C   0  0  0  0  0  0
    1.3538   50.1762   20.5604 N   0  0  0  0  0  0
    2.2997   51.1402   19.9473 C   0  0  1  0  0  0
    3.1352   50.5318   19.5909 H   0  0  0  0  0  0
    1.7051   51.8464   18.7196 C   0  0  0  0  0  0
    0.4697   52.4965   18.8000 C   0  0  0  0  0  0
   -0.0597   53.1363   17.6824 C   0  0  0  0  0  0
    0.6453   53.1283   16.4780 C   0  0  0  0  0  0
    1.8722   52.4691   16.3895 C   0  0  0  0  0  0
    2.4006   51.8323   17.5083 C   0  0  0  0  0  0
    0.0651   53.8152   15.2554 C   0  0  0  0  0  0
    0.8626   49.0463   19.9306 C   0  0  0  0  0  0
   -0.2170   48.5542   20.5657 C   0  0  0  0  0  0
   -0.6597   49.4679   22.0102 S   0  0  0  0  0  0
    1.4682   48.4650   18.7392 C   0  0  0  0  0  0
    1.3646   47.2124   18.2670 C   0  0  0  0  0  0
    0.7062   46.1946   18.7007 O   0  5  0  0  0  0
    2.0741   46.8770   17.1388 N   0  0  0  0  0  0
    1.5469   46.3066   15.9072 C   0  0  0  0  0  0
    0.8302   47.3746   15.0629 C   0  0  0  0  0  0
    2.6778   45.6472   15.1058 C   0  0  0  0  0  0
    2.6704   53.0282   23.4928 C   0  0  0  0  0  0
    3.9043   53.7088   23.5763 C   0  0  0  0  0  0
    4.3201   54.3578   24.7363 C   0  0  0  0  0  0
    3.5147   54.3408   25.8653 C   0  0  0  0  0  0
    2.2858   53.6964   25.8283 C   0  0  0  0  0  0
    1.8676   53.0723   24.6570 C   0  0  0  0  0  0
    6.7871   55.8247   20.0985 H   0  0  0  0  0  0
    5.5043   56.0212   21.2813 H   0  0  0  0  0  0
    6.4236   54.5140   21.2174 H   0  0  0  0  0  0
    5.4790   54.1054   18.8688 H   0  0  0  0  0  0
    4.5323   55.5606   19.0317 H   0  0  0  0  0  0
   -0.0734   52.5102   19.7331 H   0  0  0  0  0  0
   -1.0118   53.6410   17.7548 H   0  0  0  0  0  0
    2.4190   52.4448   15.4581 H   0  0  0  0  0  0
    3.3475   51.3148   17.4281 H   0  0  0  0  0  0
   -1.0253   53.7795   15.2697 H   0  0  0  0  0  0
    0.3814   54.8581   15.2164 H   0  0  0  0  0  0
    0.3826   53.3166   14.3382 H   0  0  0  0  0  0
   -0.7831   47.6819   20.2753 H   0  0  0  0  0  0
    2.0949   49.1258   18.1567 H   0  0  0  0  0  0
    2.8022   47.5446   16.9118 H   0  0  0  0  0  0
    0.8244   45.5318   16.1727 H   0  0  0  0  0  0
    0.4163   46.9463   14.1502 H   0  0  0  0  0  0
    1.5095   48.1805   14.7794 H   0  0  0  0  0  0
    0.0031   47.8234   15.6157 H   0  0  0  0  0  0
    2.3007   45.1954   14.1878 H   0  0  0  0  0  0
    3.4525   46.3699   14.8393 H   0  0  0  0  0  0
    3.1555   44.8568   15.6870 H   0  0  0  0  0  0
    4.6185   53.7438   22.7784 H   0  0  0  0  0  0
    5.2786   54.8551   24.7624 H   0  0  0  0  0  0
    3.8420   54.8291   26.7712 H   0  0  0  0  0  0
    1.6538   53.6800   26.7038 H   0  0  0  0  0  0
    0.9048   52.5848   24.6890 H   0  0  0  0  0  0
  1  2  1  0  0  0
  1 36  1  0  0  0
  1 37  1  0  0  0
  1 38  1  0  0  0
  2  3  1  0  0  0
  2 39  1  0  0  0
  2 40  1  0  0  0
  3  4  1  0  0  0
  4  5  2  0  0  0
  4  6  1  0  0  0
  6 11  1  0  0  0
  6  7  2  0  0  0
  7  8  1  0  0  0
  7 30  1  0  0  0
  8  9  2  0  0  0
  9 22  1  0  0  0
  9 10  1  0  0  0
 10 11  1  0  0  0
 10 20  1  0  0  0
 11 12  1  0  0  0
 11 13  1  0  0  0
 13 18  2  0  0  0
 13 14  1  0  0  0
 14 15  2  0  0  0
 14 41  1  0  0  0
 15 16  1  0  0  0
 15 42  1  0  0  0
 16 17  2  0  0  0
 16 19  1  0  0  0
 17 18  1  0  0  0
 17 43  1  0  0  0
 18 44  1  0  0  0
 19 45  1  0  0  0
 19 46  1  0  0  0
 19 47  1  0  0  0
 20 21  2  0  0  0
 20 23  1  0  0  0
 21 22  1  0  0  0
 21 48  1  0  0  0
 23 24  2  0  0  0
 23 49  1  0  0  0
 24 25  1  0  0  0
 24 26  1  0  0  0
 26 27  1  0  0  0
 26 50  1  0  0  0
 27 28  1  0  0  0
 27 29  1  0  0  0
 27 51  1  0  0  0
 28 52  1  0  0  0
 28 53  1  0  0  0
 28 54  1  0  0  0
 29 55  1  0  0  0
 29 56  1  0  0  0
 29 57  1  0  0  0
 30 35  2  0  0  0
 30 31  1  0  0  0
 31 32  2  0  0  0
 31 58  1  0  0  0
 32 33  1  0  0  0
 32 59  1  0  0  0
 33 34  2  0  0  0
 33 60  1  0  0  0
 34 35  1  0  0  0
 34 61  1  0  0  0
 35 62  1  0  0  0
M  CHG  1  25  -1
M  END
> <i_i_glide_confnum>
111

> <i_i_glide_lignum>
5660

> <i_i_glide_posenum>
114

> <i_i_glide_rotatable_bonds>
8

> <i_m_Source_File_Index>
875

> <b_m_subgroup_collapsed>
0

> <r_i_docking_score>
-3.24699

> <r_i_glide_ecoul>
-1.37575

> <r_i_glide_eff_state_penalty>
0

> <r_i_glide_einternal>
11.4704

> <r_i_glide_emodel>
-39.154

> <r_i_glide_energy>
-35.7315

> <r_i_glide_erotb>
0.539053

> <r_i_glide_esite>
-0.0806673

> <r_i_glide_evdw>
-34.3558

> <r_i_glide_gscore>
-3.24699

> <r_i_glide_hbond>
-0.11773

> <r_i_glide_ligand_efficiency>
-0.0954996

> <r_i_glide_ligand_efficiency_ln>
-0.71735

> <r_i_glide_ligand_efficiency_sa>
-0.309382

> <r_i_glide_lipo>
-1.43664

> <r_i_glide_metal>
0

> <r_i_glide_rewards>
-0.226849

> <s_i_glide_gridfile>
wee1_glide-grid

> <s_m_Source_File>
wee1_decoys_glide_SP.sdf

> <s_m_Source_Path>
/Users/zhangxujun/Desktop

> <s_m_entry_id>
1150

> <s_m_entry_name>
wee1_decoys_glide_SP.875

> <s_m_subgroup_title>
wee1_decoys_glide_SP

> <s_m_subgroupid>
wee1_decoys_glide_SP


$$$$
