ZINC50987589_4697
                    3D
 Schrodinger Suite 2024-2.
 36 38  0  0  1  0            999 V2000
    1.3877   48.4723   17.3217 C   0  0  0  0  0  0
    1.3766   49.0475   18.5365 C   0  0  0  0  0  0
    2.6088   49.2209   19.4007 C   0  0  0  0  0  0
    2.7610   50.6533   19.6862 N   0  0  0  0  0  0
    3.1897   51.5176   18.7669 C   0  0  0  0  0  0
    3.1823   52.7416   19.2784 N   0  3  0  0  0  0
    2.7537   52.7172   20.6698 C   0  0  1  0  0  0
    2.5051   51.2523   20.8564 C   0  0  0  0  0  0
    2.0874   50.6618   21.9784 N   0  3  0  0  0  0
    3.7120   53.3719   21.6738 C   0  0  0  0  0  0
    3.3208   53.4421   23.0149 C   0  0  0  0  0  0
    4.1785   53.9767   23.9722 C   0  0  0  0  0  0
    5.4290   54.4958   23.6005 C   0  0  0  0  0  0
    5.8008   54.4971   22.2525 C   0  0  0  0  0  0
    4.9507   53.9242   21.3011 C   0  0  0  0  0  0
    7.4422   55.2967   21.6953 Br  0  0  0  0  0  0
    6.2997   55.0312   24.5329 O   0  0  0  0  0  0
    6.0453   54.6107   25.8793 C   0  0  0  0  0  0
    4.5323   54.6749   26.1931 C   0  0  0  0  0  0
    3.7791   53.8689   25.2893 O   0  0  0  0  0  0
    2.3028   48.0975   16.8801 H   0  0  0  0  0  0
    0.4796   48.3685   16.7443 H   0  0  0  0  0  0
    0.4385   49.4024   18.9401 H   0  0  0  0  0  0
    2.5262   48.6610   20.3311 H   0  0  0  0  0  0
    3.5046   48.8871   18.8824 H   0  0  0  0  0  0
    3.5042   51.2578   17.7609 H   0  0  0  0  0  0
    1.9172   51.2098   22.8087 H   0  0  0  0  0  0
    1.8025   53.2512   20.7125 H   0  0  0  0  0  0
    2.3658   53.0580   23.3356 H   0  0  0  0  0  0
    5.2727   53.9207   20.2689 H   0  0  0  0  0  0
    6.6055   55.2387   26.5717 H   0  0  0  0  0  0
    6.3918   53.5827   26.0091 H   0  0  0  0  0  0
    4.1868   55.6994   26.0816 H   0  0  0  0  0  0
    4.3328   54.3604   27.2181 H   0  0  0  0  0  0
    1.9537   49.6625   22.0153 H   0  0  0  0  0  0
    3.4513   53.5875   18.7936 H   0  0  0  0  0  0
  1  2  2  0  0  0
  1 21  1  0  0  0
  1 22  1  0  0  0
  2  3  1  0  0  0
  2 23  1  0  0  0
  3 24  1  0  0  0
  3 25  1  0  0  0
  3  4  1  0  0  0
  4  5  1  0  0  0
  4  8  1  0  0  0
  5  6  2  0  0  0
  5 26  1  0  0  0
  6  7  1  0  0  0
  6 36  1  0  0  0
  7 10  1  0  0  0
  7 28  1  0  0  0
  7  8  1  0  0  0
  8  9  2  0  0  0
  9 27  1  0  0  0
  9 35  1  0  0  0
 10 15  2  0  0  0
 10 11  1  0  0  0
 11 12  2  0  0  0
 11 29  1  0  0  0
 12 20  1  0  0  0
 12 13  1  0  0  0
 13 14  2  0  0  0
 13 17  1  0  0  0
 14 15  1  0  0  0
 14 16  1  0  0  0
 15 30  1  0  0  0
 17 18  1  0  0  0
 18 19  1  0  0  0
 18 31  1  0  0  0
 18 32  1  0  0  0
 19 20  1  0  0  0
 19 33  1  0  0  0
 19 34  1  0  0  0
M  CHG  2   6   1   9   1
M  END
> <i_i_glide_confnum>
29

> <i_i_glide_lignum>
4698

> <i_i_glide_posenum>
282

> <i_i_glide_rotatable_bonds>
3

> <i_m_Source_File_Index>
4462

> <b_m_subgroup_collapsed>
0

> <r_i_docking_score>
-4.52884

> <r_i_glide_ecoul>
-6.14273

> <r_i_glide_eff_state_penalty>
0

> <r_i_glide_einternal>
4.73452

> <r_i_glide_emodel>
-38.2152

> <r_i_glide_energy>
-29.0388

> <r_i_glide_erotb>
0.495955

> <r_i_glide_esite>
-0.198937

> <r_i_glide_evdw>
-22.8961

> <r_i_glide_gscore>
-4.52884

> <r_i_glide_hbond>
0

> <r_i_glide_ligand_efficiency>
-0.226442

> <r_i_glide_ligand_efficiency_ln>
-1.13342

> <r_i_glide_ligand_efficiency_sa>
-0.614659

> <r_i_glide_lipo>
-1.63952

> <r_i_glide_metal>
0

> <r_i_glide_rewards>
-1.12012

> <s_i_glide_gridfile>
wee1_glide-grid

> <s_m_Source_File>
wee1_decoys_glide_SP.sdf

> <s_m_Source_Path>
/Users/zhangxujun/Desktop

> <s_m_entry_id>
4737

> <s_m_entry_name>
wee1_decoys_glide_SP.4462

> <s_m_subgroup_title>
wee1_decoys_glide_SP

> <s_m_subgroupid>
wee1_decoys_glide_SP


$$$$
