ZINC14556924_4123
                    3D
 Schrodinger Suite 2024-2.
 54 56  0  0  1  0            999 V2000
    9.0951   54.8382   18.5678 C   0  0  0  0  0  0
    7.8652   54.8965   19.2781 O   0  0  0  0  0  0
    6.6689   54.7516   18.5996 C   0  0  0  0  0  0
    6.6149   54.6153   17.2001 C   0  0  0  0  0  0
    5.4016   54.4709   16.5358 C   0  0  0  0  0  0
    4.2165   54.4640   17.2603 C   0  0  0  0  0  0
    4.2508   54.5916   18.6446 C   0  0  0  0  0  0
    5.4640   54.7356   19.3401 C   0  0  0  0  0  0
    5.4607   54.8830   20.8527 C   0  0  0  0  0  0
    6.3453   55.5189   21.4323 O   0  0  0  0  0  0
    4.4139   54.2914   21.4867 N   0  0  0  0  0  0
    4.1285   54.1331   22.8149 C   0  0  0  0  0  0
    2.6102   53.5255   23.1378 S   0  0  0  0  0  0
    5.1121   54.4355   23.7277 N   0  0  0  0  0  0
    5.1876   54.3838   25.1359 C   0  0  0  0  0  0
    6.4596   54.2020   25.6808 C   0  0  0  0  0  0
    6.6271   54.0972   27.0597 C   0  0  0  0  0  0
    5.5231   54.1640   27.9059 C   0  0  0  0  0  0
    4.2306   54.3481   27.3929 C   0  0  0  0  0  0
    4.0895   54.5062   26.0017 C   0  0  0  0  0  0
    3.0521   54.4414   28.3518 C   0  0  0  0  0  0
    3.2634   54.8963   29.4815 O   0  0  0  0  0  0
    1.7985   54.0586   27.9596 N   0  0  0  0  0  0
    1.5634   53.1368   26.8264 C   0  0  0  0  0  0
    0.4118   52.1183   26.9665 C   0  0  0  0  0  0
    0.3836   51.2978   28.2691 C   0  0  0  0  0  0
   -0.2696   52.0075   29.4709 C   0  0  0  0  0  0
    0.4533   53.2737   29.9620 C   0  0  0  0  0  0
    0.6510   54.3177   28.8480 C   0  0  0  0  0  0
    2.5491   54.2909   16.3623 Br  0  0  0  0  0  0
    9.9043   54.8972   19.2880 H   0  0  0  0  0  0
    9.2109   53.8968   18.0279 H   0  0  0  0  0  0
    9.2017   55.6739   17.8768 H   0  0  0  0  0  0
    7.5116   54.6198   16.5997 H   0  0  0  0  0  0
    5.3789   54.3669   15.4609 H   0  0  0  0  0  0
    3.3046   54.5784   19.1624 H   0  0  0  0  0  0
    3.7352   53.8743   20.8707 H   0  0  0  0  0  0
    5.9926   54.6935   23.3027 H   0  0  0  0  0  0
    7.3217   54.1213   25.0329 H   0  0  0  0  0  0
    7.6098   53.9484   27.4802 H   0  0  0  0  0  0
    5.6834   54.0766   28.9713 H   0  0  0  0  0  0
    3.1262   54.7540   25.5938 H   0  0  0  0  0  0
    1.2831   53.7444   25.9662 H   0  0  0  0  0  0
    2.4704   52.5735   26.5998 H   0  0  0  0  0  0
   -0.5474   52.6212   26.8289 H   0  0  0  0  0  0
    0.4795   51.4318   26.1216 H   0  0  0  0  0  0
   -0.1996   50.4028   28.0669 H   0  0  0  0  0  0
    1.3860   50.9535   28.5247 H   0  0  0  0  0  0
   -0.3705   51.3009   30.2942 H   0  0  0  0  0  0
   -1.2949   52.2638   29.2056 H   0  0  0  0  0  0
    1.4068   53.0110   30.4233 H   0  0  0  0  0  0
   -0.1513   53.7147   30.7549 H   0  0  0  0  0  0
    0.8074   55.2835   29.3335 H   0  0  0  0  0  0
   -0.2459   54.4966   28.2554 H   0  0  0  0  0  0
  1  2  1  0  0  0
  1 31  1  0  0  0
  1 32  1  0  0  0
  1 33  1  0  0  0
  2  3  1  0  0  0
  3  8  2  0  0  0
  3  4  1  0  0  0
  4  5  2  0  0  0
  4 34  1  0  0  0
  5  6  1  0  0  0
  5 35  1  0  0  0
  6  7  2  0  0  0
  6 30  1  0  0  0
  7  8  1  0  0  0
  7 36  1  0  0  0
  8  9  1  0  0  0
  9 10  2  0  0  0
  9 11  1  0  0  0
 11 12  1  0  0  0
 11 37  1  0  0  0
 12 13  2  0  0  0
 12 14  1  0  0  0
 14 15  1  0  0  0
 14 38  1  0  0  0
 15 20  2  0  0  0
 15 16  1  0  0  0
 16 17  2  0  0  0
 16 39  1  0  0  0
 17 18  1  0  0  0
 17 40  1  0  0  0
 18 19  2  0  0  0
 18 41  1  0  0  0
 19 20  1  0  0  0
 19 21  1  0  0  0
 20 42  1  0  0  0
 21 22  2  0  0  0
 21 23  1  0  0  0
 23 29  1  0  0  0
 23 24  1  0  0  0
 24 25  1  0  0  0
 24 43  1  0  0  0
 24 44  1  0  0  0
 25 26  1  0  0  0
 25 45  1  0  0  0
 25 46  1  0  0  0
 26 27  1  0  0  0
 26 47  1  0  0  0
 26 48  1  0  0  0
 27 28  1  0  0  0
 27 49  1  0  0  0
 27 50  1  0  0  0
 28 29  1  0  0  0
 28 51  1  0  0  0
 28 52  1  0  0  0
 29 53  1  0  0  0
 29 54  1  0  0  0
M  END
> <i_i_glide_confnum>
97

> <i_i_glide_lignum>
4124

> <i_i_glide_posenum>
334

> <i_i_glide_rotatable_bonds>
8

> <i_m_Source_File_Index>
3594

> <b_m_subgroup_collapsed>
0

> <r_i_docking_score>
-6.20448

> <r_i_glide_ecoul>
-4.13627

> <r_i_glide_eff_state_penalty>
0

> <r_i_glide_einternal>
5.84483

> <r_i_glide_emodel>
-65.2697

> <r_i_glide_energy>
-49.661

> <r_i_glide_erotb>
0.592303

> <r_i_glide_esite>
0

> <r_i_glide_evdw>
-45.5247

> <r_i_glide_gscore>
-6.20448

> <r_i_glide_hbond>
-0.051612

> <r_i_glide_ligand_efficiency>
-0.206816

> <r_i_glide_ligand_efficiency_ln>
-1.40973

> <r_i_glide_ligand_efficiency_sa>
-0.642625

> <r_i_glide_lipo>
-2.41177

> <r_i_glide_metal>
0

> <r_i_glide_rewards>
-1.43672

> <s_i_glide_gridfile>
wee1_glide-grid

> <s_m_Source_File>
wee1_decoys_glide_SP.sdf

> <s_m_Source_Path>
/Users/zhangxujun/Desktop

> <s_m_entry_id>
3869

> <s_m_entry_name>
wee1_decoys_glide_SP.3594

> <s_m_subgroup_title>
wee1_decoys_glide_SP

> <s_m_subgroupid>
wee1_decoys_glide_SP


$$$$
