ZINC57340685_6176
                    3D
 Schrodinger Suite 2024-2.
 28 30  0  0  1  0            999 V2000
    5.2729   54.2421   20.4894 C   0  0  0  0  0  0
    4.9699   53.8339   21.9463 C   0  0  2  0  0  0
    5.0988   52.7506   22.0171 H   0  0  0  0  0  0
    3.5214   54.2208   22.2887 C   0  0  0  0  0  0
    3.0707   53.7585   23.6811 C   0  0  0  0  0  0
    4.1434   54.0892   24.7305 C   0  0  0  0  0  0
    5.4558   54.4190   24.3490 C   0  0  0  0  0  0
    6.4611   54.7544   25.7119 S   0  0  0  0  0  0
    5.1621   54.3956   26.7879 C   0  0  0  0  0  0
    3.9480   54.0982   26.1408 C   0  0  0  0  0  0
    2.6894   53.6932   26.7637 C   0  0  0  0  0  0
    1.6975   53.1974   26.2371 O   0  0  0  0  0  0
    2.6205   53.8795   28.0889 N   0  0  0  0  0  0
    3.7765   54.5497   29.2232 S   0  0  1  0  0  0
    3.9035   53.6943   30.4808 O   0  0  0  0  0  0
    5.3488   54.4012   28.1390 N   0  0  0  0  0  0
    5.9820   54.4965   22.9180 C   0  0  0  0  0  0
    5.0602   55.2967   20.3187 H   0  0  0  0  0  0
    6.3165   54.0957   20.2244 H   0  0  0  0  0  0
    4.6688   53.6675   19.7856 H   0  0  0  0  0  0
    2.8416   53.8072   21.5419 H   0  0  0  0  0  0
    3.3981   55.2962   22.1871 H   0  0  0  0  0  0
    2.1231   54.2449   23.9154 H   0  0  0  0  0  0
    2.8727   52.6863   23.6710 H   0  0  0  0  0  0
    1.7695   53.5585   28.5232 H   0  0  0  0  0  0
    6.1876   54.7346   28.6029 H   0  0  0  0  0  0
    6.9461   53.9910   22.8488 H   0  0  0  0  0  0
    6.1515   55.5377   22.6416 H   0  0  0  0  0  0
  1  2  1  0  0  0
  1 18  1  0  0  0
  1 19  1  0  0  0
  1 20  1  0  0  0
  2  3  1  0  0  0
  2 17  1  0  0  0
  2  4  1  0  0  0
  4  5  1  0  0  0
  4 21  1  0  0  0
  4 22  1  0  0  0
  5  6  1  0  0  0
  5 23  1  0  0  0
  5 24  1  0  0  0
  6 10  1  0  0  0
  6  7  2  0  0  0
  7  8  1  0  0  0
  7 17  1  0  0  0
  8  9  1  0  0  0
  9 16  1  0  0  0
  9 10  2  0  0  0
 10 11  1  0  0  0
 11 12  2  0  0  0
 11 13  1  0  0  0
 13 14  1  0  0  0
 13 25  1  0  0  0
 14 15  2  0  0  0
 14 16  1  0  0  0
 16 26  1  0  0  0
 17 27  1  0  0  0
 17 28  1  0  0  0
M  END
> <i_i_glide_confnum>
1

> <i_i_glide_lignum>
6177

> <i_i_glide_posenum>
219

> <i_i_glide_rotatable_bonds>
0

> <i_m_Source_File_Index>
2586

> <b_m_subgroup_collapsed>
0

> <r_i_docking_score>
-7.84329

> <r_i_glide_ecoul>
-3.82385

> <r_i_glide_eff_state_penalty>
0

> <r_i_glide_einternal>
0

> <r_i_glide_emodel>
-55.9365

> <r_i_glide_energy>
-37.5316

> <r_i_glide_erotb>
0

> <r_i_glide_esite>
0

> <r_i_glide_evdw>
-33.7077

> <r_i_glide_gscore>
-7.84329

> <r_i_glide_hbond>
-0.352583

> <r_i_glide_ligand_efficiency>
-0.490206

> <r_i_glide_ligand_efficiency_ln>
-2.07902

> <r_i_glide_ligand_efficiency_sa>
-1.23524

> <r_i_glide_lipo>
-2.157

> <r_i_glide_metal>
0

> <r_i_glide_rewards>
-3.07475

> <s_i_glide_gridfile>
wee1_glide-grid

> <s_m_Source_File>
wee1_decoys_glide_SP.sdf

> <s_m_Source_Path>
/Users/zhangxujun/Desktop

> <s_m_entry_id>
2861

> <s_m_entry_name>
wee1_decoys_glide_SP.2586

> <s_m_subgroup_title>
wee1_decoys_glide_SP

> <s_m_subgroupid>
wee1_decoys_glide_SP


$$$$
