ZINC08451187_917
                    3D
 Schrodinger Suite 2024-2.
 63 66  0  0  1  0            999 V2000
   -3.5103   50.8758   24.1863 C   0  0  0  0  0  0
   -2.4050   51.9495   24.1518 C   0  0  0  0  0  0
   -1.7736   52.1447   25.5334 C   0  0  0  0  0  0
   -1.3514   51.5795   23.2607 O   0  0  0  0  0  0
   -1.4712   51.6788   21.9211 C   0  0  0  0  0  0
   -2.4955   52.0937   21.3813 O   0  0  0  0  0  0
   -0.3273   51.1595   21.1372 C   0  0  0  0  0  0
    0.9509   51.0204   21.6078 C   0  0  0  0  0  0
    1.9233   50.4165   20.8661 O   0  0  0  0  0  0
    1.6232   49.8029   19.6939 C   0  0  0  0  0  0
    0.4186   49.8708   19.0998 C   0  0  0  0  0  0
   -0.6863   50.7521   19.6789 C   0  0  2  0  0  0
   -1.6077   50.1641   19.7138 H   0  0  0  0  0  0
   -1.0177   51.9365   18.7603 C   0  0  0  0  0  0
   -0.0365   52.8874   18.4480 C   0  0  0  0  0  0
   -0.3711   53.9542   17.6118 C   0  0  0  0  0  0
   -1.6129   54.1199   17.0896 N   0  0  0  0  0  0
   -2.5528   53.1881   17.3868 C   0  0  0  0  0  0
   -2.2992   52.0900   18.2116 C   0  0  0  0  0  0
    0.1512   49.1484   17.8984 C   0  0  0  0  0  0
   -0.0975   48.5502   16.9400 N   0  0  0  0  0  0
    2.7043   49.0793   19.2820 N   0  0  0  0  0  0
    1.5849   51.4308   22.9414 C   0  0  0  0  0  0
    2.6608   52.8968   22.8295 S   0  0  0  0  0  0
    3.0187   53.4684   24.4848 C   0  0  0  0  0  0
    4.2354   54.0972   24.8034 C   0  0  0  0  0  0
    4.4542   54.4746   26.1315 C   0  0  0  0  0  0
    3.5053   54.2073   27.1259 C   0  0  0  0  0  0
    2.3285   53.5444   26.7330 C   0  0  0  0  0  0
    2.0901   53.1973   25.4390 N   0  0  0  0  0  0
    1.2290   53.1918   27.7301 C   0  0  0  0  0  0
    1.6314   52.2047   28.8408 C   0  0  0  0  0  0
    2.4430   52.8299   29.9875 C   0  0  0  0  0  0
    3.8090   53.4062   29.5828 C   0  0  0  0  0  0
    3.7703   54.5797   28.5836 C   0  0  0  0  0  0
    5.3085   54.3211   23.8391 C   0  0  0  0  0  0
    6.1628   54.4964   23.0789 N   0  0  0  0  0  0
   -4.3018   51.1484   24.8874 H   0  0  0  0  0  0
   -3.9765   50.7480   23.2091 H   0  0  0  0  0  0
   -3.1115   49.9079   24.4924 H   0  0  0  0  0  0
   -2.8337   52.9034   23.8364 H   0  0  0  0  0  0
   -2.5091   52.4747   26.2665 H   0  0  0  0  0  0
   -1.3224   51.2212   25.9023 H   0  0  0  0  0  0
   -0.9899   52.8968   25.4864 H   0  0  0  0  0  0
    0.9642   52.8058   18.8519 H   0  0  0  0  0  0
    0.3637   54.7065   17.3664 H   0  0  0  0  0  0
   -3.5290   53.3338   16.9468 H   0  0  0  0  0  0
   -3.0852   51.3791   18.4208 H   0  0  0  0  0  0
    2.8790   48.8992   18.2978 H   0  0  0  0  0  0
    3.3950   48.7421   19.9400 H   0  0  0  0  0  0
    2.1976   50.5965   23.2835 H   0  0  0  0  0  0
    0.8792   51.5901   23.7458 H   0  0  0  0  0  0
    5.3846   54.9527   26.4100 H   0  0  0  0  0  0
    0.3931   52.7472   27.1914 H   0  0  0  0  0  0
    0.8343   54.1132   28.1614 H   0  0  0  0  0  0
    2.1732   51.3592   28.4107 H   0  0  0  0  0  0
    0.7232   51.7770   29.2689 H   0  0  0  0  0  0
    2.5963   52.0741   30.7579 H   0  0  0  0  0  0
    1.8453   53.6081   30.4627 H   0  0  0  0  0  0
    4.4460   52.6127   29.1910 H   0  0  0  0  0  0
    4.3038   53.7517   30.4905 H   0  0  0  0  0  0
    3.0527   55.3397   28.8951 H   0  0  0  0  0  0
    4.7375   55.0817   28.6362 H   0  0  0  0  0  0
  1  2  1  0  0  0
  1 38  1  0  0  0
  1 39  1  0  0  0
  1 40  1  0  0  0
  2  3  1  0  0  0
  2  4  1  0  0  0
  2 41  1  0  0  0
  3 42  1  0  0  0
  3 43  1  0  0  0
  3 44  1  0  0  0
  4  5  1  0  0  0
  5  6  2  0  0  0
  5  7  1  0  0  0
  7 12  1  0  0  0
  7  8  2  0  0  0
  8  9  1  0  0  0
  8 23  1  0  0  0
  9 10  1  0  0  0
 10 11  2  0  0  0
 10 22  1  0  0  0
 11 12  1  0  0  0
 11 20  1  0  0  0
 12 13  1  0  0  0
 12 14  1  0  0  0
 14 19  2  0  0  0
 14 15  1  0  0  0
 15 16  2  0  0  0
 15 45  1  0  0  0
 16 17  1  0  0  0
 16 46  1  0  0  0
 17 18  2  0  0  0
 18 19  1  0  0  0
 18 47  1  0  0  0
 19 48  1  0  0  0
 20 21  3  0  0  0
 22 49  1  0  0  0
 22 50  1  0  0  0
 23 24  1  0  0  0
 23 51  1  0  0  0
 23 52  1  0  0  0
 24 25  1  0  0  0
 25 30  2  0  0  0
 25 26  1  0  0  0
 26 27  2  0  0  0
 26 36  1  0  0  0
 27 28  1  0  0  0
 27 53  1  0  0  0
 28 35  1  0  0  0
 28 29  2  0  0  0
 29 30  1  0  0  0
 29 31  1  0  0  0
 31 32  1  0  0  0
 31 54  1  0  0  0
 31 55  1  0  0  0
 32 33  1  0  0  0
 32 56  1  0  0  0
 32 57  1  0  0  0
 33 34  1  0  0  0
 33 58  1  0  0  0
 33 59  1  0  0  0
 34 35  1  0  0  0
 34 60  1  0  0  0
 34 61  1  0  0  0
 35 62  1  0  0  0
 35 63  1  0  0  0
 36 37  3  0  0  0
M  END
> <i_i_glide_confnum>
20

> <i_i_glide_lignum>
918

> <i_i_glide_posenum>
280

> <i_i_glide_rotatable_bonds>
9

> <i_m_Source_File_Index>
3834

> <b_m_subgroup_collapsed>
0

> <r_i_docking_score>
-5.43613

> <r_i_glide_ecoul>
-5.15138

> <r_i_glide_eff_state_penalty>
0

> <r_i_glide_einternal>
7.60124

> <r_i_glide_emodel>
-54.4835

> <r_i_glide_energy>
-43.2015

> <r_i_glide_erotb>
0.487136

> <r_i_glide_esite>
-0.113343

> <r_i_glide_evdw>
-38.0501

> <r_i_glide_gscore>
-5.43613

> <r_i_glide_hbond>
-0.506685

> <r_i_glide_ligand_efficiency>
-0.151004

> <r_i_glide_ligand_efficiency_ln>
-1.18602

> <r_i_glide_ligand_efficiency_sa>
-0.498603

> <r_i_glide_lipo>
-2.18309

> <r_i_glide_metal>
0

> <r_i_glide_rewards>
-0.444935

> <s_i_glide_gridfile>
wee1_glide-grid

> <s_m_Source_File>
wee1_decoys_glide_SP.sdf

> <s_m_Source_Path>
/Users/zhangxujun/Desktop

> <s_m_entry_id>
4109

> <s_m_entry_name>
wee1_decoys_glide_SP.3834

> <s_m_subgroup_title>
wee1_decoys_glide_SP

> <s_m_subgroupid>
wee1_decoys_glide_SP


$$$$
