ZINC13272581_1992
                    3D
 Schrodinger Suite 2024-2.
 50 53  0  0  1  0            999 V2000
    2.7537   54.9383   28.8866 C   0  0  0  0  0  0
    3.1685   54.4969   27.6293 C   0  0  0  0  0  0
    2.5256   53.4213   27.0181 C   0  0  0  0  0  0
    1.4692   52.7800   27.6703 C   0  0  0  0  0  0
    1.0521   53.2263   28.9280 C   0  0  0  0  0  0
    1.7031   54.2963   29.5446 C   0  0  0  0  0  0
   -0.0570   52.3515   29.4612 C   0  0  0  0  0  0
   -0.4870   51.5306   28.2437 C   0  0  0  0  0  0
    0.6748   51.5627   27.2396 C   0  0  1  0  0  0
    1.3027   50.6820   27.3795 H   0  0  0  0  0  0
    0.2096   51.6731   25.8573 N   0  0  0  0  0  0
   -0.4854   50.6588   25.1727 C   0  0  0  0  0  0
   -0.4534   49.3417   25.6525 C   0  0  0  0  0  0
   -1.1423   48.3215   25.0073 C   0  0  0  0  0  0
   -1.8781   48.5994   23.8593 C   0  0  0  0  0  0
   -1.9119   49.9030   23.3626 C   0  0  0  0  0  0
   -1.2294   50.9557   24.0022 C   0  0  0  0  0  0
   -1.3656   52.3358   23.4433 N   0  3  0  0  0  0
   -2.0933   52.4958   22.4666 O   0  0  0  0  0  0
   -0.7753   53.2828   23.9579 O   0  5  0  0  0  0
   -2.8316   47.2983   23.0787 S   0  0  0  0  0  0
   -3.7806   47.9193   22.1476 O   0  0  0  0  0  0
   -3.2913   46.4035   24.1471 O   0  0  0  0  0  0
   -1.6956   46.3305   22.1357 N   0  0  0  0  0  0
   -1.4572   46.4459   20.7582 C   0  0  0  0  0  0
   -1.4028   47.7166   20.1735 C   0  0  0  0  0  0
   -1.1010   47.8652   18.8231 C   0  0  0  0  0  0
   -0.8446   46.7438   18.0425 C   0  0  0  0  0  0
   -0.8969   45.4724   18.6103 C   0  0  0  0  0  0
   -1.2063   45.2878   19.9698 C   0  0  0  0  0  0
   -1.2579   43.8779   20.5218 C   0  0  0  0  0  0
   -0.8533   42.9282   19.8076 O   0  0  0  0  0  0
    3.2519   55.7763   29.3507 H   0  0  0  0  0  0
    3.9911   54.9869   27.1288 H   0  0  0  0  0  0
    2.8648   53.0758   26.0517 H   0  0  0  0  0  0
    1.3910   54.6418   30.5188 H   0  0  0  0  0  0
   -0.8937   52.9152   29.8722 H   0  0  0  0  0  0
    0.3147   51.6969   30.2483 H   0  0  0  0  0  0
   -1.3851   51.9851   27.8172 H   0  0  0  0  0  0
   -0.7536   50.5040   28.5029 H   0  0  0  0  0  0
    0.1649   52.6014   25.4547 H   0  0  0  0  0  0
    0.0926   49.0800   26.5458 H   0  0  0  0  0  0
   -1.1159   47.3245   25.4255 H   0  0  0  0  0  0
   -2.5069   50.1000   22.4814 H   0  0  0  0  0  0
   -1.5042   45.4050   22.5032 H   0  0  0  0  0  0
   -1.5774   48.6016   20.7655 H   0  0  0  0  0  0
   -1.0564   48.8508   18.3833 H   0  0  0  0  0  0
   -0.6034   46.8595   16.9960 H   0  0  0  0  0  0
   -0.6948   44.6223   17.9732 H   0  0  0  0  0  0
   -1.6957   43.6948   21.6829 O   0  5  0  0  0  0
  1  6  2  0  0  0
  1  2  1  0  0  0
  1 33  1  0  0  0
  2  3  2  0  0  0
  2 34  1  0  0  0
  3  4  1  0  0  0
  3 35  1  0  0  0
  4  9  1  0  0  0
  4  5  2  0  0  0
  5  6  1  0  0  0
  5  7  1  0  0  0
  6 36  1  0  0  0
  7  8  1  0  0  0
  7 37  1  0  0  0
  7 38  1  0  0  0
  8  9  1  0  0  0
  8 39  1  0  0  0
  8 40  1  0  0  0
  9 10  1  0  0  0
  9 11  1  0  0  0
 11 12  1  0  0  0
 11 41  1  0  0  0
 12 17  2  0  0  0
 12 13  1  0  0  0
 13 14  2  0  0  0
 13 42  1  0  0  0
 14 15  1  0  0  0
 14 43  1  0  0  0
 15 16  2  0  0  0
 15 21  1  0  0  0
 16 17  1  0  0  0
 16 44  1  0  0  0
 17 18  1  0  0  0
 18 19  2  0  0  0
 18 20  1  0  0  0
 21 22  2  0  0  0
 21 23  2  0  0  0
 21 24  1  0  0  0
 24 25  1  0  0  0
 24 45  1  0  0  0
 25 30  2  0  0  0
 25 26  1  0  0  0
 26 27  2  0  0  0
 26 46  1  0  0  0
 27 28  1  0  0  0
 27 47  1  0  0  0
 28 29  2  0  0  0
 28 48  1  0  0  0
 29 30  1  0  0  0
 29 49  1  0  0  0
 30 31  1  0  0  0
 31 32  2  0  0  0
 31 50  1  0  0  0
M  CHG  3  18   1  20  -1  50  -1
M  END
> <i_i_glide_confnum>
22

> <i_i_glide_lignum>
1993

> <i_i_glide_posenum>
69

> <i_i_glide_rotatable_bonds>
7

> <i_m_Source_File_Index>
4395

> <b_m_subgroup_collapsed>
0

> <r_i_docking_score>
-4.37539

> <r_i_glide_ecoul>
-7.86415

> <r_i_glide_eff_state_penalty>
0

> <r_i_glide_einternal>
6.13748

> <r_i_glide_emodel>
-51.4759

> <r_i_glide_energy>
-39.319

> <r_i_glide_erotb>
0.490065

> <r_i_glide_esite>
-0.122736

> <r_i_glide_evdw>
-31.4548

> <r_i_glide_gscore>
-4.37539

> <r_i_glide_hbond>
-0.464188

> <r_i_glide_ligand_efficiency>
-0.136731

> <r_i_glide_ligand_efficiency_ln>
-0.979769

> <r_i_glide_ligand_efficiency_sa>
-0.434094

> <r_i_glide_lipo>
-1.24648

> <r_i_glide_metal>
0

> <r_i_glide_rewards>
-0.27969

> <s_i_glide_gridfile>
wee1_glide-grid

> <s_m_Source_File>
wee1_decoys_glide_SP.sdf

> <s_m_Source_Path>
/Users/zhangxujun/Desktop

> <s_m_entry_id>
4670

> <s_m_entry_name>
wee1_decoys_glide_SP.4395

> <s_m_subgroup_title>
wee1_decoys_glide_SP

> <s_m_subgroupid>
wee1_decoys_glide_SP


$$$$
