ZINC39691162_3695
                    3D
 Schrodinger Suite 2024-2.
 65 68  0  0  1  0            999 V2000
    4.9625   53.5951   21.7416 C   0  0  0  0  0  0
    5.2245   54.1816   23.1220 C   0  0  0  0  0  0
    6.4312   54.8497   23.3516 C   0  0  0  0  0  0
    6.7047   55.4028   24.6010 C   0  0  0  0  0  0
    5.7859   55.2882   25.6387 C   0  0  0  0  0  0
    4.5777   54.6332   25.4188 C   0  0  0  0  0  0
    4.2840   54.0865   24.1654 C   0  0  0  0  0  0
    2.9786   53.3178   24.0013 C   0  0  0  0  0  0
    1.8071   54.1673   23.5033 C   0  0  0  0  0  0
    0.5266   53.4935   23.6805 N   0  0  0  0  0  0
    0.0679   52.4969   22.8921 C   0  0  0  0  0  0
    0.7269   52.0237   21.9702 O   0  0  0  0  0  0
   -1.3342   51.9078   23.1823 C   0  0  2  0  0  0
   -1.7573   51.6271   22.2149 H   0  0  0  0  0  0
   -2.2945   52.9725   23.7635 C   0  0  0  0  0  0
   -3.1513   52.2076   24.6735 N   0  0  0  0  0  0
   -2.7990   50.7811   24.6829 C   0  0  0  0  0  0
   -1.3361   50.7351   24.1875 C   0  0  0  0  0  0
   -0.3375   50.9460   25.3748 C   0  0  0  0  0  0
   -0.4209   49.8244   26.4101 C   0  0  0  0  0  0
   -0.1310   48.4971   25.6817 N   0  3  0  0  0  0
   -1.0567   48.2180   24.4796 C   0  0  0  0  0  0
   -0.9229   49.4049   23.5134 C   0  0  0  0  0  0
   -4.1778   52.7974   25.3420 C   0  0  0  0  0  0
   -4.4903   53.9777   25.1596 O   0  0  0  0  0  0
   -4.9694   51.9897   26.3428 C   0  0  0  0  0  0
   -6.3676   51.9818   26.2705 C   0  0  0  0  0  0
   -7.1193   51.2626   27.1989 C   0  0  0  0  0  0
   -6.4882   50.5534   28.2192 C   0  0  0  0  0  0
   -5.0908   50.5695   28.3230 C   0  0  0  0  0  0
   -4.3423   51.2961   27.3911 C   0  0  0  0  0  0
   -4.3778   49.8020   29.4260 C   0  0  0  0  0  0
   -7.5651   49.5834   29.4603 Br  0  0  0  0  0  0
    4.9775   52.5054   21.7798 H   0  0  0  0  0  0
    3.9827   53.9026   21.3718 H   0  0  0  0  0  0
    5.6964   53.9315   21.0060 H   0  0  0  0  0  0
    7.1681   54.9440   22.5655 H   0  0  0  0  0  0
    7.6350   55.9242   24.7584 H   0  0  0  0  0  0
    6.0094   55.6964   26.6132 H   0  0  0  0  0  0
    3.8715   54.5436   26.2319 H   0  0  0  0  0  0
    3.1043   52.4782   23.3219 H   0  0  0  0  0  0
    2.7268   52.8567   24.9580 H   0  0  0  0  0  0
    1.7729   55.0883   24.0832 H   0  0  0  0  0  0
    1.9731   54.5226   22.4835 H   0  0  0  0  0  0
   -0.0501   53.8205   24.4414 H   0  0  0  0  0  0
   -1.7876   53.6967   24.3991 H   0  0  0  0  0  0
   -2.8721   53.4541   22.9743 H   0  0  0  0  0  0
   -3.4324   50.2996   23.9357 H   0  0  0  0  0  0
   -2.9653   50.2219   25.5986 H   0  0  0  0  0  0
    0.6954   51.0304   25.0333 H   0  0  0  0  0  0
   -0.5535   51.8860   25.8825 H   0  0  0  0  0  0
    0.3297   49.9226   27.1949 H   0  0  0  0  0  0
   -1.3997   49.7282   26.8772 H   0  0  0  0  0  0
    0.8330   48.4871   25.3709 H   0  0  0  0  0  0
   -0.7143   47.2813   24.0405 H   0  0  0  0  0  0
   -2.0623   48.0815   24.8802 H   0  0  0  0  0  0
   -1.5725   49.2149   22.6579 H   0  0  0  0  0  0
    0.0855   49.4665   23.0988 H   0  0  0  0  0  0
   -6.8796   52.5227   25.4862 H   0  0  0  0  0  0
   -8.1970   51.2565   27.1264 H   0  0  0  0  0  0
   -3.2666   51.3267   27.4976 H   0  0  0  0  0  0
   -4.6866   48.7552   29.4175 H   0  0  0  0  0  0
   -3.2949   49.8137   29.3096 H   0  0  0  0  0  0
   -4.6290   50.2128   30.4048 H   0  0  0  0  0  0
   -0.1985   47.7402   26.3596 H   0  0  0  0  0  0
  1  2  1  0  0  0
  1 34  1  0  0  0
  1 35  1  0  0  0
  1 36  1  0  0  0
  2  7  2  0  0  0
  2  3  1  0  0  0
  3  4  2  0  0  0
  3 37  1  0  0  0
  4  5  1  0  0  0
  4 38  1  0  0  0
  5  6  2  0  0  0
  5 39  1  0  0  0
  6  7  1  0  0  0
  6 40  1  0  0  0
  7  8  1  0  0  0
  8  9  1  0  0  0
  8 41  1  0  0  0
  8 42  1  0  0  0
  9 10  1  0  0  0
  9 43  1  0  0  0
  9 44  1  0  0  0
 10 11  1  0  0  0
 10 45  1  0  0  0
 11 12  2  0  0  0
 11 13  1  0  0  0
 13 14  1  0  0  0
 13 18  1  0  0  0
 13 15  1  0  0  0
 15 16  1  0  0  0
 15 46  1  0  0  0
 15 47  1  0  0  0
 16 17  1  0  0  0
 16 24  1  0  0  0
 17 18  1  0  0  0
 17 48  1  0  0  0
 17 49  1  0  0  0
 18 23  1  0  0  0
 18 19  1  0  0  0
 19 20  1  0  0  0
 19 50  1  0  0  0
 19 51  1  0  0  0
 20 21  1  0  0  0
 20 52  1  0  0  0
 20 53  1  0  0  0
 21 22  1  0  0  0
 21 54  1  0  0  0
 21 65  1  0  0  0
 22 23  1  0  0  0
 22 55  1  0  0  0
 22 56  1  0  0  0
 23 57  1  0  0  0
 23 58  1  0  0  0
 24 25  2  0  0  0
 24 26  1  0  0  0
 26 31  2  0  0  0
 26 27  1  0  0  0
 27 28  2  0  0  0
 27 59  1  0  0  0
 28 29  1  0  0  0
 28 60  1  0  0  0
 29 30  2  0  0  0
 29 33  1  0  0  0
 30 31  1  0  0  0
 30 32  1  0  0  0
 31 61  1  0  0  0
 32 62  1  0  0  0
 32 63  1  0  0  0
 32 64  1  0  0  0
M  CHG  1  21   1
M  END
> <i_i_glide_confnum>
384

> <i_i_glide_lignum>
3696

> <i_i_glide_posenum>
168

> <i_i_glide_rotatable_bonds>
7

> <i_m_Source_File_Index>
3026

> <b_m_subgroup_collapsed>
0

> <r_i_docking_score>
-4.37397

> <r_i_glide_ecoul>
-4.65528

> <r_i_glide_eff_state_penalty>
0

> <r_i_glide_einternal>
5.19938

> <r_i_glide_emodel>
-48.8274

> <r_i_glide_energy>
-38.2591

> <r_i_glide_erotb>
0.572794

> <r_i_glide_esite>
-0.0869235

> <r_i_glide_evdw>
-33.6038

> <r_i_glide_gscore>
-4.37397

> <r_i_glide_hbond>
-1.26205e-05

> <r_i_glide_ligand_efficiency>
-0.136686

> <r_i_glide_ligand_efficiency_ln>
-0.97945

> <r_i_glide_ligand_efficiency_sa>
-0.433952

> <r_i_glide_lipo>
-2.23969

> <r_i_glide_metal>
0

> <r_i_glide_rewards>
-0.241654

> <s_i_glide_gridfile>
wee1_glide-grid

> <s_m_Source_File>
wee1_decoys_glide_SP.sdf

> <s_m_Source_Path>
/Users/zhangxujun/Desktop

> <s_m_entry_id>
3301

> <s_m_entry_name>
wee1_decoys_glide_SP.3026

> <s_m_subgroup_title>
wee1_decoys_glide_SP

> <s_m_subgroupid>
wee1_decoys_glide_SP


$$$$
