ZINC39609129_173
                    3D
 Schrodinger Suite 2024-2.
 76 80  0  0  1  0            999 V2000
    1.3497   44.7542   12.5037 C   0  0  0  0  0  0
    1.4708   45.4105   13.8674 C   0  0  0  0  0  0
    1.2118   44.6669   15.0218 C   0  0  0  0  0  0
    1.3270   45.2634   16.2731 C   0  0  0  0  0  0
    1.7088   46.6036   16.3771 C   0  0  0  0  0  0
    1.9405   47.3547   15.2195 C   0  0  0  0  0  0
    1.8221   46.7573   13.9682 C   0  0  0  0  0  0
    1.8656   47.2574   17.7467 C   0  0  0  0  0  0
    0.5916   47.9590   18.2627 C   0  0  0  0  0  0
   -0.5015   47.4195   18.0590 O   0  0  0  0  0  0
    0.7008   49.1183   18.9559 N   0  0  0  0  0  0
   -0.4796   49.7953   19.5126 C   0  0  0  0  0  0
    0.1051   50.8654   20.4571 C   0  0  2  0  0  0
   -0.5108   51.7637   20.5020 H   0  0  0  0  0  0
    1.4756   51.2139   19.7959 C   0  0  0  0  0  0
    1.9497   49.8261   19.2858 C   0  0  0  0  0  0
    1.2338   52.1935   18.6029 C   0  0  0  0  0  0
    2.5063   52.4439   17.7647 C   0  0  0  0  0  0
    3.5911   53.0261   18.6976 N   0  3  0  0  0  0
    3.8322   52.2140   19.9911 C   0  0  0  0  0  0
    2.4859   51.9886   20.6942 C   0  0  0  0  0  0
    0.2866   50.3191   21.9011 C   0  0  0  0  0  0
    0.3857   49.1113   22.1180 O   0  0  0  0  0  0
    0.2840   51.2323   22.8877 N   0  0  0  0  0  0
    0.5066   50.9272   24.3032 C   0  0  2  0  0  0
    1.3837   50.2867   24.4382 H   0  0  0  0  0  0
   -0.6969   50.2655   24.9823 C   0  0  0  0  0  0
   -0.4569   50.4966   26.4745 C   0  0  0  0  0  0
    0.3404   51.8079   26.5726 C   0  0  0  0  0  0
    0.7202   52.2042   25.1310 C   0  0  1  0  0  0
    0.0773   53.0166   24.7832 H   0  0  0  0  0  0
    2.0871   52.6088   25.0512 O   0  0  0  0  0  0
    2.3403   53.9445   25.4792 C   0  0  0  0  0  0
    3.7895   54.0966   25.9210 C   0  0  0  0  0  0
    4.7695   54.4957   25.0078 C   0  0  0  0  0  0
    6.0943   54.6311   25.4206 C   0  0  0  0  0  0
    6.4316   54.3705   26.7494 C   0  0  0  0  0  0
    5.4603   53.9737   27.6650 C   0  0  0  0  0  0
    4.1376   53.8335   27.2509 C   0  0  0  0  0  0
    0.5289   44.0347   12.4965 H   0  0  0  0  0  0
    1.1281   45.4860   11.7245 H   0  0  0  0  0  0
    2.2689   44.2258   12.2445 H   0  0  0  0  0  0
    0.9252   43.6291   14.9470 H   0  0  0  0  0  0
    1.1269   44.6852   17.1621 H   0  0  0  0  0  0
    2.2310   48.3924   15.2957 H   0  0  0  0  0  0
    2.0138   47.3446   13.0813 H   0  0  0  0  0  0
    2.1181   46.4968   18.4813 H   0  0  0  0  0  0
    2.7051   47.9363   17.7087 H   0  0  0  0  0  0
   -1.0360   50.2849   18.7130 H   0  0  0  0  0  0
   -1.1736   49.1326   20.0385 H   0  0  0  0  0  0
    2.4335   49.2996   20.1097 H   0  0  0  0  0  0
    2.6912   49.8849   18.4934 H   0  0  0  0  0  0
    0.4941   51.7712   17.9205 H   0  0  0  0  0  0
    0.7953   53.1344   18.9421 H   0  0  0  0  0  0
    2.9315   51.5528   17.3052 H   0  0  0  0  0  0
    2.3476   53.1872   16.9813 H   0  0  0  0  0  0
    4.4625   53.1003   18.1849 H   0  0  0  0  0  0
    4.3053   51.2800   19.6910 H   0  0  0  0  0  0
    4.5387   52.7912   20.5893 H   0  0  0  0  0  0
    2.0619   52.9274   21.0522 H   0  0  0  0  0  0
    2.7167   51.4129   21.5931 H   0  0  0  0  0  0
    0.1913   52.2070   22.6492 H   0  0  0  0  0  0
   -1.6252   50.7411   24.6652 H   0  0  0  0  0  0
   -0.7909   49.2101   24.7236 H   0  0  0  0  0  0
    0.1265   49.6671   26.8818 H   0  0  0  0  0  0
   -1.3916   50.5312   27.0384 H   0  0  0  0  0  0
    1.2292   51.6650   27.1945 H   0  0  0  0  0  0
   -0.2584   52.5883   27.0433 H   0  0  0  0  0  0
    2.1128   54.6282   24.6599 H   0  0  0  0  0  0
    1.6958   54.2200   26.3175 H   0  0  0  0  0  0
    4.5056   54.6954   23.9789 H   0  0  0  0  0  0
    6.8549   54.9312   24.7148 H   0  0  0  0  0  0
    7.4558   54.4689   27.0789 H   0  0  0  0  0  0
    5.7343   53.7702   28.6901 H   0  0  0  0  0  0
    3.3870   53.5159   27.9598 H   0  0  0  0  0  0
    3.3157   53.9647   18.9606 H   0  0  0  0  0  0
  1  2  1  0  0  0
  1 40  1  0  0  0
  1 41  1  0  0  0
  1 42  1  0  0  0
  2  7  2  0  0  0
  2  3  1  0  0  0
  3  4  2  0  0  0
  3 43  1  0  0  0
  4  5  1  0  0  0
  4 44  1  0  0  0
  5  6  2  0  0  0
  5  8  1  0  0  0
  6  7  1  0  0  0
  6 45  1  0  0  0
  7 46  1  0  0  0
  8  9  1  0  0  0
  8 47  1  0  0  0
  8 48  1  0  0  0
  9 10  2  0  0  0
  9 11  1  0  0  0
 11 16  1  0  0  0
 11 12  1  0  0  0
 12 13  1  0  0  0
 12 49  1  0  0  0
 12 50  1  0  0  0
 13 14  1  0  0  0
 13 15  1  0  0  0
 13 22  1  0  0  0
 15 21  1  0  0  0
 15 16  1  0  0  0
 15 17  1  0  0  0
 16 51  1  0  0  0
 16 52  1  0  0  0
 17 18  1  0  0  0
 17 53  1  0  0  0
 17 54  1  0  0  0
 18 19  1  0  0  0
 18 55  1  0  0  0
 18 56  1  0  0  0
 19 20  1  0  0  0
 19 57  1  0  0  0
 19 76  1  0  0  0
 20 21  1  0  0  0
 20 58  1  0  0  0
 20 59  1  0  0  0
 21 60  1  0  0  0
 21 61  1  0  0  0
 22 23  2  0  0  0
 22 24  1  0  0  0
 24 25  1  0  0  0
 24 62  1  0  0  0
 25 26  1  0  0  0
 25 30  1  0  0  0
 25 27  1  0  0  0
 27 28  1  0  0  0
 27 63  1  0  0  0
 27 64  1  0  0  0
 28 29  1  0  0  0
 28 65  1  0  0  0
 28 66  1  0  0  0
 29 30  1  0  0  0
 29 67  1  0  0  0
 29 68  1  0  0  0
 30 31  1  0  0  0
 30 32  1  0  0  0
 32 33  1  0  0  0
 33 34  1  0  0  0
 33 69  1  0  0  0
 33 70  1  0  0  0
 34 39  2  0  0  0
 34 35  1  0  0  0
 35 36  2  0  0  0
 35 71  1  0  0  0
 36 37  1  0  0  0
 36 72  1  0  0  0
 37 38  2  0  0  0
 37 73  1  0  0  0
 38 39  1  0  0  0
 38 74  1  0  0  0
 39 75  1  0  0  0
M  CHG  1  19   1
M  END
> <i_i_glide_confnum>
644

> <i_i_glide_lignum>
174

> <i_i_glide_posenum>
241

> <i_i_glide_rotatable_bonds>
9

> <i_m_Source_File_Index>
5157

> <b_m_subgroup_collapsed>
0

> <r_i_docking_score>
-3.80411

> <r_i_glide_ecoul>
-3.18933

> <r_i_glide_eff_state_penalty>
0

> <r_i_glide_einternal>
2.82659

> <r_i_glide_emodel>
-48.2559

> <r_i_glide_energy>
-38.2981

> <r_i_glide_erotb>
0.760844

> <r_i_glide_esite>
-0.0798815

> <r_i_glide_evdw>
-35.1088

> <r_i_glide_gscore>
-3.80411

> <r_i_glide_hbond>
0

> <r_i_glide_ligand_efficiency>
-0.10567

> <r_i_glide_ligand_efficiency_ln>
-0.829953

> <r_i_glide_ligand_efficiency_sa>
-0.348913

> <r_i_glide_lipo>
-2.07728

> <r_i_glide_metal>
0

> <r_i_glide_rewards>
-0.173953

> <s_i_glide_gridfile>
wee1_glide-grid

> <s_m_Source_File>
wee1_decoys_glide_SP.sdf

> <s_m_Source_Path>
/Users/zhangxujun/Desktop

> <s_m_entry_id>
5432

> <s_m_entry_name>
wee1_decoys_glide_SP.5157

> <s_m_subgroup_title>
wee1_decoys_glide_SP

> <s_m_subgroupid>
wee1_decoys_glide_SP


$$$$
