ZINC39881451_6058
                    3D
 Schrodinger Suite 2024-2.
 54 58  0  0  1  0            999 V2000
   -2.5748   50.6990   26.5307 C   0  0  0  0  0  0
   -1.5200   51.2995   27.4383 C   0  0  0  0  0  0
   -1.7173   51.2967   28.8207 C   0  0  0  0  0  0
   -0.7484   51.7932   29.6935 C   0  0  0  0  0  0
    0.4656   52.3125   29.1860 C   0  0  0  0  0  0
    1.4931   52.8293   30.0211 C   0  0  0  0  0  0
    2.6733   53.2956   29.4365 C   0  0  0  0  0  0
    2.8178   53.2923   28.0604 C   0  0  0  0  0  0
    1.8423   52.7936   27.2814 N   0  3  0  0  0  0
    0.6560   52.2994   27.7696 C   0  0  0  0  0  0
   -0.3353   51.7982   26.8982 C   0  0  0  0  0  0
    4.0708   53.8484   27.6637 N   0  0  0  0  0  0
    4.8860   54.0448   28.8758 C   0  0  0  0  0  0
    3.9002   53.9024   30.0493 C   0  0  0  0  0  0
    4.5529   54.0975   26.3285 C   0  0  0  0  0  0
    5.9243   54.2765   26.0911 C   0  0  0  0  0  0
    6.4010   54.4772   24.7957 C   0  0  0  0  0  0
    5.5171   54.4965   23.7115 C   0  0  0  0  0  0
    4.1438   54.3563   23.9541 C   0  0  0  0  0  0
    3.6696   54.1747   25.2440 C   0  0  0  0  0  0
    6.0384   54.7137   22.3109 C   0  0  0  0  0  0
    7.1044   55.3026   22.1325 O   0  0  0  0  0  0
    5.2654   54.2100   21.3250 N   0  0  0  0  0  0
    5.4444   54.2350   19.9301 C   0  0  0  0  0  0
    6.3426   55.0963   19.2764 C   0  0  0  0  0  0
    6.4964   55.0590   17.8869 C   0  0  0  0  0  0
    5.7369   54.1481   17.1442 C   0  0  0  0  0  0
    4.8351   53.2968   17.7818 C   0  0  0  0  0  0
    4.6798   53.3385   19.1653 C   0  0  0  0  0  0
    3.5447   52.2557   19.9022 Cl  0  0  0  0  0  0
    7.4849   56.0048   17.2074 C   0  0  0  0  0  0
    7.2192   56.1541   15.9073 F   0  0  0  0  0  0
    8.7155   55.5071   17.3318 F   0  0  0  0  0  0
    7.4530   57.2094   17.7799 F   0  0  0  0  0  0
   -2.1210   50.2631   25.6383 H   0  0  0  0  0  0
   -3.0955   49.8817   27.0369 H   0  0  0  0  0  0
   -3.3036   51.4541   26.2328 H   0  0  0  0  0  0
   -2.6167   50.8630   29.2336 H   0  0  0  0  0  0
   -0.9150   51.7546   30.7640 H   0  0  0  0  0  0
    1.3407   52.8366   31.0920 H   0  0  0  0  0  0
   -0.1640   51.7863   25.8317 H   0  0  0  0  0  0
    5.6506   53.2688   28.8827 H   0  0  0  0  0  0
    5.3736   55.0209   28.8533 H   0  0  0  0  0  0
    4.3037   53.2795   30.8487 H   0  0  0  0  0  0
    3.6824   54.8929   30.4468 H   0  0  0  0  0  0
    6.6408   54.2399   26.8999 H   0  0  0  0  0  0
    7.4636   54.6005   24.6365 H   0  0  0  0  0  0
    3.4211   54.4188   23.1520 H   0  0  0  0  0  0
    2.6012   54.1250   25.3657 H   0  0  0  0  0  0
    4.4644   53.6725   21.6195 H   0  0  0  0  0  0
    6.9323   55.8095   19.8304 H   0  0  0  0  0  0
    5.8426   54.0880   16.0700 H   0  0  0  0  0  0
    4.2677   52.5813   17.2023 H   0  0  0  0  0  0
    1.9745   52.7511   26.2826 H   0  0  0  0  0  0
  1  2  1  0  0  0
  1 35  1  0  0  0
  1 36  1  0  0  0
  1 37  1  0  0  0
  2 11  2  0  0  0
  2  3  1  0  0  0
  3  4  2  0  0  0
  3 38  1  0  0  0
  4  5  1  0  0  0
  4 39  1  0  0  0
  5 10  2  0  0  0
  5  6  1  0  0  0
  6  7  2  0  0  0
  6 40  1  0  0  0
  7 14  1  0  0  0
  7  8  1  0  0  0
  8  9  2  0  0  0
  8 12  1  0  0  0
  9 10  1  0  0  0
  9 54  1  0  0  0
 10 11  1  0  0  0
 11 41  1  0  0  0
 12 13  1  0  0  0
 12 15  1  0  0  0
 13 14  1  0  0  0
 13 42  1  0  0  0
 13 43  1  0  0  0
 14 44  1  0  0  0
 14 45  1  0  0  0
 15 20  2  0  0  0
 15 16  1  0  0  0
 16 17  2  0  0  0
 16 46  1  0  0  0
 17 18  1  0  0  0
 17 47  1  0  0  0
 18 19  2  0  0  0
 18 21  1  0  0  0
 19 20  1  0  0  0
 19 48  1  0  0  0
 20 49  1  0  0  0
 21 22  2  0  0  0
 21 23  1  0  0  0
 23 24  1  0  0  0
 23 50  1  0  0  0
 24 29  2  0  0  0
 24 25  1  0  0  0
 25 26  2  0  0  0
 25 51  1  0  0  0
 26 27  1  0  0  0
 26 31  1  0  0  0
 27 28  2  0  0  0
 27 52  1  0  0  0
 28 29  1  0  0  0
 28 53  1  0  0  0
 29 30  1  0  0  0
 31 32  1  0  0  0
 31 33  1  0  0  0
 31 34  1  0  0  0
M  CHG  1   9   1
M  END
> <i_i_glide_confnum>
37

> <i_i_glide_lignum>
6059

> <i_i_glide_posenum>
346

> <i_i_glide_rotatable_bonds>
5

> <i_m_Source_File_Index>
2804

> <b_m_subgroup_collapsed>
0

> <r_i_docking_score>
-5.10276

> <r_i_glide_ecoul>
-0.239483

> <r_i_glide_eff_state_penalty>
0

> <r_i_glide_einternal>
2.7808

> <r_i_glide_emodel>
-55.3518

> <r_i_glide_energy>
-41.9578

> <r_i_glide_erotb>
0.348151

> <r_i_glide_esite>
-0.00342696

> <r_i_glide_evdw>
-41.7183

> <r_i_glide_gscore>
-5.10276

> <r_i_glide_hbond>
0

> <r_i_glide_ligand_efficiency>
-0.150081

> <r_i_glide_ligand_efficiency_ln>
-1.12734

> <r_i_glide_ligand_efficiency_sa>
-0.486205

> <r_i_glide_lipo>
-2.48063

> <r_i_glide_metal>
0

> <r_i_glide_rewards>
-0.845019

> <s_i_glide_gridfile>
wee1_glide-grid

> <s_m_Source_File>
wee1_decoys_glide_SP.sdf

> <s_m_Source_Path>
/Users/zhangxujun/Desktop

> <s_m_entry_id>
3079

> <s_m_entry_name>
wee1_decoys_glide_SP.2804

> <s_m_subgroup_title>
wee1_decoys_glide_SP

> <s_m_subgroupid>
wee1_decoys_glide_SP


$$$$
