ZINC54946451_231
                    3D
 Schrodinger Suite 2024-2.
 65 66  0  0  1  0            999 V2000
    2.9351   54.3057   23.7926 C   0  0  0  0  0  0
    3.8602   54.1969   25.0019 C   0  0  0  0  0  0
    3.2849   53.8190   26.2173 C   0  0  0  0  0  0
    4.0292   53.7386   27.4040 C   0  0  0  0  0  0
    5.3895   54.0887   27.3390 C   0  0  0  0  0  0
    5.9866   54.4598   26.1336 C   0  0  0  0  0  0
    5.2398   54.4966   24.9545 C   0  0  0  0  0  0
    5.9046   54.8879   23.7781 N   0  0  0  0  0  0
    5.8919   54.2080   22.6094 C   0  0  0  0  0  0
    5.5045   53.0384   22.4819 O   0  0  0  0  0  0
    6.3032   55.0417   21.4430 C   0  0  0  0  0  0
    6.9367   56.0963   21.5387 O   0  0  0  0  0  0
    5.8540   54.5388   20.2768 N   0  0  0  0  0  0
    5.8745   55.2090   18.9757 C   0  0  0  0  0  0
    5.1214   54.4366   17.8280 C   0  0  0  0  0  0
    4.2291   53.2614   18.3210 C   0  0  0  0  0  0
    4.1622   55.4106   17.0912 C   0  0  0  0  0  0
    6.1428   53.8236   16.8024 N   0  3  2  0  0  0
    7.2164   52.8950   17.4550 C   0  0  0  0  0  0
    8.0653   52.2081   16.3618 C   0  0  1  0  0  0
    7.3970   51.5992   15.7520 H   0  0  0  0  0  0
    8.7204   53.2804   15.4729 C   0  0  0  0  0  0
    7.6758   54.1711   14.7808 C   0  0  2  0  0  0
    8.2338   54.9609   14.2745 H   0  0  0  0  0  0
    6.7849   54.8684   15.8362 C   0  0  0  0  0  0
    6.8541   53.4341   13.7012 C   0  0  0  0  0  0
    9.1319   51.2831   16.9731 C   0  0  0  0  0  0
    3.4137   53.3319   28.6221 N   0  0  0  0  0  0
    2.1407   52.6049   28.5879 C   0  0  0  0  0  0
    4.2201   53.1826   29.8305 C   0  0  0  0  0  0
    1.9328   54.6144   24.0917 H   0  0  0  0  0  0
    3.2716   55.0572   23.0824 H   0  0  0  0  0  0
    2.8632   53.3471   23.2818 H   0  0  0  0  0  0
    2.2324   53.5889   26.2205 H   0  0  0  0  0  0
    6.0133   54.0643   28.2190 H   0  0  0  0  0  0
    7.0389   54.7006   26.1240 H   0  0  0  0  0  0
    6.3494   55.7946   23.7800 H   0  0  0  0  0  0
    5.3422   53.6686   20.3300 H   0  0  0  0  0  0
    6.9071   55.4358   18.7069 H   0  0  0  0  0  0
    5.4147   56.1909   19.1191 H   0  0  0  0  0  0
    3.4312   53.6179   18.9748 H   0  0  0  0  0  0
    3.7516   52.7401   17.4905 H   0  0  0  0  0  0
    4.7717   52.5033   18.8836 H   0  0  0  0  0  0
    3.3393   55.7137   17.7416 H   0  0  0  0  0  0
    4.6557   56.3342   16.7846 H   0  0  0  0  0  0
    3.7142   54.9558   16.2062 H   0  0  0  0  0  0
    6.7050   52.1141   18.0189 H   0  0  0  0  0  0
    7.8262   53.4899   18.1360 H   0  0  0  0  0  0
    9.3507   52.7916   14.7267 H   0  0  0  0  0  0
    9.4101   53.8841   16.0676 H   0  0  0  0  0  0
    7.3310   55.5934   16.4410 H   0  0  0  0  0  0
    5.9749   55.3641   15.3023 H   0  0  0  0  0  0
    6.2068   52.6655   14.1241 H   0  0  0  0  0  0
    7.5053   52.9516   12.9719 H   0  0  0  0  0  0
    6.2161   54.1264   13.1511 H   0  0  0  0  0  0
    9.8943   51.8554   17.5020 H   0  0  0  0  0  0
    8.7045   50.5756   17.6841 H   0  0  0  0  0  0
    9.6392   50.7021   16.2015 H   0  0  0  0  0  0
    2.2485   51.6848   28.0119 H   0  0  0  0  0  0
    1.7956   52.3275   29.5858 H   0  0  0  0  0  0
    1.3540   53.1994   28.1232 H   0  0  0  0  0  0
    4.9963   52.4298   29.6804 H   0  0  0  0  0  0
    4.7043   54.1282   30.0804 H   0  0  0  0  0  0
    3.6222   52.8764   30.6908 H   0  0  0  0  0  0
    5.5927   53.2086   16.2159 H   0  0  0  0  0  0
  1  2  1  0  0  0
  1 31  1  0  0  0
  1 32  1  0  0  0
  1 33  1  0  0  0
  2  7  2  0  0  0
  2  3  1  0  0  0
  3  4  2  0  0  0
  3 34  1  0  0  0
  4  5  1  0  0  0
  4 28  1  0  0  0
  5  6  2  0  0  0
  5 35  1  0  0  0
  6  7  1  0  0  0
  6 36  1  0  0  0
  7  8  1  0  0  0
  8  9  1  0  0  0
  8 37  1  0  0  0
  9 10  2  0  0  0
  9 11  1  0  0  0
 11 12  2  0  0  0
 11 13  1  0  0  0
 13 14  1  0  0  0
 13 38  1  0  0  0
 14 15  1  0  0  0
 14 39  1  0  0  0
 14 40  1  0  0  0
 15 16  1  0  0  0
 15 17  1  0  0  0
 15 18  1  0  0  0
 16 41  1  0  0  0
 16 42  1  0  0  0
 16 43  1  0  0  0
 17 44  1  0  0  0
 17 45  1  0  0  0
 17 46  1  0  0  0
 18 25  1  0  0  0
 18 19  1  0  0  0
 18 65  1  0  0  0
 19 20  1  0  0  0
 19 47  1  0  0  0
 19 48  1  0  0  0
 20 21  1  0  0  0
 20 22  1  0  0  0
 20 27  1  0  0  0
 22 23  1  0  0  0
 22 49  1  0  0  0
 22 50  1  0  0  0
 23 24  1  0  0  0
 23 25  1  0  0  0
 23 26  1  0  0  0
 25 51  1  0  0  0
 25 52  1  0  0  0
 26 53  1  0  0  0
 26 54  1  0  0  0
 26 55  1  0  0  0
 27 56  1  0  0  0
 27 57  1  0  0  0
 27 58  1  0  0  0
 28 29  1  0  0  0
 28 30  1  0  0  0
 29 59  1  0  0  0
 29 60  1  0  0  0
 29 61  1  0  0  0
 30 62  1  0  0  0
 30 63  1  0  0  0
 30 64  1  0  0  0
M  CHG  1  18   1
M  END
> <i_i_glide_confnum>
101

> <i_i_glide_lignum>
232

> <i_i_glide_posenum>
364

> <i_i_glide_rotatable_bonds>
8

> <i_m_Source_File_Index>
3494

> <b_m_subgroup_collapsed>
0

> <r_i_docking_score>
-5.14903

> <r_i_glide_ecoul>
-3.23784

> <r_i_glide_eff_state_penalty>
0

> <r_i_glide_einternal>
8.98749

> <r_i_glide_emodel>
-47.7872

> <r_i_glide_energy>
-38.2906

> <r_i_glide_erotb>
0.899279

> <r_i_glide_esite>
-0.0145196

> <r_i_glide_evdw>
-35.0527

> <r_i_glide_gscore>
-5.14903

> <r_i_glide_hbond>
-0.0145774

> <r_i_glide_ligand_efficiency>
-0.183894

> <r_i_glide_ligand_efficiency_ln>
-1.18855

> <r_i_glide_ligand_efficiency_sa>
-0.55841

> <r_i_glide_lipo>
-2.15131

> <r_i_glide_metal>
0

> <r_i_glide_rewards>
-1.62959

> <s_i_glide_gridfile>
wee1_glide-grid

> <s_m_Source_File>
wee1_decoys_glide_SP.sdf

> <s_m_Source_Path>
/Users/zhangxujun/Desktop

> <s_m_entry_id>
3769

> <s_m_entry_name>
wee1_decoys_glide_SP.3494

> <s_m_subgroup_title>
wee1_decoys_glide_SP

> <s_m_subgroupid>
wee1_decoys_glide_SP


$$$$
