ZINC08905665_3356
                    3D
 Schrodinger Suite 2024-2.
 56 60  0  0  1  0            999 V2000
    0.5471   54.8965   31.2824 C   0  0  0  0  0  0
    1.0566   54.0612   30.1317 C   0  0  0  0  0  0
    0.3687   52.9133   29.7388 C   0  0  0  0  0  0
    0.8577   52.1380   28.6907 C   0  0  0  0  0  0
    2.0457   52.4972   28.0537 C   0  0  0  0  0  0
    2.7684   53.6326   28.4537 C   0  0  0  0  0  0
    2.2309   54.4289   29.4777 C   0  0  0  0  0  0
    4.0258   53.9269   27.8591 N   0  0  0  0  0  0
    4.3704   53.5586   26.4813 C   0  0  0  0  0  0
    5.8618   53.8427   26.3128 C   0  0  2  0  0  0
    6.3945   52.8986   26.1913 H   0  0  0  0  0  0
    6.2787   54.5271   27.6041 C   0  0  0  0  0  0
    5.0720   54.4928   28.5243 C   0  0  0  0  0  0
    5.1044   54.8966   29.6816 O   0  0  0  0  0  0
    6.1760   54.6376   25.0223 C   0  0  0  0  0  0
    6.8003   55.6965   25.0897 O   0  0  0  0  0  0
    5.7533   54.0851   23.8627 N   0  0  0  0  0  0
    6.0137   54.5553   22.5829 C   0  0  0  0  0  0
    6.9068   55.4517   22.2271 N   0  0  0  0  0  0
    6.9355   55.6608   20.8560 N   0  0  0  0  0  0
    6.0981   54.8968   20.1960 C   0  0  0  0  0  0
    5.1042   53.9108   21.2498 S   0  0  0  0  0  0
    6.0120   54.8922   18.4303 S   0  0  0  0  0  0
    5.1949   53.2965   18.0689 C   0  0  0  0  0  0
    3.6652   53.3726   18.0449 C   0  0  0  0  0  0
    3.1057   54.3951   17.6434 O   0  0  0  0  0  0
    3.0136   52.2835   18.5021 N   0  0  0  0  0  0
    1.6272   52.1981   18.6990 C   0  0  0  0  0  0
    0.7067   52.5963   17.7031 C   0  0  0  0  0  0
   -0.6740   52.5551   17.9427 C   0  0  0  0  0  0
   -1.0969   52.0969   19.1853 C   0  0  0  0  0  0
   -0.2098   51.6925   20.1445 C   0  0  0  0  0  0
    1.1659   51.7215   19.9365 C   0  0  0  0  0  0
   -0.8942   51.3474   21.2672 O   0  0  0  0  0  0
   -2.2403   51.2984   20.8779 C   0  0  0  0  0  0
   -2.3607   52.0246   19.6828 O   0  0  0  0  0  0
   -0.4956   55.1378   31.1200 H   0  0  0  0  0  0
    0.6146   54.3338   32.2141 H   0  0  0  0  0  0
    1.0950   55.8346   31.3914 H   0  0  0  0  0  0
   -0.5362   52.6137   30.2493 H   0  0  0  0  0  0
    0.3274   51.2454   28.3885 H   0  0  0  0  0  0
    2.4090   51.8456   27.2788 H   0  0  0  0  0  0
    2.7300   55.3344   29.7879 H   0  0  0  0  0  0
    3.7472   54.1427   25.8015 H   0  0  0  0  0  0
    4.1850   52.4969   26.3492 H   0  0  0  0  0  0
    7.0780   53.9691   28.0934 H   0  0  0  0  0  0
    6.6374   55.5524   27.5105 H   0  0  0  0  0  0
    5.1633   53.2704   23.9251 H   0  0  0  0  0  0
    5.5560   52.5122   18.7382 H   0  0  0  0  0  0
    5.5032   52.9926   17.0692 H   0  0  0  0  0  0
    3.5748   51.4830   18.7685 H   0  0  0  0  0  0
    1.0640   52.9587   16.7503 H   0  0  0  0  0  0
   -1.3724   52.8831   17.1877 H   0  0  0  0  0  0
    1.8550   51.4221   20.7119 H   0  0  0  0  0  0
   -2.5228   50.2586   20.6974 H   0  0  0  0  0  0
   -2.8883   51.6963   21.6596 H   0  0  0  0  0  0
  1  2  1  0  0  0
  1 37  1  0  0  0
  1 38  1  0  0  0
  1 39  1  0  0  0
  2  7  2  0  0  0
  2  3  1  0  0  0
  3  4  2  0  0  0
  3 40  1  0  0  0
  4  5  1  0  0  0
  4 41  1  0  0  0
  5  6  2  0  0  0
  5 42  1  0  0  0
  6  7  1  0  0  0
  6  8  1  0  0  0
  7 43  1  0  0  0
  8 13  1  0  0  0
  8  9  1  0  0  0
  9 10  1  0  0  0
  9 44  1  0  0  0
  9 45  1  0  0  0
 10 11  1  0  0  0
 10 12  1  0  0  0
 10 15  1  0  0  0
 12 13  1  0  0  0
 12 46  1  0  0  0
 12 47  1  0  0  0
 13 14  2  0  0  0
 15 16  2  0  0  0
 15 17  1  0  0  0
 17 18  1  0  0  0
 17 48  1  0  0  0
 18 22  1  0  0  0
 18 19  2  0  0  0
 19 20  1  0  0  0
 20 21  2  0  0  0
 21 22  1  0  0  0
 21 23  1  0  0  0
 23 24  1  0  0  0
 24 25  1  0  0  0
 24 49  1  0  0  0
 24 50  1  0  0  0
 25 26  2  0  0  0
 25 27  1  0  0  0
 27 28  1  0  0  0
 27 51  1  0  0  0
 28 33  2  0  0  0
 28 29  1  0  0  0
 29 30  2  0  0  0
 29 52  1  0  0  0
 30 31  1  0  0  0
 30 53  1  0  0  0
 31 36  1  0  0  0
 31 32  2  0  0  0
 32 33  1  0  0  0
 32 34  1  0  0  0
 33 54  1  0  0  0
 34 35  1  0  0  0
 35 36  1  0  0  0
 35 55  1  0  0  0
 35 56  1  0  0  0
M  END
> <i_i_glide_confnum>
185

> <i_i_glide_lignum>
3357

> <i_i_glide_posenum>
16

> <i_i_glide_rotatable_bonds>
9

> <i_m_Source_File_Index>
2065

> <b_m_subgroup_collapsed>
0

> <r_i_docking_score>
-6.86563

> <r_i_glide_ecoul>
-7.02118

> <r_i_glide_eff_state_penalty>
0

> <r_i_glide_einternal>
10.0751

> <r_i_glide_emodel>
-79.0366

> <r_i_glide_energy>
-58.3945

> <r_i_glide_erotb>
0.626465

> <r_i_glide_esite>
-0.120997

> <r_i_glide_evdw>
-51.3733

> <r_i_glide_gscore>
-6.86563

> <r_i_glide_hbond>
-0.604702

> <r_i_glide_ligand_efficiency>
-0.196161

> <r_i_glide_ligand_efficiency_ln>
-1.50716

> <r_i_glide_ligand_efficiency_sa>
-0.641655

> <r_i_glide_lipo>
-2.44949

> <r_i_glide_metal>
0

> <r_i_glide_rewards>
-0.695057

> <s_i_glide_gridfile>
wee1_glide-grid

> <s_m_Source_File>
wee1_decoys_glide_SP.sdf

> <s_m_Source_Path>
/Users/zhangxujun/Desktop

> <s_m_entry_id>
2340

> <s_m_entry_name>
wee1_decoys_glide_SP.2065

> <s_m_subgroup_title>
wee1_decoys_glide_SP

> <s_m_subgroupid>
wee1_decoys_glide_SP


$$$$
