ZINC00714902_4001
                    3D
 Schrodinger Suite 2024-2.
 48 52  0  0  1  0            999 V2000
    8.4127   55.2966   19.0170 C   0  0  0  0  0  0
    9.2037   55.6379   17.9216 C   0  0  0  0  0  0
    8.8161   56.6759   17.0740 C   0  0  0  0  0  0
    7.6246   57.3706   17.3235 C   0  0  0  0  0  0
    6.8358   57.0246   18.4231 C   0  0  0  0  0  0
    7.2276   55.9937   19.2849 C   0  0  0  0  0  0
    6.3619   55.6374   20.4907 C   0  0  1  0  0  0
    5.7977   56.5482   20.7017 H   0  0  0  0  0  0
    5.3630   54.4978   20.1766 C   0  0  0  0  0  0
    4.4044   54.1475   21.3494 C   0  0  2  0  0  0
    3.6056   54.8906   21.3567 H   0  0  0  0  0  0
    5.1375   54.3126   22.6164 N   0  0  0  0  0  0
    6.3778   54.8969   22.7734 C   0  0  0  0  0  0
    6.6134   54.9167   24.1261 C   0  0  0  0  0  0
    5.4490   54.4445   24.7404 C   0  0  0  0  0  0
    4.5667   54.0965   23.8171 N   0  0  0  0  0  0
    5.2776   54.3236   26.1734 C   0  0  0  0  0  0
    6.2260   54.5069   26.9393 O   0  0  0  0  0  0
    4.0251   53.9950   26.5588 N   0  0  0  0  0  0
    3.5784   53.6030   27.8297 C   0  0  0  0  0  0
    4.4185   52.9916   28.7909 C   0  0  0  0  0  0
    3.8995   52.5229   30.0035 C   0  0  0  0  0  0
    2.5394   52.6935   30.2292 C   0  0  0  0  0  0
    1.7251   53.2977   29.3157 C   0  0  0  0  0  0
    2.2078   53.7578   28.0961 C   0  0  0  0  0  0
    0.4493   53.3108   29.7849 O   0  0  0  0  0  0
    0.5224   52.8330   31.1064 C   0  0  0  0  0  0
    1.8017   52.2876   31.2928 O   0  0  0  0  0  0
    7.1290   55.3122   21.6971 N   0  0  0  0  0  0
    3.7327   52.7574   21.1863 C   0  0  0  0  0  0
    3.1494   52.6422   19.9937 F   0  0  0  0  0  0
    4.6252   51.7680   21.2814 F   0  0  0  0  0  0
    2.7887   52.5440   22.1036 F   0  0  0  0  0  0
    7.1029   58.6635   16.3000 Cl  0  0  0  0  0  0
    9.8274   57.0761   15.7303 Cl  0  0  0  0  0  0
    8.7336   54.4968   19.6684 H   0  0  0  0  0  0
   10.1249   55.1002   17.7392 H   0  0  0  0  0  0
    5.9195   57.5698   18.6045 H   0  0  0  0  0  0
    5.9225   53.6081   19.8835 H   0  0  0  0  0  0
    4.7697   54.7409   19.2918 H   0  0  0  0  0  0
    7.5055   55.2735   24.6138 H   0  0  0  0  0  0
    3.3298   53.9693   25.8280 H   0  0  0  0  0  0
    5.4691   52.8332   28.5918 H   0  0  0  0  0  0
    4.5369   52.0319   30.7255 H   0  0  0  0  0  0
    1.5420   54.2068   27.3726 H   0  0  0  0  0  0
    0.3779   53.6596   31.8067 H   0  0  0  0  0  0
   -0.2432   52.0713   31.2805 H   0  0  0  0  0  0
    7.8259   56.0187   21.8859 H   0  0  0  0  0  0
  1  6  2  0  0  0
  1  2  1  0  0  0
  1 36  1  0  0  0
  2  3  2  0  0  0
  2 37  1  0  0  0
  3  4  1  0  0  0
  3 35  1  0  0  0
  4  5  2  0  0  0
  4 34  1  0  0  0
  5  6  1  0  0  0
  5 38  1  0  0  0
  6  7  1  0  0  0
  7  8  1  0  0  0
  7 29  1  0  0  0
  7  9  1  0  0  0
  9 10  1  0  0  0
  9 39  1  0  0  0
  9 40  1  0  0  0
 10 11  1  0  0  0
 10 12  1  0  0  0
 10 30  1  0  0  0
 12 16  1  0  0  0
 12 13  1  0  0  0
 13 14  2  0  0  0
 13 29  1  0  0  0
 14 15  1  0  0  0
 14 41  1  0  0  0
 15 16  2  0  0  0
 15 17  1  0  0  0
 17 18  2  0  0  0
 17 19  1  0  0  0
 19 20  1  0  0  0
 19 42  1  0  0  0
 20 25  2  0  0  0
 20 21  1  0  0  0
 21 22  2  0  0  0
 21 43  1  0  0  0
 22 23  1  0  0  0
 22 44  1  0  0  0
 23 28  1  0  0  0
 23 24  2  0  0  0
 24 25  1  0  0  0
 24 26  1  0  0  0
 25 45  1  0  0  0
 26 27  1  0  0  0
 27 28  1  0  0  0
 27 46  1  0  0  0
 27 47  1  0  0  0
 29 48  1  0  0  0
 30 31  1  0  0  0
 30 32  1  0  0  0
 30 33  1  0  0  0
M  END
> <i_i_glide_confnum>
31

> <i_i_glide_lignum>
4002

> <i_i_glide_posenum>
343

> <i_i_glide_rotatable_bonds>
5

> <i_m_Source_File_Index>
5896

> <b_m_subgroup_collapsed>
0

> <r_i_docking_score>
-6.12568

> <r_i_glide_ecoul>
-2.69703

> <r_i_glide_eff_state_penalty>
0

> <r_i_glide_einternal>
3.61044

> <r_i_glide_emodel>
-70.6027

> <r_i_glide_energy>
-53.6727

> <r_i_glide_erotb>
0.327544

> <r_i_glide_esite>
-0.087304

> <r_i_glide_evdw>
-50.9757

> <r_i_glide_gscore>
-6.12568

> <r_i_glide_hbond>
-0.0280226

> <r_i_glide_ligand_efficiency>
-0.185627

> <r_i_glide_ligand_efficiency_ln>
-1.36232

> <r_i_glide_ligand_efficiency_sa>
-0.595404

> <r_i_glide_lipo>
-2.5363

> <r_i_glide_metal>
0

> <r_i_glide_rewards>
-0.84825

> <s_i_glide_gridfile>
wee1_glide-grid

> <s_m_Source_File>
wee1_decoys_glide_SP.sdf

> <s_m_Source_Path>
/Users/zhangxujun/Desktop

> <s_m_entry_id>
6171

> <s_m_entry_name>
wee1_decoys_glide_SP.5896

> <s_m_subgroup_title>
wee1_decoys_glide_SP

> <s_m_subgroupid>
wee1_decoys_glide_SP


$$$$
