ZINC59849935_2633
                    3D
 Schrodinger Suite 2024-2.
 46 48  0  0  1  0            999 V2000
    5.2998   53.3277   28.2109 C   0  0  0  0  0  0
    4.2791   54.1730   27.4100 C   0  0  2  0  0  0
    4.3202   55.1901   27.8023 H   0  0  0  0  0  0
    2.8233   53.6868   27.6636 C   0  0  0  0  0  0
    2.4139   53.7797   29.0053 C   0  0  0  0  0  0
    1.1856   53.2959   29.4310 C   0  0  0  0  0  0
    0.3309   52.7084   28.5146 C   0  0  0  0  0  0
    0.6920   52.6536   27.1734 C   0  0  0  0  0  0
    1.9115   53.1708   26.6852 C   0  0  0  0  0  0
    2.1915   53.1719   25.3260 N   0  5  0  0  0  0
    1.2013   52.6281   24.2270 S   0  0  0  0  0  0
    1.1871   51.1658   24.1528 O   0  0  0  0  0  0
   -0.1021   53.2967   24.2238 O   0  0  0  0  0  0
    1.9890   53.1682   22.6171 C   0  0  0  0  0  0
    4.6634   54.2732   26.0083 N   0  0  0  0  0  0
    5.7842   54.7957   25.4751 C   0  0  0  0  0  0
    6.7041   55.2999   26.1217 O   0  0  0  0  0  0
    5.8459   54.6962   24.0444 C   0  0  0  0  0  0
    6.7044   55.2912   23.1361 C   0  0  0  0  0  0
    6.2826   54.8969   21.8556 C   0  0  0  0  0  0
    5.2682   54.0638   21.9398 N   0  0  0  0  0  0
    5.0251   53.9428   23.2457 N   0  0  0  0  0  0
    4.2697   53.3663   23.5916 H   0  0  0  0  0  0
    6.8353   55.3197   20.5359 C   0  0  0  0  0  0
    6.0274   55.3412   19.3921 C   0  0  0  0  0  0
    6.5554   55.7455   18.1693 C   0  0  0  0  0  0
    7.8928   56.1239   18.0877 C   0  0  0  0  0  0
    8.7047   56.0981   19.2179 C   0  0  0  0  0  0
    8.1776   55.6968   20.4413 C   0  0  0  0  0  0
    8.6190   56.6821   16.4201 Br  0  0  0  0  0  0
    5.1050   53.3554   29.2813 H   0  0  0  0  0  0
    5.2679   52.2860   27.9034 H   0  0  0  0  0  0
    6.3240   53.6743   28.0796 H   0  0  0  0  0  0
    3.0701   54.2138   29.7443 H   0  0  0  0  0  0
    0.9023   53.3598   30.4717 H   0  0  0  0  0  0
   -0.6184   52.3059   28.8365 H   0  0  0  0  0  0
   -0.0288   52.2019   26.5092 H   0  0  0  0  0  0
    1.2734   52.9975   21.8147 H   0  0  0  0  0  0
    2.2280   54.2290   22.6727 H   0  0  0  0  0  0
    2.8751   52.5632   22.4413 H   0  0  0  0  0  0
    3.8992   54.0040   25.3943 H   0  0  0  0  0  0
    7.5054   55.9722   23.3748 H   0  0  0  0  0  0
    4.9879   55.0504   19.4483 H   0  0  0  0  0  0
    5.9304   55.7655   17.2883 H   0  0  0  0  0  0
    9.7429   56.3893   19.1465 H   0  0  0  0  0  0
    8.8194   55.6784   21.3108 H   0  0  0  0  0  0
  1  2  1  0  0  0
  1 31  1  0  0  0
  1 32  1  0  0  0
  1 33  1  0  0  0
  2  3  1  0  0  0
  2  4  1  0  0  0
  2 15  1  0  0  0
  4  9  2  0  0  0
  4  5  1  0  0  0
  5  6  2  0  0  0
  5 34  1  0  0  0
  6  7  1  0  0  0
  6 35  1  0  0  0
  7  8  2  0  0  0
  7 36  1  0  0  0
  8  9  1  0  0  0
  8 37  1  0  0  0
  9 10  1  0  0  0
 10 11  1  0  0  0
 11 12  2  0  0  0
 11 13  2  0  0  0
 11 14  1  0  0  0
 14 38  1  0  0  0
 14 39  1  0  0  0
 14 40  1  0  0  0
 15 16  1  0  0  0
 15 41  1  0  0  0
 16 17  2  0  0  0
 16 18  1  0  0  0
 18 22  1  0  0  0
 18 19  2  0  0  0
 19 20  1  0  0  0
 19 42  1  0  0  0
 20 21  2  0  0  0
 20 24  1  0  0  0
 21 22  1  0  0  0
 22 23  1  0  0  0
 24 29  2  0  0  0
 24 25  1  0  0  0
 25 26  2  0  0  0
 25 43  1  0  0  0
 26 27  1  0  0  0
 26 44  1  0  0  0
 27 28  2  0  0  0
 27 30  1  0  0  0
 28 29  1  0  0  0
 28 45  1  0  0  0
 29 46  1  0  0  0
M  CHG  1  10  -1
M  END
> <i_i_glide_confnum>
47

> <i_i_glide_lignum>
2634

> <i_i_glide_posenum>
79

> <i_i_glide_rotatable_bonds>
7

> <i_m_Source_File_Index>
4379

> <b_m_subgroup_collapsed>
0

> <r_i_docking_score>
-6.32014

> <r_i_glide_ecoul>
-4.428

> <r_i_glide_eff_state_penalty>
0

> <r_i_glide_einternal>
22.7042

> <r_i_glide_emodel>
-57.5838

> <r_i_glide_energy>
-49.0372

> <r_i_glide_erotb>
0.565399

> <r_i_glide_esite>
0

> <r_i_glide_evdw>
-44.6092

> <r_i_glide_gscore>
-6.32014

> <r_i_glide_hbond>
-0.32

> <r_i_glide_ligand_efficiency>
-0.225719

> <r_i_glide_ligand_efficiency_ln>
-1.45887

> <r_i_glide_ligand_efficiency_sa>
-0.685416

> <r_i_glide_lipo>
-2.73534

> <r_i_glide_metal>
0

> <r_i_glide_rewards>
-0.935537

> <s_i_glide_gridfile>
wee1_glide-grid

> <s_m_Source_File>
wee1_decoys_glide_SP.sdf

> <s_m_Source_Path>
/Users/zhangxujun/Desktop

> <s_m_entry_id>
4654

> <s_m_entry_name>
wee1_decoys_glide_SP.4379

> <s_m_subgroup_title>
wee1_decoys_glide_SP

> <s_m_subgroupid>
wee1_decoys_glide_SP


$$$$
