ZINC08769247_3926
                    3D
 Schrodinger Suite 2024-2.
 49 51  0  0  1  0            999 V2000
   -2.5445   51.1807   26.7234 C   0  0  0  0  0  0
   -1.5586   50.3456   25.9093 C   0  0  0  0  0  0
   -0.2425   50.6219   25.6721 C   0  0  0  0  0  0
    0.5634   49.7241   24.6792 C   0  0  1  0  0  0
    1.5039   49.4627   25.1646 H   0  0  0  0  0  0
   -0.1722   48.4532   24.4812 N   0  0  0  0  0  0
   -1.5020   48.2477   24.7022 C   0  0  0  0  0  0
   -2.2891   46.8976   24.1647 S   0  0  0  0  0  0
   -2.1407   49.2260   25.3985 N   0  0  0  0  0  0
    0.9563   50.3696   23.3460 C   0  0  0  0  0  0
    2.1777   50.0267   22.7647 C   0  0  0  0  0  0
    2.5600   50.5820   21.5497 C   0  0  0  0  0  0
    1.7210   51.4871   20.8971 C   0  0  0  0  0  0
    0.4845   51.8128   21.4622 C   0  0  0  0  0  0
    0.0987   51.2488   22.6759 C   0  0  0  0  0  0
    2.1553   52.1180   19.5722 C   0  0  0  0  0  0
    3.4465   52.9442   19.7226 C   0  0  0  0  0  0
    2.2953   51.0651   18.4573 C   0  0  0  0  0  0
    0.4448   51.7852   26.2112 C   0  0  0  0  0  0
    1.0909   52.5401   25.4861 O   0  0  0  0  0  0
    0.3111   51.9324   27.5484 N   0  0  0  0  0  0
    0.6951   53.0126   28.3683 C   0  0  0  0  0  0
    1.5061   54.0847   27.9556 C   0  0  0  0  0  0
    1.7403   55.1638   28.8065 C   0  0  0  0  0  0
    1.1838   55.1799   30.0800 C   0  0  0  0  0  0
    0.4203   54.0987   30.5203 C   0  0  0  0  0  0
    0.1794   53.0205   29.6689 C   0  0  0  0  0  0
   -0.0943   54.0965   31.7698 F   0  0  0  0  0  0
    1.3860   56.2503   30.8807 F   0  0  0  0  0  0
   -2.6463   50.7532   27.7271 H   0  0  0  0  0  0
   -2.2301   52.2237   26.8198 H   0  0  0  0  0  0
   -3.5353   51.1961   26.2562 H   0  0  0  0  0  0
    0.2910   47.6944   24.0058 H   0  0  0  0  0  0
   -3.1068   49.0065   25.5856 H   0  0  0  0  0  0
    2.8398   49.3310   23.2602 H   0  0  0  0  0  0
    3.5084   50.3093   21.1138 H   0  0  0  0  0  0
   -0.1782   52.4987   20.9604 H   0  0  0  0  0  0
   -0.8589   51.5040   23.1041 H   0  0  0  0  0  0
    1.3764   52.8162   19.2586 H   0  0  0  0  0  0
    3.3578   53.6745   20.5267 H   0  0  0  0  0  0
    3.6644   53.4927   18.8063 H   0  0  0  0  0  0
    4.3094   52.3142   19.9389 H   0  0  0  0  0  0
    1.3766   50.4921   18.3314 H   0  0  0  0  0  0
    2.5250   51.5325   17.4997 H   0  0  0  0  0  0
    3.0991   50.3593   18.6721 H   0  0  0  0  0  0
   -0.2111   51.1982   28.0033 H   0  0  0  0  0  0
    1.9490   54.1244   26.9737 H   0  0  0  0  0  0
    2.3384   55.9973   28.4711 H   0  0  0  0  0  0
   -0.4341   52.2042   30.0251 H   0  0  0  0  0  0
  1  2  1  0  0  0
  1 30  1  0  0  0
  1 31  1  0  0  0
  1 32  1  0  0  0
  2  9  1  0  0  0
  2  3  2  0  0  0
  3  4  1  0  0  0
  3 19  1  0  0  0
  4  5  1  0  0  0
  4  6  1  0  0  0
  4 10  1  0  0  0
  6  7  1  0  0  0
  6 33  1  0  0  0
  7  8  2  0  0  0
  7  9  1  0  0  0
  9 34  1  0  0  0
 10 15  2  0  0  0
 10 11  1  0  0  0
 11 12  2  0  0  0
 11 35  1  0  0  0
 12 13  1  0  0  0
 12 36  1  0  0  0
 13 14  2  0  0  0
 13 16  1  0  0  0
 14 15  1  0  0  0
 14 37  1  0  0  0
 15 38  1  0  0  0
 16 17  1  0  0  0
 16 18  1  0  0  0
 16 39  1  0  0  0
 17 40  1  0  0  0
 17 41  1  0  0  0
 17 42  1  0  0  0
 18 43  1  0  0  0
 18 44  1  0  0  0
 18 45  1  0  0  0
 19 20  2  0  0  0
 19 21  1  0  0  0
 21 22  1  0  0  0
 21 46  1  0  0  0
 22 27  2  0  0  0
 22 23  1  0  0  0
 23 24  2  0  0  0
 23 47  1  0  0  0
 24 25  1  0  0  0
 24 48  1  0  0  0
 25 26  2  0  0  0
 25 29  1  0  0  0
 26 27  1  0  0  0
 26 28  1  0  0  0
 27 49  1  0  0  0
M  END
> <i_i_glide_confnum>
11

> <i_i_glide_lignum>
3927

> <i_i_glide_posenum>
328

> <i_i_glide_rotatable_bonds>
5

> <i_m_Source_File_Index>
5742

> <b_m_subgroup_collapsed>
0

> <r_i_docking_score>
-4.62998

> <r_i_glide_ecoul>
-1.94437

> <r_i_glide_eff_state_penalty>
0

> <r_i_glide_einternal>
2.68903

> <r_i_glide_emodel>
-51.2492

> <r_i_glide_energy>
-39.8792

> <r_i_glide_erotb>
0.486767

> <r_i_glide_esite>
-0.270852

> <r_i_glide_evdw>
-37.9348

> <r_i_glide_gscore>
-4.62998

> <r_i_glide_hbond>
0

> <r_i_glide_ligand_efficiency>
-0.165356

> <r_i_glide_ligand_efficiency_ln>
-1.06874

> <r_i_glide_ligand_efficiency_sa>
-0.502119

> <r_i_glide_lipo>
-1.62715

> <r_i_glide_metal>
0

> <r_i_glide_rewards>
-1.03034

> <s_i_glide_gridfile>
wee1_glide-grid

> <s_m_Source_File>
wee1_decoys_glide_SP.sdf

> <s_m_Source_Path>
/Users/zhangxujun/Desktop

> <s_m_entry_id>
6017

> <s_m_entry_name>
wee1_decoys_glide_SP.5742

> <s_m_subgroup_title>
wee1_decoys_glide_SP

> <s_m_subgroupid>
wee1_decoys_glide_SP


$$$$
