ZINC37605745_6148
                    3D
 Schrodinger Suite 2024-2.
 28 29  0  0  1  0            999 V2000
    0.9313   52.7931   31.0003 C   0  0  0  0  0  0
    1.0687   53.8599   29.8913 C   0  0  0  0  0  0
    0.7574   55.2754   30.4138 C   0  0  0  0  0  0
    2.4090   53.8168   29.1593 C   0  0  0  0  0  0
    2.5092   54.2382   27.9135 N   0  0  0  0  0  0
    3.7692   54.0188   27.6409 C   0  0  0  0  0  0
    4.4592   53.5053   28.6911 O   0  0  0  0  0  0
    3.5224   53.3833   29.7158 N   0  0  0  0  0  0
    4.4558   54.1809   26.3219 C   0  0  0  0  0  0
    3.6923   54.0967   25.1482 C   0  0  0  0  0  0
    4.2946   54.1900   23.8924 C   0  0  0  0  0  0
    5.6763   54.3937   23.8019 C   0  0  0  0  0  0
    6.4400   54.4970   24.9619 C   0  0  0  0  0  0
    5.8401   54.3885   26.2165 C   0  0  0  0  0  0
    6.6185   54.4921   27.3178 F   0  0  0  0  0  0
    6.2857   54.4965   22.5967 F   0  0  0  0  0  0
    3.5108   54.0886   22.7409 N   0  0  0  0  0  0
    1.0241   51.7892   30.5854 H   0  0  0  0  0  0
   -0.0428   52.8495   31.4895 H   0  0  0  0  0  0
    1.6878   52.8967   31.7770 H   0  0  0  0  0  0
    0.2909   53.6158   29.1647 H   0  0  0  0  0  0
    0.7108   55.9986   29.5993 H   0  0  0  0  0  0
   -0.2009   55.2962   30.9278 H   0  0  0  0  0  0
    1.5045   55.6335   31.1195 H   0  0  0  0  0  0
    2.6257   53.9328   25.2116 H   0  0  0  0  0  0
    7.5038   54.6534   24.8817 H   0  0  0  0  0  0
    2.5145   53.9415   22.8109 H   0  0  0  0  0  0
    3.9566   54.1455   21.8349 H   0  0  0  0  0  0
  1  2  1  0  0  0
  1 18  1  0  0  0
  1 19  1  0  0  0
  1 20  1  0  0  0
  2  3  1  0  0  0
  2  4  1  0  0  0
  2 21  1  0  0  0
  3 22  1  0  0  0
  3 23  1  0  0  0
  3 24  1  0  0  0
  4  8  2  0  0  0
  4  5  1  0  0  0
  5  6  2  0  0  0
  6  7  1  0  0  0
  6  9  1  0  0  0
  7  8  1  0  0  0
  9 14  2  0  0  0
  9 10  1  0  0  0
 10 11  2  0  0  0
 10 25  1  0  0  0
 11 12  1  0  0  0
 11 17  1  0  0  0
 12 13  2  0  0  0
 12 16  1  0  0  0
 13 14  1  0  0  0
 13 26  1  0  0  0
 14 15  1  0  0  0
 17 27  1  0  0  0
 17 28  1  0  0  0
M  END
> <i_i_glide_confnum>
2

> <i_i_glide_lignum>
6149

> <i_i_glide_posenum>
98

> <i_i_glide_rotatable_bonds>
2

> <i_m_Source_File_Index>
3067

> <b_m_subgroup_collapsed>
0

> <r_i_docking_score>
-6.39038

> <r_i_glide_ecoul>
-0.664083

> <r_i_glide_eff_state_penalty>
0

> <r_i_glide_einternal>
1.39893

> <r_i_glide_emodel>
-42.3794

> <r_i_glide_energy>
-31.0186

> <r_i_glide_erotb>
0.301914

> <r_i_glide_esite>
0

> <r_i_glide_evdw>
-30.3545

> <r_i_glide_gscore>
-6.39038

> <r_i_glide_hbond>
0

> <r_i_glide_ligand_efficiency>
-0.375904

> <r_i_glide_ligand_efficiency_ln>
-1.66711

> <r_i_glide_ligand_efficiency_sa>
-0.966556

> <r_i_glide_lipo>
-2.24652

> <r_i_glide_metal>
0

> <r_i_glide_rewards>
-2.82843

> <s_i_glide_gridfile>
wee1_glide-grid

> <s_m_Source_File>
wee1_decoys_glide_SP.sdf

> <s_m_Source_Path>
/Users/zhangxujun/Desktop

> <s_m_entry_id>
3342

> <s_m_entry_name>
wee1_decoys_glide_SP.3067

> <s_m_subgroup_title>
wee1_decoys_glide_SP

> <s_m_subgroupid>
wee1_decoys_glide_SP


$$$$
