ZINC59438618_3649
                    3D
 Schrodinger Suite 2024-2.
 51 53  0  0  1  0            999 V2000
    5.9133   54.3241   25.7343 C   0  0  0  0  0  0
    4.9278   54.1626   24.5851 C   0  0  0  0  0  0
    5.4249   54.0929   23.2782 C   0  0  0  0  0  0
    4.5556   53.9334   22.1890 C   0  0  0  0  0  0
    3.1840   53.8318   22.4154 C   0  0  0  0  0  0
    2.6798   53.9057   23.7094 C   0  0  0  0  0  0
    3.5419   54.0463   24.8094 C   0  0  0  0  0  0
    3.0485   54.0959   26.1290 N   0  0  0  0  0  0
    1.9736   53.4398   26.6265 C   0  0  0  0  0  0
    1.3298   52.6036   25.9887 O   0  0  0  0  0  0
    1.5733   53.7722   28.0494 C   0  0  0  0  0  0
    0.7782   52.8697   28.7773 C   0  0  0  0  0  0
    0.3473   53.1868   30.0626 C   0  0  0  0  0  0
    0.7039   54.4063   30.6270 C   0  0  0  0  0  0
    1.5030   55.3080   29.9291 C   0  0  0  0  0  0
    1.9373   54.9919   28.6447 C   0  0  0  0  0  0
    5.0019   53.7944   20.8631 N   0  0  0  0  0  0
    5.9070   54.5064   20.1237 C   0  0  0  0  0  0
    6.7040   55.8842   20.6866 S   0  0  0  0  0  0
    6.0525   53.9351   18.8824 N   0  0  0  0  0  0
    6.9129   54.1672   17.8561 C   0  0  0  0  0  0
    7.9108   54.8882   17.9182 O   0  0  0  0  0  0
    6.6227   53.4123   16.5773 C   0  0  0  0  0  0
    5.3485   52.8969   16.2855 C   0  0  0  0  0  0
    5.1194   52.1877   15.1105 C   0  0  0  0  0  0
    6.1502   51.9773   14.1809 C   0  0  0  0  0  0
    7.4157   52.5110   14.4564 C   0  0  0  0  0  0
    7.6460   53.2166   15.6376 C   0  0  0  0  0  0
    8.7266   52.3015   13.3467 Cl  0  0  0  0  0  0
    5.9953   51.2588   13.0100 O   0  0  0  0  0  0
    4.7520   50.6144   12.7488 C   0  0  0  0  0  0
    5.8002   53.5059   26.4472 H   0  0  0  0  0  0
    6.9503   54.3282   25.3952 H   0  0  0  0  0  0
    5.7240   55.2593   26.2646 H   0  0  0  0  0  0
    6.4943   54.1364   23.1116 H   0  0  0  0  0  0
    2.5003   53.6992   21.5902 H   0  0  0  0  0  0
    1.6095   53.8423   23.8464 H   0  0  0  0  0  0
    3.5853   54.6524   26.7738 H   0  0  0  0  0  0
    0.4741   51.9259   28.3462 H   0  0  0  0  0  0
   -0.2688   52.4919   30.6166 H   0  0  0  0  0  0
    0.3599   54.6526   31.6236 H   0  0  0  0  0  0
    1.7735   56.2529   30.3787 H   0  0  0  0  0  0
    2.5397   55.7151   28.1172 H   0  0  0  0  0  0
    4.4920   53.0882   20.3543 H   0  0  0  0  0  0
    5.3600   53.2360   18.6586 H   0  0  0  0  0  0
    4.5194   53.0156   16.9686 H   0  0  0  0  0  0
    4.1301   51.7870   14.9483 H   0  0  0  0  0  0
    8.6378   53.6040   15.8231 H   0  0  0  0  0  0
    4.8278   50.0695   11.8087 H   0  0  0  0  0  0
    3.9375   51.3334   12.6483 H   0  0  0  0  0  0
    4.5041   49.8956   13.5315 H   0  0  0  0  0  0
  1  2  1  0  0  0
  1 32  1  0  0  0
  1 33  1  0  0  0
  1 34  1  0  0  0
  2  7  2  0  0  0
  2  3  1  0  0  0
  3  4  2  0  0  0
  3 35  1  0  0  0
  4  5  1  0  0  0
  4 17  1  0  0  0
  5  6  2  0  0  0
  5 36  1  0  0  0
  6  7  1  0  0  0
  6 37  1  0  0  0
  7  8  1  0  0  0
  8  9  1  0  0  0
  8 38  1  0  0  0
  9 10  2  0  0  0
  9 11  1  0  0  0
 11 16  2  0  0  0
 11 12  1  0  0  0
 12 13  2  0  0  0
 12 39  1  0  0  0
 13 14  1  0  0  0
 13 40  1  0  0  0
 14 15  2  0  0  0
 14 41  1  0  0  0
 15 16  1  0  0  0
 15 42  1  0  0  0
 16 43  1  0  0  0
 17 18  1  0  0  0
 17 44  1  0  0  0
 18 19  2  0  0  0
 18 20  1  0  0  0
 20 21  1  0  0  0
 20 45  1  0  0  0
 21 22  2  0  0  0
 21 23  1  0  0  0
 23 28  2  0  0  0
 23 24  1  0  0  0
 24 25  2  0  0  0
 24 46  1  0  0  0
 25 26  1  0  0  0
 25 47  1  0  0  0
 26 27  2  0  0  0
 26 30  1  0  0  0
 27 28  1  0  0  0
 27 29  1  0  0  0
 28 48  1  0  0  0
 30 31  1  0  0  0
 31 49  1  0  0  0
 31 50  1  0  0  0
 31 51  1  0  0  0
M  END
> <i_i_glide_confnum>
1

> <i_i_glide_lignum>
3650

> <i_i_glide_posenum>
295

> <i_i_glide_rotatable_bonds>
9

> <i_m_Source_File_Index>
367

> <b_m_subgroup_collapsed>
0

> <r_i_docking_score>
-5.46007

> <r_i_glide_ecoul>
-2.97462

> <r_i_glide_eff_state_penalty>
0

> <r_i_glide_einternal>
1.24077

> <r_i_glide_emodel>
-60.703

> <r_i_glide_energy>
-45.4061

> <r_i_glide_erotb>
0.779456

> <r_i_glide_esite>
-0.0207673

> <r_i_glide_evdw>
-42.4315

> <r_i_glide_gscore>
-5.46007

> <r_i_glide_hbond>
0

> <r_i_glide_ligand_efficiency>
-0.176131

> <r_i_glide_ligand_efficiency_ln>
-1.23141

> <r_i_glide_ligand_efficiency_sa>
-0.553295

> <r_i_glide_lipo>
-3.00652

> <r_i_glide_metal>
0

> <r_i_glide_rewards>
-0.64447

> <s_i_glide_gridfile>
wee1_glide-grid

> <s_m_Source_File>
wee1_decoys_glide_SP.sdf

> <s_m_Source_Path>
/Users/zhangxujun/Desktop

> <s_m_entry_id>
642

> <s_m_entry_name>
wee1_decoys_glide_SP.367

> <s_m_subgroup_title>
wee1_decoys_glide_SP

> <s_m_subgroupid>
wee1_decoys_glide_SP


$$$$
