ZINC00921896_5764
                    3D
 Schrodinger Suite 2024-2.
 77 80  0  0  1  0            999 V2000
    1.2636   49.3771   19.8966 C   0  0  0  0  0  0
    1.1871   50.1485   21.2068 C   0  0  0  0  0  0
    1.5817   49.5146   22.3847 C   0  0  0  0  0  0
    1.5403   50.1889   23.5999 C   0  0  0  0  0  0
    1.1369   51.5241   23.6641 C   0  0  0  0  0  0
    0.6982   52.1485   22.4863 C   0  0  0  0  0  0
    0.7271   51.4746   21.2588 C   0  0  0  0  0  0
    0.2981   52.2088   19.9991 C   0  0  0  0  0  0
    1.1803   52.2064   24.9121 N   0  0  0  0  0  0
    0.2204   51.7177   25.9809 C   0  0  1  0  0  0
    0.2961   50.6306   25.9185 H   0  0  0  0  0  0
    0.5964   52.0633   27.4233 C   0  0  0  0  0  0
   -0.0079   53.1130   28.1350 C   0  0  0  0  0  0
    0.4467   53.4548   29.4109 C   0  0  0  0  0  0
    1.4901   52.7405   29.9908 C   0  0  0  0  0  0
    2.1787   51.8128   29.2406 C   0  0  0  0  0  0
    1.6545   51.3876   28.0367 C   0  0  0  0  0  0
    3.3590   51.2967   29.6821 O   0  0  0  0  0  0
    4.4489   52.1992   29.6855 C   0  0  0  0  0  0
    1.8202   52.8968   31.3080 O   0  0  0  0  0  0
    0.8027   52.4348   32.1974 C   0  0  0  0  0  0
   -0.0957   54.4971   30.1044 O   0  0  0  0  0  0
    0.7876   55.6138   30.2395 C   0  0  0  0  0  0
   -1.2878   51.8866   25.6306 C   0  0  0  0  0  0
   -1.6298   52.5190   24.6292 O   0  0  0  0  0  0
   -2.1695   51.2964   26.4602 N   0  0  0  0  0  0
   -3.6117   51.2061   26.2009 C   0  0  0  0  0  0
   -3.9709   49.9080   25.4342 C   0  0  0  0  0  0
   -3.6995   48.6311   26.2633 C   0  0  0  0  0  0
   -4.4468   48.6591   27.6104 C   0  0  0  0  0  0
   -4.1946   49.9647   28.3949 C   0  0  0  0  0  0
   -4.4322   51.2093   27.5146 C   0  0  0  0  0  0
    1.9395   53.3562   25.0308 C   0  0  0  0  0  0
    1.9041   54.0783   26.0254 O   0  0  0  0  0  0
    2.9102   53.8419   23.9189 C   0  0  0  0  0  0
    4.3614   54.0970   24.3296 C   0  0  0  0  0  0
    5.4722   54.0966   23.4866 C   0  0  0  0  0  0
    6.6985   54.2850   24.1255 C   0  0  0  0  0  0
    6.5584   54.5016   25.4815 C   0  0  0  0  0  0
    4.8996   54.4951   25.9531 S   0  0  0  0  0  0
    0.3216   49.4449   19.3552 H   0  0  0  0  0  0
    2.0444   49.7912   19.2587 H   0  0  0  0  0  0
    1.4717   48.3180   20.0516 H   0  0  0  0  0  0
    1.9436   48.4975   22.3638 H   0  0  0  0  0  0
    1.8774   49.6714   24.4819 H   0  0  0  0  0  0
    0.3680   53.1745   22.5282 H   0  0  0  0  0  0
    0.9831   52.0056   19.1764 H   0  0  0  0  0  0
   -0.7015   51.8998   19.6934 H   0  0  0  0  0  0
    0.3169   53.2857   20.1466 H   0  0  0  0  0  0
   -0.7991   53.6886   27.6818 H   0  0  0  0  0  0
    2.1319   50.5281   27.6222 H   0  0  0  0  0  0
    5.1044   51.8553   30.4791 H   0  0  0  0  0  0
    4.9872   52.1616   28.7374 H   0  0  0  0  0  0
    4.1817   53.2355   29.8993 H   0  0  0  0  0  0
    1.1775   51.6167   32.8126 H   0  0  0  0  0  0
    0.4959   53.2420   32.8647 H   0  0  0  0  0  0
   -0.0914   52.0662   31.6819 H   0  0  0  0  0  0
    0.3039   56.4421   30.7480 H   0  0  0  0  0  0
    1.6706   55.3753   30.8334 H   0  0  0  0  0  0
    1.1173   55.9787   29.2654 H   0  0  0  0  0  0
   -1.8142   50.7156   27.2099 H   0  0  0  0  0  0
   -3.9293   52.0688   25.6083 H   0  0  0  0  0  0
   -5.0219   49.9365   25.1434 H   0  0  0  0  0  0
   -3.4106   49.8663   24.4989 H   0  0  0  0  0  0
   -3.9858   47.7440   25.6973 H   0  0  0  0  0  0
   -2.6293   48.5336   26.4524 H   0  0  0  0  0  0
   -5.5172   48.5476   27.4330 H   0  0  0  0  0  0
   -4.1444   47.8024   28.2150 H   0  0  0  0  0  0
   -4.8365   49.9979   29.2756 H   0  0  0  0  0  0
   -3.1733   49.9809   28.7765 H   0  0  0  0  0  0
   -4.1905   52.0954   28.0936 H   0  0  0  0  0  0
   -5.4947   51.2867   27.2767 H   0  0  0  0  0  0
    2.4855   54.7581   23.5086 H   0  0  0  0  0  0
    2.9516   53.1525   23.0811 H   0  0  0  0  0  0
    5.3915   53.9083   22.4247 H   0  0  0  0  0  0
    7.6414   54.2477   23.6032 H   0  0  0  0  0  0
    7.3262   54.6532   26.2239 H   0  0  0  0  0  0
  1  2  1  0  0  0
  1 41  1  0  0  0
  1 42  1  0  0  0
  1 43  1  0  0  0
  2  7  2  0  0  0
  2  3  1  0  0  0
  3  4  2  0  0  0
  3 44  1  0  0  0
  4  5  1  0  0  0
  4 45  1  0  0  0
  5  6  2  0  0  0
  5  9  1  0  0  0
  6  7  1  0  0  0
  6 46  1  0  0  0
  7  8  1  0  0  0
  8 47  1  0  0  0
  8 48  1  0  0  0
  8 49  1  0  0  0
  9 10  1  0  0  0
  9 33  1  0  0  0
 10 11  1  0  0  0
 10 12  1  0  0  0
 10 24  1  0  0  0
 12 17  2  0  0  0
 12 13  1  0  0  0
 13 14  2  0  0  0
 13 50  1  0  0  0
 14 15  1  0  0  0
 14 22  1  0  0  0
 15 16  2  0  0  0
 15 20  1  0  0  0
 16 17  1  0  0  0
 16 18  1  0  0  0
 17 51  1  0  0  0
 18 19  1  0  0  0
 19 52  1  0  0  0
 19 53  1  0  0  0
 19 54  1  0  0  0
 20 21  1  0  0  0
 21 55  1  0  0  0
 21 56  1  0  0  0
 21 57  1  0  0  0
 22 23  1  0  0  0
 23 58  1  0  0  0
 23 59  1  0  0  0
 23 60  1  0  0  0
 24 25  2  0  0  0
 24 26  1  0  0  0
 26 27  1  0  0  0
 26 61  1  0  0  0
 27 32  1  0  0  0
 27 28  1  0  0  0
 27 62  1  0  0  0
 28 29  1  0  0  0
 28 63  1  0  0  0
 28 64  1  0  0  0
 29 30  1  0  0  0
 29 65  1  0  0  0
 29 66  1  0  0  0
 30 31  1  0  0  0
 30 67  1  0  0  0
 30 68  1  0  0  0
 31 32  1  0  0  0
 31 69  1  0  0  0
 31 70  1  0  0  0
 32 71  1  0  0  0
 32 72  1  0  0  0
 33 34  2  0  0  0
 33 35  1  0  0  0
 35 36  1  0  0  0
 35 73  1  0  0  0
 35 74  1  0  0  0
 36 40  1  0  0  0
 36 37  2  0  0  0
 37 38  1  0  0  0
 37 75  1  0  0  0
 38 39  2  0  0  0
 38 76  1  0  0  0
 39 40  1  0  0  0
 39 77  1  0  0  0
M  END
> <i_i_glide_confnum>
109

> <i_i_glide_lignum>
5765

> <i_i_glide_posenum>
150

> <i_i_glide_rotatable_bonds>
12

> <i_m_Source_File_Index>
195

> <b_m_subgroup_collapsed>
0

> <r_i_docking_score>
-5.74821

> <r_i_glide_ecoul>
-7.19781

> <r_i_glide_eff_state_penalty>
0

> <r_i_glide_einternal>
29.9657

> <r_i_glide_emodel>
-45.2281

> <r_i_glide_energy>
-48.5694

> <r_i_glide_erotb>
0.40924

> <r_i_glide_esite>
-0.0596026

> <r_i_glide_evdw>
-41.3716

> <r_i_glide_gscore>
-5.74821

> <r_i_glide_hbond>
-0.372472

> <r_i_glide_ligand_efficiency>
-0.14739

> <r_i_glide_ligand_efficiency_ln>
-1.23258

> <r_i_glide_ligand_efficiency_sa>
-0.49983

> <r_i_glide_lipo>
-3.12261

> <r_i_glide_metal>
0

> <r_i_glide_rewards>
0.545484

> <s_i_glide_gridfile>
wee1_glide-grid

> <s_m_Source_File>
wee1_decoys_glide_SP.sdf

> <s_m_Source_Path>
/Users/zhangxujun/Desktop

> <s_m_entry_id>
470

> <s_m_entry_name>
wee1_decoys_glide_SP.195

> <s_m_subgroup_title>
wee1_decoys_glide_SP

> <s_m_subgroupid>
wee1_decoys_glide_SP


$$$$
