ZINC06507101_1554
                    3D
 Schrodinger Suite 2024-2.
 49 52  0  0  1  0            999 V2000
    6.3170   54.1700   23.7098 C   0  0  0  0  0  0
    6.3486   54.6350   22.2715 C   0  0  0  0  0  0
    5.4992   54.2907   21.1907 C   0  0  0  0  0  0
    6.0308   55.0221   20.1479 C   0  0  0  0  0  0
    7.1155   55.6987   20.6040 N   0  0  0  0  0  0
    7.7219   56.2788   20.0434 H   0  0  0  0  0  0
    7.3043   55.4738   21.9040 N   0  0  0  0  0  0
    5.5942   55.1156   18.8584 O   0  0  0  0  0  0
    4.4726   54.3862   18.6234 C   0  0  0  0  0  0
    3.8026   53.6072   19.5159 C   0  0  0  0  0  0
    4.2342   53.4270   21.0080 C   0  0  0  0  0  0
    4.4705   51.9220   21.2818 C   0  0  0  0  0  0
    3.1830   51.0507   21.3914 C   0  0  0  0  0  0
    2.1617   51.7066   22.2424 N   0  0  0  0  0  0
    1.8637   53.1453   22.0824 C   0  0  0  0  0  0
    3.1853   53.9181   22.0372 C   0  0  0  0  0  0
    1.4945   50.9217   23.2005 C   0  0  0  0  0  0
    1.5795   49.6968   23.2838 O   0  0  0  0  0  0
    0.7374   51.6657   24.0521 O   0  0  0  0  0  0
    0.1028   51.0959   25.1995 C   0  0  0  0  0  0
    0.4945   51.8109   26.4963 C   0  0  0  0  0  0
   -0.1204   51.4025   27.6846 C   0  0  0  0  0  0
    0.1980   52.0286   28.8882 C   0  0  0  0  0  0
    1.1353   53.0600   28.9026 C   0  0  0  0  0  0
    1.7608   53.4692   27.7262 C   0  0  0  0  0  0
    1.4399   52.8454   26.5221 C   0  0  0  0  0  0
    2.6596   52.8968   19.0257 C   0  0  0  0  0  0
    1.7251   52.3617   18.5987 N   0  0  0  0  0  0
    4.1572   54.5661   17.3049 N   0  0  0  0  0  0
    5.6423   53.3308   23.8647 H   0  0  0  0  0  0
    7.3003   53.8391   24.0491 H   0  0  0  0  0  0
    5.9963   54.9663   24.3824 H   0  0  0  0  0  0
    5.1050   51.4997   20.5006 H   0  0  0  0  0  0
    5.0652   51.8092   22.1837 H   0  0  0  0  0  0
    2.7440   50.7533   20.4384 H   0  0  0  0  0  0
    3.5043   50.1207   21.8640 H   0  0  0  0  0  0
    1.2247   53.2954   21.2126 H   0  0  0  0  0  0
    1.3244   53.5565   22.9344 H   0  0  0  0  0  0
    3.6040   53.8972   23.0419 H   0  0  0  0  0  0
    2.9669   54.9675   21.8542 H   0  0  0  0  0  0
   -0.9767   51.1912   25.0686 H   0  0  0  0  0  0
    0.3165   50.0303   25.3153 H   0  0  0  0  0  0
   -0.8444   50.5976   27.6818 H   0  0  0  0  0  0
   -0.2810   51.7116   29.8046 H   0  0  0  0  0  0
    1.3793   53.5463   29.8366 H   0  0  0  0  0  0
    2.4897   54.2666   27.7448 H   0  0  0  0  0  0
    1.9326   53.1708   25.6168 H   0  0  0  0  0  0
    3.3712   54.0827   16.8946 H   0  0  0  0  0  0
    4.8179   55.0082   16.6817 H   0  0  0  0  0  0
  1  2  1  0  0  0
  1 30  1  0  0  0
  1 31  1  0  0  0
  1 32  1  0  0  0
  2  7  2  0  0  0
  2  3  1  0  0  0
  3 11  1  0  0  0
  3  4  2  0  0  0
  4  5  1  0  0  0
  4  8  1  0  0  0
  5  6  1  0  0  0
  5  7  1  0  0  0
  8  9  1  0  0  0
  9 10  2  0  0  0
  9 29  1  0  0  0
 10 11  1  0  0  0
 10 27  1  0  0  0
 11 16  1  0  0  0
 11 12  1  0  0  0
 12 13  1  0  0  0
 12 33  1  0  0  0
 12 34  1  0  0  0
 13 14  1  0  0  0
 13 35  1  0  0  0
 13 36  1  0  0  0
 14 15  1  0  0  0
 14 17  1  0  0  0
 15 16  1  0  0  0
 15 37  1  0  0  0
 15 38  1  0  0  0
 16 39  1  0  0  0
 16 40  1  0  0  0
 17 18  2  0  0  0
 17 19  1  0  0  0
 19 20  1  0  0  0
 20 21  1  0  0  0
 20 41  1  0  0  0
 20 42  1  0  0  0
 21 26  2  0  0  0
 21 22  1  0  0  0
 22 23  2  0  0  0
 22 43  1  0  0  0
 23 24  1  0  0  0
 23 44  1  0  0  0
 24 25  2  0  0  0
 24 45  1  0  0  0
 25 26  1  0  0  0
 25 46  1  0  0  0
 26 47  1  0  0  0
 27 28  3  0  0  0
 29 48  1  0  0  0
 29 49  1  0  0  0
M  END
> <i_i_glide_confnum>
16

> <i_i_glide_lignum>
1555

> <i_i_glide_posenum>
190

> <i_i_glide_rotatable_bonds>
5

> <i_m_Source_File_Index>
2593

> <b_m_subgroup_collapsed>
0

> <r_i_docking_score>
-4.04283

> <r_i_glide_ecoul>
1.63403

> <r_i_glide_eff_state_penalty>
0

> <r_i_glide_einternal>
1.64229

> <r_i_glide_emodel>
-42.808

> <r_i_glide_energy>
-34.4474

> <r_i_glide_erotb>
0.404079

> <r_i_glide_esite>
-0.0150246

> <r_i_glide_evdw>
-36.0814

> <r_i_glide_gscore>
-4.04283

> <r_i_glide_hbond>
0

> <r_i_glide_ligand_efficiency>
-0.144387

> <r_i_glide_ligand_efficiency_ln>
-0.933204

> <r_i_glide_ligand_efficiency_sa>
-0.438443

> <r_i_glide_lipo>
-1.76919

> <r_i_glide_metal>
0

> <r_i_glide_rewards>
-1.10373

> <s_i_glide_gridfile>
wee1_glide-grid

> <s_m_Source_File>
wee1_decoys_glide_SP.sdf

> <s_m_Source_Path>
/Users/zhangxujun/Desktop

> <s_m_entry_id>
2868

> <s_m_entry_name>
wee1_decoys_glide_SP.2593

> <s_m_subgroup_title>
wee1_decoys_glide_SP

> <s_m_subgroupid>
wee1_decoys_glide_SP


$$$$
