ZINC64820722_5928
                    3D
 Schrodinger Suite 2024-2.
 51 53  0  0  1  0            999 V2000
    2.3129   51.4483   19.4138 C   0  0  0  0  0  0
    1.6141   50.4340   20.2900 C   0  0  0  0  0  0
    0.9636   50.6354   21.5169 C   0  0  0  0  0  0
    0.5164   49.3720   21.8567 C   0  0  0  0  0  0
    0.8569   48.4968   20.8812 O   0  0  0  0  0  0
    1.5606   49.1810   19.8969 N   0  0  0  0  0  0
   -0.2453   48.8077   23.0333 C   0  0  0  0  0  0
    0.7669   51.9251   22.2829 C   0  0  0  0  0  0
    1.6510   52.0065   23.5430 C   0  0  0  0  0  0
    1.4013   53.1904   24.3662 N   0  0  0  0  0  0
    1.4083   54.4963   23.7099 C   0  0  0  0  0  0
    1.9762   53.1427   25.6606 C   0  0  0  0  0  0
    1.2162   52.5456   26.6711 C   0  0  0  0  0  0
    1.7060   52.4482   27.9702 C   0  0  0  0  0  0
    2.9657   52.9626   28.2928 C   0  0  0  0  0  0
    3.7404   53.5633   27.2899 C   0  0  0  0  0  0
    3.2702   53.6273   25.9689 C   0  0  0  0  0  0
    4.0504   54.0977   24.9008 N   0  0  0  0  0  0
    5.3797   54.1922   24.7201 C   0  0  0  0  0  0
    6.2326   54.0969   25.6049 O   0  0  0  0  0  0
    5.7626   54.4971   23.2890 C   0  0  0  0  0  0
    4.9814   54.0681   22.1994 C   0  0  0  0  0  0
    5.2920   54.4738   20.9031 C   0  0  0  0  0  0
    6.3929   55.2971   20.6799 C   0  0  0  0  0  0
    7.1991   55.6924   21.7397 C   0  0  0  0  0  0
    6.8802   55.2965   23.0359 C   0  0  0  0  0  0
    6.8166   55.8653   18.9152 Br  0  0  0  0  0  0
    3.4773   52.8606   29.6872 C   0  0  0  0  0  0
    3.9042   53.9124   30.2115 O   0  0  0  0  0  0
    3.4269   51.7395   30.2448 O   0  5  0  0  0  0
    2.7696   52.2475   19.9983 H   0  0  0  0  0  0
    3.1061   50.9970   18.8151 H   0  0  0  0  0  0
    1.6173   51.9142   18.7159 H   0  0  0  0  0  0
   -0.5558   49.5902   23.7248 H   0  0  0  0  0  0
   -1.1470   48.2843   22.7141 H   0  0  0  0  0  0
    0.3555   48.0983   23.6065 H   0  0  0  0  0  0
   -0.2808   52.0179   22.5738 H   0  0  0  0  0  0
    0.9662   52.7711   21.6236 H   0  0  0  0  0  0
    2.7032   51.9765   23.2630 H   0  0  0  0  0  0
    1.4861   51.1177   24.1553 H   0  0  0  0  0  0
    1.1047   55.2457   24.4327 H   0  0  0  0  0  0
    2.3715   54.7786   23.2915 H   0  0  0  0  0  0
    0.7047   54.5350   22.8934 H   0  0  0  0  0  0
    0.2361   52.1492   26.4483 H   0  0  0  0  0  0
    1.0988   51.9717   28.7282 H   0  0  0  0  0  0
    4.7198   53.9428   27.5443 H   0  0  0  0  0  0
    3.5016   54.2475   24.0683 H   0  0  0  0  0  0
    4.1193   53.4337   22.3410 H   0  0  0  0  0  0
    4.6783   54.1504   20.0737 H   0  0  0  0  0  0
    8.0719   56.3038   21.5642 H   0  0  0  0  0  0
    7.5045   55.6361   23.8504 H   0  0  0  0  0  0
  1  2  1  0  0  0
  1 31  1  0  0  0
  1 32  1  0  0  0
  1 33  1  0  0  0
  2  6  2  0  0  0
  2  3  1  0  0  0
  3  4  2  0  0  0
  3  8  1  0  0  0
  4  5  1  0  0  0
  4  7  1  0  0  0
  5  6  1  0  0  0
  7 34  1  0  0  0
  7 35  1  0  0  0
  7 36  1  0  0  0
  8  9  1  0  0  0
  8 37  1  0  0  0
  8 38  1  0  0  0
  9 10  1  0  0  0
  9 39  1  0  0  0
  9 40  1  0  0  0
 10 11  1  0  0  0
 10 12  1  0  0  0
 11 41  1  0  0  0
 11 42  1  0  0  0
 11 43  1  0  0  0
 12 17  2  0  0  0
 12 13  1  0  0  0
 13 14  2  0  0  0
 13 44  1  0  0  0
 14 15  1  0  0  0
 14 45  1  0  0  0
 15 16  2  0  0  0
 15 28  1  0  0  0
 16 17  1  0  0  0
 16 46  1  0  0  0
 17 18  1  0  0  0
 18 19  1  0  0  0
 18 47  1  0  0  0
 19 20  2  0  0  0
 19 21  1  0  0  0
 21 26  2  0  0  0
 21 22  1  0  0  0
 22 23  2  0  0  0
 22 48  1  0  0  0
 23 24  1  0  0  0
 23 49  1  0  0  0
 24 25  2  0  0  0
 24 27  1  0  0  0
 25 26  1  0  0  0
 25 50  1  0  0  0
 26 51  1  0  0  0
 28 29  2  0  0  0
 28 30  1  0  0  0
M  CHG  1  30  -1
M  END
> <i_i_glide_confnum>
69

> <i_i_glide_lignum>
5929

> <i_i_glide_posenum>
244

> <i_i_glide_rotatable_bonds>
8

> <i_m_Source_File_Index>
3261

> <b_m_subgroup_collapsed>
0

> <r_i_docking_score>
-6.15141

> <r_i_glide_ecoul>
-8.1458

> <r_i_glide_eff_state_penalty>
0

> <r_i_glide_einternal>
9.91237

> <r_i_glide_emodel>
-59.37

> <r_i_glide_energy>
-44.6178

> <r_i_glide_erotb>
0.636887

> <r_i_glide_esite>
-0.0254812

> <r_i_glide_evdw>
-36.472

> <r_i_glide_gscore>
-6.15141

> <r_i_glide_hbond>
-0.32

> <r_i_glide_ligand_efficiency>
-0.205047

> <r_i_glide_ligand_efficiency_ln>
-1.39767

> <r_i_glide_ligand_efficiency_sa>
-0.637129

> <r_i_glide_lipo>
-2.26249

> <r_i_glide_metal>
0

> <r_i_glide_rewards>
-1.13485

> <s_i_glide_gridfile>
wee1_glide-grid

> <s_m_Source_File>
wee1_decoys_glide_SP.sdf

> <s_m_Source_Path>
/Users/zhangxujun/Desktop

> <s_m_entry_id>
3536

> <s_m_entry_name>
wee1_decoys_glide_SP.3261

> <s_m_subgroup_title>
wee1_decoys_glide_SP

> <s_m_subgroupid>
wee1_decoys_glide_SP


$$$$
