ZINC12858068_4523
                    3D
 Schrodinger Suite 2024-2.
 54 57  0  0  1  0            999 V2000
    0.6066   52.2894   29.9709 C   0  0  0  0  0  0
    1.7971   53.2162   30.2710 C   0  0  0  0  0  0
    2.9156   53.2200   29.1971 C   0  0  2  0  0  0
    3.4293   52.2571   29.2585 H   0  0  0  0  0  0
    3.9369   54.3361   29.4558 C   0  0  0  0  0  0
    5.1368   54.1251   28.5330 C   0  0  0  0  0  0
    4.7096   54.0959   27.0657 C   0  0  0  0  0  0
    3.4091   53.6981   26.6677 C   0  0  0  0  0  0
    3.1075   53.6559   25.2737 C   0  0  0  0  0  0
    4.1436   54.0108   24.3538 C   0  0  0  0  0  0
    4.2171   54.0565   22.9046 C   0  0  0  0  0  0
    5.4582   54.5054   22.4250 C   0  0  0  0  0  0
    6.5912   54.8246   23.7215 S   0  0  0  0  0  0
    5.3843   54.4204   24.9105 C   0  0  0  0  0  0
    5.6649   54.4940   26.1991 N   0  0  0  0  0  0
    5.9049   54.8364   21.0802 C   0  0  0  0  0  0
    6.8513   55.6050   20.8934 O   0  0  0  0  0  0
    5.2317   54.1975   20.1034 N   0  0  0  0  0  0
    5.3644   54.3084   18.7091 C   0  0  0  0  0  0
    6.0219   55.3578   18.0523 C   0  0  0  0  0  0
    6.1004   55.3674   16.6613 C   0  0  0  0  0  0
    5.5272   54.3349   15.9060 C   0  0  0  0  0  0
    4.8576   53.2984   16.5713 C   0  0  0  0  0  0
    4.7700   53.2967   17.9594 C   0  0  0  0  0  0
    5.6438   54.3631   14.4117 C   0  0  0  0  0  0
    6.2083   55.2620   13.7881 O   0  0  0  0  0  0
    5.0383   53.2065   13.6160 C   0  0  0  0  0  0
    3.1563   53.7571   22.0819 N   0  0  0  0  0  0
    1.7244   53.2099   24.7462 C   0  0  0  0  0  0
    0.7925   52.8966   25.6397 F   0  0  0  0  0  0
    1.2046   54.1824   24.0007 F   0  0  0  0  0  0
    1.8857   52.1305   23.9820 F   0  0  0  0  0  0
    2.3655   53.3689   27.7580 C   0  0  0  0  0  0
   -0.0404   52.1817   30.8431 H   0  0  0  0  0  0
   -0.0071   52.6768   29.1570 H   0  0  0  0  0  0
    0.9447   51.2963   29.6809 H   0  0  0  0  0  0
    2.2301   52.8999   31.2213 H   0  0  0  0  0  0
    1.4204   54.2282   30.4295 H   0  0  0  0  0  0
    3.4864   55.3254   29.3559 H   0  0  0  0  0  0
    4.2846   54.2833   30.4862 H   0  0  0  0  0  0
    5.6179   53.1743   28.7696 H   0  0  0  0  0  0
    5.8916   54.8948   28.7128 H   0  0  0  0  0  0
    4.5642   53.5107   20.4221 H   0  0  0  0  0  0
    6.4696   56.1762   18.5935 H   0  0  0  0  0  0
    6.6160   56.1866   16.1788 H   0  0  0  0  0  0
    4.4035   52.4741   16.0398 H   0  0  0  0  0  0
    4.2625   52.4750   18.4446 H   0  0  0  0  0  0
    5.4689   52.2595   13.9415 H   0  0  0  0  0  0
    5.2283   53.3270   12.5500 H   0  0  0  0  0  0
    3.9624   53.1593   13.7791 H   0  0  0  0  0  0
    2.3086   53.3517   22.4582 H   0  0  0  0  0  0
    3.0500   54.1625   21.1594 H   0  0  0  0  0  0
    1.5880   54.1347   27.7368 H   0  0  0  0  0  0
    1.8943   52.4138   27.5300 H   0  0  0  0  0  0
  1  2  1  0  0  0
  1 34  1  0  0  0
  1 35  1  0  0  0
  1 36  1  0  0  0
  2  3  1  0  0  0
  2 37  1  0  0  0
  2 38  1  0  0  0
  3  4  1  0  0  0
  3 33  1  0  0  0
  3  5  1  0  0  0
  5  6  1  0  0  0
  5 39  1  0  0  0
  5 40  1  0  0  0
  6  7  1  0  0  0
  6 41  1  0  0  0
  6 42  1  0  0  0
  7 15  2  0  0  0
  7  8  1  0  0  0
  8  9  2  0  0  0
  8 33  1  0  0  0
  9 10  1  0  0  0
  9 29  1  0  0  0
 10 14  2  0  0  0
 10 11  1  0  0  0
 11 12  2  0  0  0
 11 28  1  0  0  0
 12 13  1  0  0  0
 12 16  1  0  0  0
 13 14  1  0  0  0
 14 15  1  0  0  0
 16 17  2  0  0  0
 16 18  1  0  0  0
 18 19  1  0  0  0
 18 43  1  0  0  0
 19 24  2  0  0  0
 19 20  1  0  0  0
 20 21  2  0  0  0
 20 44  1  0  0  0
 21 22  1  0  0  0
 21 45  1  0  0  0
 22 23  2  0  0  0
 22 25  1  0  0  0
 23 24  1  0  0  0
 23 46  1  0  0  0
 24 47  1  0  0  0
 25 26  2  0  0  0
 25 27  1  0  0  0
 27 48  1  0  0  0
 27 49  1  0  0  0
 27 50  1  0  0  0
 28 51  1  0  0  0
 28 52  1  0  0  0
 29 30  1  0  0  0
 29 31  1  0  0  0
 29 32  1  0  0  0
 33 53  1  0  0  0
 33 54  1  0  0  0
M  END
> <i_i_glide_confnum>
7

> <i_i_glide_lignum>
4524

> <i_i_glide_posenum>
362

> <i_i_glide_rotatable_bonds>
6

> <i_m_Source_File_Index>
1643

> <b_m_subgroup_collapsed>
0

> <r_i_docking_score>
-6.22206

> <r_i_glide_ecoul>
-2.49193

> <r_i_glide_eff_state_penalty>
0

> <r_i_glide_einternal>
5.24072

> <r_i_glide_emodel>
-56.6472

> <r_i_glide_energy>
-42.7592

> <r_i_glide_erotb>
0.283638

> <r_i_glide_esite>
0

> <r_i_glide_evdw>
-40.2673

> <r_i_glide_gscore>
-6.22206

> <r_i_glide_hbond>
-0.110085

> <r_i_glide_ligand_efficiency>
-0.194439

> <r_i_glide_ligand_efficiency_ln>
-1.39329

> <r_i_glide_ligand_efficiency_sa>
-0.617306

> <r_i_glide_lipo>
-2.8411

> <r_i_glide_metal>
0

> <r_i_glide_rewards>
-1.16736

> <s_i_glide_gridfile>
wee1_glide-grid

> <s_m_Source_File>
wee1_decoys_glide_SP.sdf

> <s_m_Source_Path>
/Users/zhangxujun/Desktop

> <s_m_entry_id>
1918

> <s_m_entry_name>
wee1_decoys_glide_SP.1643

> <s_m_subgroup_title>
wee1_decoys_glide_SP

> <s_m_subgroupid>
wee1_decoys_glide_SP


$$$$
