ZINC60351506_858
                    3D
 Schrodinger Suite 2024-2.
 66 69  0  0  1  0            999 V2000
    7.0069   57.9859   16.3148 C   0  0  0  0  0  0
    6.4164   57.2997   17.5387 C   0  0  0  0  0  0
    6.0131   57.9742   18.4817 O   0  0  0  0  0  0
    6.3661   55.9543   17.5106 N   0  0  0  0  0  0
    5.8046   55.0439   18.5359 C   0  0  0  0  0  0
    6.2044   53.5802   18.1389 C   0  0  0  0  0  0
    6.1542   53.1683   16.6455 C   0  0  0  0  0  0
    4.7560   52.9923   16.0313 C   0  0  0  0  0  0
    3.7866   54.1699   16.2194 C   0  0  0  0  0  0
    3.3316   54.3514   17.6772 C   0  0  0  0  0  0
    4.2373   55.2099   18.5877 C   0  0  0  0  0  0
    6.4452   55.2821   19.9375 C   0  0  0  0  0  0
    5.8498   54.8976   21.0550 N   0  0  0  0  0  0
    6.7247   55.2031   21.9728 C   0  0  0  0  0  0
    7.8773   55.6975   21.4700 O   0  0  0  0  0  0
    7.6871   55.7106   20.0912 N   0  0  0  0  0  0
    6.6128   55.0432   23.4753 C   0  0  0  0  0  0
    5.2979   54.3489   23.9217 C   0  0  0  0  0  0
    5.1611   54.1527   25.4353 C   0  0  0  0  0  0
    6.1664   54.1414   26.1426 O   0  0  0  0  0  0
    3.8985   53.9571   25.8753 N   0  0  0  0  0  0
    3.3592   53.5538   27.2013 C   0  0  0  0  0  0
    3.2750   54.7939   28.1181 C   0  0  0  0  0  0
    4.6350   54.8968   28.7976 C   0  0  0  0  0  0
    5.0197   53.4602   29.0897 C   0  0  0  0  0  0
    4.3328   52.6327   28.0047 C   0  0  0  0  0  0
    1.9598   52.8948   26.9986 C   0  0  0  0  0  0
    1.2415   52.4624   28.1281 C   0  0  0  0  0  0
   -0.0104   51.8675   28.0024 C   0  0  0  0  0  0
   -0.5683   51.6958   26.7412 C   0  0  0  0  0  0
    0.1252   52.0979   25.6050 C   0  0  0  0  0  0
    1.3770   52.6961   25.7312 C   0  0  0  0  0  0
   -2.1335   50.9838   26.5821 Cl  0  0  0  0  0  0
    6.4472   57.7135   15.4189 H   0  0  0  0  0  0
    6.9582   59.0710   16.4285 H   0  0  0  0  0  0
    8.0497   57.6992   16.1803 H   0  0  0  0  0  0
    6.6676   55.5005   16.6627 H   0  0  0  0  0  0
    7.2180   53.3739   18.4815 H   0  0  0  0  0  0
    5.5817   52.8777   18.6948 H   0  0  0  0  0  0
    6.7375   53.8585   16.0360 H   0  0  0  0  0  0
    6.6749   52.2149   16.5441 H   0  0  0  0  0  0
    4.8708   52.7920   14.9647 H   0  0  0  0  0  0
    4.3012   52.0919   16.4478 H   0  0  0  0  0  0
    4.2154   55.0949   15.8303 H   0  0  0  0  0  0
    2.9042   53.9754   15.6071 H   0  0  0  0  0  0
    2.3389   54.8039   17.6765 H   0  0  0  0  0  0
    3.1830   53.3723   18.1369 H   0  0  0  0  0  0
    3.8616   55.0600   19.5971 H   0  0  0  0  0  0
    3.9836   56.2529   18.3902 H   0  0  0  0  0  0
    6.6949   56.0256   23.9414 H   0  0  0  0  0  0
    7.4711   54.4673   23.8264 H   0  0  0  0  0  0
    5.2438   53.3607   23.4606 H   0  0  0  0  0  0
    4.4330   54.8967   23.5465 H   0  0  0  0  0  0
    3.2163   53.8814   25.1408 H   0  0  0  0  0  0
    2.9877   55.6854   27.5691 H   0  0  0  0  0  0
    2.5125   54.6802   28.8891 H   0  0  0  0  0  0
    5.3730   55.3322   28.1297 H   0  0  0  0  0  0
    4.6111   55.5211   29.6821 H   0  0  0  0  0  0
    6.1021   53.3345   29.0505 H   0  0  0  0  0  0
    4.6719   53.1539   30.0771 H   0  0  0  0  0  0
    3.8167   51.8017   28.4846 H   0  0  0  0  0  0
    5.0999   52.1921   27.3718 H   0  0  0  0  0  0
    1.6549   52.5784   29.1197 H   0  0  0  0  0  0
   -0.5477   51.5349   28.8796 H   0  0  0  0  0  0
   -0.3080   51.9516   24.6263 H   0  0  0  0  0  0
    1.8713   52.9869   24.8179 H   0  0  0  0  0  0
  1  2  1  0  0  0
  1 34  1  0  0  0
  1 35  1  0  0  0
  1 36  1  0  0  0
  2  3  2  0  0  0
  2  4  1  0  0  0
  4  5  1  0  0  0
  4 37  1  0  0  0
  5 11  1  0  0  0
  5  6  1  0  0  0
  5 12  1  0  0  0
  6  7  1  0  0  0
  6 38  1  0  0  0
  6 39  1  0  0  0
  7  8  1  0  0  0
  7 40  1  0  0  0
  7 41  1  0  0  0
  8  9  1  0  0  0
  8 42  1  0  0  0
  8 43  1  0  0  0
  9 10  1  0  0  0
  9 44  1  0  0  0
  9 45  1  0  0  0
 10 11  1  0  0  0
 10 46  1  0  0  0
 10 47  1  0  0  0
 11 48  1  0  0  0
 11 49  1  0  0  0
 12 16  2  0  0  0
 12 13  1  0  0  0
 13 14  2  0  0  0
 14 15  1  0  0  0
 14 17  1  0  0  0
 15 16  1  0  0  0
 17 18  1  0  0  0
 17 50  1  0  0  0
 17 51  1  0  0  0
 18 19  1  0  0  0
 18 52  1  0  0  0
 18 53  1  0  0  0
 19 20  2  0  0  0
 19 21  1  0  0  0
 21 22  1  0  0  0
 21 54  1  0  0  0
 22 26  1  0  0  0
 22 23  1  0  0  0
 22 27  1  0  0  0
 23 24  1  0  0  0
 23 55  1  0  0  0
 23 56  1  0  0  0
 24 25  1  0  0  0
 24 57  1  0  0  0
 24 58  1  0  0  0
 25 26  1  0  0  0
 25 59  1  0  0  0
 25 60  1  0  0  0
 26 61  1  0  0  0
 26 62  1  0  0  0
 27 32  2  0  0  0
 27 28  1  0  0  0
 28 29  2  0  0  0
 28 63  1  0  0  0
 29 30  1  0  0  0
 29 64  1  0  0  0
 30 31  2  0  0  0
 30 33  1  0  0  0
 31 32  1  0  0  0
 31 65  1  0  0  0
 32 66  1  0  0  0
M  END
> <i_i_glide_confnum>
2097

> <i_i_glide_lignum>
859

> <i_i_glide_posenum>
72

> <i_i_glide_rotatable_bonds>
9

> <i_m_Source_File_Index>
4939

> <b_m_subgroup_collapsed>
0

> <r_i_docking_score>
-4.22745

> <r_i_glide_ecoul>
-0.759383

> <r_i_glide_eff_state_penalty>
0

> <r_i_glide_einternal>
4.79392

> <r_i_glide_emodel>
-47.3405

> <r_i_glide_energy>
-38.1542

> <r_i_glide_erotb>
0.72315

> <r_i_glide_esite>
-0.00939103

> <r_i_glide_evdw>
-37.3948

> <r_i_glide_gscore>
-4.22745

> <r_i_glide_hbond>
0

> <r_i_glide_ligand_efficiency>
-0.128105

> <r_i_glide_ligand_efficiency_ln>
-0.940164

> <r_i_glide_ligand_efficiency_sa>
-0.4109

> <r_i_glide_lipo>
-2.28452

> <r_i_glide_metal>
0

> <r_i_glide_rewards>
-0.673045

> <s_i_glide_gridfile>
wee1_glide-grid

> <s_m_Source_File>
wee1_decoys_glide_SP.sdf

> <s_m_Source_Path>
/Users/zhangxujun/Desktop

> <s_m_entry_id>
5214

> <s_m_entry_name>
wee1_decoys_glide_SP.4939

> <s_m_subgroup_title>
wee1_decoys_glide_SP

> <s_m_subgroupid>
wee1_decoys_glide_SP


$$$$
