ZINC63237000_3499
                    3D
 Schrodinger Suite 2024-2.
 60 65  0  0  1  0            999 V2000
   -4.1761   50.0273   26.9846 C   0  0  0  0  0  0
   -4.9391   48.8766   27.1547 C   0  0  0  0  0  0
   -4.5382   47.6822   26.5600 C   0  0  0  0  0  0
   -3.3677   47.6263   25.7990 C   0  0  0  0  0  0
   -2.5762   48.7842   25.6321 C   0  0  0  0  0  0
   -3.0078   49.9832   26.2241 C   0  0  0  0  0  0
   -1.2728   48.7552   24.8104 C   0  0  2  0  0  0
   -0.9796   47.7103   24.7314 H   0  0  0  0  0  0
   -0.0403   49.4472   25.4739 C   0  0  0  0  0  0
    0.0404   50.9058   25.2862 N   0  0  0  0  0  0
   -0.1326   51.3931   23.9092 C   0  0  2  0  0  0
   -0.2864   52.4692   24.0100 H   0  0  0  0  0  0
   -1.4359   50.8197   23.2708 C   0  0  2  0  0  0
   -2.3172   51.2750   23.7247 H   0  0  0  0  0  0
   -1.4809   49.3139   23.4130 C   0  0  0  0  0  0
   -1.6332   48.7538   22.2024 C   0  0  0  0  0  0
   -1.6969   47.3488   21.7754 C   0  0  0  0  0  0
   -1.8314   47.0355   20.4717 C   0  0  0  0  0  0
   -1.9075   48.1268   19.5089 C   0  0  0  0  0  0
   -1.8439   49.4302   19.8889 C   0  0  0  0  0  0
   -1.7006   49.7674   21.2412 C   0  0  0  0  0  0
   -1.5909   50.9522   21.8042 N   0  3  0  0  0  0
    1.1144   51.2839   23.0135 C   0  0  0  0  0  0
    1.5852   50.0383   22.5726 C   0  0  0  0  0  0
    2.6504   49.9533   21.6821 C   0  0  0  0  0  0
    3.2905   51.1085   21.2493 C   0  0  0  0  0  0
    2.8653   52.3577   21.7119 C   0  0  0  0  0  0
    1.7671   52.4472   22.5729 C   0  0  0  0  0  0
    3.5311   53.5125   21.2907 N   0  0  0  0  0  0
    4.8345   53.7461   21.5645 C   0  0  0  0  0  0
    5.4489   53.1536   22.4569 O   0  0  0  0  0  0
    5.5585   54.7500   20.6948 C   0  0  0  0  0  0
    5.1020   55.0687   19.4055 C   0  0  0  0  0  0
    5.8414   55.9180   18.5856 C   0  0  0  0  0  0
    7.0592   56.4221   19.0333 C   0  0  0  0  0  0
    7.5343   56.0992   20.2991 C   0  0  0  0  0  0
    6.7718   55.2974   21.1404 C   0  0  0  0  0  0
    7.9898   57.4542   18.0105 Cl  0  0  0  0  0  0
   -2.9571   46.0987   25.0874 Cl  0  0  0  0  0  0
   -4.4819   50.9527   27.4513 H   0  0  0  0  0  0
   -5.8401   48.9091   27.7509 H   0  0  0  0  0  0
   -5.1357   46.7923   26.6948 H   0  0  0  0  0  0
   -2.4399   50.8931   26.1201 H   0  0  0  0  0  0
   -0.0365   49.2125   26.5414 H   0  0  0  0  0  0
    0.8661   49.0049   25.0576 H   0  0  0  0  0  0
   -0.6104   51.3553   25.9136 H   0  0  0  0  0  0
   -1.6326   46.5394   22.4879 H   0  0  0  0  0  0
   -1.8758   46.0062   20.1444 H   0  0  0  0  0  0
   -2.0131   47.8901   18.4591 H   0  0  0  0  0  0
   -1.8998   50.1955   19.1282 H   0  0  0  0  0  0
    1.1176   49.1202   22.8892 H   0  0  0  0  0  0
    2.9868   48.9873   21.3350 H   0  0  0  0  0  0
    4.1219   51.0311   20.5609 H   0  0  0  0  0  0
    1.4336   53.4207   22.9037 H   0  0  0  0  0  0
    3.0204   54.1414   20.6842 H   0  0  0  0  0  0
    4.1837   54.6531   19.0145 H   0  0  0  0  0  0
    5.4820   56.1647   17.5972 H   0  0  0  0  0  0
    8.4959   56.4623   20.6303 H   0  0  0  0  0  0
    7.1644   55.0523   22.1190 H   0  0  0  0  0  0
   -1.5845   51.8392   21.3111 H   0  0  0  0  0  0
  1  6  2  0  0  0
  1  2  1  0  0  0
  1 40  1  0  0  0
  2  3  2  0  0  0
  2 41  1  0  0  0
  3  4  1  0  0  0
  3 42  1  0  0  0
  4  5  2  0  0  0
  4 39  1  0  0  0
  5  6  1  0  0  0
  5  7  1  0  0  0
  6 43  1  0  0  0
  7  8  1  0  0  0
  7 15  1  0  0  0
  7  9  1  0  0  0
  9 10  1  0  0  0
  9 44  1  0  0  0
  9 45  1  0  0  0
 10 11  1  0  0  0
 10 46  1  0  0  0
 11 12  1  0  0  0
 11 13  1  0  0  0
 11 23  1  0  0  0
 13 14  1  0  0  0
 13 22  1  0  0  0
 13 15  1  0  0  0
 15 16  2  0  0  0
 16 21  1  0  0  0
 16 17  1  0  0  0
 17 18  2  0  0  0
 17 47  1  0  0  0
 18 19  1  0  0  0
 18 48  1  0  0  0
 19 20  2  0  0  0
 19 49  1  0  0  0
 20 21  1  0  0  0
 20 50  1  0  0  0
 21 22  2  0  0  0
 22 60  1  0  0  0
 23 28  2  0  0  0
 23 24  1  0  0  0
 24 25  2  0  0  0
 24 51  1  0  0  0
 25 26  1  0  0  0
 25 52  1  0  0  0
 26 27  2  0  0  0
 26 53  1  0  0  0
 27 28  1  0  0  0
 27 29  1  0  0  0
 28 54  1  0  0  0
 29 30  1  0  0  0
 29 55  1  0  0  0
 30 31  2  0  0  0
 30 32  1  0  0  0
 32 37  2  0  0  0
 32 33  1  0  0  0
 33 34  2  0  0  0
 33 56  1  0  0  0
 34 35  1  0  0  0
 34 57  1  0  0  0
 35 36  2  0  0  0
 35 38  1  0  0  0
 36 37  1  0  0  0
 36 58  1  0  0  0
 37 59  1  0  0  0
M  CHG  1  22   1
M  END
> <i_i_glide_confnum>
179

> <i_i_glide_lignum>
3500

> <i_i_glide_posenum>
33

> <i_i_glide_rotatable_bonds>
5

> <i_m_Source_File_Index>
3860

> <b_m_subgroup_collapsed>
0

> <r_i_docking_score>
-2.81795

> <r_i_glide_ecoul>
-4.77743

> <r_i_glide_eff_state_penalty>
0

> <r_i_glide_einternal>
1.85572

> <r_i_glide_emodel>
-43.4742

> <r_i_glide_energy>
-40.4055

> <r_i_glide_erotb>
0.388937

> <r_i_glide_esite>
-0.00487141

> <r_i_glide_evdw>
-35.6281

> <r_i_glide_gscore>
-2.81795

> <r_i_glide_hbond>
-0.313259

> <r_i_glide_ligand_efficiency>
-0.0782763

> <r_i_glide_ligand_efficiency_ln>
-0.6148

> <r_i_glide_ligand_efficiency_sa>
-0.258463

> <r_i_glide_lipo>
-1.22602

> <r_i_glide_metal>
0

> <r_i_glide_rewards>
0.835281

> <s_i_glide_gridfile>
wee1_glide-grid

> <s_m_Source_File>
wee1_decoys_glide_SP.sdf

> <s_m_Source_Path>
/Users/zhangxujun/Desktop

> <s_m_entry_id>
4135

> <s_m_entry_name>
wee1_decoys_glide_SP.3860

> <s_m_subgroup_title>
wee1_decoys_glide_SP

> <s_m_subgroupid>
wee1_decoys_glide_SP


$$$$
