ZINC10440979_5027
                    3D
 Schrodinger Suite 2024-2.
 55 58  0  0  1  0            999 V2000
   -8.1936   51.3840   32.5893 C   0  0  0  0  0  0
   -7.1282   51.1031   31.5467 C   0  0  0  0  0  0
   -5.8375   50.7485   31.9337 C   0  0  0  0  0  0
   -4.8600   50.4957   30.9740 C   0  0  0  0  0  0
   -5.1579   50.5887   29.6110 C   0  0  0  0  0  0
   -6.4787   50.8950   29.2094 C   0  0  0  0  0  0
   -7.4437   51.1633   30.1885 C   0  0  0  0  0  0
   -6.9368   50.8681   27.7559 C   0  0  0  0  0  0
   -4.0957   50.3009   28.7404 N   0  0  0  0  0  0
   -3.6812   51.0372   27.6903 C   0  0  0  0  0  0
   -4.2351   52.0649   27.2817 O   0  0  0  0  0  0
   -2.5582   50.4967   27.1811 N   0  0  0  0  0  0
   -1.8990   50.8526   26.0594 C   0  0  0  0  0  0
   -2.3002   51.6524   25.2097 O   0  0  0  0  0  0
   -0.5385   50.1698   25.8751 C   0  0  0  0  0  0
    0.7552   51.3068   25.2742 S   0  0  0  0  0  0
    1.1046   52.3815   26.7133 C   0  0  0  0  0  0
    0.4847   52.1072   27.8100 N   0  0  0  0  0  0
    0.5809   52.9352   28.9268 C   0  0  0  0  0  0
   -0.1410   52.6184   30.0756 C   0  0  0  0  0  0
   -0.0954   53.4814   31.1753 C   0  0  0  0  0  0
    0.6675   54.6438   31.1228 C   0  0  0  0  0  0
    1.4164   54.9474   29.9955 C   0  0  0  0  0  0
    1.3642   54.0827   28.9028 C   0  0  0  0  0  0
    2.1972   54.3549   27.6860 C   0  0  0  0  0  0
    2.9985   55.2878   27.6810 O   0  0  0  0  0  0
    1.9844   53.4713   26.6388 N   0  0  0  0  0  0
    2.6962   53.7653   25.4292 C   0  0  0  0  0  0
    1.9871   54.0669   24.2519 C   0  0  0  0  0  0
    2.6643   54.2811   23.0522 C   0  0  0  0  0  0
    4.0560   54.2636   23.0220 C   0  0  0  0  0  0
    4.7739   54.0400   24.1916 C   0  0  0  0  0  0
    4.1065   53.7622   25.3834 C   0  0  0  0  0  0
    4.8401   53.4874   26.4881 F   0  0  0  0  0  0
    4.7115   54.4856   21.8599 F   0  0  0  0  0  0
   -7.9107   51.0009   33.5716 H   0  0  0  0  0  0
   -9.1306   50.8996   32.3142 H   0  0  0  0  0  0
   -8.3820   52.4548   32.6639 H   0  0  0  0  0  0
   -5.5779   50.6762   32.9810 H   0  0  0  0  0  0
   -3.8616   50.2368   31.3029 H   0  0  0  0  0  0
   -8.4546   51.4035   29.8916 H   0  0  0  0  0  0
   -6.8059   51.8462   27.2908 H   0  0  0  0  0  0
   -6.3829   50.1234   27.1817 H   0  0  0  0  0  0
   -7.9888   50.5888   27.6779 H   0  0  0  0  0  0
   -3.4620   49.5835   29.0724 H   0  0  0  0  0  0
   -2.1335   49.7347   27.7078 H   0  0  0  0  0  0
   -0.1965   49.7066   26.8020 H   0  0  0  0  0  0
   -0.6588   49.3670   25.1463 H   0  0  0  0  0  0
   -0.7520   51.7280   30.1107 H   0  0  0  0  0  0
   -0.6563   53.2967   32.0774 H   0  0  0  0  0  0
    0.7041   55.2967   31.9807 H   0  0  0  0  0  0
    2.0243   55.8429   29.9843 H   0  0  0  0  0  0
    0.9069   54.0965   24.2548 H   0  0  0  0  0  0
    2.1144   54.4768   22.1441 H   0  0  0  0  0  0
    5.8528   54.0371   24.1660 H   0  0  0  0  0  0
  1  2  1  0  0  0
  1 36  1  0  0  0
  1 37  1  0  0  0
  1 38  1  0  0  0
  2  7  2  0  0  0
  2  3  1  0  0  0
  3  4  2  0  0  0
  3 39  1  0  0  0
  4  5  1  0  0  0
  4 40  1  0  0  0
  5  6  2  0  0  0
  5  9  1  0  0  0
  6  7  1  0  0  0
  6  8  1  0  0  0
  7 41  1  0  0  0
  8 42  1  0  0  0
  8 43  1  0  0  0
  8 44  1  0  0  0
  9 10  1  0  0  0
  9 45  1  0  0  0
 10 11  2  0  0  0
 10 12  1  0  0  0
 12 13  1  0  0  0
 12 46  1  0  0  0
 13 14  2  0  0  0
 13 15  1  0  0  0
 15 16  1  0  0  0
 15 47  1  0  0  0
 15 48  1  0  0  0
 16 17  1  0  0  0
 17 27  1  0  0  0
 17 18  2  0  0  0
 18 19  1  0  0  0
 19 24  2  0  0  0
 19 20  1  0  0  0
 20 21  2  0  0  0
 20 49  1  0  0  0
 21 22  1  0  0  0
 21 50  1  0  0  0
 22 23  2  0  0  0
 22 51  1  0  0  0
 23 24  1  0  0  0
 23 52  1  0  0  0
 24 25  1  0  0  0
 25 26  2  0  0  0
 25 27  1  0  0  0
 27 28  1  0  0  0
 28 33  2  0  0  0
 28 29  1  0  0  0
 29 30  2  0  0  0
 29 53  1  0  0  0
 30 31  1  0  0  0
 30 54  1  0  0  0
 31 32  2  0  0  0
 31 35  1  0  0  0
 32 33  1  0  0  0
 32 55  1  0  0  0
 33 34  1  0  0  0
M  END
> <i_i_glide_confnum>
187

> <i_i_glide_lignum>
5028

> <i_i_glide_posenum>
187

> <i_i_glide_rotatable_bonds>
8

> <i_m_Source_File_Index>
5085

> <b_m_subgroup_collapsed>
0

> <r_i_docking_score>
-6.46933

> <r_i_glide_ecoul>
-12.1253

> <r_i_glide_eff_state_penalty>
0

> <r_i_glide_einternal>
7.2299

> <r_i_glide_emodel>
-65.8646

> <r_i_glide_energy>
-46.1649

> <r_i_glide_erotb>
0.666677

> <r_i_glide_esite>
-0.295225

> <r_i_glide_evdw>
-34.0396

> <r_i_glide_gscore>
-6.46933

> <r_i_glide_hbond>
-0.176302

> <r_i_glide_ligand_efficiency>
-0.184838

> <r_i_glide_ligand_efficiency_ln>
-1.42016

> <r_i_glide_ligand_efficiency_sa>
-0.604618

> <r_i_glide_lipo>
-2.45592

> <r_i_glide_metal>
0

> <r_i_glide_rewards>
-0.687783

> <s_i_glide_gridfile>
wee1_glide-grid

> <s_m_Source_File>
wee1_decoys_glide_SP.sdf

> <s_m_Source_Path>
/Users/zhangxujun/Desktop

> <s_m_entry_id>
5360

> <s_m_entry_name>
wee1_decoys_glide_SP.5085

> <s_m_subgroup_title>
wee1_decoys_glide_SP

> <s_m_subgroupid>
wee1_decoys_glide_SP


$$$$
