ZINC14668604_2861
                    3D
 Schrodinger Suite 2024-2.
 57 58  0  0  1  0            999 V2000
    3.0771   53.3710   25.0886 C   0  0  0  0  0  0
    1.5642   53.2779   24.8384 C   0  0  0  0  0  0
    1.1076   54.1987   23.6948 C   0  0  0  0  0  0
    1.0638   51.8337   24.6722 C   0  0  0  0  0  0
    0.2267   51.3052   25.6648 C   0  0  0  0  0  0
   -0.2529   50.0020   25.5750 C   0  0  0  0  0  0
    0.0798   49.2173   24.4767 C   0  0  0  0  0  0
    0.9088   49.7261   23.4790 C   0  0  0  0  0  0
    1.4311   51.0293   23.5699 C   0  0  0  0  0  0
    2.3042   51.5691   22.6393 O   0  0  0  0  0  0
    2.8319   50.8103   21.5424 C   0  0  0  0  0  0
    2.0572   51.1254   20.2508 C   0  0  0  0  0  0
    0.9341   51.6353   20.3076 O   0  0  0  0  0  0
    2.7044   50.8536   19.0938 N   0  0  0  0  0  0
    2.1703   51.2984   17.8754 N   0  0  0  0  0  0
    2.4242   52.5478   17.3753 C   0  0  0  0  0  0
    1.6608   52.9467   15.9441 S   0  0  0  0  0  0
    3.3236   53.3150   18.0808 N   0  0  0  0  0  0
    3.6126   54.6407   18.0803 C   0  0  0  0  0  0
    3.0442   55.4951   17.3967 O   0  0  0  0  0  0
    4.7121   55.0332   19.0505 C   0  0  0  0  0  0
    4.8045   54.3892   20.2995 C   0  0  0  0  0  0
    5.7973   54.7330   21.2133 C   0  0  0  0  0  0
    6.7129   55.7288   20.8998 C   0  0  0  0  0  0
    6.6238   56.3952   19.6817 C   0  0  0  0  0  0
    5.6222   56.0725   18.7481 C   0  0  0  0  0  0
    5.5064   56.7153   17.5259 O   0  0  0  0  0  0
    6.1959   57.9355   17.2564 C   0  0  0  0  0  0
    7.5767   57.6306   16.6494 C   0  0  0  0  0  0
    5.3097   58.7229   16.2832 C   0  0  0  0  0  0
    5.9257   53.8216   22.8786 Br  0  0  0  0  0  0
    3.3556   52.8966   26.0277 H   0  0  0  0  0  0
    3.6357   52.8974   24.2877 H   0  0  0  0  0  0
    3.4080   54.4091   25.1505 H   0  0  0  0  0  0
    1.1049   53.6831   25.7401 H   0  0  0  0  0  0
    0.0205   54.2665   23.6829 H   0  0  0  0  0  0
    1.5035   55.2056   23.8289 H   0  0  0  0  0  0
    1.4375   53.8590   22.7129 H   0  0  0  0  0  0
   -0.0529   51.9019   26.5215 H   0  0  0  0  0  0
   -0.8824   49.5994   26.3577 H   0  0  0  0  0  0
   -0.2965   48.2066   24.4086 H   0  0  0  0  0  0
    1.1334   49.0784   22.6480 H   0  0  0  0  0  0
    3.8674   51.1324   21.4201 H   0  0  0  0  0  0
    2.8837   49.7365   21.7210 H   0  0  0  0  0  0
    3.6384   50.4679   18.9920 H   0  0  0  0  0  0
    2.0764   50.5287   17.2260 H   0  0  0  0  0  0
    3.9084   52.7800   18.7024 H   0  0  0  0  0  0
    4.0975   53.6227   20.5836 H   0  0  0  0  0  0
    7.4938   55.9819   21.6027 H   0  0  0  0  0  0
    7.3564   57.1570   19.4721 H   0  0  0  0  0  0
    6.3010   58.5488   18.1540 H   0  0  0  0  0  0
    8.1179   58.5506   16.4283 H   0  0  0  0  0  0
    8.1966   57.0376   17.3209 H   0  0  0  0  0  0
    7.4811   57.0703   15.7190 H   0  0  0  0  0  0
    5.7463   59.6955   16.0505 H   0  0  0  0  0  0
    5.1651   58.1847   15.3459 H   0  0  0  0  0  0
    4.3240   58.9090   16.7154 H   0  0  0  0  0  0
  1  2  1  0  0  0
  1 32  1  0  0  0
  1 33  1  0  0  0
  1 34  1  0  0  0
  2  3  1  0  0  0
  2  4  1  0  0  0
  2 35  1  0  0  0
  3 36  1  0  0  0
  3 37  1  0  0  0
  3 38  1  0  0  0
  4  9  2  0  0  0
  4  5  1  0  0  0
  5  6  2  0  0  0
  5 39  1  0  0  0
  6  7  1  0  0  0
  6 40  1  0  0  0
  7  8  2  0  0  0
  7 41  1  0  0  0
  8  9  1  0  0  0
  8 42  1  0  0  0
  9 10  1  0  0  0
 10 11  1  0  0  0
 11 12  1  0  0  0
 11 43  1  0  0  0
 11 44  1  0  0  0
 12 13  2  0  0  0
 12 14  1  0  0  0
 14 15  1  0  0  0
 14 45  1  0  0  0
 15 16  1  0  0  0
 15 46  1  0  0  0
 16 17  2  0  0  0
 16 18  1  0  0  0
 18 19  1  0  0  0
 18 47  1  0  0  0
 19 20  2  0  0  0
 19 21  1  0  0  0
 21 26  2  0  0  0
 21 22  1  0  0  0
 22 23  2  0  0  0
 22 48  1  0  0  0
 23 24  1  0  0  0
 23 31  1  0  0  0
 24 25  2  0  0  0
 24 49  1  0  0  0
 25 26  1  0  0  0
 25 50  1  0  0  0
 26 27  1  0  0  0
 27 28  1  0  0  0
 28 29  1  0  0  0
 28 30  1  0  0  0
 28 51  1  0  0  0
 29 52  1  0  0  0
 29 53  1  0  0  0
 29 54  1  0  0  0
 30 55  1  0  0  0
 30 56  1  0  0  0
 30 57  1  0  0  0
M  END
> <i_i_glide_confnum>
215

> <i_i_glide_lignum>
2862

> <i_i_glide_posenum>
32

> <i_i_glide_rotatable_bonds>
12

> <i_m_Source_File_Index>
2631

> <b_m_subgroup_collapsed>
0

> <r_i_docking_score>
-3.64955

> <r_i_glide_ecoul>
-4.06086

> <r_i_glide_eff_state_penalty>
0

> <r_i_glide_einternal>
4.48037

> <r_i_glide_emodel>
-47.9236

> <r_i_glide_energy>
-38.2573

> <r_i_glide_erotb>
0.792

> <r_i_glide_esite>
-0.274429

> <r_i_glide_evdw>
-34.1964

> <r_i_glide_gscore>
-3.64955

> <r_i_glide_hbond>
-0.16

> <r_i_glide_ligand_efficiency>
-0.117728

> <r_i_glide_ligand_efficiency_ln>
-0.823086

> <r_i_glide_ligand_efficiency_sa>
-0.369827

> <r_i_glide_lipo>
-1.68818

> <r_i_glide_metal>
0

> <r_i_glide_rewards>
4.6884e-06

> <s_i_glide_gridfile>
wee1_glide-grid

> <s_m_Source_File>
wee1_decoys_glide_SP.sdf

> <s_m_Source_Path>
/Users/zhangxujun/Desktop

> <s_m_entry_id>
2906

> <s_m_entry_name>
wee1_decoys_glide_SP.2631

> <s_m_subgroup_title>
wee1_decoys_glide_SP

> <s_m_subgroupid>
wee1_decoys_glide_SP


$$$$
