ZINC19757554_1572
                    3D
 Schrodinger Suite 2024-2.
 40 42  0  0  1  0            999 V2000
    4.6411   52.3805   20.4335 C   0  0  0  0  0  0
    3.1085   52.3611   20.5551 C   0  0  0  0  0  0
    2.6175   52.1418   21.9970 C   0  0  2  0  0  0
    3.1044   51.2478   22.3939 H   0  0  0  0  0  0
    1.0843   51.9434   22.0956 C   0  0  0  0  0  0
    0.7559   51.6549   23.5025 N   0  0  0  0  0  0
    1.3836   52.4668   24.4589 C   0  0  0  0  0  0
    0.9742   52.5088   25.7945 C   0  0  0  0  0  0
    1.6523   53.2756   26.7523 C   0  0  0  0  0  0
    2.7790   54.0061   26.3566 C   0  0  0  0  0  0
    3.2040   53.9886   25.0282 C   0  0  0  0  0  0
    2.5192   53.2184   24.0893 C   0  0  0  0  0  0
    2.9901   53.2739   22.7912 O   0  0  0  0  0  0
    1.1512   53.3174   28.1640 C   0  0  0  0  0  0
    1.4071   54.3155   29.1116 C   0  0  0  0  0  0
    0.5489   53.9715   30.5861 S   0  0  0  0  0  0
   -0.0502   52.5394   29.8284 C   0  0  0  0  0  0
    0.3579   52.3523   28.6054 N   0  0  0  0  0  0
   -0.8956   51.6967   30.4817 N   0  0  0  0  0  0
   -0.5471   50.9730   23.6578 C   0  0  0  0  0  0
   -0.4156   49.7288   24.5610 C   0  0  0  0  0  0
    0.3044   48.7909   24.2342 O   0  0  0  0  0  0
   -1.1384   49.6884   25.6817 N   0  0  0  0  0  0
    4.9463   52.5146   19.3948 H   0  0  0  0  0  0
    5.0770   53.1929   21.0158 H   0  0  0  0  0  0
    5.0785   51.4444   20.7816 H   0  0  0  0  0  0
    2.7170   51.5720   19.9113 H   0  0  0  0  0  0
    2.7044   53.2967   20.1667 H   0  0  0  0  0  0
    0.6962   51.1713   21.4300 H   0  0  0  0  0  0
    0.6092   52.8967   21.8599 H   0  0  0  0  0  0
    0.1058   51.9511   26.1006 H   0  0  0  0  0  0
    3.3244   54.6015   27.0737 H   0  0  0  0  0  0
    4.0663   54.5647   24.7265 H   0  0  0  0  0  0
    2.0031   55.2099   29.0094 H   0  0  0  0  0  0
   -1.2461   50.8517   30.0438 H   0  0  0  0  0  0
   -1.1085   51.7677   31.4846 H   0  0  0  0  0  0
   -0.9377   50.5982   22.7106 H   0  0  0  0  0  0
   -1.2953   51.6751   24.0287 H   0  0  0  0  0  0
   -1.0558   48.8967   26.3123 H   0  0  0  0  0  0
   -1.7560   50.4420   25.9352 H   0  0  0  0  0  0
  1  2  1  0  0  0
  1 24  1  0  0  0
  1 25  1  0  0  0
  1 26  1  0  0  0
  2  3  1  0  0  0
  2 27  1  0  0  0
  2 28  1  0  0  0
  3  4  1  0  0  0
  3 13  1  0  0  0
  3  5  1  0  0  0
  5  6  1  0  0  0
  5 29  1  0  0  0
  5 30  1  0  0  0
  6  7  1  0  0  0
  6 20  1  0  0  0
  7 12  2  0  0  0
  7  8  1  0  0  0
  8  9  2  0  0  0
  8 31  1  0  0  0
  9 10  1  0  0  0
  9 14  1  0  0  0
 10 11  2  0  0  0
 10 32  1  0  0  0
 11 12  1  0  0  0
 11 33  1  0  0  0
 12 13  1  0  0  0
 14 18  1  0  0  0
 14 15  2  0  0  0
 15 16  1  0  0  0
 15 34  1  0  0  0
 16 17  1  0  0  0
 17 18  2  0  0  0
 17 19  1  0  0  0
 19 35  1  0  0  0
 19 36  1  0  0  0
 20 21  1  0  0  0
 20 37  1  0  0  0
 20 38  1  0  0  0
 21 22  2  0  0  0
 21 23  1  0  0  0
 23 39  1  0  0  0
 23 40  1  0  0  0
M  END
> <i_i_glide_confnum>
4

> <i_i_glide_lignum>
1573

> <i_i_glide_posenum>
363

> <i_i_glide_rotatable_bonds>
4

> <i_m_Source_File_Index>
5675

> <b_m_subgroup_collapsed>
0

> <r_i_docking_score>
-5.56217

> <r_i_glide_ecoul>
-5.63247

> <r_i_glide_eff_state_penalty>
0

> <r_i_glide_einternal>
1.4394

> <r_i_glide_emodel>
-47.8741

> <r_i_glide_energy>
-34.7467

> <r_i_glide_erotb>
0.367827

> <r_i_glide_esite>
-0.203037

> <r_i_glide_evdw>
-29.1142

> <r_i_glide_gscore>
-5.56217

> <r_i_glide_hbond>
-0.238189

> <r_i_glide_ligand_efficiency>
-0.252826

> <r_i_glide_ligand_efficiency_ln>
-1.3596

> <r_i_glide_ligand_efficiency_sa>
-0.708428

> <r_i_glide_lipo>
-1.8394

> <r_i_glide_metal>
0

> <r_i_glide_rewards>
-1.34879

> <s_i_glide_gridfile>
wee1_glide-grid

> <s_m_Source_File>
wee1_decoys_glide_SP.sdf

> <s_m_Source_Path>
/Users/zhangxujun/Desktop

> <s_m_entry_id>
5950

> <s_m_entry_name>
wee1_decoys_glide_SP.5675

> <s_m_subgroup_title>
wee1_decoys_glide_SP

> <s_m_subgroupid>
wee1_decoys_glide_SP


$$$$
