ZINC00748634_2371
                    3D
 Schrodinger Suite 2024-2.
 59 61  0  0  1  0            999 V2000
    6.6087   54.1234   25.3356 C   0  0  0  0  0  0
    5.5730   55.2238   25.6284 C   0  0  0  0  0  0
    4.0972   54.7634   25.6289 C   0  0  2  0  0  0
    3.5046   55.6776   25.6820 H   0  0  0  0  0  0
    3.7418   53.9168   26.8657 C   0  0  0  0  0  0
    3.7614   54.0636   24.3897 N   0  0  0  0  0  0
    2.5467   53.9413   23.8215 C   0  0  0  0  0  0
    1.5424   54.4962   24.2566 O   0  0  0  0  0  0
    2.4874   53.0665   22.5879 C   0  0  0  0  0  0
    3.5544   53.1375   21.6813 C   0  0  0  0  0  0
    3.5435   52.4222   20.4821 C   0  0  0  0  0  0
    2.4724   51.5824   20.1994 C   0  0  0  0  0  0
    1.3928   51.5143   21.0760 C   0  0  0  0  0  0
    1.3582   52.2684   22.2619 C   0  0  0  0  0  0
    0.2608   52.1431   23.1157 N   0  0  0  0  0  0
   -1.0918   51.9016   22.5800 C   0  0  0  0  0  0
   -2.1898   52.3112   23.5830 C   0  0  0  0  0  0
   -2.0312   51.5873   24.9272 C   0  0  0  0  0  0
   -0.5906   51.7327   25.4335 C   0  0  0  0  0  0
    0.4433   51.3578   24.3510 C   0  0  0  0  0  0
    4.5828   52.4970   19.5458 N   0  0  0  0  0  0
    5.3557   53.5732   19.2828 C   0  0  0  0  0  0
    5.2362   54.6744   19.8234 O   0  0  0  0  0  0
    6.2938   53.2736   18.3675 N   0  0  0  0  0  0
    7.4140   54.0296   17.9764 C   0  0  0  0  0  0
    7.9572   55.0843   18.7310 C   0  0  0  0  0  0
    9.1044   55.7446   18.2919 C   0  0  0  0  0  0
    9.7222   55.3583   17.1033 C   0  0  0  0  0  0
    9.1942   54.3055   16.3535 C   0  0  0  0  0  0
    8.0485   53.6415   16.7923 C   0  0  0  0  0  0
    9.7900   53.9252   15.2000 F   0  0  0  0  0  0
   10.8365   56.0019   16.6862 F   0  0  0  0  0  0
    7.6076   54.5511   25.3035 H   0  0  0  0  0  0
    6.4386   53.6518   24.3680 H   0  0  0  0  0  0
    6.5994   53.3444   26.0990 H   0  0  0  0  0  0
    5.8136   55.6962   26.5815 H   0  0  0  0  0  0
    5.6932   56.0092   24.8815 H   0  0  0  0  0  0
    4.0399   54.4251   27.7830 H   0  0  0  0  0  0
    2.6671   53.7429   26.9350 H   0  0  0  0  0  0
    4.2553   52.9542   26.8607 H   0  0  0  0  0  0
    4.5347   53.6096   23.9298 H   0  0  0  0  0  0
    4.4002   53.7716   21.9034 H   0  0  0  0  0  0
    2.4603   51.0004   19.2880 H   0  0  0  0  0  0
    0.5734   50.8613   20.8188 H   0  0  0  0  0  0
   -1.2198   52.4961   21.6738 H   0  0  0  0  0  0
   -1.1976   50.8525   22.2980 H   0  0  0  0  0  0
   -2.1815   53.3952   23.7158 H   0  0  0  0  0  0
   -3.1680   52.0779   23.1626 H   0  0  0  0  0  0
   -2.2687   50.5289   24.8044 H   0  0  0  0  0  0
   -2.7370   51.9817   25.6592 H   0  0  0  0  0  0
   -0.4473   51.0923   26.3051 H   0  0  0  0  0  0
   -0.3966   52.7472   25.7849 H   0  0  0  0  0  0
    0.3941   50.2931   24.1159 H   0  0  0  0  0  0
    1.4362   51.5382   24.7638 H   0  0  0  0  0  0
    4.7045   51.6682   18.9621 H   0  0  0  0  0  0
    6.1869   52.3786   17.9069 H   0  0  0  0  0  0
    7.5231   55.3902   19.6706 H   0  0  0  0  0  0
    9.5284   56.5471   18.8781 H   0  0  0  0  0  0
    7.6591   52.8224   16.2046 H   0  0  0  0  0  0
  1  2  1  0  0  0
  1 33  1  0  0  0
  1 34  1  0  0  0
  1 35  1  0  0  0
  2  3  1  0  0  0
  2 36  1  0  0  0
  2 37  1  0  0  0
  3  4  1  0  0  0
  3  5  1  0  0  0
  3  6  1  0  0  0
  5 38  1  0  0  0
  5 39  1  0  0  0
  5 40  1  0  0  0
  6  7  1  0  0  0
  6 41  1  0  0  0
  7  8  2  0  0  0
  7  9  1  0  0  0
  9 14  2  0  0  0
  9 10  1  0  0  0
 10 11  2  0  0  0
 10 42  1  0  0  0
 11 12  1  0  0  0
 11 21  1  0  0  0
 12 13  2  0  0  0
 12 43  1  0  0  0
 13 14  1  0  0  0
 13 44  1  0  0  0
 14 15  1  0  0  0
 15 20  1  0  0  0
 15 16  1  0  0  0
 16 17  1  0  0  0
 16 45  1  0  0  0
 16 46  1  0  0  0
 17 18  1  0  0  0
 17 47  1  0  0  0
 17 48  1  0  0  0
 18 19  1  0  0  0
 18 49  1  0  0  0
 18 50  1  0  0  0
 19 20  1  0  0  0
 19 51  1  0  0  0
 19 52  1  0  0  0
 20 53  1  0  0  0
 20 54  1  0  0  0
 21 22  1  0  0  0
 21 55  1  0  0  0
 22 23  2  0  0  0
 22 24  1  0  0  0
 24 25  1  0  0  0
 24 56  1  0  0  0
 25 30  2  0  0  0
 25 26  1  0  0  0
 26 27  2  0  0  0
 26 57  1  0  0  0
 27 28  1  0  0  0
 27 58  1  0  0  0
 28 29  2  0  0  0
 28 32  1  0  0  0
 29 30  1  0  0  0
 29 31  1  0  0  0
 30 59  1  0  0  0
M  END
> <i_i_glide_confnum>
157

> <i_i_glide_lignum>
2372

> <i_i_glide_posenum>
372

> <i_i_glide_rotatable_bonds>
9

> <i_m_Source_File_Index>
2760

> <b_m_subgroup_collapsed>
0

> <r_i_docking_score>
-4.55494

> <r_i_glide_ecoul>
-4.22833

> <r_i_glide_eff_state_penalty>
0

> <r_i_glide_einternal>
6.33806

> <r_i_glide_emodel>
-47.7268

> <r_i_glide_energy>
-38.2183

> <r_i_glide_erotb>
0.75097

> <r_i_glide_esite>
-0.194151

> <r_i_glide_evdw>
-33.9899

> <r_i_glide_gscore>
-4.55494

> <r_i_glide_hbond>
-0.254132

> <r_i_glide_ligand_efficiency>
-0.146934

> <r_i_glide_ligand_efficiency_ln>
-1.02728

> <r_i_glide_ligand_efficiency_sa>
-0.461574

> <r_i_glide_lipo>
-1.64848

> <r_i_glide_metal>
0

> <r_i_glide_rewards>
-0.8754

> <s_i_glide_gridfile>
wee1_glide-grid

> <s_m_Source_File>
wee1_decoys_glide_SP.sdf

> <s_m_Source_Path>
/Users/zhangxujun/Desktop

> <s_m_entry_id>
3035

> <s_m_entry_name>
wee1_decoys_glide_SP.2760

> <s_m_subgroup_title>
wee1_decoys_glide_SP

> <s_m_subgroupid>
wee1_decoys_glide_SP


$$$$
