ZINC39687272_5556
                    3D
 Schrodinger Suite 2024-2.
 79 83  0  0  1  0            999 V2000
    0.0091   52.5399   30.8850 C   0  0  0  0  0  0
    0.5538   52.7344   29.4826 C   0  0  0  0  0  0
    0.4475   51.6939   28.5649 C   0  0  0  0  0  0
    0.9398   51.8384   27.2728 C   0  0  0  0  0  0
    1.5029   53.0516   26.8379 C   0  0  0  0  0  0
    1.6488   54.0749   27.7929 C   0  0  0  0  0  0
    1.1730   53.9258   29.0978 C   0  0  0  0  0  0
    1.3168   54.9427   29.9802 F   0  0  0  0  0  0
    1.9817   53.2798   25.4063 C   0  0  0  0  0  0
    2.8944   54.0885   25.2162 O   0  0  0  0  0  0
    1.4126   52.6095   24.3623 N   0  0  0  0  0  0
    0.1802   51.8144   24.4069 C   0  0  0  0  0  0
   -0.3007   51.7788   22.9430 C   0  0  1  0  0  0
   -0.9262   52.6534   22.7546 H   0  0  0  0  0  0
    1.0155   51.8540   22.1076 C   0  0  0  0  0  0
    1.8437   52.8354   22.9746 C   0  0  0  0  0  0
    0.8030   52.3286   20.6473 C   0  0  0  0  0  0
    2.1320   52.5173   19.8809 C   0  0  0  0  0  0
    2.8880   51.1720   19.8553 N   0  3  0  0  0  0
    3.1065   50.5826   21.2658 C   0  0  0  0  0  0
    1.7535   50.4801   21.9940 C   0  0  0  0  0  0
   -1.2243   50.5423   22.7194 C   0  0  0  0  0  0
   -1.2445   50.0008   21.6145 O   0  0  0  0  0  0
   -1.9765   50.0938   23.7491 N   0  0  0  0  0  0
   -2.8282   48.8872   23.7587 C   0  0  1  0  0  0
   -2.1046   48.0754   23.7178 H   0  0  0  0  0  0
   -3.5671   48.8153   25.1247 C   0  0  0  0  0  0
   -4.2211   47.4810   25.4751 C   0  0  0  0  0  0
   -5.4422   47.1048   24.8778 C   0  0  0  0  0  0
   -6.0013   45.8624   25.1417 C   0  0  0  0  0  0
   -5.3622   44.9767   26.0008 C   0  0  0  0  0  0
   -4.1557   45.3228   26.5887 C   0  0  0  0  0  0
   -3.5650   46.5537   26.3175 C   0  0  0  0  0  0
   -3.8218   48.8270   22.5585 C   0  0  0  0  0  0
   -4.4885   49.8406   22.3230 O   0  0  0  0  0  0
   -3.9376   47.6823   21.8276 N   0  0  0  0  0  0
   -4.5547   47.7262   20.4907 C   0  0  0  0  0  0
   -3.3887   47.8330   19.4761 C   0  0  0  0  0  0
   -2.3486   46.6991   19.6480 C   0  0  0  0  0  0
   -1.9232   46.5242   21.1235 C   0  0  0  0  0  0
   -3.1493   46.4595   22.0629 C   0  0  0  0  0  0
   -0.4955   51.5810   31.0055 H   0  0  0  0  0  0
    0.8049   52.6105   31.6259 H   0  0  0  0  0  0
   -0.7232   53.3021   31.1250 H   0  0  0  0  0  0
   -0.0126   50.7589   28.8538 H   0  0  0  0  0  0
    0.8835   50.9688   26.6436 H   0  0  0  0  0  0
    2.1197   55.0093   27.5312 H   0  0  0  0  0  0
   -0.5991   52.2377   25.0456 H   0  0  0  0  0  0
    0.4701   50.7967   24.6747 H   0  0  0  0  0  0
    2.9191   52.8142   22.8023 H   0  0  0  0  0  0
    1.5420   53.8531   22.7172 H   0  0  0  0  0  0
    0.1285   51.6624   20.1074 H   0  0  0  0  0  0
    0.3048   53.2959   20.6628 H   0  0  0  0  0  0
    1.9698   52.8009   18.8398 H   0  0  0  0  0  0
    2.7925   53.2528   20.3451 H   0  0  0  0  0  0
    2.3585   50.5115   19.3032 H   0  0  0  0  0  0
    3.5029   49.5890   21.1005 H   0  0  0  0  0  0
    3.8563   51.1966   21.7663 H   0  0  0  0  0  0
    1.9414   50.0744   22.9898 H   0  0  0  0  0  0
    1.1520   49.7206   21.4986 H   0  0  0  0  0  0
   -1.9517   50.5908   24.6263 H   0  0  0  0  0  0
   -4.3420   49.5839   25.1589 H   0  0  0  0  0  0
   -2.8834   49.0748   25.9364 H   0  0  0  0  0  0
   -5.9532   47.7873   24.2127 H   0  0  0  0  0  0
   -6.9412   45.5872   24.6870 H   0  0  0  0  0  0
   -5.8132   44.0209   26.2204 H   0  0  0  0  0  0
   -3.6925   44.6363   27.2809 H   0  0  0  0  0  0
   -2.6246   46.8162   26.7842 H   0  0  0  0  0  0
   -5.0998   46.7899   20.3512 H   0  0  0  0  0  0
   -5.3222   48.4967   20.3975 H   0  0  0  0  0  0
   -3.7839   47.8255   18.4600 H   0  0  0  0  0  0
   -2.9014   48.8039   19.5892 H   0  0  0  0  0  0
   -1.4754   46.9010   19.0259 H   0  0  0  0  0  0
   -2.7800   45.7639   19.2847 H   0  0  0  0  0  0
   -1.2705   47.3447   21.4248 H   0  0  0  0  0  0
   -1.3231   45.6186   21.2349 H   0  0  0  0  0  0
   -2.9479   46.2622   23.1151 H   0  0  0  0  0  0
   -3.7870   45.6202   21.7824 H   0  0  0  0  0  0
    3.7742   51.2686   19.3680 H   0  0  0  0  0  0
  1  2  1  0  0  0
  1 42  1  0  0  0
  1 43  1  0  0  0
  1 44  1  0  0  0
  2  7  2  0  0  0
  2  3  1  0  0  0
  3  4  2  0  0  0
  3 45  1  0  0  0
  4  5  1  0  0  0
  4 46  1  0  0  0
  5  6  2  0  0  0
  5  9  1  0  0  0
  6  7  1  0  0  0
  6 47  1  0  0  0
  7  8  1  0  0  0
  9 10  2  0  0  0
  9 11  1  0  0  0
 11 16  1  0  0  0
 11 12  1  0  0  0
 12 13  1  0  0  0
 12 48  1  0  0  0
 12 49  1  0  0  0
 13 14  1  0  0  0
 13 15  1  0  0  0
 13 22  1  0  0  0
 15 21  1  0  0  0
 15 16  1  0  0  0
 15 17  1  0  0  0
 16 50  1  0  0  0
 16 51  1  0  0  0
 17 18  1  0  0  0
 17 52  1  0  0  0
 17 53  1  0  0  0
 18 19  1  0  0  0
 18 54  1  0  0  0
 18 55  1  0  0  0
 19 20  1  0  0  0
 19 56  1  0  0  0
 19 79  1  0  0  0
 20 21  1  0  0  0
 20 57  1  0  0  0
 20 58  1  0  0  0
 21 59  1  0  0  0
 21 60  1  0  0  0
 22 23  2  0  0  0
 22 24  1  0  0  0
 24 25  1  0  0  0
 24 61  1  0  0  0
 25 26  1  0  0  0
 25 27  1  0  0  0
 25 34  1  0  0  0
 27 28  1  0  0  0
 27 62  1  0  0  0
 27 63  1  0  0  0
 28 33  2  0  0  0
 28 29  1  0  0  0
 29 30  2  0  0  0
 29 64  1  0  0  0
 30 31  1  0  0  0
 30 65  1  0  0  0
 31 32  2  0  0  0
 31 66  1  0  0  0
 32 33  1  0  0  0
 32 67  1  0  0  0
 33 68  1  0  0  0
 34 35  2  0  0  0
 34 36  1  0  0  0
 36 41  1  0  0  0
 36 37  1  0  0  0
 37 38  1  0  0  0
 37 69  1  0  0  0
 37 70  1  0  0  0
 38 39  1  0  0  0
 38 71  1  0  0  0
 38 72  1  0  0  0
 39 40  1  0  0  0
 39 73  1  0  0  0
 39 74  1  0  0  0
 40 41  1  0  0  0
 40 75  1  0  0  0
 40 76  1  0  0  0
 41 77  1  0  0  0
 41 78  1  0  0  0
M  CHG  1  19   1
M  END
> <i_i_glide_confnum>
565

> <i_i_glide_lignum>
5557

> <i_i_glide_posenum>
351

> <i_i_glide_rotatable_bonds>
9

> <i_m_Source_File_Index>
452

> <b_m_subgroup_collapsed>
0

> <r_i_docking_score>
-4.3306

> <r_i_glide_ecoul>
-5.67863

> <r_i_glide_eff_state_penalty>
0

> <r_i_glide_einternal>
13.4633

> <r_i_glide_emodel>
-43.4127

> <r_i_glide_energy>
-37.4681

> <r_i_glide_erotb>
0.503653

> <r_i_glide_esite>
-0.0647325

> <r_i_glide_evdw>
-31.7895

> <r_i_glide_gscore>
-4.3306

> <r_i_glide_hbond>
-0.106782

> <r_i_glide_ligand_efficiency>
-0.111041

> <r_i_glide_ligand_efficiency_ln>
-0.928603

> <r_i_glide_ligand_efficiency_sa>
-0.376563

> <r_i_glide_lipo>
-1.36943

> <r_i_glide_metal>
0

> <r_i_glide_rewards>
-0.85204

> <s_i_glide_gridfile>
wee1_glide-grid

> <s_m_Source_File>
wee1_decoys_glide_SP.sdf

> <s_m_Source_Path>
/Users/zhangxujun/Desktop

> <s_m_entry_id>
727

> <s_m_entry_name>
wee1_decoys_glide_SP.452

> <s_m_subgroup_title>
wee1_decoys_glide_SP

> <s_m_subgroupid>
wee1_decoys_glide_SP


$$$$
