ZINC36311896_735
                    3D
 Schrodinger Suite 2024-2.
 62 65  0  0  1  0            999 V2000
   -0.8901   52.0782   28.1708 C   0  0  0  0  0  0
   -2.0014   51.2967   28.4589 C   0  0  0  0  0  0
   -2.8534   50.8969   27.4359 C   0  0  0  0  0  0
   -2.6102   51.2529   26.0999 C   0  0  0  0  0  0
   -1.4656   52.0396   25.7992 C   0  0  0  0  0  0
   -0.6379   52.4598   26.8571 C   0  0  0  0  0  0
   -1.1410   52.4625   24.3756 C   0  0  0  0  0  0
   -1.9990   53.0715   23.7305 O   0  0  0  0  0  0
    0.0501   52.0935   23.8233 N   0  0  0  0  0  0
    1.2162   51.6198   24.5770 C   0  0  0  0  0  0
    2.2276   52.7855   24.5721 C   0  0  0  0  0  0
    2.7181   52.9665   23.1229 N   0  3  0  0  0  0
    1.4899   53.3395   22.2455 C   0  0  0  0  0  0
    0.3360   52.3130   22.3908 C   0  0  0  0  0  0
    3.9072   53.9573   22.8782 C   0  0  1  0  0  0
    3.4584   54.9503   22.8250 H   0  0  0  0  0  0
    5.0204   53.9351   24.0009 C   0  0  0  0  0  0
    6.3611   54.6178   23.5943 C   0  0  0  0  0  0
    6.8260   55.4588   24.7763 C   0  0  0  0  0  0
    6.0712   54.9219   25.9771 C   0  0  0  0  0  0
    4.7072   54.5771   25.3852 C   0  0  0  0  0  0
    4.5230   53.5280   21.5181 C   0  0  0  0  0  0
    4.6890   52.3288   21.2819 O   0  0  0  0  0  0
    4.9100   54.5346   20.7070 N   0  0  0  0  0  0
    5.5939   54.4643   19.4858 C   0  0  0  0  0  0
    5.5489   53.3589   18.6266 C   0  0  0  0  0  0
    6.2810   53.3561   17.4396 C   0  0  0  0  0  0
    7.0494   54.4674   17.0916 C   0  0  0  0  0  0
    7.0772   55.5825   17.9288 C   0  0  0  0  0  0
    6.3482   55.5831   19.1190 C   0  0  0  0  0  0
    7.8147   56.6631   17.5897 F   0  0  0  0  0  0
   -3.5536   50.6756   25.0227 C   0  0  0  0  0  0
   -4.2477   49.6255   25.4662 F   0  0  0  0  0  0
   -4.3982   51.6172   24.5996 F   0  0  0  0  0  0
   -2.8639   50.2179   23.9773 F   0  0  0  0  0  0
   -0.2295   52.3877   28.9682 H   0  0  0  0  0  0
   -2.1912   50.9732   29.4732 H   0  0  0  0  0  0
   -3.6872   50.2636   27.6977 H   0  0  0  0  0  0
    0.2335   53.0711   26.6752 H   0  0  0  0  0  0
    1.6348   50.7641   24.0451 H   0  0  0  0  0  0
    1.0010   51.2052   25.5598 H   0  0  0  0  0  0
    3.0843   52.4961   25.1626 H   0  0  0  0  0  0
    1.8335   53.7395   24.9284 H   0  0  0  0  0  0
    1.1849   54.3609   22.4821 H   0  0  0  0  0  0
    1.8325   53.2961   21.2107 H   0  0  0  0  0  0
   -0.5480   52.6477   21.8454 H   0  0  0  0  0  0
    0.6275   51.3680   21.9291 H   0  0  0  0  0  0
    5.3057   52.9036   24.1843 H   0  0  0  0  0  0
    7.1237   53.8721   23.3569 H   0  0  0  0  0  0
    6.2718   55.3039   22.7543 H   0  0  0  0  0  0
    7.9034   55.4231   24.8838 H   0  0  0  0  0  0
    6.5485   56.4968   24.6140 H   0  0  0  0  0  0
    6.5569   54.0230   26.3654 H   0  0  0  0  0  0
    6.0129   55.6458   26.7914 H   0  0  0  0  0  0
    4.1531   55.5072   25.2776 H   0  0  0  0  0  0
    4.1498   53.9636   26.0858 H   0  0  0  0  0  0
    4.7819   55.4711   21.0568 H   0  0  0  0  0  0
    4.9468   52.4965   18.8591 H   0  0  0  0  0  0
    6.2461   52.4891   16.7951 H   0  0  0  0  0  0
    7.6165   54.4684   16.1733 H   0  0  0  0  0  0
    6.3913   56.4563   19.7534 H   0  0  0  0  0  0
    3.0626   52.0630   22.8168 H   0  0  0  0  0  0
  1  6  2  0  0  0
  1  2  1  0  0  0
  1 36  1  0  0  0
  2  3  2  0  0  0
  2 37  1  0  0  0
  3  4  1  0  0  0
  3 38  1  0  0  0
  4  5  2  0  0  0
  4 32  1  0  0  0
  5  6  1  0  0  0
  5  7  1  0  0  0
  6 39  1  0  0  0
  7  8  2  0  0  0
  7  9  1  0  0  0
  9 14  1  0  0  0
  9 10  1  0  0  0
 10 11  1  0  0  0
 10 40  1  0  0  0
 10 41  1  0  0  0
 11 12  1  0  0  0
 11 42  1  0  0  0
 11 43  1  0  0  0
 12 13  1  0  0  0
 12 15  1  0  0  0
 12 62  1  0  0  0
 13 14  1  0  0  0
 13 44  1  0  0  0
 13 45  1  0  0  0
 14 46  1  0  0  0
 14 47  1  0  0  0
 15 16  1  0  0  0
 15 17  1  0  0  0
 15 22  1  0  0  0
 17 21  1  0  0  0
 17 18  1  0  0  0
 17 48  1  0  0  0
 18 19  1  0  0  0
 18 49  1  0  0  0
 18 50  1  0  0  0
 19 20  1  0  0  0
 19 51  1  0  0  0
 19 52  1  0  0  0
 20 21  1  0  0  0
 20 53  1  0  0  0
 20 54  1  0  0  0
 21 55  1  0  0  0
 21 56  1  0  0  0
 22 23  2  0  0  0
 22 24  1  0  0  0
 24 25  1  0  0  0
 24 57  1  0  0  0
 25 30  2  0  0  0
 25 26  1  0  0  0
 26 27  2  0  0  0
 26 58  1  0  0  0
 27 28  1  0  0  0
 27 59  1  0  0  0
 28 29  2  0  0  0
 28 60  1  0  0  0
 29 30  1  0  0  0
 29 31  1  0  0  0
 30 61  1  0  0  0
 32 33  1  0  0  0
 32 34  1  0  0  0
 32 35  1  0  0  0
M  CHG  1  12   1
M  END
> <i_i_glide_confnum>
121

> <i_i_glide_lignum>
736

> <i_i_glide_posenum>
202

> <i_i_glide_rotatable_bonds>
8

> <i_m_Source_File_Index>
4183

> <b_m_subgroup_collapsed>
0

> <r_i_docking_score>
-3.89005

> <r_i_glide_ecoul>
-1.99196

> <r_i_glide_eff_state_penalty>
0

> <r_i_glide_einternal>
4.65647

> <r_i_glide_emodel>
-43.1334

> <r_i_glide_energy>
-34.343

> <r_i_glide_erotb>
0.531041

> <r_i_glide_esite>
-0.0153886

> <r_i_glide_evdw>
-32.3511

> <r_i_glide_gscore>
-3.89005

> <r_i_glide_hbond>
0

> <r_i_glide_ligand_efficiency>
-0.114413

> <r_i_glide_ligand_efficiency_ln>
-0.859421

> <r_i_glide_ligand_efficiency_sa>
-0.370655

> <r_i_glide_lipo>
-1.96852

> <r_i_glide_metal>
0

> <r_i_glide_rewards>
-0.520839

> <s_i_glide_gridfile>
wee1_glide-grid

> <s_m_Source_File>
wee1_decoys_glide_SP.sdf

> <s_m_Source_Path>
/Users/zhangxujun/Desktop

> <s_m_entry_id>
4458

> <s_m_entry_name>
wee1_decoys_glide_SP.4183

> <s_m_subgroup_title>
wee1_decoys_glide_SP

> <s_m_subgroupid>
wee1_decoys_glide_SP


$$$$
