ZINC37588276_1233
                    3D
 Schrodinger Suite 2024-2.
 54 57  0  0  1  0            999 V2000
    4.4200   53.6862   27.9484 C   0  0  0  0  0  0
    5.3709   54.1729   27.0537 C   0  0  0  0  0  0
    5.0431   54.4198   25.7094 C   0  0  0  0  0  0
    3.7123   54.2054   25.3034 C   0  0  0  0  0  0
    2.7678   53.6809   26.1895 C   0  0  0  0  0  0
    3.1201   53.4326   27.5134 C   0  0  0  0  0  0
    1.1755   53.2964   25.6323 Cl  0  0  0  0  0  0
    6.1081   54.9564   24.7703 C   0  0  0  0  0  0
    6.9721   55.6959   25.2549 O   0  0  0  0  0  0
    6.0959   54.6497   23.4374 N   0  0  0  0  0  0
    7.0838   55.2447   22.5116 C   0  0  0  0  0  0
    6.3949   55.6641   21.1833 C   0  0  0  0  0  0
    5.5046   54.6164   20.6190 N   0  0  0  0  0  0
    4.5694   54.0823   21.6349 C   0  0  0  0  0  0
    5.3487   53.5358   22.8450 C   0  0  0  0  0  0
    5.4494   54.2573   19.2250 C   0  0  0  0  0  0
    6.3438   54.7602   18.2639 C   0  0  0  0  0  0
    6.3092   54.2833   16.9491 C   0  0  0  0  0  0
    5.3714   53.2997   16.5879 C   0  0  0  0  0  0
    4.4379   52.8968   17.5429 C   0  0  0  0  0  0
    4.5255   53.3636   18.8038 N   0  3  0  0  0  0
    5.3255   52.6442   15.3415 N   0  0  0  0  0  0
    6.2857   52.5883   14.3977 C   0  0  0  0  0  0
    7.3602   53.1907   14.4420 O   0  0  0  0  0  0
    5.9277   51.7725   13.3860 N   0  0  0  0  0  0
    6.7274   51.5195   12.2605 C   0  0  0  0  0  0
    6.2263   51.8708   11.0038 C   0  0  0  0  0  0
    6.9995   51.6628    9.8634 C   0  0  0  0  0  0
    8.2648   51.0842    9.9711 C   0  0  0  0  0  0
    8.7516   50.6927   11.2177 C   0  0  0  0  0  0
    7.9866   50.8995   12.3643 C   0  0  0  0  0  0
    8.4722   50.4956   13.5622 F   0  0  0  0  0  0
    9.0141   50.8974    8.8622 F   0  0  0  0  0  0
    4.6920   53.4928   28.9743 H   0  0  0  0  0  0
    6.3721   54.3498   27.4187 H   0  0  0  0  0  0
    3.3956   54.4215   24.2922 H   0  0  0  0  0  0
    2.3895   53.0248   28.2001 H   0  0  0  0  0  0
    7.5660   56.1036   22.9720 H   0  0  0  0  0  0
    7.8435   54.4951   22.2962 H   0  0  0  0  0  0
    7.1951   55.8695   20.4780 H   0  0  0  0  0  0
    5.8253   56.5875   21.2826 H   0  0  0  0  0  0
    3.9054   53.3162   21.2365 H   0  0  0  0  0  0
    3.9142   54.9007   21.9352 H   0  0  0  0  0  0
    6.1152   52.8514   22.4811 H   0  0  0  0  0  0
    4.7714   52.8972   23.5073 H   0  0  0  0  0  0
    7.0997   55.4894   18.5001 H   0  0  0  0  0  0
    7.0360   54.6681   16.2490 H   0  0  0  0  0  0
    3.7026   52.1175   17.3844 H   0  0  0  0  0  0
    4.5352   52.0294   15.2154 H   0  0  0  0  0  0
    4.9894   51.4001   13.3733 H   0  0  0  0  0  0
    5.2524   52.3290   10.9112 H   0  0  0  0  0  0
    6.6261   51.9562    8.8939 H   0  0  0  0  0  0
    9.7294   50.2375   11.2962 H   0  0  0  0  0  0
    3.8806   52.9955   19.4883 H   0  0  0  0  0  0
  1  6  2  0  0  0
  1  2  1  0  0  0
  1 34  1  0  0  0
  2  3  2  0  0  0
  2 35  1  0  0  0
  3  4  1  0  0  0
  3  8  1  0  0  0
  4  5  2  0  0  0
  4 36  1  0  0  0
  5  6  1  0  0  0
  5  7  1  0  0  0
  6 37  1  0  0  0
  8  9  2  0  0  0
  8 10  1  0  0  0
 10 15  1  0  0  0
 10 11  1  0  0  0
 11 12  1  0  0  0
 11 38  1  0  0  0
 11 39  1  0  0  0
 12 13  1  0  0  0
 12 40  1  0  0  0
 12 41  1  0  0  0
 13 14  1  0  0  0
 13 16  1  0  0  0
 14 15  1  0  0  0
 14 42  1  0  0  0
 14 43  1  0  0  0
 15 44  1  0  0  0
 15 45  1  0  0  0
 16 21  2  0  0  0
 16 17  1  0  0  0
 17 18  2  0  0  0
 17 46  1  0  0  0
 18 19  1  0  0  0
 18 47  1  0  0  0
 19 20  2  0  0  0
 19 22  1  0  0  0
 20 21  1  0  0  0
 20 48  1  0  0  0
 21 54  1  0  0  0
 22 23  1  0  0  0
 22 49  1  0  0  0
 23 24  2  0  0  0
 23 25  1  0  0  0
 25 26  1  0  0  0
 25 50  1  0  0  0
 26 31  2  0  0  0
 26 27  1  0  0  0
 27 28  2  0  0  0
 27 51  1  0  0  0
 28 29  1  0  0  0
 28 52  1  0  0  0
 29 30  2  0  0  0
 29 33  1  0  0  0
 30 31  1  0  0  0
 30 53  1  0  0  0
 31 32  1  0  0  0
M  CHG  1  21   1
M  END
> <i_i_glide_confnum>
311

> <i_i_glide_lignum>
1234

> <i_i_glide_posenum>
398

> <i_i_glide_rotatable_bonds>
7

> <i_m_Source_File_Index>
1884

> <b_m_subgroup_collapsed>
0

> <r_i_docking_score>
-5.77679

> <r_i_glide_ecoul>
-4.51956

> <r_i_glide_eff_state_penalty>
0

> <r_i_glide_einternal>
1.35392

> <r_i_glide_emodel>
-58.5082

> <r_i_glide_energy>
-40.4371

> <r_i_glide_erotb>
0.542598

> <r_i_glide_esite>
-0.112857

> <r_i_glide_evdw>
-35.9175

> <r_i_glide_gscore>
-5.77679

> <r_i_glide_hbond>
-0.32

> <r_i_glide_ligand_efficiency>
-0.175054

> <r_i_glide_ligand_efficiency_ln>
-1.28473

> <r_i_glide_ligand_efficiency_sa>
-0.561493

> <r_i_glide_lipo>
-2.11228

> <r_i_glide_metal>
0

> <r_i_glide_rewards>
-1.30045

> <s_i_glide_gridfile>
wee1_glide-grid

> <s_m_Source_File>
wee1_decoys_glide_SP.sdf

> <s_m_Source_Path>
/Users/zhangxujun/Desktop

> <s_m_entry_id>
2159

> <s_m_entry_name>
wee1_decoys_glide_SP.1884

> <s_m_subgroup_title>
wee1_decoys_glide_SP

> <s_m_subgroupid>
wee1_decoys_glide_SP


$$$$
