ZINC36714435_5052
                    3D
 Schrodinger Suite 2024-2.
 56 59  0  0  1  0            999 V2000
    0.3806   53.3828   29.7932 C   0  0  0  0  0  0
    1.4277   53.5900   28.7123 C   0  0  0  0  0  0
    1.3376   52.8900   27.5101 C   0  0  0  0  0  0
    2.2960   53.0799   26.5171 C   0  0  0  0  0  0
    3.3604   53.9720   26.7072 C   0  0  0  0  0  0
    3.4633   54.6302   27.9438 C   0  0  0  0  0  0
    2.4979   54.4553   28.9315 C   0  0  0  0  0  0
    4.3469   54.1899   25.6914 N   0  0  0  0  0  0
    4.2449   54.1903   24.2971 C   0  0  0  0  0  0
    5.5518   54.4649   23.8430 C   0  0  0  0  0  0
    6.3161   54.6066   25.0024 C   0  0  0  0  0  0
    5.6061   54.4711   26.0893 N   0  0  0  0  0  0
    6.0374   54.4720   22.4818 C   0  0  0  0  0  0
    5.4877   53.7810   21.6218 O   0  0  0  0  0  0
    7.1039   55.2700   22.2399 N   0  0  0  0  0  0
    7.6172   55.2967   20.9359 N   0  0  0  0  0  0
    7.3013   56.3141   20.1146 C   0  0  0  0  0  0
    6.6575   57.2967   20.4815 O   0  0  0  0  0  0
    7.7953   56.2212   18.6541 C   0  0  2  0  0  0
    7.9438   55.1834   18.3500 H   0  0  0  0  0  0
    9.1398   56.9459   18.4908 C   0  0  0  0  0  0
    6.8833   56.8956   17.7760 O   0  0  0  0  0  0
    5.6203   56.3869   17.5298 C   0  0  0  0  0  0
    4.7149   57.2476   16.9152 C   0  0  0  0  0  0
    3.4187   56.8398   16.6130 C   0  0  0  0  0  0
    2.9975   55.5218   16.9120 C   0  0  0  0  0  0
    1.6920   55.0647   16.6025 C   0  0  0  0  0  0
    1.3180   53.7553   16.8964 C   0  0  0  0  0  0
    2.2162   52.8812   17.5015 C   0  0  0  0  0  0
    3.5034   53.3011   17.8262 C   0  0  0  0  0  0
    3.9167   54.6260   17.5383 C   0  0  0  0  0  0
    5.2213   55.0806   17.8471 C   0  0  0  0  0  0
    2.9495   53.9526   23.5075 C   0  0  0  0  0  0
    3.0050   54.4967   22.2989 F   0  0  0  0  0  0
    2.7041   52.6566   23.3293 F   0  0  0  0  0  0
    1.8851   54.4968   24.0898 F   0  0  0  0  0  0
   -0.0264   52.3711   29.7575 H   0  0  0  0  0  0
    0.8105   53.5073   30.7879 H   0  0  0  0  0  0
   -0.4391   54.0920   29.6758 H   0  0  0  0  0  0
    0.5260   52.1963   27.3422 H   0  0  0  0  0  0
    2.2027   52.4977   25.6160 H   0  0  0  0  0  0
    4.2871   55.2966   28.1474 H   0  0  0  0  0  0
    2.5837   54.9968   29.8618 H   0  0  0  0  0  0
    7.3800   54.7879   25.0436 H   0  0  0  0  0  0
    7.7177   55.6708   22.9355 H   0  0  0  0  0  0
    8.2545   54.5427   20.7233 H   0  0  0  0  0  0
    9.9044   56.5064   19.1291 H   0  0  0  0  0  0
    9.4938   56.8791   17.4615 H   0  0  0  0  0  0
    9.0629   58.0051   18.7423 H   0  0  0  0  0  0
    5.0228   58.2569   16.6794 H   0  0  0  0  0  0
    2.7308   57.5294   16.1452 H   0  0  0  0  0  0
    0.9901   55.7368   16.1302 H   0  0  0  0  0  0
    0.3238   53.4126   16.6514 H   0  0  0  0  0  0
    1.9181   51.8658   17.7187 H   0  0  0  0  0  0
    4.1966   52.6116   18.2901 H   0  0  0  0  0  0
    5.8968   54.3849   18.3195 H   0  0  0  0  0  0
  1  2  1  0  0  0
  1 37  1  0  0  0
  1 38  1  0  0  0
  1 39  1  0  0  0
  2  7  2  0  0  0
  2  3  1  0  0  0
  3  4  2  0  0  0
  3 40  1  0  0  0
  4  5  1  0  0  0
  4 41  1  0  0  0
  5  6  2  0  0  0
  5  8  1  0  0  0
  6  7  1  0  0  0
  6 42  1  0  0  0
  7 43  1  0  0  0
  8 12  1  0  0  0
  8  9  1  0  0  0
  9 10  2  0  0  0
  9 33  1  0  0  0
 10 11  1  0  0  0
 10 13  1  0  0  0
 11 12  2  0  0  0
 11 44  1  0  0  0
 13 14  2  0  0  0
 13 15  1  0  0  0
 15 16  1  0  0  0
 15 45  1  0  0  0
 16 17  1  0  0  0
 16 46  1  0  0  0
 17 18  2  0  0  0
 17 19  1  0  0  0
 19 20  1  0  0  0
 19 21  1  0  0  0
 19 22  1  0  0  0
 21 47  1  0  0  0
 21 48  1  0  0  0
 21 49  1  0  0  0
 22 23  1  0  0  0
 23 32  2  0  0  0
 23 24  1  0  0  0
 24 25  2  0  0  0
 24 50  1  0  0  0
 25 26  1  0  0  0
 25 51  1  0  0  0
 26 31  2  0  0  0
 26 27  1  0  0  0
 27 28  2  0  0  0
 27 52  1  0  0  0
 28 29  1  0  0  0
 28 53  1  0  0  0
 29 30  2  0  0  0
 29 54  1  0  0  0
 30 31  1  0  0  0
 30 55  1  0  0  0
 31 32  1  0  0  0
 32 56  1  0  0  0
 33 34  1  0  0  0
 33 35  1  0  0  0
 33 36  1  0  0  0
M  END
> <i_i_glide_confnum>
9

> <i_i_glide_lignum>
5053

> <i_i_glide_posenum>
296

> <i_i_glide_rotatable_bonds>
9

> <i_m_Source_File_Index>
5875

> <b_m_subgroup_collapsed>
0

> <r_i_docking_score>
-6.38174

> <r_i_glide_ecoul>
-4.69975

> <r_i_glide_eff_state_penalty>
0

> <r_i_glide_einternal>
1.84157

> <r_i_glide_emodel>
-65.5395

> <r_i_glide_energy>
-46.6113

> <r_i_glide_erotb>
0.610303

> <r_i_glide_esite>
-0.0167102

> <r_i_glide_evdw>
-41.9116

> <r_i_glide_gscore>
-6.38174

> <r_i_glide_hbond>
-0.47478

> <r_i_glide_ligand_efficiency>
-0.182336

> <r_i_glide_ligand_efficiency_ln>
-1.40093

> <r_i_glide_ligand_efficiency_sa>
-0.596432

> <r_i_glide_lipo>
-2.58331

> <r_i_glide_metal>
0

> <r_i_glide_rewards>
-1.1167

> <s_i_glide_gridfile>
wee1_glide-grid

> <s_m_Source_File>
wee1_decoys_glide_SP.sdf

> <s_m_Source_Path>
/Users/zhangxujun/Desktop

> <s_m_entry_id>
6150

> <s_m_entry_name>
wee1_decoys_glide_SP.5875

> <s_m_subgroup_title>
wee1_decoys_glide_SP

> <s_m_subgroupid>
wee1_decoys_glide_SP


$$$$
