ZINC49458987_2565
                    3D
 Schrodinger Suite 2024-2.
 40 40  0  0  1  0            999 V2000
    8.4523   51.3678   15.5852 C   0  0  0  0  0  0
    9.1658   51.7889   16.8834 C   0  0  0  0  0  0
    8.9169   53.2484   17.3275 C   0  0  1  0  0  0
    9.5015   53.3830   18.2421 H   0  0  0  0  0  0
    9.4536   54.2707   16.3000 C   0  0  0  0  0  0
    7.5124   53.4793   17.6799 N   0  0  0  0  0  0
    7.0522   54.5586   18.3402 C   0  0  0  0  0  0
    7.7790   55.4762   18.7273 O   0  0  0  0  0  0
    5.5289   54.6082   18.5939 C   0  0  2  0  0  0
    5.0482   53.9310   17.8856 H   0  0  0  0  0  0
    4.9306   56.0142   18.3692 C   0  0  0  0  0  0
    5.1539   54.0867   19.9179 N   0  0  0  0  0  0
    5.5036   54.5675   21.1234 C   0  0  0  0  0  0
    6.2206   55.5565   21.2956 O   0  0  0  0  0  0
    4.9670   53.8356   22.1151 N   0  0  0  0  0  0
    5.1148   54.0968   23.4844 C   0  0  0  0  0  0
    6.3883   54.2026   24.0595 C   0  0  0  0  0  0
    6.5225   54.4418   25.4267 C   0  0  0  0  0  0
    5.3907   54.5850   26.2253 C   0  0  0  0  0  0
    4.1207   54.4917   25.6565 C   0  0  0  0  0  0
    3.9742   54.2419   24.2908 C   0  0  0  0  0  0
    2.0322   54.0967   23.5056 I   0  0  0  0  0  0
    8.7046   50.3389   15.3258 H   0  0  0  0  0  0
    8.7474   51.9945   14.7428 H   0  0  0  0  0  0
    7.3686   51.4279   15.6856 H   0  0  0  0  0  0
    8.8636   51.1096   17.6817 H   0  0  0  0  0  0
   10.2398   51.6294   16.7674 H   0  0  0  0  0  0
   10.4573   53.9946   15.9709 H   0  0  0  0  0  0
    8.8263   54.3216   15.4110 H   0  0  0  0  0  0
    9.5377   55.2680   16.7308 H   0  0  0  0  0  0
    6.8601   52.7505   17.4230 H   0  0  0  0  0  0
    5.1531   56.3733   17.3630 H   0  0  0  0  0  0
    3.8459   56.0062   18.4818 H   0  0  0  0  0  0
    5.3341   56.7470   19.0678 H   0  0  0  0  0  0
    4.6012   53.2437   19.8832 H   0  0  0  0  0  0
    4.2993   53.1205   21.8687 H   0  0  0  0  0  0
    7.2770   54.0971   23.4493 H   0  0  0  0  0  0
    7.5051   54.4971   25.8687 H   0  0  0  0  0  0
    5.4963   54.7692   27.2844 H   0  0  0  0  0  0
    3.2462   54.6035   26.2804 H   0  0  0  0  0  0
  1  2  1  0  0  0
  1 23  1  0  0  0
  1 24  1  0  0  0
  1 25  1  0  0  0
  2  3  1  0  0  0
  2 26  1  0  0  0
  2 27  1  0  0  0
  3  4  1  0  0  0
  3  5  1  0  0  0
  3  6  1  0  0  0
  5 28  1  0  0  0
  5 29  1  0  0  0
  5 30  1  0  0  0
  6  7  1  0  0  0
  6 31  1  0  0  0
  7  8  2  0  0  0
  7  9  1  0  0  0
  9 10  1  0  0  0
  9 11  1  0  0  0
  9 12  1  0  0  0
 11 32  1  0  0  0
 11 33  1  0  0  0
 11 34  1  0  0  0
 12 13  1  0  0  0
 12 35  1  0  0  0
 13 14  2  0  0  0
 13 15  1  0  0  0
 15 16  1  0  0  0
 15 36  1  0  0  0
 16 21  2  0  0  0
 16 17  1  0  0  0
 17 18  2  0  0  0
 17 37  1  0  0  0
 18 19  1  0  0  0
 18 38  1  0  0  0
 19 20  2  0  0  0
 19 39  1  0  0  0
 20 21  1  0  0  0
 20 40  1  0  0  0
 21 22  1  0  0  0
M  END
> <i_i_glide_confnum>
68

> <i_i_glide_lignum>
2566

> <i_i_glide_posenum>
245

> <i_i_glide_rotatable_bonds>
8

> <i_m_Source_File_Index>
1484

> <b_m_subgroup_collapsed>
0

> <r_i_docking_score>
-4.37216

> <r_i_glide_ecoul>
-2.00772

> <r_i_glide_eff_state_penalty>
0

> <r_i_glide_einternal>
3.14911

> <r_i_glide_emodel>
-43.3088

> <r_i_glide_energy>
-33.8721

> <r_i_glide_erotb>
0.771959

> <r_i_glide_esite>
-0.0025045

> <r_i_glide_evdw>
-31.8644

> <r_i_glide_gscore>
-4.37216

> <r_i_glide_hbond>
0

> <r_i_glide_ligand_efficiency>
-0.218608

> <r_i_glide_ligand_efficiency_ln>
-1.09421

> <r_i_glide_ligand_efficiency_sa>
-0.593393

> <r_i_glide_lipo>
-2.13481

> <r_i_glide_metal>
0

> <r_i_glide_rewards>
-1.11242

> <s_i_glide_gridfile>
wee1_glide-grid

> <s_m_Source_File>
wee1_decoys_glide_SP.sdf

> <s_m_Source_Path>
/Users/zhangxujun/Desktop

> <s_m_entry_id>
1759

> <s_m_entry_name>
wee1_decoys_glide_SP.1484

> <s_m_subgroup_title>
wee1_decoys_glide_SP

> <s_m_subgroupid>
wee1_decoys_glide_SP


$$$$
