ZINC16026695_4978
                    3D
 Schrodinger Suite 2024-2.
 63 67  0  0  1  0            999 V2000
    3.1408   54.1761   16.0222 C   0  0  0  0  0  0
    3.6285   52.7880   16.4629 C   0  0  0  0  0  0
    3.1366   52.4379   17.7526 O   0  0  0  0  0  0
    3.7209   52.8972   18.8912 C   0  0  0  0  0  0
    4.6275   53.7343   18.9136 O   0  0  0  0  0  0
    3.0771   52.3531   20.1265 C   0  0  0  0  0  0
    3.2079   53.0502   21.3326 C   0  0  0  0  0  0
    2.5818   52.5864   22.4840 C   0  0  0  0  0  0
    1.8308   51.4104   22.4530 C   0  0  0  0  0  0
    1.7365   50.6814   21.2607 C   0  0  0  0  0  0
    2.3540   51.1525   20.1046 C   0  0  0  0  0  0
    1.2148   51.0495   23.6627 N   0  0  0  0  0  0
    0.2407   50.1448   23.9043 C   0  0  0  0  0  0
   -0.2778   49.4348   23.0379 O   0  0  0  0  0  0
   -0.2892   50.0263   25.3597 C   0  0  1  0  0  0
   -0.1308   48.9661   25.5728 H   0  0  0  0  0  0
    0.4688   50.8242   26.4580 C   0  0  0  0  0  0
   -0.5847   51.5562   27.3009 C   0  0  2  0  0  0
   -0.7999   52.5281   26.8537 H   0  0  0  0  0  0
   -1.8192   50.3020   25.5473 C   0  0  2  0  0  0
   -2.7721   49.1848   25.2221 C   0  0  0  0  0  0
   -2.8537   47.8676   25.6822 C   0  0  0  0  0  0
   -3.8542   47.0272   25.1873 C   0  0  0  0  0  0
   -4.7520   47.4923   24.2219 C   0  0  0  0  0  0
   -4.6598   48.8036   23.7509 C   0  0  0  0  0  0
   -3.6650   49.6336   24.2652 C   0  0  0  0  0  0
   -3.4105   50.9649   23.9814 N   0  0  0  0  0  0
   -2.4071   51.4794   24.7118 C   0  0  0  0  0  0
   -2.0352   52.6515   24.7115 O   0  0  0  0  0  0
   -0.1993   51.7957   28.7760 C   0  0  0  0  0  0
    1.0353   52.6743   28.9490 C   0  0  0  0  0  0
    0.8920   54.0576   29.0673 C   0  0  0  0  0  0
    2.0164   54.8686   29.2096 C   0  0  0  0  0  0
    3.2833   54.2888   29.2323 C   0  0  0  0  0  0
    3.4357   52.9083   29.1231 C   0  0  0  0  0  0
    2.3095   52.0995   28.9816 C   0  0  0  0  0  0
    3.4723   54.3975   15.0080 H   0  0  0  0  0  0
    3.5295   54.9590   16.6729 H   0  0  0  0  0  0
    2.0530   54.2346   16.0380 H   0  0  0  0  0  0
    3.2639   52.0385   15.7614 H   0  0  0  0  0  0
    4.7176   52.7289   16.4352 H   0  0  0  0  0  0
    3.7660   53.9746   21.3782 H   0  0  0  0  0  0
    2.6751   53.1602   23.3944 H   0  0  0  0  0  0
    1.1961   49.7511   21.1993 H   0  0  0  0  0  0
    2.2676   50.5709   19.1956 H   0  0  0  0  0  0
    1.4986   51.6083   24.4512 H   0  0  0  0  0  0
    0.9964   50.1002   27.0810 H   0  0  0  0  0  0
    1.2078   51.5535   26.1272 H   0  0  0  0  0  0
   -2.1658   47.4947   26.4285 H   0  0  0  0  0  0
   -3.9358   46.0187   25.5605 H   0  0  0  0  0  0
   -5.5247   46.8393   23.8429 H   0  0  0  0  0  0
   -5.3621   49.1595   23.0111 H   0  0  0  0  0  0
   -3.9568   51.5242   23.3466 H   0  0  0  0  0  0
   -1.0333   52.2495   29.3132 H   0  0  0  0  0  0
   -0.0288   50.8500   29.2823 H   0  0  0  0  0  0
   -0.0930   54.4980   29.0420 H   0  0  0  0  0  0
    1.9048   55.9384   29.2998 H   0  0  0  0  0  0
    4.1595   54.9140   29.3322 H   0  0  0  0  0  0
    4.4239   52.4696   29.1381 H   0  0  0  0  0  0
    2.4256   51.0311   28.8824 H   0  0  0  0  0  0
   -1.8581   50.7409   27.0258 N   0  3  0  0  0  0
   -2.7146   51.2117   27.2768 H   0  0  0  0  0  0
   -1.8075   49.8895   27.5936 H   0  0  0  0  0  0
  1  2  1  0  0  0
  1 37  1  0  0  0
  1 38  1  0  0  0
  1 39  1  0  0  0
  2  3  1  0  0  0
  2 40  1  0  0  0
  2 41  1  0  0  0
  3  4  1  0  0  0
  4  5  2  0  0  0
  4  6  1  0  0  0
  6 11  2  0  0  0
  6  7  1  0  0  0
  7  8  2  0  0  0
  7 42  1  0  0  0
  8  9  1  0  0  0
  8 43  1  0  0  0
  9 10  2  0  0  0
  9 12  1  0  0  0
 10 11  1  0  0  0
 10 44  1  0  0  0
 11 45  1  0  0  0
 12 13  1  0  0  0
 12 46  1  0  0  0
 13 14  2  0  0  0
 13 15  1  0  0  0
 15 16  1  0  0  0
 15 20  1  0  0  0
 15 17  1  0  0  0
 17 18  1  0  0  0
 17 47  1  0  0  0
 17 48  1  0  0  0
 18 19  1  0  0  0
 18 30  1  0  0  0
 18 61  1  0  0  0
 20 28  1  0  0  0
 20 21  1  0  0  0
 20 61  1  0  0  0
 21 26  2  0  0  0
 21 22  1  0  0  0
 22 23  2  0  0  0
 22 49  1  0  0  0
 23 24  1  0  0  0
 23 50  1  0  0  0
 24 25  2  0  0  0
 24 51  1  0  0  0
 25 26  1  0  0  0
 25 52  1  0  0  0
 26 27  1  0  0  0
 27 28  1  0  0  0
 27 53  1  0  0  0
 28 29  2  0  0  0
 30 31  1  0  0  0
 30 54  1  0  0  0
 30 55  1  0  0  0
 31 36  2  0  0  0
 31 32  1  0  0  0
 32 33  2  0  0  0
 32 56  1  0  0  0
 33 34  1  0  0  0
 33 57  1  0  0  0
 34 35  2  0  0  0
 34 58  1  0  0  0
 35 36  1  0  0  0
 35 59  1  0  0  0
 36 60  1  0  0  0
 61 62  1  0  0  0
 61 63  1  0  0  0
M  CHG  1  61   1
M  END
> <i_i_glide_confnum>
95

> <i_i_glide_lignum>
4979

> <i_i_glide_posenum>
258

> <i_i_glide_rotatable_bonds>
8

> <i_m_Source_File_Index>
567

> <b_m_subgroup_collapsed>
0

> <r_i_docking_score>
-3.82661

> <r_i_glide_ecoul>
-3.62251

> <r_i_glide_eff_state_penalty>
0

> <r_i_glide_einternal>
8.25834

> <r_i_glide_emodel>
-48.8336

> <r_i_glide_energy>
-40.4497

> <r_i_glide_erotb>
0.638825

> <r_i_glide_esite>
-0.151846

> <r_i_glide_evdw>
-36.8272

> <r_i_glide_gscore>
-3.82661

> <r_i_glide_hbond>
-0.2

> <r_i_glide_ligand_efficiency>
-0.109332

> <r_i_glide_ligand_efficiency_ln>
-0.840027

> <r_i_glide_ligand_efficiency_sa>
-0.357632

> <r_i_glide_lipo>
-1.48174

> <r_i_glide_metal>
0

> <r_i_glide_rewards>
-0.247117

> <s_i_glide_gridfile>
wee1_glide-grid

> <s_m_Source_File>
wee1_decoys_glide_SP.sdf

> <s_m_Source_Path>
/Users/zhangxujun/Desktop

> <s_m_entry_id>
842

> <s_m_entry_name>
wee1_decoys_glide_SP.567

> <s_m_subgroup_title>
wee1_decoys_glide_SP

> <s_m_subgroupid>
wee1_decoys_glide_SP


$$$$
