ZINC39667017_3683
                    3D
 Schrodinger Suite 2024-2.
 68 71  0  0  1  0            999 V2000
    3.5045   53.1676   30.1411 C   0  0  0  0  0  0
    3.5296   53.3990   28.6452 C   0  0  0  0  0  0
    2.3371   53.5098   27.9355 C   0  0  0  0  0  0
    2.3615   53.6972   26.5568 C   0  0  0  0  0  0
    3.5705   53.7763   25.8522 C   0  0  0  0  0  0
    4.7772   53.7019   26.5843 C   0  0  0  0  0  0
    4.7442   53.5163   27.9707 C   0  0  0  0  0  0
    6.1445   53.7971   25.9160 C   0  0  0  0  0  0
    3.5908   53.8852   24.3146 C   0  0  0  0  0  0
    2.3910   54.5254   23.5794 C   0  0  0  0  0  0
    1.1090   53.8251   23.6293 N   0  0  0  0  0  0
    0.8071   52.6885   22.9760 C   0  0  0  0  0  0
    1.6362   52.0785   22.3049 O   0  0  0  0  0  0
   -0.6308   52.1050   23.0890 C   0  0  2  0  0  0
   -0.8882   51.7487   22.0900 H   0  0  0  0  0  0
   -1.6744   53.2009   23.4178 C   0  0  0  0  0  0
   -2.6857   52.5159   24.2191 N   0  0  0  0  0  0
   -2.3515   51.1032   24.4121 C   0  0  0  0  0  0
   -0.8236   51.0173   24.1733 C   0  0  0  0  0  0
   -0.0396   51.3188   25.4879 C   0  0  0  0  0  0
   -0.3661   50.3219   26.6069 C   0  0  0  0  0  0
   -0.0957   48.8967   26.0817 N   0  3  0  0  0  0
   -0.7285   48.5382   24.7213 C   0  0  0  0  0  0
   -0.3285   49.6273   23.7103 C   0  0  0  0  0  0
   -3.8277   53.1485   24.5960 C   0  0  0  0  0  0
   -4.0957   54.2954   24.2289 O   0  0  0  0  0  0
   -4.8053   52.4450   25.5038 C   0  0  0  0  0  0
   -6.1691   52.4372   25.1805 C   0  0  0  0  0  0
   -7.1085   51.8435   26.0319 C   0  0  0  0  0  0
   -6.6711   51.2637   27.2297 C   0  0  0  0  0  0
   -5.3204   51.2856   27.5722 C   0  0  0  0  0  0
   -4.3931   51.8751   26.7164 C   0  0  0  0  0  0
   -4.9116   50.7536   28.7448 F   0  0  0  0  0  0
   -8.5869   51.8498   25.6435 C   0  0  0  0  0  0
   -8.9915   53.1029   25.4337 F   0  0  0  0  0  0
   -8.7547   51.1497   24.5219 F   0  0  0  0  0  0
   -9.3625   51.3161   26.5889 F   0  0  0  0  0  0
    4.3025   53.7296   30.6268 H   0  0  0  0  0  0
    2.5588   53.5010   30.5707 H   0  0  0  0  0  0
    3.6401   52.1077   30.3657 H   0  0  0  0  0  0
    1.3883   53.4409   28.4463 H   0  0  0  0  0  0
    1.4163   53.7724   26.0553 H   0  0  0  0  0  0
    5.6694   53.4459   28.5245 H   0  0  0  0  0  0
    6.1528   53.3037   24.9461 H   0  0  0  0  0  0
    6.4256   54.8404   25.7691 H   0  0  0  0  0  0
    6.9127   53.3009   26.5084 H   0  0  0  0  0  0
    4.4528   54.4837   24.0215 H   0  0  0  0  0  0
    3.7704   52.8976   23.8938 H   0  0  0  0  0  0
    2.1944   55.4698   24.0815 H   0  0  0  0  0  0
    2.6593   54.8071   22.5581 H   0  0  0  0  0  0
    0.3903   54.2668   24.1797 H   0  0  0  0  0  0
   -1.2829   53.9829   24.0671 H   0  0  0  0  0  0
   -2.1153   53.5887   22.5014 H   0  0  0  0  0  0
   -2.8592   50.5537   23.6180 H   0  0  0  0  0  0
   -2.6872   50.6304   25.3301 H   0  0  0  0  0  0
    1.0387   51.3524   25.3229 H   0  0  0  0  0  0
   -0.3149   52.3082   25.8532 H   0  0  0  0  0  0
    0.2708   50.4572   27.4817 H   0  0  0  0  0  0
   -1.4022   50.3363   26.9426 H   0  0  0  0  0  0
    0.9004   48.7334   26.0324 H   0  0  0  0  0  0
   -0.3389   47.5540   24.4577 H   0  0  0  0  0  0
   -1.8041   48.4647   24.8910 H   0  0  0  0  0  0
   -0.7982   49.3744   22.7587 H   0  0  0  0  0  0
    0.7460   49.6263   23.5110 H   0  0  0  0  0  0
   -6.5063   52.8967   24.2593 H   0  0  0  0  0  0
   -7.3712   50.8012   27.9105 H   0  0  0  0  0  0
   -3.3573   51.9065   27.0226 H   0  0  0  0  0  0
   -0.4432   48.2548   26.7946 H   0  0  0  0  0  0
  1  2  1  0  0  0
  1 38  1  0  0  0
  1 39  1  0  0  0
  1 40  1  0  0  0
  2  7  2  0  0  0
  2  3  1  0  0  0
  3  4  2  0  0  0
  3 41  1  0  0  0
  4  5  1  0  0  0
  4 42  1  0  0  0
  5  6  2  0  0  0
  5  9  1  0  0  0
  6  7  1  0  0  0
  6  8  1  0  0  0
  7 43  1  0  0  0
  8 44  1  0  0  0
  8 45  1  0  0  0
  8 46  1  0  0  0
  9 10  1  0  0  0
  9 47  1  0  0  0
  9 48  1  0  0  0
 10 11  1  0  0  0
 10 49  1  0  0  0
 10 50  1  0  0  0
 11 12  1  0  0  0
 11 51  1  0  0  0
 12 13  2  0  0  0
 12 14  1  0  0  0
 14 15  1  0  0  0
 14 19  1  0  0  0
 14 16  1  0  0  0
 16 17  1  0  0  0
 16 52  1  0  0  0
 16 53  1  0  0  0
 17 18  1  0  0  0
 17 25  1  0  0  0
 18 19  1  0  0  0
 18 54  1  0  0  0
 18 55  1  0  0  0
 19 24  1  0  0  0
 19 20  1  0  0  0
 20 21  1  0  0  0
 20 56  1  0  0  0
 20 57  1  0  0  0
 21 22  1  0  0  0
 21 58  1  0  0  0
 21 59  1  0  0  0
 22 23  1  0  0  0
 22 60  1  0  0  0
 22 68  1  0  0  0
 23 24  1  0  0  0
 23 61  1  0  0  0
 23 62  1  0  0  0
 24 63  1  0  0  0
 24 64  1  0  0  0
 25 26  2  0  0  0
 25 27  1  0  0  0
 27 32  2  0  0  0
 27 28  1  0  0  0
 28 29  2  0  0  0
 28 65  1  0  0  0
 29 30  1  0  0  0
 29 34  1  0  0  0
 30 31  2  0  0  0
 30 66  1  0  0  0
 31 32  1  0  0  0
 31 33  1  0  0  0
 32 67  1  0  0  0
 34 35  1  0  0  0
 34 36  1  0  0  0
 34 37  1  0  0  0
M  CHG  1  22   1
M  END
> <i_i_glide_confnum>
128

> <i_i_glide_lignum>
3684

> <i_i_glide_posenum>
253

> <i_i_glide_rotatable_bonds>
8

> <i_m_Source_File_Index>
4956

> <b_m_subgroup_collapsed>
0

> <r_i_docking_score>
-4.33932

> <r_i_glide_ecoul>
-1.61998

> <r_i_glide_eff_state_penalty>
0

> <r_i_glide_einternal>
4.86237

> <r_i_glide_emodel>
-49.0475

> <r_i_glide_energy>
-36.7701

> <r_i_glide_erotb>
0.55817

> <r_i_glide_esite>
-0.139445

> <r_i_glide_evdw>
-35.1501

> <r_i_glide_gscore>
-4.33932

> <r_i_glide_hbond>
-0.155457

> <r_i_glide_ligand_efficiency>
-0.120537

> <r_i_glide_ligand_efficiency_ln>
-0.946723

> <r_i_glide_ligand_efficiency_sa>
-0.398003

> <r_i_glide_lipo>
-2.16524

> <r_i_glide_metal>
0

> <r_i_glide_rewards>
-0.436843

> <s_i_glide_gridfile>
wee1_glide-grid

> <s_m_Source_File>
wee1_decoys_glide_SP.sdf

> <s_m_Source_Path>
/Users/zhangxujun/Desktop

> <s_m_entry_id>
5231

> <s_m_entry_name>
wee1_decoys_glide_SP.4956

> <s_m_subgroup_title>
wee1_decoys_glide_SP

> <s_m_subgroupid>
wee1_decoys_glide_SP


$$$$
