ZINC06023668_2003
                    3D
 Schrodinger Suite 2024-2.
 55 58  0  0  1  0            999 V2000
   -6.6930   48.6916   24.6925 C   0  0  0  0  0  0
   -5.4114   49.4036   25.0828 C   0  0  0  0  0  0
   -4.9359   49.3218   26.3924 C   0  0  0  0  0  0
   -3.7665   49.9864   26.7506 C   0  0  0  0  0  0
   -3.0583   50.7276   25.7973 C   0  0  0  0  0  0
   -3.5487   50.8177   24.4885 C   0  0  0  0  0  0
   -4.7204   50.1558   24.1325 C   0  0  0  0  0  0
   -1.8424   51.4890   26.2132 C   0  0  0  0  0  0
   -0.6268   51.5029   25.3858 C   0  0  0  0  0  0
    0.4379   52.5507   25.5656 C   0  0  2  0  0  0
    0.0327   53.5142   25.2817 H   0  0  0  0  0  0
    1.3728   52.2705   24.4735 N   0  0  0  0  0  0
    1.0414   51.1233   23.8164 C   0  0  0  0  0  0
    1.6889   50.5952   22.9038 O   0  0  0  0  0  0
   -0.2156   50.6875   24.4018 C   0  0  0  0  0  0
   -0.7685   49.6275   23.9201 O   0  5  0  0  0  0
    2.4952   53.0626   24.1413 C   0  0  0  0  0  0
    2.7819   53.4030   22.8080 C   0  0  0  0  0  0
    3.9756   54.0505   22.4919 C   0  0  0  0  0  0
    4.8665   54.3606   23.5200 C   0  0  0  0  0  0
    4.5567   54.0975   24.8448 C   0  0  0  0  0  0
    3.3811   53.4523   25.1486 C   0  0  0  0  0  0
    6.4713   55.0288   23.2290 S   0  0  0  0  0  0
    6.6098   55.3909   21.8152 O   0  0  0  0  0  0
    6.7081   55.9967   24.3035 O   0  0  0  0  0  0
    7.5044   53.6967   23.5489 N   0  0  0  0  0  0
    1.0743   52.6738   26.9753 C   0  0  0  0  0  0
    1.4626   51.5367   27.6816 C   0  0  0  0  0  0
    2.2081   51.6619   28.8501 C   0  0  0  0  0  0
    2.5295   52.9221   29.3709 C   0  0  0  0  0  0
    2.0694   54.0542   28.7164 C   0  0  0  0  0  0
    1.3520   53.9286   27.5368 C   0  0  0  0  0  0
    3.3117   53.1501   30.4818 O   0  0  0  0  0  0
    3.7010   52.0549   31.2965 C   0  0  0  0  0  0
   -1.8437   52.0963   27.2818 O   0  0  0  0  0  0
   -7.2918   49.3200   24.0326 H   0  0  0  0  0  0
   -6.4691   47.7636   24.1658 H   0  0  0  0  0  0
   -7.3105   48.4691   25.5634 H   0  0  0  0  0  0
   -5.4650   48.7428   27.1350 H   0  0  0  0  0  0
   -3.4033   49.9062   27.7676 H   0  0  0  0  0  0
   -3.0263   51.3999   23.7428 H   0  0  0  0  0  0
   -5.0885   50.2290   23.1196 H   0  0  0  0  0  0
    2.1087   53.1219   22.0104 H   0  0  0  0  0  0
    4.2181   54.2659   21.4608 H   0  0  0  0  0  0
    5.2537   54.3233   25.6391 H   0  0  0  0  0  0
    3.2850   53.1437   26.1701 H   0  0  0  0  0  0
    8.4743   54.0201   23.4327 H   0  0  0  0  0  0
    7.4212   53.4008   24.5220 H   0  0  0  0  0  0
    1.2554   50.5540   27.2818 H   0  0  0  0  0  0
    2.5721   50.7528   29.2817 H   0  0  0  0  0  0
    2.3098   55.0357   29.0980 H   0  0  0  0  0  0
    1.1044   54.8357   27.0234 H   0  0  0  0  0  0
    4.3501   52.4215   32.0890 H   0  0  0  0  0  0
    4.2587   51.2992   30.7424 H   0  0  0  0  0  0
    2.8323   51.5965   31.7703 H   0  0  0  0  0  0
  1  2  1  0  0  0
  1 36  1  0  0  0
  1 37  1  0  0  0
  1 38  1  0  0  0
  2  7  2  0  0  0
  2  3  1  0  0  0
  3  4  2  0  0  0
  3 39  1  0  0  0
  4  5  1  0  0  0
  4 40  1  0  0  0
  5  6  2  0  0  0
  5  8  1  0  0  0
  6  7  1  0  0  0
  6 41  1  0  0  0
  7 42  1  0  0  0
  8  9  1  0  0  0
  8 35  2  0  0  0
  9 15  2  0  0  0
  9 10  1  0  0  0
 10 11  1  0  0  0
 10 12  1  0  0  0
 10 27  1  0  0  0
 12 13  1  0  0  0
 12 17  1  0  0  0
 13 14  2  0  0  0
 13 15  1  0  0  0
 15 16  1  0  0  0
 17 22  2  0  0  0
 17 18  1  0  0  0
 18 19  2  0  0  0
 18 43  1  0  0  0
 19 20  1  0  0  0
 19 44  1  0  0  0
 20 21  2  0  0  0
 20 23  1  0  0  0
 21 22  1  0  0  0
 21 45  1  0  0  0
 22 46  1  0  0  0
 23 24  2  0  0  0
 23 25  2  0  0  0
 23 26  1  0  0  0
 26 47  1  0  0  0
 26 48  1  0  0  0
 27 32  2  0  0  0
 27 28  1  0  0  0
 28 29  2  0  0  0
 28 49  1  0  0  0
 29 30  1  0  0  0
 29 50  1  0  0  0
 30 31  2  0  0  0
 30 33  1  0  0  0
 31 32  1  0  0  0
 31 51  1  0  0  0
 32 52  1  0  0  0
 33 34  1  0  0  0
 34 53  1  0  0  0
 34 54  1  0  0  0
 34 55  1  0  0  0
M  CHG  1  16  -1
M  END
> <i_i_glide_confnum>
7

> <i_i_glide_lignum>
2004

> <i_i_glide_posenum>
227

> <i_i_glide_rotatable_bonds>
6

> <i_m_Source_File_Index>
2400

> <b_m_subgroup_collapsed>
0

> <r_i_docking_score>
-5.55045

> <r_i_glide_ecoul>
-6.50254

> <r_i_glide_eff_state_penalty>
0

> <r_i_glide_einternal>
8.90477

> <r_i_glide_emodel>
-44.5087

> <r_i_glide_energy>
-35.3375

> <r_i_glide_erotb>
0.355373

> <r_i_glide_esite>
-0.0713616

> <r_i_glide_evdw>
-28.8349

> <r_i_glide_gscore>
-5.55045

> <r_i_glide_hbond>
-0.608

> <r_i_glide_ligand_efficiency>
-0.163248

> <r_i_glide_ligand_efficiency_ln>
-1.22625

> <r_i_glide_ligand_efficiency_sa>
-0.528861

> <r_i_glide_lipo>
-2.2157

> <r_i_glide_metal>
0

> <r_i_glide_rewards>
-0.593628

> <s_i_glide_gridfile>
wee1_glide-grid

> <s_m_Source_File>
wee1_decoys_glide_SP.sdf

> <s_m_Source_Path>
/Users/zhangxujun/Desktop

> <s_m_entry_id>
2675

> <s_m_entry_name>
wee1_decoys_glide_SP.2400

> <s_m_subgroup_title>
wee1_decoys_glide_SP

> <s_m_subgroupid>
wee1_decoys_glide_SP


$$$$
