ZINC16047610_5582
                    3D
 Schrodinger Suite 2024-2.
 59 63  0  0  1  0            999 V2000
   -0.6321   51.8689   29.4610 C   0  0  0  0  0  0
    0.6771   52.3877   28.8862 C   0  0  0  0  0  0
    0.7579   52.7476   27.5424 C   0  0  0  0  0  0
    1.9552   53.2281   27.0129 C   0  0  0  0  0  0
    3.1068   53.3486   27.8057 C   0  0  0  0  0  0
    3.0204   52.9681   29.1630 C   0  0  0  0  0  0
    1.8108   52.4981   29.6903 C   0  0  0  0  0  0
    4.2193   53.0357   30.0881 C   0  0  0  0  0  0
    4.3648   53.8544   27.1390 C   0  0  0  0  0  0
    5.5539   54.0959   27.6500 N   0  0  0  0  0  0
    6.3836   54.4745   26.5970 N   0  0  0  0  0  0
    5.6347   54.4164   25.5263 C   0  0  0  0  0  0
    4.3456   54.0811   25.8000 O   0  0  0  0  0  0
    6.0086   54.6898   24.2225 N   0  0  0  0  0  0
    5.3203   54.3219   23.1180 C   0  0  0  0  0  0
    4.2574   53.6968   23.1486 O   0  0  0  0  0  0
    5.9049   54.7430   21.7823 C   0  0  0  0  0  0
    7.1642   55.3590   21.6814 C   0  0  0  0  0  0
    7.6929   55.6956   20.4380 C   0  0  0  0  0  0
    6.9611   55.4253   19.2819 C   0  0  0  0  0  0
    5.7002   54.8344   19.3630 C   0  0  0  0  0  0
    5.1769   54.4976   20.6073 C   0  0  0  0  0  0
    7.6811   55.7559   17.6817 S   0  0  0  0  0  0
    6.5843   55.8765   16.7138 O   0  0  0  0  0  0
    8.6507   56.8452   17.8671 O   0  0  0  0  0  0
    8.6050   54.2538   17.3575 N   0  0  0  0  0  0
    9.9831   54.1999   17.8642 C   0  0  0  0  0  0
   10.9923   54.1393   16.7028 C   0  0  0  0  0  0
   10.7473   52.9062   15.8281 C   0  0  0  0  0  0
    9.2699   52.7470   15.5041 C   0  0  0  0  0  0
    8.2694   53.3662   16.2945 C   0  0  0  0  0  0
    6.9222   53.0541   16.0556 C   0  0  0  0  0  0
    6.5530   52.2356   14.9891 C   0  0  0  0  0  0
    7.5303   51.6942   14.1596 C   0  0  0  0  0  0
    8.8759   51.9396   14.4272 C   0  0  0  0  0  0
   -1.1277   51.2080   28.7489 H   0  0  0  0  0  0
   -1.2943   52.7000   29.6815 H   0  0  0  0  0  0
   -0.4949   51.2969   30.3770 H   0  0  0  0  0  0
   -0.1104   52.6599   26.9060 H   0  0  0  0  0  0
    1.9782   53.4985   25.9675 H   0  0  0  0  0  0
    1.7448   52.2131   30.7313 H   0  0  0  0  0  0
    5.0342   52.4355   29.6815 H   0  0  0  0  0  0
    4.5614   54.0691   30.1643 H   0  0  0  0  0  0
    4.0019   52.6667   31.0923 H   0  0  0  0  0  0
    6.9257   55.0864   24.0981 H   0  0  0  0  0  0
    7.7737   55.5698   22.5453 H   0  0  0  0  0  0
    8.6774   56.1376   20.3750 H   0  0  0  0  0  0
    5.1341   54.6158   18.4678 H   0  0  0  0  0  0
    4.2005   54.0351   20.6405 H   0  0  0  0  0  0
   10.2124   55.0282   18.5366 H   0  0  0  0  0  0
   10.0216   53.2966   18.4747 H   0  0  0  0  0  0
   10.9062   55.0464   16.1004 H   0  0  0  0  0  0
   12.0124   54.1288   17.0896 H   0  0  0  0  0  0
   11.3448   52.9568   14.9157 H   0  0  0  0  0  0
   11.0693   52.0159   16.3726 H   0  0  0  0  0  0
    6.1407   53.4515   16.6880 H   0  0  0  0  0  0
    5.5099   52.0216   14.8106 H   0  0  0  0  0  0
    7.2485   51.0603   13.3309 H   0  0  0  0  0  0
    9.6270   51.4750   13.8030 H   0  0  0  0  0  0
  1  2  1  0  0  0
  1 36  1  0  0  0
  1 37  1  0  0  0
  1 38  1  0  0  0
  2  7  2  0  0  0
  2  3  1  0  0  0
  3  4  2  0  0  0
  3 39  1  0  0  0
  4  5  1  0  0  0
  4 40  1  0  0  0
  5  6  2  0  0  0
  5  9  1  0  0  0
  6  7  1  0  0  0
  6  8  1  0  0  0
  7 41  1  0  0  0
  8 42  1  0  0  0
  8 43  1  0  0  0
  8 44  1  0  0  0
  9 13  1  0  0  0
  9 10  2  0  0  0
 10 11  1  0  0  0
 11 12  2  0  0  0
 12 13  1  0  0  0
 12 14  1  0  0  0
 14 15  1  0  0  0
 14 45  1  0  0  0
 15 16  2  0  0  0
 15 17  1  0  0  0
 17 22  2  0  0  0
 17 18  1  0  0  0
 18 19  2  0  0  0
 18 46  1  0  0  0
 19 20  1  0  0  0
 19 47  1  0  0  0
 20 21  2  0  0  0
 20 23  1  0  0  0
 21 22  1  0  0  0
 21 48  1  0  0  0
 22 49  1  0  0  0
 23 24  2  0  0  0
 23 25  2  0  0  0
 23 26  1  0  0  0
 26 31  1  0  0  0
 26 27  1  0  0  0
 27 28  1  0  0  0
 27 50  1  0  0  0
 27 51  1  0  0  0
 28 29  1  0  0  0
 28 52  1  0  0  0
 28 53  1  0  0  0
 29 30  1  0  0  0
 29 54  1  0  0  0
 29 55  1  0  0  0
 30 35  2  0  0  0
 30 31  1  0  0  0
 31 32  2  0  0  0
 32 33  1  0  0  0
 32 56  1  0  0  0
 33 34  2  0  0  0
 33 57  1  0  0  0
 34 35  1  0  0  0
 34 58  1  0  0  0
 35 59  1  0  0  0
M  END
> <i_i_glide_confnum>
222

> <i_i_glide_lignum>
5583

> <i_i_glide_posenum>
268

> <i_i_glide_rotatable_bonds>
6

> <i_m_Source_File_Index>
5787

> <b_m_subgroup_collapsed>
0

> <r_i_docking_score>
-4.82296

> <r_i_glide_ecoul>
-1.70878

> <r_i_glide_eff_state_penalty>
0

> <r_i_glide_einternal>
0.641005

> <r_i_glide_emodel>
-62.5345

> <r_i_glide_energy>
-48.4852

> <r_i_glide_erotb>
0.511223

> <r_i_glide_esite>
0

> <r_i_glide_evdw>
-46.7765

> <r_i_glide_gscore>
-4.82296

> <r_i_glide_hbond>
0

> <r_i_glide_ligand_efficiency>
-0.137799

> <r_i_glide_ligand_efficiency_ln>
-1.05875

> <r_i_glide_ligand_efficiency_sa>
-0.450749

> <r_i_glide_lipo>
-2.32537

> <r_i_glide_metal>
0

> <r_i_glide_rewards>
-0.413677

> <s_i_glide_gridfile>
wee1_glide-grid

> <s_m_Source_File>
wee1_decoys_glide_SP.sdf

> <s_m_Source_Path>
/Users/zhangxujun/Desktop

> <s_m_entry_id>
6062

> <s_m_entry_name>
wee1_decoys_glide_SP.5787

> <s_m_subgroup_title>
wee1_decoys_glide_SP

> <s_m_subgroupid>
wee1_decoys_glide_SP


$$$$
