ZINC06831837_4719
                    3D
 Schrodinger Suite 2024-2.
 30 32  0  0  1  0            999 V2000
    5.7699   54.4967   27.7446 C   0  0  0  0  0  0
    6.8630   54.4864   26.8817 C   0  0  0  0  0  0
    6.7044   54.4018   25.4961 C   0  0  0  0  0  0
    5.4037   54.2991   24.9969 C   0  0  0  0  0  0
    4.2889   54.3201   25.8670 C   0  0  0  0  0  0
    4.4677   54.4253   27.2529 C   0  0  0  0  0  0
    3.0894   54.2302   25.2522 N   0  0  0  0  0  0
    3.1924   54.0925   23.9605 C   0  0  0  0  0  0
    4.8339   54.0967   23.3453 S   0  0  0  0  0  0
    1.9713   53.9314   23.0799 C   0  0  0  0  0  0
    1.3950   52.2090   22.9081 S   0  0  0  0  0  0
    0.6647   51.6746   24.4328 C   0  0  0  0  0  0
    0.1080   50.4347   24.4429 N   0  0  0  0  0  0
   -0.4470   50.0391   25.6168 C   0  0  0  0  0  0
   -0.4445   50.8366   26.7589 C   0  0  0  0  0  0
    0.1681   52.0766   26.6531 C   0  0  0  0  0  0
    0.7044   52.5207   25.4936 N   0  0  0  0  0  0
    0.2607   52.8967   27.7682 N   0  0  0  0  0  0
   -1.0307   48.7845   25.6817 N   0  0  0  0  0  0
    5.9394   54.5668   28.8103 H   0  0  0  0  0  0
    7.8534   54.5275   27.3099 H   0  0  0  0  0  0
    7.5521   54.3845   24.8269 H   0  0  0  0  0  0
    3.6211   54.4350   27.9218 H   0  0  0  0  0  0
    2.1847   54.3113   22.0817 H   0  0  0  0  0  0
    1.1384   54.5272   23.4541 H   0  0  0  0  0  0
   -0.8834   50.4967   27.6854 H   0  0  0  0  0  0
   -0.0956   52.5678   28.6528 H   0  0  0  0  0  0
    0.7332   53.7822   27.6758 H   0  0  0  0  0  0
   -1.2956   48.4667   26.6206 H   0  0  0  0  0  0
   -0.9366   48.1498   24.9071 H   0  0  0  0  0  0
  1  6  2  0  0  0
  1  2  1  0  0  0
  1 20  1  0  0  0
  2  3  2  0  0  0
  2 21  1  0  0  0
  3  4  1  0  0  0
  3 22  1  0  0  0
  4  9  1  0  0  0
  4  5  2  0  0  0
  5  6  1  0  0  0
  5  7  1  0  0  0
  6 23  1  0  0  0
  7  8  2  0  0  0
  8  9  1  0  0  0
  8 10  1  0  0  0
 10 11  1  0  0  0
 10 24  1  0  0  0
 10 25  1  0  0  0
 11 12  1  0  0  0
 12 17  2  0  0  0
 12 13  1  0  0  0
 13 14  2  0  0  0
 14 15  1  0  0  0
 14 19  1  0  0  0
 15 16  2  0  0  0
 15 26  1  0  0  0
 16 17  1  0  0  0
 16 18  1  0  0  0
 18 27  1  0  0  0
 18 28  1  0  0  0
 19 29  1  0  0  0
 19 30  1  0  0  0
M  END
> <i_i_glide_confnum>
9

> <i_i_glide_lignum>
4720

> <i_i_glide_posenum>
252

> <i_i_glide_rotatable_bonds>
3

> <i_m_Source_File_Index>
1729

> <b_m_subgroup_collapsed>
0

> <r_i_docking_score>
-5.84804

> <r_i_glide_ecoul>
-4.32485

> <r_i_glide_eff_state_penalty>
0

> <r_i_glide_einternal>
0.283606

> <r_i_glide_emodel>
-52.4505

> <r_i_glide_energy>
-36.7681

> <r_i_glide_erotb>
0.652292

> <r_i_glide_esite>
-0.1

> <r_i_glide_evdw>
-32.4433

> <r_i_glide_gscore>
-5.84804

> <r_i_glide_hbond>
-0.16

> <r_i_glide_ligand_efficiency>
-0.307791

> <r_i_glide_ligand_efficiency_ln>
-1.4826

> <r_i_glide_ligand_efficiency_sa>
-0.821311

> <r_i_glide_lipo>
-2.34122

> <r_i_glide_metal>
0

> <r_i_glide_rewards>
-1.62822

> <s_i_glide_gridfile>
wee1_glide-grid

> <s_m_Source_File>
wee1_decoys_glide_SP.sdf

> <s_m_Source_Path>
/Users/zhangxujun/Desktop

> <s_m_entry_id>
2004

> <s_m_entry_name>
wee1_decoys_glide_SP.1729

> <s_m_subgroup_title>
wee1_decoys_glide_SP

> <s_m_subgroupid>
wee1_decoys_glide_SP


$$$$
