ZINC12899684_1523
                    3D
 Schrodinger Suite 2024-2.
 49 52  0  0  1  0            999 V2000
   -4.3838   52.6553   24.4813 C   0  0  0  0  0  0
   -4.3923   51.2954   25.2324 C   0  0  1  0  0  0
   -2.9631   50.9785   25.6499 C   0  0  0  0  0  0
   -2.0142   50.7732   24.8886 O   0  0  0  0  0  0
   -2.9574   51.0749   26.9984 N   0  0  0  0  0  0
   -4.1713   51.2965   27.5600 C   0  0  0  0  0  0
   -4.4930   51.2489   28.7459 O   0  0  0  0  0  0
   -4.9970   51.4863   26.5277 N   0  0  0  0  0  0
   -1.8124   50.8968   27.7819 N   0  0  0  0  0  0
   -0.8637   51.8495   27.8760 C   0  0  0  0  0  0
   -0.8950   52.8967   27.2437 O   0  0  0  0  0  0
    0.3093   51.5853   28.8390 C   0  0  2  0  0  0
    0.1571   50.6048   29.2817 H   0  0  0  0  0  0
    0.4110   52.6612   29.9207 C   0  0  0  0  0  0
    1.5642   53.5847   29.5237 C   0  0  0  0  0  0
    1.8321   54.6490   30.0818 O   0  0  0  0  0  0
    2.2023   53.0046   28.4724 N   0  0  0  0  0  0
    1.6429   51.6963   28.1208 C   0  0  0  0  0  0
    3.3784   53.5075   27.8849 C   0  0  0  0  0  0
    4.5028   53.8001   28.6721 C   0  0  0  0  0  0
    5.6727   54.2760   28.0806 C   0  0  0  0  0  0
    5.7265   54.4786   26.7022 C   0  0  0  0  0  0
    4.6084   54.2051   25.9153 C   0  0  0  0  0  0
    3.4369   53.7193   26.4986 C   0  0  0  0  0  0
    2.3665   53.4681   25.7085 F   0  0  0  0  0  0
   -5.0193   50.1202   24.4405 C   0  0  0  0  0  0
   -4.9681   50.0947   23.0383 C   0  0  0  0  0  0
   -5.5050   49.0267   22.3250 C   0  0  0  0  0  0
   -6.0863   47.9627   23.0077 C   0  0  0  0  0  0
   -6.1264   47.9548   24.3986 C   0  0  0  0  0  0
   -5.5894   49.0236   25.1102 C   0  0  0  0  0  0
   -3.7052   52.6551   23.6272 H   0  0  0  0  0  0
   -5.3788   52.9026   24.1086 H   0  0  0  0  0  0
   -4.0670   53.4805   25.1226 H   0  0  0  0  0  0
   -5.8380   52.0352   26.6166 H   0  0  0  0  0  0
   -1.7199   49.9457   28.1442 H   0  0  0  0  0  0
    0.5511   52.2345   30.9151 H   0  0  0  0  0  0
   -0.4826   53.2856   29.9880 H   0  0  0  0  0  0
    1.5722   51.5042   27.0489 H   0  0  0  0  0  0
    2.3175   50.9244   28.4910 H   0  0  0  0  0  0
    4.4760   53.6473   29.7407 H   0  0  0  0  0  0
    6.5348   54.4964   28.6938 H   0  0  0  0  0  0
    6.6316   54.8474   26.2442 H   0  0  0  0  0  0
    4.6474   54.3623   24.8473 H   0  0  0  0  0  0
   -4.5071   50.8960   22.4835 H   0  0  0  0  0  0
   -5.4667   49.0222   21.2455 H   0  0  0  0  0  0
   -6.5028   47.1337   22.4546 H   0  0  0  0  0  0
   -6.5696   47.1224   24.9255 H   0  0  0  0  0  0
   -5.6200   48.9880   26.1895 H   0  0  0  0  0  0
  1  2  1  0  0  0
  1 32  1  0  0  0
  1 33  1  0  0  0
  1 34  1  0  0  0
  2  8  1  0  0  0
  2  3  1  0  0  0
  2 26  1  0  0  0
  3  4  2  0  0  0
  3  5  1  0  0  0
  5  6  1  0  0  0
  5  9  1  0  0  0
  6  7  2  0  0  0
  6  8  1  0  0  0
  8 35  1  0  0  0
  9 10  1  0  0  0
  9 36  1  0  0  0
 10 11  2  0  0  0
 10 12  1  0  0  0
 12 13  1  0  0  0
 12 18  1  0  0  0
 12 14  1  0  0  0
 14 15  1  0  0  0
 14 37  1  0  0  0
 14 38  1  0  0  0
 15 16  2  0  0  0
 15 17  1  0  0  0
 17 18  1  0  0  0
 17 19  1  0  0  0
 18 39  1  0  0  0
 18 40  1  0  0  0
 19 24  2  0  0  0
 19 20  1  0  0  0
 20 21  2  0  0  0
 20 41  1  0  0  0
 21 22  1  0  0  0
 21 42  1  0  0  0
 22 23  2  0  0  0
 22 43  1  0  0  0
 23 24  1  0  0  0
 23 44  1  0  0  0
 24 25  1  0  0  0
 26 31  2  0  0  0
 26 27  1  0  0  0
 27 28  2  0  0  0
 27 45  1  0  0  0
 28 29  1  0  0  0
 28 46  1  0  0  0
 29 30  2  0  0  0
 29 47  1  0  0  0
 30 31  1  0  0  0
 30 48  1  0  0  0
 31 49  1  0  0  0
M  END
> <i_i_glide_confnum>
19

> <i_i_glide_lignum>
1524

> <i_i_glide_posenum>
370

> <i_i_glide_rotatable_bonds>
5

> <i_m_Source_File_Index>
355

> <b_m_subgroup_collapsed>
0

> <r_i_docking_score>
-5.57978

> <r_i_glide_ecoul>
-4.8905

> <r_i_glide_eff_state_penalty>
0

> <r_i_glide_einternal>
2.15868

> <r_i_glide_emodel>
-50.5795

> <r_i_glide_energy>
-36.9437

> <r_i_glide_erotb>
0.584819

> <r_i_glide_esite>
-0.265346

> <r_i_glide_evdw>
-32.0532

> <r_i_glide_gscore>
-5.57978

> <r_i_glide_hbond>
-0.349651

> <r_i_glide_ligand_efficiency>
-0.185993

> <r_i_glide_ligand_efficiency_ln>
-1.26779

> <r_i_glide_ligand_efficiency_sa>
-0.577922

> <r_i_glide_lipo>
-1.84892

> <r_i_glide_metal>
0

> <r_i_glide_rewards>
-1.36445

> <s_i_glide_gridfile>
wee1_glide-grid

> <s_m_Source_File>
wee1_decoys_glide_SP.sdf

> <s_m_Source_Path>
/Users/zhangxujun/Desktop

> <s_m_entry_id>
630

> <s_m_entry_name>
wee1_decoys_glide_SP.355

> <s_m_subgroup_title>
wee1_decoys_glide_SP

> <s_m_subgroupid>
wee1_decoys_glide_SP


$$$$
