ZINC08758116_2895
                    3D
 Schrodinger Suite 2024-2.
 76 81  0  0  1  0            999 V2000
   -1.3960   50.7053   25.5822 C   0  0  0  0  0  0
   -1.3982   51.7712   24.6859 C   0  0  0  0  0  0
   -0.3345   52.6701   24.6828 C   0  0  0  0  0  0
    0.7408   52.5072   25.5669 C   0  0  0  0  0  0
    0.7044   51.4511   26.4873 C   0  0  0  0  0  0
   -0.3483   50.5428   26.4816 C   0  0  0  0  0  0
    1.9037   53.5247   25.5580 C   0  0  0  0  0  0
    2.5379   53.7582   26.9521 C   0  0  0  0  0  0
    3.8281   53.3060   27.2666 C   0  0  0  0  0  0
    4.3952   53.5705   28.5081 C   0  0  0  0  0  0
    3.6730   54.2893   29.4531 C   0  0  0  0  0  0
    2.3843   54.7372   29.1691 C   0  0  0  0  0  0
    1.8203   54.4688   27.9240 C   0  0  0  0  0  0
    3.8985   54.4950   24.2461 C   0  0  0  0  0  0
    5.0191   54.0841   23.2790 C   0  0  0  0  0  0
    4.4697   53.8143   21.9407 N   0  0  0  0  0  0
    3.4416   52.7590   21.9658 C   0  0  0  0  0  0
    2.3253   52.9989   23.0167 C   0  0  0  0  0  0
    4.8985   54.4933   20.7486 C   0  0  0  0  0  0
    5.9018   55.2889   20.8280 N   0  0  0  0  0  0
    6.4129   56.0364   19.7705 C   0  0  0  0  0  0
    7.2798   56.8967   19.8485 O   0  0  0  0  0  0
    5.8431   55.7099   18.3682 C   0  0  0  0  0  0
    4.3702   55.2145   18.4387 C   0  0  2  0  0  0
    3.6827   56.0488   18.5866 H   0  0  0  0  0  0
    4.1953   54.2506   19.5304 N   0  0  0  0  0  0
    3.9664   54.6124   17.0669 C   0  0  0  0  0  0
    3.9787   55.3605   16.0874 O   0  0  0  0  0  0
    3.6054   53.3118   16.9932 N   0  0  0  0  0  0
    3.3145   52.5832   15.8319 C   0  0  0  0  0  0
    2.3096   51.6164   15.9078 C   0  0  0  0  0  0
    2.0787   50.7723   14.8238 C   0  0  0  0  0  0
    2.8605   50.8867   13.6749 C   0  0  0  0  0  0
    3.8243   51.8942   13.5759 C   0  0  0  0  0  0
    4.0601   52.7365   14.6558 C   0  0  0  0  0  0
    2.6925   49.9764   12.6552 O   0  0  0  0  0  0
    3.7678   49.2185   12.2298 C   0  0  0  0  0  0
    3.7765   48.7954   10.9004 C   0  0  0  0  0  0
    4.8378   48.0382   10.4107 C   0  0  0  0  0  0
    5.8896   47.6967   11.2594 C   0  0  0  0  0  0
    5.8856   48.0972   12.5924 C   0  0  0  0  0  0
    4.8204   48.8473   13.0805 C   0  0  0  0  0  0
   -2.2141   49.9988   25.5918 H   0  0  0  0  0  0
   -2.2236   51.8990   24.0005 H   0  0  0  0  0  0
   -0.3531   53.4995   23.9910 H   0  0  0  0  0  0
    1.5043   51.3108   27.2015 H   0  0  0  0  0  0
   -0.3493   49.7141   27.1739 H   0  0  0  0  0  0
    1.4911   54.4885   25.2530 H   0  0  0  0  0  0
    4.4218   52.7671   26.5465 H   0  0  0  0  0  0
    5.3960   53.2281   28.7318 H   0  0  0  0  0  0
    4.1269   54.4965   30.4108 H   0  0  0  0  0  0
    1.8240   55.2938   29.9075 H   0  0  0  0  0  0
    0.8224   54.8222   27.7118 H   0  0  0  0  0  0
    3.2780   55.2967   23.8613 H   0  0  0  0  0  0
    4.3208   54.7832   25.2063 H   0  0  0  0  0  0
    5.6483   53.2511   23.5903 H   0  0  0  0  0  0
    5.7110   54.9253   23.2419 H   0  0  0  0  0  0
    2.9466   52.6599   20.9990 H   0  0  0  0  0  0
    3.9842   51.8209   22.0818 H   0  0  0  0  0  0
    1.6767   53.8380   22.7578 H   0  0  0  0  0  0
    1.7504   52.0780   23.1281 H   0  0  0  0  0  0
    6.5073   54.9586   17.9394 H   0  0  0  0  0  0
    5.9228   56.6039   17.7448 H   0  0  0  0  0  0
    3.2245   54.0139   19.6757 H   0  0  0  0  0  0
    3.5557   52.7867   17.8529 H   0  0  0  0  0  0
    1.7395   51.4826   16.8148 H   0  0  0  0  0  0
    1.3377   49.9910   14.8946 H   0  0  0  0  0  0
    4.4201   51.9870   12.6798 H   0  0  0  0  0  0
    4.8482   53.4718   14.5877 H   0  0  0  0  0  0
    2.9599   49.0643   10.2459 H   0  0  0  0  0  0
    4.8326   47.7122    9.3819 H   0  0  0  0  0  0
    6.7055   47.0910   10.8965 H   0  0  0  0  0  0
    6.6966   47.8198   13.2512 H   0  0  0  0  0  0
    4.8165   49.1460   14.1203 H   0  0  0  0  0  0
    2.9436   53.2966   24.4122 N   0  3  0  0  0  0
    3.4957   52.5032   24.7058 H   0  0  0  0  0  0
  1  6  2  0  0  0
  1  2  1  0  0  0
  1 43  1  0  0  0
  2  3  2  0  0  0
  2 44  1  0  0  0
  3  4  1  0  0  0
  3 45  1  0  0  0
  4  5  2  0  0  0
  4  7  1  0  0  0
  5  6  1  0  0  0
  5 46  1  0  0  0
  6 47  1  0  0  0
  7  8  1  0  0  0
  7 48  1  0  0  0
  7 75  1  0  0  0
  8 13  2  0  0  0
  8  9  1  0  0  0
  9 10  2  0  0  0
  9 49  1  0  0  0
 10 11  1  0  0  0
 10 50  1  0  0  0
 11 12  2  0  0  0
 11 51  1  0  0  0
 12 13  1  0  0  0
 12 52  1  0  0  0
 13 53  1  0  0  0
 14 15  1  0  0  0
 14 54  1  0  0  0
 14 55  1  0  0  0
 14 75  1  0  0  0
 15 16  1  0  0  0
 15 56  1  0  0  0
 15 57  1  0  0  0
 16 17  1  0  0  0
 16 19  1  0  0  0
 17 18  1  0  0  0
 17 58  1  0  0  0
 17 59  1  0  0  0
 18 60  1  0  0  0
 18 61  1  0  0  0
 18 75  1  0  0  0
 19 26  1  0  0  0
 19 20  2  0  0  0
 20 21  1  0  0  0
 21 22  2  0  0  0
 21 23  1  0  0  0
 23 24  1  0  0  0
 23 62  1  0  0  0
 23 63  1  0  0  0
 24 25  1  0  0  0
 24 26  1  0  0  0
 24 27  1  0  0  0
 26 64  1  0  0  0
 27 28  2  0  0  0
 27 29  1  0  0  0
 29 30  1  0  0  0
 29 65  1  0  0  0
 30 35  2  0  0  0
 30 31  1  0  0  0
 31 32  2  0  0  0
 31 66  1  0  0  0
 32 33  1  0  0  0
 32 67  1  0  0  0
 33 34  2  0  0  0
 33 36  1  0  0  0
 34 35  1  0  0  0
 34 68  1  0  0  0
 35 69  1  0  0  0
 36 37  1  0  0  0
 37 42  2  0  0  0
 37 38  1  0  0  0
 38 39  2  0  0  0
 38 70  1  0  0  0
 39 40  1  0  0  0
 39 71  1  0  0  0
 40 41  2  0  0  0
 40 72  1  0  0  0
 41 42  1  0  0  0
 41 73  1  0  0  0
 42 74  1  0  0  0
 75 76  1  0  0  0
M  CHG  1  75   1
M  END
> <i_i_glide_confnum>
139

> <i_i_glide_lignum>
2896

> <i_i_glide_posenum>
125

> <i_i_glide_rotatable_bonds>
9

> <i_m_Source_File_Index>
558

> <b_m_subgroup_collapsed>
0

> <r_i_docking_score>
-5.38619

> <r_i_glide_ecoul>
-4.58008

> <r_i_glide_eff_state_penalty>
0

> <r_i_glide_einternal>
12.0186

> <r_i_glide_emodel>
-64.4251

> <r_i_glide_energy>
-49.1271

> <r_i_glide_erotb>
0.515031

> <r_i_glide_esite>
-0.0439319

> <r_i_glide_evdw>
-44.5471

> <r_i_glide_gscore>
-5.38619

> <r_i_glide_hbond>
-0.356197

> <r_i_glide_ligand_efficiency>
-0.128243

> <r_i_glide_ligand_efficiency_ln>
-1.13689

> <r_i_glide_ligand_efficiency_sa>
-0.445775

> <r_i_glide_lipo>
-2.37127

> <r_i_glide_metal>
0

> <r_i_glide_rewards>
-0.215454

> <s_i_glide_gridfile>
wee1_glide-grid

> <s_m_Source_File>
wee1_decoys_glide_SP.sdf

> <s_m_Source_Path>
/Users/zhangxujun/Desktop

> <s_m_entry_id>
833

> <s_m_entry_name>
wee1_decoys_glide_SP.558

> <s_m_subgroup_title>
wee1_decoys_glide_SP

> <s_m_subgroupid>
wee1_decoys_glide_SP


$$$$
