ZINC65021431_3345
                    3D
 Schrodinger Suite 2024-2.
 55 58  0  0  1  0            999 V2000
    3.8684   39.6984   17.8863 C   0  0  0  0  0  0
    3.9281   41.2323   17.8726 C   0  0  0  0  0  0
    2.6900   41.8036   18.2804 O   0  0  0  0  0  0
    1.6300   41.8766   17.4333 C   0  0  0  0  0  0
    1.6499   41.4505   16.2755 O   0  0  0  0  0  0
    0.4153   42.4897   18.0625 C   0  0  0  0  0  0
    0.4510   43.0659   19.3379 C   0  0  0  0  0  0
   -0.6911   43.6476   19.8781 C   0  0  0  0  0  0
   -1.9027   43.6790   19.1703 C   0  0  0  0  0  0
   -1.9218   43.0932   17.9024 C   0  0  0  0  0  0
   -0.7865   42.5088   17.3485 C   0  0  0  0  0  0
   -3.0862   44.2321   19.5995 N   0  5  0  0  0  0
   -3.3360   44.9571   20.9696 S   0  0  0  0  0  0
   -2.4956   44.4968   22.0817 O   0  0  0  0  0  0
   -4.7641   45.1225   21.2610 O   0  0  0  0  0  0
   -2.7573   46.6171   20.5609 C   0  0  0  0  0  0
   -3.6402   47.5535   20.0133 C   0  0  0  0  0  0
   -3.1812   48.8180   19.6412 C   0  0  0  0  0  0
   -1.8359   49.1548   19.8004 C   0  0  0  0  0  0
   -0.9437   48.2186   20.3375 C   0  0  0  0  0  0
   -1.4111   46.9594   20.7209 C   0  0  0  0  0  0
    0.4166   48.4967   20.4805 N   0  0  0  0  0  0
    1.0841   49.6665   20.4787 C   0  0  0  0  0  0
    2.3043   49.6739   20.6137 O   0  0  0  0  0  0
    0.2233   50.9495   20.3153 C   0  0  1  0  0  0
    0.8238   51.7372   19.8607 H   0  0  0  0  0  0
   -1.2311   50.7070   19.2003 S   0  0  0  0  0  0
   -0.2238   51.4587   21.7172 C   0  0  0  0  0  0
   -1.3702   51.2340   22.1161 O   0  0  0  0  0  0
    0.6527   52.1614   22.4821 N   0  0  0  0  0  0
    1.9929   52.5975   22.0557 C   0  0  0  0  0  0
    2.5358   53.3363   23.2763 C   0  0  0  0  0  0
    1.2980   53.8253   23.9935 C   0  0  0  0  0  0
    0.2873   52.6959   23.8015 C   0  0  0  0  0  0
    4.8214   39.2903   17.5627 H   0  0  0  0  0  0
    3.6576   39.3149   18.8848 H   0  0  0  0  0  0
    3.1041   39.3171   17.2088 H   0  0  0  0  0  0
    4.2190   41.6012   16.8874 H   0  0  0  0  0  0
    4.7011   41.5662   18.5649 H   0  0  0  0  0  0
    1.3595   43.0829   19.9223 H   0  0  0  0  0  0
   -0.5893   44.0767   20.8584 H   0  0  0  0  0  0
   -2.8332   43.1025   17.3234 H   0  0  0  0  0  0
   -0.8533   42.0828   16.3567 H   0  0  0  0  0  0
   -4.6796   47.2948   19.8643 H   0  0  0  0  0  0
   -3.8670   49.5287   19.2034 H   0  0  0  0  0  0
   -0.7313   46.2359   21.1395 H   0  0  0  0  0  0
    1.0398   47.7232   20.6499 H   0  0  0  0  0  0
    1.9111   53.2959   21.2222 H   0  0  0  0  0  0
    2.6511   51.7688   21.7996 H   0  0  0  0  0  0
    3.2270   54.1368   23.0066 H   0  0  0  0  0  0
    3.0774   52.6444   23.9208 H   0  0  0  0  0  0
    1.4687   54.0613   25.0441 H   0  0  0  0  0  0
    0.9371   54.7352   23.5123 H   0  0  0  0  0  0
    0.4504   51.9328   24.5648 H   0  0  0  0  0  0
   -0.7279   53.0963   23.8365 H   0  0  0  0  0  0
  1  2  1  0  0  0
  1 35  1  0  0  0
  1 36  1  0  0  0
  1 37  1  0  0  0
  2  3  1  0  0  0
  2 38  1  0  0  0
  2 39  1  0  0  0
  3  4  1  0  0  0
  4  5  2  0  0  0
  4  6  1  0  0  0
  6 11  2  0  0  0
  6  7  1  0  0  0
  7  8  2  0  0  0
  7 40  1  0  0  0
  8  9  1  0  0  0
  8 41  1  0  0  0
  9 10  2  0  0  0
  9 12  1  0  0  0
 10 11  1  0  0  0
 10 42  1  0  0  0
 11 43  1  0  0  0
 12 13  1  0  0  0
 13 14  2  0  0  0
 13 15  2  0  0  0
 13 16  1  0  0  0
 16 21  2  0  0  0
 16 17  1  0  0  0
 17 18  2  0  0  0
 17 44  1  0  0  0
 18 19  1  0  0  0
 18 45  1  0  0  0
 19 27  1  0  0  0
 19 20  2  0  0  0
 20 21  1  0  0  0
 20 22  1  0  0  0
 21 46  1  0  0  0
 22 23  1  0  0  0
 22 47  1  0  0  0
 23 24  2  0  0  0
 23 25  1  0  0  0
 25 26  1  0  0  0
 25 27  1  0  0  0
 25 28  1  0  0  0
 28 29  2  0  0  0
 28 30  1  0  0  0
 30 34  1  0  0  0
 30 31  1  0  0  0
 31 32  1  0  0  0
 31 48  1  0  0  0
 31 49  1  0  0  0
 32 33  1  0  0  0
 32 50  1  0  0  0
 32 51  1  0  0  0
 33 34  1  0  0  0
 33 52  1  0  0  0
 33 53  1  0  0  0
 34 54  1  0  0  0
 34 55  1  0  0  0
M  CHG  1  12  -1
M  END
> <i_i_glide_confnum>
70

> <i_i_glide_lignum>
3346

> <i_i_glide_posenum>
310

> <i_i_glide_rotatable_bonds>
8

> <i_m_Source_File_Index>
652

> <b_m_subgroup_collapsed>
0

> <r_i_docking_score>
-3.19148

> <r_i_glide_ecoul>
-4.28249

> <r_i_glide_eff_state_penalty>
0

> <r_i_glide_einternal>
1.471

> <r_i_glide_emodel>
-44.8359

> <r_i_glide_energy>
-36.3282

> <r_i_glide_erotb>
0.596428

> <r_i_glide_esite>
-0.135581

> <r_i_glide_evdw>
-32.0457

> <r_i_glide_gscore>
-3.19148

> <r_i_glide_hbond>
0

> <r_i_glide_ligand_efficiency>
-0.0967114

> <r_i_glide_ligand_efficiency_ln>
-0.709768

> <r_i_glide_ligand_efficiency_sa>
-0.310205

> <r_i_glide_lipo>
-1.24289

> <r_i_glide_metal>
0

> <r_i_glide_rewards>
-0.164775

> <s_i_glide_gridfile>
wee1_glide-grid

> <s_m_Source_File>
wee1_decoys_glide_SP.sdf

> <s_m_Source_Path>
/Users/zhangxujun/Desktop

> <s_m_entry_id>
927

> <s_m_entry_name>
wee1_decoys_glide_SP.652

> <s_m_subgroup_title>
wee1_decoys_glide_SP

> <s_m_subgroupid>
wee1_decoys_glide_SP


$$$$
