ZINC08685155_1044
                    3D
 Schrodinger Suite 2024-2.
 67 72  0  0  1  0            999 V2000
    0.7377   44.7972   15.0115 C   0  0  0  0  0  0
    2.0098   45.3543   14.9568 C   0  0  0  0  0  0
    2.3813   46.3404   15.8698 C   0  0  0  0  0  0
    1.4762   46.7587   16.8465 C   0  0  0  0  0  0
    0.1878   46.2003   16.8868 C   0  0  0  0  0  0
   -0.1780   45.2178   15.9710 C   0  0  0  0  0  0
    1.9043   47.7690   17.7256 N   0  0  0  0  0  0
    1.5010   47.9546   19.0012 C   0  0  0  0  0  0
    0.7363   47.1901   19.5974 O   0  0  0  0  0  0
    2.0662   49.1886   19.7112 C   0  0  0  0  0  0
    1.5930   49.2967   21.4722 S   0  0  0  0  0  0
    2.1198   50.9343   21.8561 C   0  0  0  0  0  0
    3.0473   51.5906   21.2008 N   0  0  0  0  0  0
    3.1777   52.8389   21.7920 N   0  0  0  0  0  0
    2.3144   52.8920   22.7739 C   0  0  0  0  0  0
    1.5938   51.7132   22.8705 N   0  0  0  0  0  0
    0.5601   51.3937   23.7804 C   0  0  0  0  0  0
   -0.5478   52.2394   23.8948 C   0  0  0  0  0  0
   -1.5509   51.9454   24.8099 C   0  0  0  0  0  0
   -1.4496   50.8065   25.6049 C   0  0  0  0  0  0
   -0.3527   49.9548   25.4910 C   0  0  0  0  0  0
    0.6532   50.2431   24.5739 C   0  0  0  0  0  0
   -2.4306   50.5312   26.4889 F   0  0  0  0  0  0
    2.1532   54.1004   23.6753 C   0  0  0  0  0  0
    2.1784   53.7240   25.0904 N   0  0  0  0  0  0
    3.1168   54.0964   25.9768 C   0  0  0  0  0  0
    4.0835   54.7901   25.6455 O   0  0  0  0  0  0
    2.9417   53.6882   27.4691 C   0  0  0  0  0  0
    1.7594   52.6905   27.7205 C   0  0  0  0  0  0
    1.6531   52.3660   29.2371 C   0  0  1  0  0  0
    2.9738   51.7323   29.7334 C   0  0  0  0  0  0
    4.1699   52.6738   29.4469 C   0  0  1  0  0  0
    4.2714   53.0366   27.9546 C   0  0  0  0  0  0
    3.9477   53.9750   30.2336 C   0  0  0  0  0  0
    2.6027   54.6390   29.8133 C   0  0  2  0  0  0
    1.4157   53.6679   30.0406 C   0  0  0  0  0  0
    2.6837   54.9814   28.3073 C   0  0  0  0  0  0
    0.4533   44.0361   14.3003 H   0  0  0  0  0  0
    2.7040   45.0200   14.2043 H   0  0  0  0  0  0
    3.3724   46.7691   15.8184 H   0  0  0  0  0  0
   -0.5432   46.5289   17.6093 H   0  0  0  0  0  0
   -1.1696   44.7926   16.0045 H   0  0  0  0  0  0
    2.6409   48.3733   17.3688 H   0  0  0  0  0  0
    3.1495   49.1979   19.6240 H   0  0  0  0  0  0
    1.6959   50.0738   19.1945 H   0  0  0  0  0  0
   -0.6370   53.1244   23.2824 H   0  0  0  0  0  0
   -2.4080   52.5933   24.9063 H   0  0  0  0  0  0
   -0.2908   49.0735   26.1164 H   0  0  0  0  0  0
    1.5031   49.5787   24.4863 H   0  0  0  0  0  0
    2.8880   54.8771   23.4406 H   0  0  0  0  0  0
    1.1871   54.5649   23.4835 H   0  0  0  0  0  0
    1.4182   53.1455   25.4194 H   0  0  0  0  0  0
    0.8123   53.1087   27.3751 H   0  0  0  0  0  0
    1.9048   51.7646   27.1621 H   0  0  0  0  0  0
    0.8247   51.6740   29.4067 H   0  0  0  0  0  0
    2.9119   51.5588   30.8067 H   0  0  0  0  0  0
    3.1218   50.7601   29.2813 H   0  0  0  0  0  0
    5.0957   52.1901   29.7625 H   0  0  0  0  0  0
    4.5099   52.1523   27.3793 H   0  0  0  0  0  0
    5.1182   53.7106   27.8067 H   0  0  0  0  0  0
    3.9825   53.6966   31.2791 H   0  0  0  0  0  0
    4.7764   54.6683   30.0805 H   0  0  0  0  0  0
    2.4345   55.5523   30.3853 H   0  0  0  0  0  0
    0.4789   54.1365   29.7321 H   0  0  0  0  0  0
    1.3000   53.4429   31.1013 H   0  0  0  0  0  0
    3.4949   55.6906   28.1637 H   0  0  0  0  0  0
    1.7688   55.4847   27.9936 H   0  0  0  0  0  0
  1  6  2  0  0  0
  1  2  1  0  0  0
  1 38  1  0  0  0
  2  3  2  0  0  0
  2 39  1  0  0  0
  3  4  1  0  0  0
  3 40  1  0  0  0
  4  5  2  0  0  0
  4  7  1  0  0  0
  5  6  1  0  0  0
  5 41  1  0  0  0
  6 42  1  0  0  0
  7  8  1  0  0  0
  7 43  1  0  0  0
  8  9  2  0  0  0
  8 10  1  0  0  0
 10 11  1  0  0  0
 10 44  1  0  0  0
 10 45  1  0  0  0
 11 12  1  0  0  0
 12 16  1  0  0  0
 12 13  2  0  0  0
 13 14  1  0  0  0
 14 15  2  0  0  0
 15 16  1  0  0  0
 15 24  1  0  0  0
 16 17  1  0  0  0
 17 22  2  0  0  0
 17 18  1  0  0  0
 18 19  2  0  0  0
 18 46  1  0  0  0
 19 20  1  0  0  0
 19 47  1  0  0  0
 20 21  2  0  0  0
 20 23  1  0  0  0
 21 22  1  0  0  0
 21 48  1  0  0  0
 22 49  1  0  0  0
 24 25  1  0  0  0
 24 50  1  0  0  0
 24 51  1  0  0  0
 25 26  1  0  0  0
 25 52  1  0  0  0
 26 27  2  0  0  0
 26 28  1  0  0  0
 28 33  1  0  0  0
 28 37  1  0  0  0
 28 29  1  0  0  0
 29 30  1  0  0  0
 29 53  1  0  0  0
 29 54  1  0  0  0
 30 36  1  0  0  0
 30 31  1  0  0  0
 30 55  1  0  0  0
 31 32  1  0  0  0
 31 56  1  0  0  0
 31 57  1  0  0  0
 32 33  1  0  0  0
 32 34  1  0  0  0
 32 58  1  0  0  0
 33 59  1  0  0  0
 33 60  1  0  0  0
 34 35  1  0  0  0
 34 61  1  0  0  0
 34 62  1  0  0  0
 35 36  1  0  0  0
 35 37  1  0  0  0
 35 63  1  0  0  0
 36 64  1  0  0  0
 36 65  1  0  0  0
 37 66  1  0  0  0
 37 67  1  0  0  0
M  END
> <i_i_glide_confnum>
126

> <i_i_glide_lignum>
1045

> <i_i_glide_posenum>
397

> <i_i_glide_rotatable_bonds>
10

> <i_m_Source_File_Index>
292

> <b_m_subgroup_collapsed>
0

> <r_i_docking_score>
-4.95564

> <r_i_glide_ecoul>
-3.84583

> <r_i_glide_eff_state_penalty>
0

> <r_i_glide_einternal>
7.09083

> <r_i_glide_emodel>
-54.6863

> <r_i_glide_energy>
-44.9468

> <r_i_glide_erotb>
0.608727

> <r_i_glide_esite>
-0.219774

> <r_i_glide_evdw>
-41.101

> <r_i_glide_gscore>
-4.95564

> <r_i_glide_hbond>
-0.16

> <r_i_glide_ligand_efficiency>
-0.133936

> <r_i_glide_ligand_efficiency_ln>
-1.07476

> <r_i_glide_ligand_efficiency_sa>
-0.446305

> <r_i_glide_lipo>
-1.83814

> <r_i_glide_metal>
0

> <r_i_glide_rewards>
-0.714524

> <s_i_glide_gridfile>
wee1_glide-grid

> <s_m_Source_File>
wee1_decoys_glide_SP.sdf

> <s_m_Source_Path>
/Users/zhangxujun/Desktop

> <s_m_entry_id>
567

> <s_m_entry_name>
wee1_decoys_glide_SP.292

> <s_m_subgroup_title>
wee1_decoys_glide_SP

> <s_m_subgroupid>
wee1_decoys_glide_SP


$$$$
