ZINC21239910_5195
                    3D
 Schrodinger Suite 2024-2.
 71 75  0  0  1  0            999 V2000
    1.1075   54.1148   30.2681 C   0  0  0  0  0  0
    2.5370   54.1805   29.6923 C   0  0  0  0  0  0
    3.3754   52.9693   30.1491 C   0  0  0  0  0  0
    2.5031   54.3026   28.1557 C   0  0  0  0  0  0
    3.8252   54.4484   27.6350 O   0  0  0  0  0  0
    4.0356   54.2833   26.2782 C   0  0  0  0  0  0
    5.3568   54.2954   25.8345 C   0  0  0  0  0  0
    5.6550   54.0968   24.4863 C   0  0  0  0  0  0
    4.6313   53.8942   23.5484 C   0  0  0  0  0  0
    3.3031   53.9085   23.9975 C   0  0  0  0  0  0
    3.0102   54.0967   25.3426 C   0  0  0  0  0  0
    4.9831   53.6308   22.0667 C   0  0  2  0  0  0
    5.4993   52.6678   22.0632 H   0  0  0  0  0  0
    5.9233   54.7250   21.5156 C   0  0  0  0  0  0
    6.1551   54.6002   20.0103 C   0  0  0  0  0  0
    5.2982   53.9607   19.1727 C   0  0  0  0  0  0
    5.5051   53.8226   17.6556 C   0  0  2  0  0  0
    5.0721   52.8625   17.3615 H   0  0  0  0  0  0
    6.8867   53.6783   17.1986 N   0  0  0  0  0  0
    7.7742   54.7632   17.2591 C   0  0  0  0  0  0
    8.4740   55.1481   16.1091 C   0  0  0  0  0  0
    9.3336   56.2421   16.1098 C   0  0  0  0  0  0
    9.5137   56.9711   17.2771 C   0  0  0  0  0  0
    8.8470   56.5885   18.4358 C   0  0  0  0  0  0
    7.9853   55.4847   18.4629 C   0  0  0  0  0  0
    7.4031   55.0964   19.6824 N   0  0  0  0  0  0
    4.7620   54.9187   16.8687 C   0  0  0  0  0  0
    3.9340   54.5717   15.8019 C   0  0  0  0  0  0
    3.2292   55.5555   15.1094 C   0  0  0  0  0  0
    3.3347   56.9120   15.4630 C   0  0  0  0  0  0
    4.1731   57.2457   16.5377 C   0  0  0  0  0  0
    4.8703   56.2650   17.2330 C   0  0  0  0  0  0
    2.6214   57.9178   14.7515 N   0  0  0  0  0  0
    2.6743   59.3109   15.2026 C   0  0  0  0  0  0
    1.5114   57.5481   13.8730 C   0  0  0  0  0  0
    4.0256   53.3802   19.6641 C   0  0  0  0  0  0
    3.1648   52.9212   18.9129 O   0  0  0  0  0  0
    3.7309   53.4825   21.1651 C   0  0  0  0  0  0
    0.5604   53.2572   29.8753 H   0  0  0  0  0  0
    0.5394   55.0114   30.0187 H   0  0  0  0  0  0
    1.1045   54.0278   31.3537 H   0  0  0  0  0  0
    3.0089   55.0845   30.0803 H   0  0  0  0  0  0
    2.9545   52.0355   29.7745 H   0  0  0  0  0  0
    4.3996   53.0374   29.7796 H   0  0  0  0  0  0
    3.4263   52.8964   31.2351 H   0  0  0  0  0  0
    2.0213   53.4097   27.7517 H   0  0  0  0  0  0
    1.9080   55.1679   27.8587 H   0  0  0  0  0  0
    6.1541   54.4309   26.5495 H   0  0  0  0  0  0
    6.6915   54.0765   24.1853 H   0  0  0  0  0  0
    2.4731   53.7601   23.3249 H   0  0  0  0  0  0
    1.9719   54.0934   25.6355 H   0  0  0  0  0  0
    5.5047   55.7059   21.6818 H   0  0  0  0  0  0
    6.8602   54.6329   22.0672 H   0  0  0  0  0  0
    6.9170   53.2215   16.2997 H   0  0  0  0  0  0
    8.3331   54.6007   15.1882 H   0  0  0  0  0  0
    9.8538   56.5262   15.2065 H   0  0  0  0  0  0
   10.1800   57.8220   17.2890 H   0  0  0  0  0  0
    9.0313   57.1515   19.3377 H   0  0  0  0  0  0
    7.9230   55.4470   20.4723 H   0  0  0  0  0  0
    3.8239   53.5359   15.5135 H   0  0  0  0  0  0
    2.6003   55.2366   14.2949 H   0  0  0  0  0  0
    4.2981   58.2674   16.8614 H   0  0  0  0  0  0
    5.4911   56.5635   18.0631 H   0  0  0  0  0  0
    3.7034   59.6652   15.2825 H   0  0  0  0  0  0
    2.1497   59.9854   14.5249 H   0  0  0  0  0  0
    2.2218   59.4090   16.1900 H   0  0  0  0  0  0
    0.7246   57.0602   14.4504 H   0  0  0  0  0  0
    1.0720   58.4162   13.3796 H   0  0  0  0  0  0
    1.8329   56.8533   13.0967 H   0  0  0  0  0  0
    3.1254   52.6184   21.4411 H   0  0  0  0  0  0
    3.1085   54.3698   21.2825 H   0  0  0  0  0  0
  1  2  1  0  0  0
  1 39  1  0  0  0
  1 40  1  0  0  0
  1 41  1  0  0  0
  2  3  1  0  0  0
  2  4  1  0  0  0
  2 42  1  0  0  0
  3 43  1  0  0  0
  3 44  1  0  0  0
  3 45  1  0  0  0
  4  5  1  0  0  0
  4 46  1  0  0  0
  4 47  1  0  0  0
  5  6  1  0  0  0
  6 11  2  0  0  0
  6  7  1  0  0  0
  7  8  2  0  0  0
  7 48  1  0  0  0
  8  9  1  0  0  0
  8 49  1  0  0  0
  9 10  2  0  0  0
  9 12  1  0  0  0
 10 11  1  0  0  0
 10 50  1  0  0  0
 11 51  1  0  0  0
 12 13  1  0  0  0
 12 38  1  0  0  0
 12 14  1  0  0  0
 14 15  1  0  0  0
 14 52  1  0  0  0
 14 53  1  0  0  0
 15 26  1  0  0  0
 15 16  2  0  0  0
 16 17  1  0  0  0
 16 36  1  0  0  0
 17 18  1  0  0  0
 17 19  1  0  0  0
 17 27  1  0  0  0
 19 20  1  0  0  0
 19 54  1  0  0  0
 20 25  2  0  0  0
 20 21  1  0  0  0
 21 22  2  0  0  0
 21 55  1  0  0  0
 22 23  1  0  0  0
 22 56  1  0  0  0
 23 24  2  0  0  0
 23 57  1  0  0  0
 24 25  1  0  0  0
 24 58  1  0  0  0
 25 26  1  0  0  0
 26 59  1  0  0  0
 27 32  2  0  0  0
 27 28  1  0  0  0
 28 29  2  0  0  0
 28 60  1  0  0  0
 29 30  1  0  0  0
 29 61  1  0  0  0
 30 31  2  0  0  0
 30 33  1  0  0  0
 31 32  1  0  0  0
 31 62  1  0  0  0
 32 63  1  0  0  0
 33 34  1  0  0  0
 33 35  1  0  0  0
 34 64  1  0  0  0
 34 65  1  0  0  0
 34 66  1  0  0  0
 35 67  1  0  0  0
 35 68  1  0  0  0
 35 69  1  0  0  0
 36 37  2  0  0  0
 36 38  1  0  0  0
 38 70  1  0  0  0
 38 71  1  0  0  0
M  END
> <i_i_glide_confnum>
18

> <i_i_glide_lignum>
5196

> <i_i_glide_posenum>
374

> <i_i_glide_rotatable_bonds>
6

> <i_m_Source_File_Index>
578

> <b_m_subgroup_collapsed>
0

> <r_i_docking_score>
-4.37732

> <r_i_glide_ecoul>
0.568642

> <r_i_glide_eff_state_penalty>
0

> <r_i_glide_einternal>
1.61381

> <r_i_glide_emodel>
-45.57

> <r_i_glide_energy>
-36.0017

> <r_i_glide_erotb>
0.349839

> <r_i_glide_esite>
-0.0442107

> <r_i_glide_evdw>
-36.5704

> <r_i_glide_gscore>
-4.37732

> <r_i_glide_hbond>
0

> <r_i_glide_ligand_efficiency>
-0.121592

> <r_i_glide_ligand_efficiency_ln>
-0.955013

> <r_i_glide_ligand_efficiency_sa>
-0.401489

> <r_i_glide_lipo>
-2.7485

> <r_i_glide_metal>
0

> <r_i_glide_rewards>
-0.191229

> <s_i_glide_gridfile>
wee1_glide-grid

> <s_m_Source_File>
wee1_decoys_glide_SP.sdf

> <s_m_Source_Path>
/Users/zhangxujun/Desktop

> <s_m_entry_id>
853

> <s_m_entry_name>
wee1_decoys_glide_SP.578

> <s_m_subgroup_title>
wee1_decoys_glide_SP

> <s_m_subgroupid>
wee1_decoys_glide_SP


$$$$
