ZINC08300371_3354
                    3D
 Schrodinger Suite 2024-2.
 59 64  0  0  1  0            999 V2000
   -5.0228   50.4693   23.0182 C   0  0  0  0  0  0
   -6.2091   49.9113   22.5516 C   0  0  0  0  0  0
   -7.4219   50.2729   23.1362 C   0  0  0  0  0  0
   -7.4571   51.1816   24.1917 C   0  0  0  0  0  0
   -6.2724   51.7398   24.6651 C   0  0  0  0  0  0
   -5.0539   51.3970   24.0718 C   0  0  0  0  0  0
   -3.8979   51.9878   24.6008 N   0  0  0  0  0  0
   -2.6990   52.1641   23.9980 C   0  0  0  0  0  0
   -2.5624   52.1722   22.7722 O   0  0  0  0  0  0
   -1.6638   52.3851   24.8559 N   0  0  0  0  0  0
   -1.6678   51.8631   26.2425 C   0  0  0  0  0  0
   -0.9237   50.4995   26.2691 C   0  0  2  0  0  0
   -0.9310   50.0971   27.2817 H   0  0  0  0  0  0
    0.5295   50.7573   25.9140 C   0  0  0  0  0  0
    0.5536   51.3190   24.4888 C   0  0  2  0  0  0
    1.5878   51.5878   24.2754 H   0  0  0  0  0  0
   -0.2993   52.6155   24.3258 C   0  0  0  0  0  0
    0.0969   50.2383   23.4863 C   0  0  0  0  0  0
    0.6238   50.1421   22.2337 C   0  0  0  0  0  0
    0.0754   49.1359   21.3348 C   0  0  0  0  0  0
   -0.9197   48.3362   21.7672 C   0  0  0  0  0  0
   -1.4487   48.3849   23.1208 C   0  0  0  0  0  0
   -2.2826   47.5451   23.4671 O   0  0  0  0  0  0
   -0.9306   49.3758   23.9353 N   0  0  0  0  0  0
   -1.4991   49.4062   25.3216 C   0  0  0  0  0  0
    1.6445   50.9665   21.8431 N   0  0  0  0  0  0
    1.7572   51.6379   20.6752 C   0  0  0  0  0  0
    0.9292   51.5739   19.7611 O   0  0  0  0  0  0
    2.9928   52.4968   20.5322 C   0  0  0  0  0  0
    3.5040   52.7648   19.2426 C   0  0  0  0  0  0
    4.6355   53.5730   19.0582 C   0  0  0  0  0  0
    5.2327   54.1090   20.1907 C   0  0  0  0  0  0
    4.7517   53.8647   21.4428 C   0  0  0  0  0  0
    3.6347   53.0634   21.6578 C   0  0  0  0  0  0
    5.5378   54.4926   22.3574 O   0  0  0  0  0  0
    6.4878   55.2291   21.6262 C   0  0  0  0  0  0
    6.3344   54.8990   20.2707 O   0  0  0  0  0  0
   -8.5716   49.7319   22.6790 F   0  0  0  0  0  0
   -4.0880   50.1714   22.5624 H   0  0  0  0  0  0
   -6.1926   49.2024   21.7379 H   0  0  0  0  0  0
   -8.4036   51.4509   24.6381 H   0  0  0  0  0  0
   -6.3104   52.4441   25.4849 H   0  0  0  0  0  0
   -3.9439   52.1970   25.5861 H   0  0  0  0  0  0
   -2.6507   51.8362   26.7129 H   0  0  0  0  0  0
   -1.1305   52.5831   26.8617 H   0  0  0  0  0  0
    1.1026   49.8295   25.9798 H   0  0  0  0  0  0
    0.9864   51.4591   26.6144 H   0  0  0  0  0  0
    0.1605   53.4275   24.8854 H   0  0  0  0  0  0
   -0.3136   52.9714   23.2955 H   0  0  0  0  0  0
    0.4381   49.0507   20.3200 H   0  0  0  0  0  0
   -1.3401   47.6037   21.0952 H   0  0  0  0  0  0
   -2.5864   49.4885   25.2734 H   0  0  0  0  0  0
   -1.3522   48.4293   25.7893 H   0  0  0  0  0  0
    2.4016   51.0714   22.5008 H   0  0  0  0  0  0
    3.0351   52.3346   18.3682 H   0  0  0  0  0  0
    5.0236   53.7572   18.0670 H   0  0  0  0  0  0
    3.2724   52.9063   22.6640 H   0  0  0  0  0  0
    6.3040   56.2959   21.7525 H   0  0  0  0  0  0
    7.4928   54.9627   21.9608 H   0  0  0  0  0  0
  1  6  2  0  0  0
  1  2  1  0  0  0
  1 39  1  0  0  0
  2  3  2  0  0  0
  2 40  1  0  0  0
  3  4  1  0  0  0
  3 38  1  0  0  0
  4  5  2  0  0  0
  4 41  1  0  0  0
  5  6  1  0  0  0
  5 42  1  0  0  0
  6  7  1  0  0  0
  7  8  1  0  0  0
  7 43  1  0  0  0
  8  9  2  0  0  0
  8 10  1  0  0  0
 10 17  1  0  0  0
 10 11  1  0  0  0
 11 12  1  0  0  0
 11 44  1  0  0  0
 11 45  1  0  0  0
 12 13  1  0  0  0
 12 25  1  0  0  0
 12 14  1  0  0  0
 14 15  1  0  0  0
 14 46  1  0  0  0
 14 47  1  0  0  0
 15 16  1  0  0  0
 15 17  1  0  0  0
 15 18  1  0  0  0
 17 48  1  0  0  0
 17 49  1  0  0  0
 18 24  1  0  0  0
 18 19  2  0  0  0
 19 20  1  0  0  0
 19 26  1  0  0  0
 20 21  2  0  0  0
 20 50  1  0  0  0
 21 22  1  0  0  0
 21 51  1  0  0  0
 22 23  2  0  0  0
 22 24  1  0  0  0
 24 25  1  0  0  0
 25 52  1  0  0  0
 25 53  1  0  0  0
 26 27  1  0  0  0
 26 54  1  0  0  0
 27 28  2  0  0  0
 27 29  1  0  0  0
 29 34  2  0  0  0
 29 30  1  0  0  0
 30 31  2  0  0  0
 30 55  1  0  0  0
 31 32  1  0  0  0
 31 56  1  0  0  0
 32 37  1  0  0  0
 32 33  2  0  0  0
 33 34  1  0  0  0
 33 35  1  0  0  0
 34 57  1  0  0  0
 35 36  1  0  0  0
 36 37  1  0  0  0
 36 58  1  0  0  0
 36 59  1  0  0  0
M  END
> <i_i_glide_confnum>
56

> <i_i_glide_lignum>
3355

> <i_i_glide_posenum>
293

> <i_i_glide_rotatable_bonds>
6

> <i_m_Source_File_Index>
1187

> <b_m_subgroup_collapsed>
0

> <r_i_docking_score>
-2.41432

> <r_i_glide_ecoul>
-2.23449

> <r_i_glide_eff_state_penalty>
0

> <r_i_glide_einternal>
8.04886

> <r_i_glide_emodel>
-38.1925

> <r_i_glide_energy>
-35.652

> <r_i_glide_erotb>
0.507558

> <r_i_glide_esite>
-0.0169822

> <r_i_glide_evdw>
-33.4175

> <r_i_glide_gscore>
-2.41432

> <r_i_glide_hbond>
0

> <r_i_glide_ligand_efficiency>
-0.0670644

> <r_i_glide_ligand_efficiency_ln>
-0.526739

> <r_i_glide_ligand_efficiency_sa>
-0.221442

> <r_i_glide_lipo>
-0.500989

> <r_i_glide_metal>
0

> <r_i_glide_rewards>
-0.397855

> <s_i_glide_gridfile>
wee1_glide-grid

> <s_m_Source_File>
wee1_decoys_glide_SP.sdf

> <s_m_Source_Path>
/Users/zhangxujun/Desktop

> <s_m_entry_id>
1462

> <s_m_entry_name>
wee1_decoys_glide_SP.1187

> <s_m_subgroup_title>
wee1_decoys_glide_SP

> <s_m_subgroupid>
wee1_decoys_glide_SP


$$$$
