ZINC13352918_2090
                    3D
 Schrodinger Suite 2024-2.
 67 70  0  0  1  0            999 V2000
    9.5513   53.3223   17.2327 C   0  0  0  0  0  0
    8.2429   52.9167   16.9774 C   0  0  0  0  0  0
    7.1829   53.7036   17.4165 C   0  0  0  0  0  0
    7.4384   54.8926   18.1054 C   0  0  0  0  0  0
    8.7502   55.2982   18.3593 C   0  0  0  0  0  0
    9.8088   54.5109   17.9139 C   0  0  0  0  0  0
    6.0558   55.8854   18.6495 S   0  0  0  0  0  0
    5.1631   56.0288   17.4960 O   0  0  0  0  0  0
    6.5570   57.0651   19.3671 O   0  0  0  0  0  0
    5.1859   54.8483   19.7927 N   0  0  0  0  0  0
    5.4678   54.7101   21.1584 C   0  0  0  0  0  0
    4.5590   53.9782   21.9195 C   0  0  0  0  0  0
    4.7205   53.8728   23.2969 C   0  0  0  0  0  0
    5.7702   54.5343   23.9510 C   0  0  0  0  0  0
    6.7045   55.2174   23.1674 C   0  0  0  0  0  0
    6.5746   55.2899   21.7837 C   0  0  0  0  0  0
    5.9525   54.5014   25.4616 C   0  0  0  0  0  0
    7.1029   54.5272   25.9075 O   0  0  0  0  0  0
    4.8713   54.4722   26.2930 N   0  0  0  0  0  0
    5.0468   54.3500   27.7593 C   0  0  0  0  0  0
    4.0597   53.2731   28.2654 C   0  0  0  0  0  0
    2.5961   53.5321   27.8046 C   0  0  0  0  0  0
    2.5631   53.7015   26.2617 C   0  0  0  0  0  0
    3.5082   54.8455   25.8779 C   0  0  0  0  0  0
    1.6423   52.3968   28.2520 C   0  0  0  0  0  0
    1.9192   51.6945   29.2246 O   0  0  0  0  0  0
    0.4878   52.2825   27.5710 N   0  0  0  0  0  0
   -0.5459   51.2577   27.7225 C   0  0  0  0  0  0
   -0.9120   50.5978   26.3652 C   0  0  0  0  0  0
   -1.4443   51.6164   25.3245 C   0  0  0  0  0  0
   -1.9007   50.9098   24.0304 C   0  0  0  0  0  0
   -0.7706   50.0462   23.4263 C   0  0  0  0  0  0
   -0.1503   49.0794   24.4589 C   0  0  0  0  0  0
    0.2738   49.8218   25.7412 C   0  0  0  0  0  0
   10.3737   52.7049   16.9028 H   0  0  0  0  0  0
    8.0488   51.9916   16.4532 H   0  0  0  0  0  0
    6.1676   53.3851   17.2247 H   0  0  0  0  0  0
    8.9547   56.2164   18.8911 H   0  0  0  0  0  0
   10.8271   54.8201   18.1019 H   0  0  0  0  0  0
    4.4138   54.3214   19.4135 H   0  0  0  0  0  0
    3.7104   53.5025   21.4493 H   0  0  0  0  0  0
    4.0005   53.2885   23.8449 H   0  0  0  0  0  0
    7.5227   55.7341   23.6388 H   0  0  0  0  0  0
    7.3267   55.8268   21.2303 H   0  0  0  0  0  0
    4.8107   55.2969   28.2336 H   0  0  0  0  0  0
    6.0610   54.0576   28.0419 H   0  0  0  0  0  0
    4.1436   53.2629   29.3530 H   0  0  0  0  0  0
    4.4491   52.3575   27.8387 H   0  0  0  0  0  0
    2.1946   54.4233   28.2906 H   0  0  0  0  0  0
    2.8994   52.8064   25.7369 H   0  0  0  0  0  0
    1.5810   54.0169   25.9065 H   0  0  0  0  0  0
    3.2363   55.6956   26.4870 H   0  0  0  0  0  0
    3.4005   55.2110   24.8579 H   0  0  0  0  0  0
    0.3070   52.9663   26.8542 H   0  0  0  0  0  0
   -1.4183   51.7506   28.1518 H   0  0  0  0  0  0
   -0.2060   50.4966   28.4251 H   0  0  0  0  0  0
   -1.7084   49.8725   26.5410 H   0  0  0  0  0  0
   -0.6894   52.3724   25.1028 H   0  0  0  0  0  0
   -2.2770   52.1754   25.7539 H   0  0  0  0  0  0
   -2.2387   51.6473   23.3015 H   0  0  0  0  0  0
   -2.7644   50.2778   24.2464 H   0  0  0  0  0  0
    0.0128   50.7002   23.0368 H   0  0  0  0  0  0
   -1.1473   49.4836   22.5710 H   0  0  0  0  0  0
    0.7098   48.5697   24.0237 H   0  0  0  0  0  0
   -0.8692   48.2986   24.7132 H   0  0  0  0  0  0
    0.6653   49.1034   26.4641 H   0  0  0  0  0  0
    1.1041   50.4978   25.5363 H   0  0  0  0  0  0
  1  6  2  0  0  0
  1  2  1  0  0  0
  1 35  1  0  0  0
  2  3  2  0  0  0
  2 36  1  0  0  0
  3  4  1  0  0  0
  3 37  1  0  0  0
  4  5  2  0  0  0
  4  7  1  0  0  0
  5  6  1  0  0  0
  5 38  1  0  0  0
  6 39  1  0  0  0
  7  8  2  0  0  0
  7  9  2  0  0  0
  7 10  1  0  0  0
 10 11  1  0  0  0
 10 40  1  0  0  0
 11 16  2  0  0  0
 11 12  1  0  0  0
 12 13  2  0  0  0
 12 41  1  0  0  0
 13 14  1  0  0  0
 13 42  1  0  0  0
 14 15  2  0  0  0
 14 17  1  0  0  0
 15 16  1  0  0  0
 15 43  1  0  0  0
 16 44  1  0  0  0
 17 18  2  0  0  0
 17 19  1  0  0  0
 19 24  1  0  0  0
 19 20  1  0  0  0
 20 21  1  0  0  0
 20 45  1  0  0  0
 20 46  1  0  0  0
 21 22  1  0  0  0
 21 47  1  0  0  0
 21 48  1  0  0  0
 22 23  1  0  0  0
 22 25  1  0  0  0
 22 49  1  0  0  0
 23 24  1  0  0  0
 23 50  1  0  0  0
 23 51  1  0  0  0
 24 52  1  0  0  0
 24 53  1  0  0  0
 25 26  2  0  0  0
 25 27  1  0  0  0
 27 28  1  0  0  0
 27 54  1  0  0  0
 28 29  1  0  0  0
 28 55  1  0  0  0
 28 56  1  0  0  0
 29 34  1  0  0  0
 29 30  1  0  0  0
 29 57  1  0  0  0
 30 31  1  0  0  0
 30 58  1  0  0  0
 30 59  1  0  0  0
 31 32  1  0  0  0
 31 60  1  0  0  0
 31 61  1  0  0  0
 32 33  1  0  0  0
 32 62  1  0  0  0
 32 63  1  0  0  0
 33 34  1  0  0  0
 33 64  1  0  0  0
 33 65  1  0  0  0
 34 66  1  0  0  0
 34 67  1  0  0  0
M  END
> <i_i_glide_confnum>
73

> <i_i_glide_lignum>
2091

> <i_i_glide_posenum>
374

> <i_i_glide_rotatable_bonds>
9

> <i_m_Source_File_Index>
2742

> <b_m_subgroup_collapsed>
0

> <r_i_docking_score>
-6.41068

> <r_i_glide_ecoul>
-7.84355

> <r_i_glide_eff_state_penalty>
0

> <r_i_glide_einternal>
5.66033

> <r_i_glide_emodel>
-68.3282

> <r_i_glide_energy>
-53.0538

> <r_i_glide_erotb>
0.694409

> <r_i_glide_esite>
-0.0126969

> <r_i_glide_evdw>
-45.2103

> <r_i_glide_gscore>
-6.41068

> <r_i_glide_hbond>
-0.355448

> <r_i_glide_ligand_efficiency>
-0.188549

> <r_i_glide_ligand_efficiency_ln>
-1.4163

> <r_i_glide_ligand_efficiency_sa>
-0.610827

> <r_i_glide_lipo>
-2.73765

> <r_i_glide_metal>
0

> <r_i_glide_rewards>
-0.562241

> <s_i_glide_gridfile>
wee1_glide-grid

> <s_m_Source_File>
wee1_decoys_glide_SP.sdf

> <s_m_Source_Path>
/Users/zhangxujun/Desktop

> <s_m_entry_id>
3017

> <s_m_entry_name>
wee1_decoys_glide_SP.2742

> <s_m_subgroup_title>
wee1_decoys_glide_SP

> <s_m_subgroupid>
wee1_decoys_glide_SP


$$$$
