ZINC21323641_3533
                    3D
 Schrodinger Suite 2024-2.
 64 69  0  0  1  0            999 V2000
   -0.1064   52.4586   29.8667 C   0  0  0  0  0  0
    0.4133   52.5629   28.4211 C   0  0  0  0  0  0
   -0.2711   52.2445   27.3879 N   0  0  0  0  0  0
   -1.5481   51.6861   27.4948 N   0  0  0  0  0  0
   -2.3774   51.5452   26.4082 C   0  0  0  0  0  0
   -3.2570   52.4300   26.0196 N   0  0  0  0  0  0
   -3.8380   51.9260   24.8583 N   0  0  0  0  0  0
   -3.2552   50.7846   24.5779 C   0  0  0  0  0  0
   -2.3406   50.4544   25.5644 N   0  0  0  0  0  0
   -1.5518   49.3132   25.6818 N   0  0  0  0  0  0
   -3.6979   49.8161   23.1639 S   0  0  0  0  0  0
   -2.0332   49.5407   22.4540 C   0  0  0  0  0  0
   -1.3522   50.8485   22.0013 C   0  0  0  0  0  0
   -2.0007   51.8841   21.8271 O   0  0  0  0  0  0
    0.1965   50.9036   22.1112 C   0  0  2  0  0  0
    0.8145   52.0289   21.2094 C   0  0  2  0  0  0
    0.6488   51.7158   19.6939 C   0  0  0  0  0  0
    1.3660   50.3840   19.3550 C   0  0  1  0  0  0
    2.8725   50.5190   19.6910 C   0  0  0  0  0  0
    3.0494   50.8248   21.2029 C   0  0  1  0  0  0
    2.3268   52.1570   21.5378 C   0  0  0  0  0  0
    2.4216   49.6809   22.0409 C   0  0  0  0  0  0
    0.9096   49.5586   21.7166 C   0  0  2  0  0  0
    0.7521   49.2379   20.2007 C   0  0  0  0  0  0
    1.7969   53.0835   28.2473 C   0  0  0  0  0  0
    2.7152   53.1128   29.3050 C   0  0  0  0  0  0
    4.0165   53.5752   29.1356 C   0  0  0  0  0  0
    4.4633   54.0230   27.8734 C   0  0  0  0  0  0
    5.7915   54.4653   27.6594 C   0  0  0  0  0  0
    6.1931   54.8777   26.3909 C   0  0  0  0  0  0
    5.3010   54.8781   25.3253 C   0  0  0  0  0  0
    3.9845   54.4600   25.5074 C   0  0  0  0  0  0
    3.5473   54.0165   26.7814 C   0  0  0  0  0  0
    2.2284   53.5554   26.9944 C   0  0  0  0  0  0
    0.4366   51.6969   30.4221 H   0  0  0  0  0  0
   -0.0137   53.4101   30.3882 H   0  0  0  0  0  0
   -1.1534   52.1719   29.9357 H   0  0  0  0  0  0
   -1.8000   51.3708   28.4208 H   0  0  0  0  0  0
   -0.5750   49.5647   25.6197 H   0  0  0  0  0  0
   -1.6961   48.8970   26.6023 H   0  0  0  0  0  0
   -1.4058   49.0142   23.1686 H   0  0  0  0  0  0
   -2.1465   48.8961   21.5820 H   0  0  0  0  0  0
    0.4106   51.1427   23.1526 H   0  0  0  0  0  0
    0.3381   52.9828   21.4276 H   0  0  0  0  0  0
   -0.4057   51.6576   19.4217 H   0  0  0  0  0  0
    1.0633   52.5288   19.0941 H   0  0  0  0  0  0
    1.2546   50.1623   18.2919 H   0  0  0  0  0  0
    3.4025   49.6052   19.4179 H   0  0  0  0  0  0
    3.3239   51.3122   19.0912 H   0  0  0  0  0  0
    4.1122   50.9044   21.4344 H   0  0  0  0  0  0
    2.7666   52.9812   20.9716 H   0  0  0  0  0  0
    2.4648   52.4103   22.5904 H   0  0  0  0  0  0
    2.5683   49.8638   23.1068 H   0  0  0  0  0  0
    2.9252   48.7368   21.8296 H   0  0  0  0  0  0
    0.5186   48.7272   22.3026 H   0  0  0  0  0  0
    1.2485   48.2970   19.9616 H   0  0  0  0  0  0
   -0.2958   49.0937   19.9380 H   0  0  0  0  0  0
    2.4377   52.7626   30.2892 H   0  0  0  0  0  0
    4.7005   53.5764   29.9699 H   0  0  0  0  0  0
    6.4922   54.4780   28.4823 H   0  0  0  0  0  0
    7.2048   55.2016   26.2319 H   0  0  0  0  0  0
    5.6297   55.2015   24.3485 H   0  0  0  0  0  0
    3.2951   54.4593   24.6762 H   0  0  0  0  0  0
    1.5542   53.5575   26.1469 H   0  0  0  0  0  0
  1  2  1  0  0  0
  1 35  1  0  0  0
  1 36  1  0  0  0
  1 37  1  0  0  0
  2  3  2  0  0  0
  2 25  1  0  0  0
  3  4  1  0  0  0
  4  5  1  0  0  0
  4 38  1  0  0  0
  5  9  1  0  0  0
  5  6  2  0  0  0
  6  7  1  0  0  0
  7  8  2  0  0  0
  8  9  1  0  0  0
  8 11  1  0  0  0
  9 10  1  0  0  0
 10 39  1  0  0  0
 10 40  1  0  0  0
 11 12  1  0  0  0
 12 13  1  0  0  0
 12 41  1  0  0  0
 12 42  1  0  0  0
 13 14  2  0  0  0
 13 15  1  0  0  0
 15 23  1  0  0  0
 15 16  1  0  0  0
 15 43  1  0  0  0
 16 21  1  0  0  0
 16 17  1  0  0  0
 16 44  1  0  0  0
 17 18  1  0  0  0
 17 45  1  0  0  0
 17 46  1  0  0  0
 18 24  1  0  0  0
 18 19  1  0  0  0
 18 47  1  0  0  0
 19 20  1  0  0  0
 19 48  1  0  0  0
 19 49  1  0  0  0
 20 21  1  0  0  0
 20 22  1  0  0  0
 20 50  1  0  0  0
 21 51  1  0  0  0
 21 52  1  0  0  0
 22 23  1  0  0  0
 22 53  1  0  0  0
 22 54  1  0  0  0
 23 24  1  0  0  0
 23 55  1  0  0  0
 24 56  1  0  0  0
 24 57  1  0  0  0
 25 34  2  0  0  0
 25 26  1  0  0  0
 26 27  2  0  0  0
 26 58  1  0  0  0
 27 28  1  0  0  0
 27 59  1  0  0  0
 28 33  2  0  0  0
 28 29  1  0  0  0
 29 30  2  0  0  0
 29 60  1  0  0  0
 30 31  1  0  0  0
 30 61  1  0  0  0
 31 32  2  0  0  0
 31 62  1  0  0  0
 32 33  1  0  0  0
 32 63  1  0  0  0
 33 34  1  0  0  0
 34 64  1  0  0  0
M  END
> <i_i_glide_confnum>
101

> <i_i_glide_lignum>
3534

> <i_i_glide_posenum>
175

> <i_i_glide_rotatable_bonds>
7

> <i_m_Source_File_Index>
2524

> <b_m_subgroup_collapsed>
0

> <r_i_docking_score>
-6.14801

> <r_i_glide_ecoul>
-5.03055

> <r_i_glide_eff_state_penalty>
0

> <r_i_glide_einternal>
2.18928

> <r_i_glide_emodel>
-65.461

> <r_i_glide_energy>
-47.4887

> <r_i_glide_erotb>
0.449165

> <r_i_glide_esite>
-0.245338

> <r_i_glide_evdw>
-42.4582

> <r_i_glide_gscore>
-6.14801

> <r_i_glide_hbond>
-0.16

> <r_i_glide_ligand_efficiency>
-0.180824

> <r_i_glide_ligand_efficiency_ln>
-1.35827

> <r_i_glide_ligand_efficiency_sa>
-0.585799

> <r_i_glide_lipo>
-2.87142

> <r_i_glide_metal>
0

> <r_i_glide_rewards>
-0.44293

> <s_i_glide_gridfile>
wee1_glide-grid

> <s_m_Source_File>
wee1_decoys_glide_SP.sdf

> <s_m_Source_Path>
/Users/zhangxujun/Desktop

> <s_m_entry_id>
2799

> <s_m_entry_name>
wee1_decoys_glide_SP.2524

> <s_m_subgroup_title>
wee1_decoys_glide_SP

> <s_m_subgroupid>
wee1_decoys_glide_SP


$$$$
