ZINC09121155_818
                    3D
 Schrodinger Suite 2024-2.
 65 67  0  0  1  0            999 V2000
    1.0371   52.6964   26.1651 C   0  0  0  0  0  0
    0.0639   51.8911   25.2678 C   0  0  0  0  0  0
   -0.4686   50.7178   26.1370 C   0  0  0  0  0  0
   -1.1428   52.7750   24.8761 C   0  0  0  0  0  0
    0.7750   51.4200   23.9740 C   0  0  0  0  0  0
    0.6965   50.0930   23.5274 C   0  0  0  0  0  0
    1.3058   49.6974   22.3398 C   0  0  0  0  0  0
    2.0346   50.6076   21.5638 C   0  0  0  0  0  0
    2.1465   51.9323   22.0170 C   0  0  0  0  0  0
    1.5010   52.3354   23.1934 C   0  0  0  0  0  0
    2.8588   52.8980   21.2900 N   0  0  0  0  0  0
    4.1927   52.8603   21.0795 C   0  0  0  0  0  0
    4.9447   52.0512   21.6267 O   0  0  0  0  0  0
    4.7711   53.9136   20.1143 C   0  0  0  0  0  0
    5.6260   53.2877   19.1313 N   0  0  0  0  0  0
    6.6962   53.9087   18.4684 C   0  0  0  0  0  0
    7.4734   54.9057   19.0746 C   0  0  0  0  0  0
    8.5629   55.4567   18.3985 C   0  0  0  0  0  0
    8.8616   55.0417   17.1027 C   0  0  0  0  0  0
    8.0753   54.0704   16.4738 C   0  0  0  0  0  0
    7.0167   53.4806   17.1769 C   0  0  0  0  0  0
    8.4096   53.6067   14.7747 S   0  0  0  0  0  0
    7.1717   53.0258   14.2450 O   0  0  0  0  0  0
    9.0368   54.7743   14.1423 O   0  0  0  0  0  0
    9.6255   52.3215   14.8752 N   0  0  0  0  0  0
   11.0511   52.6642   15.1211 C   0  0  0  0  0  0
   11.5406   52.1561   16.4910 C   0  0  0  0  0  0
   11.2119   50.6646   16.6914 C   0  0  0  0  0  0
    9.7076   50.3958   16.4967 C   0  0  0  0  0  0
    9.2003   50.9228   15.1387 C   0  0  0  0  0  0
    2.6334   50.2734   20.3602 O   0  0  0  0  0  0
    2.4053   48.9911   19.7856 C   0  0  0  0  0  0
    0.5551   53.0125   27.0911 H   0  0  0  0  0  0
    1.4030   53.6017   25.6843 H   0  0  0  0  0  0
    1.9043   52.0990   26.4452 H   0  0  0  0  0  0
   -1.2522   50.1528   25.6313 H   0  0  0  0  0  0
    0.3225   50.0161   26.4061 H   0  0  0  0  0  0
   -0.9059   51.0723   27.0694 H   0  0  0  0  0  0
   -1.8468   52.2277   24.2467 H   0  0  0  0  0  0
   -1.6970   53.1103   25.7531 H   0  0  0  0  0  0
   -0.8360   53.6604   24.3197 H   0  0  0  0  0  0
    0.1488   49.3466   24.0808 H   0  0  0  0  0  0
    1.1931   48.6695   22.0320 H   0  0  0  0  0  0
    1.5721   53.3677   23.4961 H   0  0  0  0  0  0
    2.3175   53.6339   20.8576 H   0  0  0  0  0  0
    3.9411   54.4263   19.6269 H   0  0  0  0  0  0
    5.2619   54.6664   20.7294 H   0  0  0  0  0  0
    5.2656   52.4451   18.6800 H   0  0  0  0  0  0
    7.2644   55.2381   20.0796 H   0  0  0  0  0  0
    9.1734   56.2094   18.8784 H   0  0  0  0  0  0
    9.6965   55.4888   16.5782 H   0  0  0  0  0  0
    6.4230   52.7098   16.7056 H   0  0  0  0  0  0
   11.6417   52.2586   14.2983 H   0  0  0  0  0  0
   11.1656   53.7463   15.0677 H   0  0  0  0  0  0
   12.6124   52.3241   16.5886 H   0  0  0  0  0  0
   11.0744   52.7452   17.2838 H   0  0  0  0  0  0
   11.5278   50.3369   17.6805 H   0  0  0  0  0  0
   11.7828   50.0669   15.9805 H   0  0  0  0  0  0
    9.1446   50.8720   17.3022 H   0  0  0  0  0  0
    9.5059   49.3273   16.5818 H   0  0  0  0  0  0
    8.1126   50.8898   15.1171 H   0  0  0  0  0  0
    9.5392   50.3036   14.3079 H   0  0  0  0  0  0
    2.9991   48.8990   18.8759 H   0  0  0  0  0  0
    2.7037   48.1832   20.4546 H   0  0  0  0  0  0
    1.3564   48.8604   19.5182 H   0  0  0  0  0  0
  1  2  1  0  0  0
  1 33  1  0  0  0
  1 34  1  0  0  0
  1 35  1  0  0  0
  2  3  1  0  0  0
  2  4  1  0  0  0
  2  5  1  0  0  0
  3 36  1  0  0  0
  3 37  1  0  0  0
  3 38  1  0  0  0
  4 39  1  0  0  0
  4 40  1  0  0  0
  4 41  1  0  0  0
  5 10  2  0  0  0
  5  6  1  0  0  0
  6  7  2  0  0  0
  6 42  1  0  0  0
  7  8  1  0  0  0
  7 43  1  0  0  0
  8  9  2  0  0  0
  8 31  1  0  0  0
  9 10  1  0  0  0
  9 11  1  0  0  0
 10 44  1  0  0  0
 11 12  1  0  0  0
 11 45  1  0  0  0
 12 13  2  0  0  0
 12 14  1  0  0  0
 14 15  1  0  0  0
 14 46  1  0  0  0
 14 47  1  0  0  0
 15 16  1  0  0  0
 15 48  1  0  0  0
 16 21  2  0  0  0
 16 17  1  0  0  0
 17 18  2  0  0  0
 17 49  1  0  0  0
 18 19  1  0  0  0
 18 50  1  0  0  0
 19 20  2  0  0  0
 19 51  1  0  0  0
 20 21  1  0  0  0
 20 22  1  0  0  0
 21 52  1  0  0  0
 22 23  2  0  0  0
 22 24  2  0  0  0
 22 25  1  0  0  0
 25 30  1  0  0  0
 25 26  1  0  0  0
 26 27  1  0  0  0
 26 53  1  0  0  0
 26 54  1  0  0  0
 27 28  1  0  0  0
 27 55  1  0  0  0
 27 56  1  0  0  0
 28 29  1  0  0  0
 28 57  1  0  0  0
 28 58  1  0  0  0
 29 30  1  0  0  0
 29 59  1  0  0  0
 29 60  1  0  0  0
 30 61  1  0  0  0
 30 62  1  0  0  0
 31 32  1  0  0  0
 32 63  1  0  0  0
 32 64  1  0  0  0
 32 65  1  0  0  0
M  END
> <i_i_glide_confnum>
16

> <i_i_glide_lignum>
819

> <i_i_glide_posenum>
336

> <i_i_glide_rotatable_bonds>
9

> <i_m_Source_File_Index>
669

> <b_m_subgroup_collapsed>
0

> <r_i_docking_score>
-4.0578

> <r_i_glide_ecoul>
-6.52179

> <r_i_glide_eff_state_penalty>
0

> <r_i_glide_einternal>
5.52408

> <r_i_glide_emodel>
-48.0817

> <r_i_glide_energy>
-39.169

> <r_i_glide_erotb>
0.66681

> <r_i_glide_esite>
-0.0739756

> <r_i_glide_evdw>
-32.6472

> <r_i_glide_gscore>
-4.0578

> <r_i_glide_hbond>
-0.419384

> <r_i_glide_ligand_efficiency>
-0.126806

> <r_i_glide_ligand_efficiency_ln>
-0.908652

> <r_i_glide_ligand_efficiency_sa>
-0.402585

> <r_i_glide_lipo>
-1.26092

> <r_i_glide_metal>
0

> <r_i_glide_rewards>
-0.359707

> <s_i_glide_gridfile>
wee1_glide-grid

> <s_m_Source_File>
wee1_decoys_glide_SP.sdf

> <s_m_Source_Path>
/Users/zhangxujun/Desktop

> <s_m_entry_id>
944

> <s_m_entry_name>
wee1_decoys_glide_SP.669

> <s_m_subgroup_title>
wee1_decoys_glide_SP

> <s_m_subgroupid>
wee1_decoys_glide_SP


$$$$
