ZINC39656934_3674
                    3D
 Schrodinger Suite 2024-2.
 62 65  0  0  1  0            999 V2000
   -1.4890   50.8445   21.9872 C   0  0  0  0  0  0
   -1.0452   51.9507   22.9568 C   0  0  1  0  0  0
   -1.3426   52.8969   22.5007 H   0  0  0  0  0  0
   -1.7760   51.8162   24.2963 C   0  0  0  0  0  0
   -1.2653   50.9966   25.3106 C   0  0  0  0  0  0
   -1.9553   50.8580   26.5091 C   0  0  0  0  0  0
   -3.1545   51.5372   26.7009 C   0  0  0  0  0  0
   -3.6598   52.3744   25.7082 C   0  0  0  0  0  0
   -2.9691   52.5167   24.5071 C   0  0  0  0  0  0
   -4.1161   51.2966   28.3266 Br  0  0  0  0  0  0
    0.4156   51.9501   23.0727 N   0  0  0  0  0  0
    1.1759   52.9950   23.4437 C   0  0  0  0  0  0
    0.7042   54.0969   23.6926 O   0  0  0  0  0  0
    2.6927   52.7174   23.5677 C   0  0  2  0  0  0
    2.7044   51.7751   24.1139 H   0  0  0  0  0  0
    3.3733   53.8123   24.4088 C   0  0  0  0  0  0
    4.7737   53.7831   23.9660 N   0  0  0  0  0  0
    4.9664   53.0302   22.7149 C   0  0  0  0  0  0
    3.5236   52.7107   22.2508 C   0  0  0  0  0  0
    3.2877   51.3936   21.4800 C   0  0  0  0  0  0
    4.1516   51.2979   20.2276 C   0  0  0  0  0  0
    3.8206   52.4809   19.2891 N   0  3  0  0  0  0
    3.9143   53.8672   19.9609 C   0  0  0  0  0  0
    3.1044   53.8339   21.2814 C   0  0  0  0  0  0
    5.8108   54.2883   24.6797 C   0  0  0  0  0  0
    6.9804   54.0968   24.3484 O   0  0  0  0  0  0
    5.5465   55.1934   25.9024 C   0  0  0  0  0  0
    4.9084   54.4975   27.1041 C   0  0  0  0  0  0
    5.5912   53.4973   27.7926 C   0  0  0  0  0  0
    4.9835   52.8810   28.8807 C   0  0  0  0  0  0
    3.7082   53.2547   29.2893 C   0  0  0  0  0  0
    3.0256   54.2603   28.6142 C   0  0  0  0  0  0
    3.6299   54.8778   27.5236 C   0  0  0  0  0  0
    2.9768   52.4640   30.6376 Cl  0  0  0  0  0  0
   -2.5672   50.8674   21.8246 H   0  0  0  0  0  0
   -1.0096   50.9565   21.0141 H   0  0  0  0  0  0
   -1.2356   49.8549   22.3704 H   0  0  0  0  0  0
   -0.3471   50.4453   25.1671 H   0  0  0  0  0  0
   -1.5730   50.2047   27.2812 H   0  0  0  0  0  0
   -4.5894   52.9010   25.8660 H   0  0  0  0  0  0
   -3.3720   53.1598   23.7376 H   0  0  0  0  0  0
    0.8630   51.0551   22.9485 H   0  0  0  0  0  0
    3.2312   53.5571   25.4549 H   0  0  0  0  0  0
    2.9874   54.8011   24.1529 H   0  0  0  0  0  0
    5.5669   53.5605   21.9799 H   0  0  0  0  0  0
    5.5040   52.0970   22.8818 H   0  0  0  0  0  0
    3.5149   50.5378   22.1151 H   0  0  0  0  0  0
    2.2376   51.2661   21.2133 H   0  0  0  0  0  0
    5.2217   51.3359   20.4245 H   0  0  0  0  0  0
    3.9043   50.3888   19.6798 H   0  0  0  0  0  0
    4.4324   52.4089   18.4831 H   0  0  0  0  0  0
    4.9760   54.0824   20.0828 H   0  0  0  0  0  0
    3.5047   54.5818   19.2448 H   0  0  0  0  0  0
    2.0525   53.6958   21.0720 H   0  0  0  0  0  0
    3.1756   54.8127   21.7602 H   0  0  0  0  0  0
    4.9357   56.0333   25.5781 H   0  0  0  0  0  0
    6.4877   55.6402   26.2269 H   0  0  0  0  0  0
    6.5795   53.1886   27.4823 H   0  0  0  0  0  0
    5.5029   52.0965   29.3964 H   0  0  0  0  0  0
    2.0345   54.5558   28.9264 H   0  0  0  0  0  0
    3.1042   55.6508   26.9901 H   0  0  0  0  0  0
    2.8843   52.3508   18.9331 H   0  0  0  0  0  0
  1  2  1  0  0  0
  1 35  1  0  0  0
  1 36  1  0  0  0
  1 37  1  0  0  0
  2  3  1  0  0  0
  2  4  1  0  0  0
  2 11  1  0  0  0
  4  9  2  0  0  0
  4  5  1  0  0  0
  5  6  2  0  0  0
  5 38  1  0  0  0
  6  7  1  0  0  0
  6 39  1  0  0  0
  7  8  2  0  0  0
  7 10  1  0  0  0
  8  9  1  0  0  0
  8 40  1  0  0  0
  9 41  1  0  0  0
 11 12  1  0  0  0
 11 42  1  0  0  0
 12 13  2  0  0  0
 12 14  1  0  0  0
 14 15  1  0  0  0
 14 19  1  0  0  0
 14 16  1  0  0  0
 16 17  1  0  0  0
 16 43  1  0  0  0
 16 44  1  0  0  0
 17 18  1  0  0  0
 17 25  1  0  0  0
 18 19  1  0  0  0
 18 45  1  0  0  0
 18 46  1  0  0  0
 19 24  1  0  0  0
 19 20  1  0  0  0
 20 21  1  0  0  0
 20 47  1  0  0  0
 20 48  1  0  0  0
 21 22  1  0  0  0
 21 49  1  0  0  0
 21 50  1  0  0  0
 22 23  1  0  0  0
 22 51  1  0  0  0
 22 62  1  0  0  0
 23 24  1  0  0  0
 23 52  1  0  0  0
 23 53  1  0  0  0
 24 54  1  0  0  0
 24 55  1  0  0  0
 25 26  2  0  0  0
 25 27  1  0  0  0
 27 28  1  0  0  0
 27 56  1  0  0  0
 27 57  1  0  0  0
 28 33  2  0  0  0
 28 29  1  0  0  0
 29 30  2  0  0  0
 29 58  1  0  0  0
 30 31  1  0  0  0
 30 59  1  0  0  0
 31 32  2  0  0  0
 31 34  1  0  0  0
 32 33  1  0  0  0
 32 60  1  0  0  0
 33 61  1  0  0  0
M  CHG  1  22   1
M  END
> <i_i_glide_confnum>
120

> <i_i_glide_lignum>
3675

> <i_i_glide_posenum>
206

> <i_i_glide_rotatable_bonds>
7

> <i_m_Source_File_Index>
4024

> <b_m_subgroup_collapsed>
0

> <r_i_docking_score>
-4.94029

> <r_i_glide_ecoul>
-1.90524

> <r_i_glide_eff_state_penalty>
0

> <r_i_glide_einternal>
3.13398

> <r_i_glide_emodel>
-46.7411

> <r_i_glide_energy>
-33.541

> <r_i_glide_erotb>
0.456147

> <r_i_glide_esite>
-0.0632649

> <r_i_glide_evdw>
-31.6358

> <r_i_glide_gscore>
-4.94029

> <r_i_glide_hbond>
-0.0241124

> <r_i_glide_ligand_efficiency>
-0.154384

> <r_i_glide_ligand_efficiency_ln>
-1.10627

> <r_i_glide_ligand_efficiency_sa>
-0.490139

> <r_i_glide_lipo>
-2.3744

> <r_i_glide_metal>
0

> <r_i_glide_rewards>
-1.06709

> <s_i_glide_gridfile>
wee1_glide-grid

> <s_m_Source_File>
wee1_decoys_glide_SP.sdf

> <s_m_Source_Path>
/Users/zhangxujun/Desktop

> <s_m_entry_id>
4299

> <s_m_entry_name>
wee1_decoys_glide_SP.4024

> <s_m_subgroup_title>
wee1_decoys_glide_SP

> <s_m_subgroupid>
wee1_decoys_glide_SP


$$$$
