ZINC16080235_1171
                    3D
 Schrodinger Suite 2024-2.
 66 69  0  0  1  0            999 V2000
    6.0949   54.0280   28.3883 C   0  0  0  0  0  0
    4.2973   53.7336   28.8835 S   0  0  0  0  0  0
    3.8173   54.8967   29.6329 O   0  0  0  0  0  0
    4.2037   52.3904   29.4677 O   0  0  0  0  0  0
    3.3794   53.7057   27.3451 C   0  0  0  0  0  0
    2.2487   52.8971   27.2513 C   0  0  0  0  0  0
    1.5711   52.7890   26.0397 C   0  0  0  0  0  0
    2.0404   53.4683   24.9120 C   0  0  0  0  0  0
    3.1084   54.3589   25.0405 C   0  0  0  0  0  0
    3.7884   54.4706   26.2503 C   0  0  0  0  0  0
    1.3510   53.2832   23.5643 C   0  0  0  0  0  0
    1.8719   52.1434   22.7624 N   0  0  0  0  0  0
    2.8689   52.4330   21.6902 C   0  0  2  0  0  0
    3.7122   53.7432   21.7695 C   0  0  0  0  0  0
    4.6764   53.9755   20.5856 C   0  0  0  0  0  0
    3.3755   52.3614   19.1631 C   0  0  0  0  0  0
    2.3250   52.1709   20.2590 C   0  0  0  0  0  0
    4.8152   54.1209   18.0498 C   0  0  0  0  0  0
    4.8177   55.5956   17.6817 C   0  0  0  0  0  0
    5.9174   56.4056   17.9861 C   0  0  0  0  0  0
    5.9247   57.7430   17.5866 C   0  0  0  0  0  0
    4.8382   58.2599   16.8819 C   0  0  0  0  0  0
    3.7354   57.4606   16.5874 C   0  0  0  0  0  0
    3.7261   56.1273   16.9881 C   0  0  0  0  0  0
    1.4974   50.8412   22.9751 C   0  0  0  0  0  0
    2.0351   49.8925   22.3951 O   0  0  0  0  0  0
    0.4216   50.6592   23.7720 N   0  0  0  0  0  0
   -0.3196   49.4720   23.8709 C   0  0  0  0  0  0
   -0.5019   48.9048   25.1365 C   0  0  0  0  0  0
   -1.2954   47.7674   25.2816 C   0  0  0  0  0  0
   -1.9137   47.1954   24.1734 C   0  0  0  0  0  0
   -1.7436   47.7612   22.9099 C   0  0  0  0  0  0
   -0.9567   48.8997   22.7544 C   0  0  0  0  0  0
   -0.8411   49.4543   21.5248 F   0  0  0  0  0  0
   -2.6881   46.0971   24.3215 F   0  0  0  0  0  0
    6.7232   53.9535   29.2741 H   0  0  0  0  0  0
    6.3872   53.2726   27.6588 H   0  0  0  0  0  0
    6.1956   55.0289   27.9744 H   0  0  0  0  0  0
    1.9113   52.3273   28.1052 H   0  0  0  0  0  0
    0.7168   52.1336   25.9826 H   0  0  0  0  0  0
    3.4275   54.9549   24.2013 H   0  0  0  0  0  0
    4.6323   55.1423   26.3214 H   0  0  0  0  0  0
    1.4029   54.2117   22.9974 H   0  0  0  0  0  0
    0.2821   53.1631   23.7487 H   0  0  0  0  0  0
    3.6369   51.6635   21.8098 H   0  0  0  0  0  0
    3.0654   54.6179   21.8088 H   0  0  0  0  0  0
    4.3175   53.7156   22.6722 H   0  0  0  0  0  0
    5.5028   53.2623   20.5787 H   0  0  0  0  0  0
    5.0702   54.9949   20.5977 H   0  0  0  0  0  0
    4.2310   51.6967   19.2824 H   0  0  0  0  0  0
    2.9242   52.2241   18.1781 H   0  0  0  0  0  0
    1.9460   51.1508   20.1719 H   0  0  0  0  0  0
    1.4812   52.8366   20.0625 H   0  0  0  0  0  0
    5.8108   53.7362   18.2788 H   0  0  0  0  0  0
    4.4336   53.5487   17.2011 H   0  0  0  0  0  0
    6.7679   56.0032   18.5187 H   0  0  0  0  0  0
    6.7687   58.3828   17.8077 H   0  0  0  0  0  0
    4.8484   59.2968   16.5727 H   0  0  0  0  0  0
    2.8951   57.8766   16.0487 H   0  0  0  0  0  0
    2.8739   55.5048   16.7474 H   0  0  0  0  0  0
    0.0768   51.4452   24.2982 H   0  0  0  0  0  0
   -0.0373   49.3326   26.0122 H   0  0  0  0  0  0
   -1.4234   47.3295   26.2651 H   0  0  0  0  0  0
   -2.2301   47.3199   22.0555 H   0  0  0  0  0  0
    3.9043   53.8045   19.2616 N   0  3  2  0  0  0
    3.1229   54.4481   19.2275 H   0  0  0  0  0  0
  1  2  1  0  0  0
  1 36  1  0  0  0
  1 37  1  0  0  0
  1 38  1  0  0  0
  2  3  2  0  0  0
  2  4  2  0  0  0
  2  5  1  0  0  0
  5 10  2  0  0  0
  5  6  1  0  0  0
  6  7  2  0  0  0
  6 39  1  0  0  0
  7  8  1  0  0  0
  7 40  1  0  0  0
  8  9  2  0  0  0
  8 11  1  0  0  0
  9 10  1  0  0  0
  9 41  1  0  0  0
 10 42  1  0  0  0
 11 12  1  0  0  0
 11 43  1  0  0  0
 11 44  1  0  0  0
 12 13  1  0  0  0
 12 25  1  0  0  0
 13 17  1  0  0  0
 13 14  1  0  0  0
 13 45  1  0  0  0
 14 15  1  0  0  0
 14 46  1  0  0  0
 14 47  1  0  0  0
 15 48  1  0  0  0
 15 49  1  0  0  0
 15 65  1  0  0  0
 16 17  1  0  0  0
 16 50  1  0  0  0
 16 51  1  0  0  0
 16 65  1  0  0  0
 17 52  1  0  0  0
 17 53  1  0  0  0
 18 19  1  0  0  0
 18 54  1  0  0  0
 18 55  1  0  0  0
 18 65  1  0  0  0
 19 24  2  0  0  0
 19 20  1  0  0  0
 20 21  2  0  0  0
 20 56  1  0  0  0
 21 22  1  0  0  0
 21 57  1  0  0  0
 22 23  2  0  0  0
 22 58  1  0  0  0
 23 24  1  0  0  0
 23 59  1  0  0  0
 24 60  1  0  0  0
 25 26  2  0  0  0
 25 27  1  0  0  0
 27 28  1  0  0  0
 27 61  1  0  0  0
 28 33  2  0  0  0
 28 29  1  0  0  0
 29 30  2  0  0  0
 29 62  1  0  0  0
 30 31  1  0  0  0
 30 63  1  0  0  0
 31 32  2  0  0  0
 31 35  1  0  0  0
 32 33  1  0  0  0
 32 64  1  0  0  0
 33 34  1  0  0  0
 65 66  1  0  0  0
M  CHG  1  65   1
M  END
> <i_i_glide_confnum>
83

> <i_i_glide_lignum>
1172

> <i_i_glide_posenum>
357

> <i_i_glide_rotatable_bonds>
9

> <i_m_Source_File_Index>
1132

> <b_m_subgroup_collapsed>
0

> <r_i_docking_score>
-5.70806

> <r_i_glide_ecoul>
-8.4539

> <r_i_glide_eff_state_penalty>
0

> <r_i_glide_einternal>
15.6141

> <r_i_glide_emodel>
-64.5924

> <r_i_glide_energy>
-51.51

> <r_i_glide_erotb>
0.542237

> <r_i_glide_esite>
-0.108513

> <r_i_glide_evdw>
-43.0561

> <r_i_glide_gscore>
-5.70806

> <r_i_glide_hbond>
0

> <r_i_glide_ligand_efficiency>
-0.158557

> <r_i_glide_ligand_efficiency_ln>
-1.24534

> <r_i_glide_ligand_efficiency_sa>
-0.523544

> <r_i_glide_lipo>
-2.05696

> <r_i_glide_metal>
0

> <r_i_glide_rewards>
-0.663934

> <s_i_glide_gridfile>
wee1_glide-grid

> <s_m_Source_File>
wee1_decoys_glide_SP.sdf

> <s_m_Source_Path>
/Users/zhangxujun/Desktop

> <s_m_entry_id>
1407

> <s_m_entry_name>
wee1_decoys_glide_SP.1132

> <s_m_subgroup_title>
wee1_decoys_glide_SP

> <s_m_subgroupid>
wee1_decoys_glide_SP


$$$$
