ZINC08455815_5625
                    3D
 Schrodinger Suite 2024-2.
 54 57  0  0  1  0            999 V2000
    0.6989   50.1804   24.0725 C   0  0  0  0  0  0
    0.6801   51.6134   23.5217 C   0  0  0  0  0  0
   -0.5263   52.4190   24.0324 C   0  0  0  0  0  0
    1.8827   52.2477   23.9464 O   0  0  0  0  0  0
    2.4978   53.2109   23.2099 C   0  0  0  0  0  0
    2.1282   53.5638   22.0928 O   0  0  0  0  0  0
    3.6836   53.7563   23.9044 C   0  0  0  0  0  0
    4.8961   54.1973   23.2740 C   0  0  0  0  0  0
    5.8102   54.6933   24.2108 C   0  0  0  0  0  0
    5.2633   54.6435   25.8395 S   0  0  0  0  0  0
    3.7653   53.9333   25.3094 C   0  0  0  0  0  0
    2.8010   53.5043   26.2137 N   0  0  0  0  0  0
    2.6760   53.7267   27.5353 C   0  0  0  0  0  0
    3.2686   54.6084   28.1581 O   0  0  0  0  0  0
    1.7333   52.7164   28.2396 C   0  0  2  0  0  0
    1.5427   51.9202   27.5151 H   0  0  0  0  0  0
    0.3644   53.3222   28.6970 C   0  0  2  0  0  0
   -0.3243   53.5246   27.8763 H   0  0  0  0  0  0
    0.4828   54.4920   29.7034 C   0  0  0  0  0  0
    1.1580   53.8266   30.8809 C   0  0  0  0  0  0
    1.1237   52.3322   30.5299 C   0  0  1  0  0  0
    1.1073   51.6971   31.4155 H   0  0  0  0  0  0
   -0.1138   52.2288   29.6467 C   0  0  0  0  0  0
    2.2699   52.0058   29.5379 C   0  0  2  0  0  0
    2.1908   50.9383   29.3267 H   0  0  0  0  0  0
    3.7208   52.0969   30.0857 C   0  0  0  0  0  0
    3.8574   52.0154   31.3249 O   0  0  0  0  0  0
    5.2332   54.2252   21.8003 C   0  0  0  0  0  0
    5.9900   55.2912   21.2875 C   0  0  0  0  0  0
    6.2999   55.3623   19.9326 C   0  0  0  0  0  0
    5.8517   54.3647   19.0732 C   0  0  0  0  0  0
    5.1069   53.2967   19.5610 C   0  0  0  0  0  0
    4.8122   53.2190   20.9194 C   0  0  0  0  0  0
    6.2714   54.4544   17.2204 Br  0  0  0  0  0  0
   -0.2251   49.6499   23.8408 H   0  0  0  0  0  0
    1.5204   49.6057   23.6445 H   0  0  0  0  0  0
    0.8328   50.1713   25.1540 H   0  0  0  0  0  0
    0.6405   51.5570   22.4337 H   0  0  0  0  0  0
   -1.4673   51.9617   23.7193 H   0  0  0  0  0  0
   -0.5313   52.4759   25.1238 H   0  0  0  0  0  0
   -0.5112   53.4390   23.6473 H   0  0  0  0  0  0
    6.7977   55.0838   24.0131 H   0  0  0  0  0  0
    2.0863   52.9284   25.7923 H   0  0  0  0  0  0
    1.0180   55.3606   29.3183 H   0  0  0  0  0  0
   -0.4893   54.8220   30.0781 H   0  0  0  0  0  0
    0.7044   54.0574   31.8434 H   0  0  0  0  0  0
    2.1779   54.1922   30.8808 H   0  0  0  0  0  0
   -1.0380   52.4708   30.1740 H   0  0  0  0  0  0
   -0.2404   51.2499   29.1750 H   0  0  0  0  0  0
    6.3260   56.0852   21.9366 H   0  0  0  0  0  0
    6.8791   56.1871   19.5454 H   0  0  0  0  0  0
    4.7723   52.5235   18.8869 H   0  0  0  0  0  0
    4.2586   52.3646   21.2750 H   0  0  0  0  0  0
    4.6772   52.1045   29.2861 O   0  5  0  0  0  0
  1  2  1  0  0  0
  1 35  1  0  0  0
  1 36  1  0  0  0
  1 37  1  0  0  0
  2  3  1  0  0  0
  2  4  1  0  0  0
  2 38  1  0  0  0
  3 39  1  0  0  0
  3 40  1  0  0  0
  3 41  1  0  0  0
  4  5  1  0  0  0
  5  6  2  0  0  0
  5  7  1  0  0  0
  7 11  2  0  0  0
  7  8  1  0  0  0
  8  9  2  0  0  0
  8 28  1  0  0  0
  9 10  1  0  0  0
  9 42  1  0  0  0
 10 11  1  0  0  0
 11 12  1  0  0  0
 12 13  1  0  0  0
 12 43  1  0  0  0
 13 14  2  0  0  0
 13 15  1  0  0  0
 15 16  1  0  0  0
 15 24  1  0  0  0
 15 17  1  0  0  0
 17 18  1  0  0  0
 17 23  1  0  0  0
 17 19  1  0  0  0
 19 20  1  0  0  0
 19 44  1  0  0  0
 19 45  1  0  0  0
 20 21  1  0  0  0
 20 46  1  0  0  0
 20 47  1  0  0  0
 21 22  1  0  0  0
 21 23  1  0  0  0
 21 24  1  0  0  0
 23 48  1  0  0  0
 23 49  1  0  0  0
 24 25  1  0  0  0
 24 26  1  0  0  0
 26 27  2  0  0  0
 26 54  1  0  0  0
 28 33  2  0  0  0
 28 29  1  0  0  0
 29 30  2  0  0  0
 29 50  1  0  0  0
 30 31  1  0  0  0
 30 51  1  0  0  0
 31 32  2  0  0  0
 31 34  1  0  0  0
 32 33  1  0  0  0
 32 52  1  0  0  0
 33 53  1  0  0  0
M  CHG  1  54  -1
M  END
> <i_i_glide_confnum>
12

> <i_i_glide_lignum>
5626

> <i_i_glide_posenum>
149

> <i_i_glide_rotatable_bonds>
8

> <i_m_Source_File_Index>
1408

> <b_m_subgroup_collapsed>
0

> <r_i_docking_score>
-5.08147

> <r_i_glide_ecoul>
1.02152

> <r_i_glide_eff_state_penalty>
0

> <r_i_glide_einternal>
2.84846

> <r_i_glide_emodel>
-47.4962

> <r_i_glide_energy>
-41.8341

> <r_i_glide_erotb>
0.480436

> <r_i_glide_esite>
0

> <r_i_glide_evdw>
-42.8556

> <r_i_glide_gscore>
-5.08147

> <r_i_glide_hbond>
-0.0977891

> <r_i_glide_ligand_efficiency>
-0.163918

> <r_i_glide_ligand_efficiency_ln>
-1.14603

> <r_i_glide_ligand_efficiency_sa>
-0.51493

> <r_i_glide_lipo>
-2.57502

> <r_i_glide_metal>
0

> <r_i_glide_rewards>
-0.899542

> <s_i_glide_gridfile>
wee1_glide-grid

> <s_m_Source_File>
wee1_decoys_glide_SP.sdf

> <s_m_Source_Path>
/Users/zhangxujun/Desktop

> <s_m_entry_id>
1683

> <s_m_entry_name>
wee1_decoys_glide_SP.1408

> <s_m_subgroup_title>
wee1_decoys_glide_SP

> <s_m_subgroupid>
wee1_decoys_glide_SP


$$$$
