ZINC35220034_3273
                    3D
 Schrodinger Suite 2024-2.
 53 56  0  0  1  0            999 V2000
   -5.8276   49.9463   26.3315 C   0  0  0  0  0  0
   -5.4212   51.1550   27.2052 C   0  0  1  0  0  0
   -6.2744   51.4426   27.8207 H   0  0  0  0  0  0
   -4.2852   50.7108   28.1795 C   0  0  0  0  0  0
   -4.4891   50.2175   29.2843 O   0  0  0  0  0  0
   -3.0568   50.8967   27.6475 N   0  0  0  0  0  0
   -2.7738   51.5241   26.4295 C   0  0  0  0  0  0
   -1.4928   51.5297   25.8669 C   0  0  0  0  0  0
   -1.2693   52.2035   24.6550 C   0  0  0  0  0  0
   -2.3359   52.8196   23.9927 C   0  0  0  0  0  0
   -3.6088   52.8319   24.5600 C   0  0  0  0  0  0
   -3.8138   52.1903   25.7758 C   0  0  0  0  0  0
   -5.0509   52.2848   26.3799 O   0  0  0  0  0  0
    0.3809   52.3776   23.9724 S   0  0  0  0  0  0
    1.3018   51.6967   24.8821 O   0  0  0  0  0  0
    0.5569   53.8032   23.6817 O   0  0  0  0  0  0
    0.3803   51.5020   22.4325 N   0  0  0  0  0  0
    0.4992   50.0216   22.4348 C   0  0  0  0  0  0
    1.8741   49.5652   21.8980 C   0  0  0  0  0  0
    2.2046   50.2290   20.5424 C   0  0  0  0  0  0
    2.1366   51.7770   20.6262 C   0  0  1  0  0  0
    2.2927   52.1994   19.6319 H   0  0  0  0  0  0
    0.7306   52.1921   21.1569 C   0  0  0  0  0  0
    3.3456   52.3387   21.4234 C   0  0  0  0  0  0
    4.4510   51.8072   21.2821 O   0  0  0  0  0  0
    3.1439   53.3923   22.2435 N   0  0  0  0  0  0
    4.1173   53.9434   23.0883 C   0  0  0  0  0  0
    3.7920   54.0922   24.4402 C   0  0  0  0  0  0
    4.7242   54.6072   25.3351 C   0  0  0  0  0  0
    5.9770   55.0059   24.8781 C   0  0  0  0  0  0
    6.3008   54.8967   23.5256 C   0  0  0  0  0  0
    5.3688   54.3867   22.6225 C   0  0  0  0  0  0
    5.6757   54.3711   21.3052 F   0  0  0  0  0  0
    7.1040   55.6762   25.9862 Cl  0  0  0  0  0  0
   -6.1504   49.0993   26.9405 H   0  0  0  0  0  0
   -6.6588   50.2091   25.6787 H   0  0  0  0  0  0
   -5.0105   49.6054   25.6941 H   0  0  0  0  0  0
   -2.3076   50.5073   28.2059 H   0  0  0  0  0  0
   -0.6755   51.0445   26.3839 H   0  0  0  0  0  0
   -2.1677   53.3070   23.0476 H   0  0  0  0  0  0
   -4.4253   53.3500   24.0813 H   0  0  0  0  0  0
   -0.3209   49.6119   21.8463 H   0  0  0  0  0  0
    0.3622   49.6591   23.4546 H   0  0  0  0  0  0
    1.8965   48.4898   21.7891 H   0  0  0  0  0  0
    2.6484   49.8002   22.6309 H   0  0  0  0  0  0
    1.5118   49.8951   19.7685 H   0  0  0  0  0  0
    3.1502   49.8933   20.1133 H   0  0  0  0  0  0
    0.6340   53.2733   21.2547 H   0  0  0  0  0  0
   -0.0287   51.8799   20.4385 H   0  0  0  0  0  0
    2.1870   53.6562   22.4352 H   0  0  0  0  0  0
    2.8298   53.7811   24.8150 H   0  0  0  0  0  0
    4.4710   54.7012   26.3810 H   0  0  0  0  0  0
    7.2571   55.2396   23.1618 H   0  0  0  0  0  0
  1  2  1  0  0  0
  1 35  1  0  0  0
  1 36  1  0  0  0
  1 37  1  0  0  0
  2  3  1  0  0  0
  2 13  1  0  0  0
  2  4  1  0  0  0
  4  5  2  0  0  0
  4  6  1  0  0  0
  6  7  1  0  0  0
  6 38  1  0  0  0
  7 12  2  0  0  0
  7  8  1  0  0  0
  8  9  2  0  0  0
  8 39  1  0  0  0
  9 10  1  0  0  0
  9 14  1  0  0  0
 10 11  2  0  0  0
 10 40  1  0  0  0
 11 12  1  0  0  0
 11 41  1  0  0  0
 12 13  1  0  0  0
 14 15  2  0  0  0
 14 16  2  0  0  0
 14 17  1  0  0  0
 17 23  1  0  0  0
 17 18  1  0  0  0
 18 19  1  0  0  0
 18 42  1  0  0  0
 18 43  1  0  0  0
 19 20  1  0  0  0
 19 44  1  0  0  0
 19 45  1  0  0  0
 20 21  1  0  0  0
 20 46  1  0  0  0
 20 47  1  0  0  0
 21 22  1  0  0  0
 21 23  1  0  0  0
 21 24  1  0  0  0
 23 48  1  0  0  0
 23 49  1  0  0  0
 24 25  2  0  0  0
 24 26  1  0  0  0
 26 27  1  0  0  0
 26 50  1  0  0  0
 27 32  2  0  0  0
 27 28  1  0  0  0
 28 29  2  0  0  0
 28 51  1  0  0  0
 29 30  1  0  0  0
 29 52  1  0  0  0
 30 31  2  0  0  0
 30 34  1  0  0  0
 31 32  1  0  0  0
 31 53  1  0  0  0
 32 33  1  0  0  0
M  END
> <i_i_glide_confnum>
84

> <i_i_glide_lignum>
3274

> <i_i_glide_posenum>
392

> <i_i_glide_rotatable_bonds>
5

> <i_m_Source_File_Index>
1670

> <b_m_subgroup_collapsed>
0

> <r_i_docking_score>
-4.40468

> <r_i_glide_ecoul>
-4.31346

> <r_i_glide_eff_state_penalty>
0

> <r_i_glide_einternal>
4.89338

> <r_i_glide_emodel>
-53.3231

> <r_i_glide_energy>
-44.4254

> <r_i_glide_erotb>
0.436806

> <r_i_glide_esite>
-0.142831

> <r_i_glide_evdw>
-40.112

> <r_i_glide_gscore>
-4.40468

> <r_i_glide_hbond>
-0.0363291

> <r_i_glide_ligand_efficiency>
-0.137646

> <r_i_glide_ligand_efficiency_ln>
-0.986327

> <r_i_glide_ligand_efficiency_sa>
-0.436999

> <r_i_glide_lipo>
-2.0397

> <r_i_glide_metal>
0

> <r_i_glide_rewards>
0.0299933

> <s_i_glide_gridfile>
wee1_glide-grid

> <s_m_Source_File>
wee1_decoys_glide_SP.sdf

> <s_m_Source_Path>
/Users/zhangxujun/Desktop

> <s_m_entry_id>
1945

> <s_m_entry_name>
wee1_decoys_glide_SP.1670

> <s_m_subgroup_title>
wee1_decoys_glide_SP

> <s_m_subgroupid>
wee1_decoys_glide_SP


$$$$
