ZINC20724283_4125
                    3D
 Schrodinger Suite 2024-2.
 70 73  0  0  1  0            999 V2000
    1.4245   52.2035   29.0826 C   0  0  0  0  0  0
    2.6509   52.8921   28.5030 C   0  0  0  0  0  0
    2.6387   53.2970   27.1647 C   0  0  0  0  0  0
    3.7642   53.8844   26.5774 C   0  0  0  0  0  0
    4.8871   54.1427   27.3735 C   0  0  0  0  0  0
    4.9018   53.7531   28.7083 C   0  0  0  0  0  0
    3.8025   53.1050   29.2748 C   0  0  0  0  0  0
    3.9035   52.5477   30.9087 Cl  0  0  0  0  0  0
    3.6677   54.0962   25.1902 N   0  0  0  0  0  0
    4.5583   54.2773   24.1698 C   0  0  0  0  0  0
    6.2185   54.4969   24.3059 S   0  0  0  0  0  0
    3.8918   54.1406   22.9853 N   0  0  0  0  0  0
    4.3327   53.9846   21.6575 C   0  0  0  0  0  0
    5.2466   54.8794   21.0881 C   0  0  0  0  0  0
    5.7137   54.6881   19.7883 C   0  0  0  0  0  0
    5.2492   53.6028   19.0472 C   0  0  0  0  0  0
    4.2982   52.7428   19.5901 C   0  0  0  0  0  0
    3.8366   52.8982   20.9028 C   0  0  0  0  0  0
    2.9004   52.0105   21.4350 N   0  0  0  0  0  0
    1.5352   52.5058   21.6984 C   0  0  0  0  0  0
    0.8213   51.6559   22.7726 C   0  0  0  0  0  0
    0.7301   50.1824   22.3449 C   0  0  0  0  0  0
    2.1599   49.7018   22.0519 C   0  0  0  0  0  0
    2.8508   50.5999   21.0007 C   0  0  0  0  0  0
    0.0167   49.3088   23.3911 C   0  0  0  0  0  0
    6.9577   55.7877   19.1148 S   0  0  0  0  0  0
    7.1045   56.8844   20.0821 O   0  0  0  0  0  0
    8.0871   54.9235   18.7571 O   0  0  0  0  0  0
    6.2807   56.4640   17.6183 N   0  0  0  0  0  0
    5.4426   57.6853   17.6698 C   0  0  0  0  0  0
    3.9809   57.3670   17.3009 C   0  0  0  0  0  0
    3.9016   56.6661   15.9259 C   0  0  0  0  0  0
    4.7407   55.3681   15.9699 C   0  0  0  0  0  0
    6.2065   55.6494   16.3778 C   0  0  0  0  0  0
    2.4467   56.3969   15.5077 C   0  0  0  0  0  0
    0.5714   52.2259   28.3991 H   0  0  0  0  0  0
    1.1161   52.6901   30.0109 H   0  0  0  0  0  0
    1.6507   51.1619   29.3119 H   0  0  0  0  0  0
    1.7612   53.0957   26.5649 H   0  0  0  0  0  0
    5.7691   54.6299   26.9982 H   0  0  0  0  0  0
    5.7944   53.9448   29.2816 H   0  0  0  0  0  0
    2.7184   53.9628   24.8776 H   0  0  0  0  0  0
    2.9205   53.8835   23.0820 H   0  0  0  0  0  0
    5.6263   55.6996   21.6737 H   0  0  0  0  0  0
    5.6205   53.4125   18.0524 H   0  0  0  0  0  0
    3.9291   51.9324   18.9775 H   0  0  0  0  0  0
    1.5504   53.5442   22.0302 H   0  0  0  0  0  0
    0.9748   52.4954   20.7616 H   0  0  0  0  0  0
    1.3328   51.7561   23.7323 H   0  0  0  0  0  0
   -0.1807   52.0479   22.9599 H   0  0  0  0  0  0
    0.1680   50.1445   21.4098 H   0  0  0  0  0  0
    2.1406   48.6672   21.7101 H   0  0  0  0  0  0
    2.7571   49.6681   22.9651 H   0  0  0  0  0  0
    2.3487   50.5277   20.0348 H   0  0  0  0  0  0
    3.8707   50.2397   20.8575 H   0  0  0  0  0  0
    0.5725   49.2747   24.3300 H   0  0  0  0  0  0
   -0.9803   49.6900   23.6115 H   0  0  0  0  0  0
   -0.0968   48.2834   23.0391 H   0  0  0  0  0  0
    5.5044   58.0987   18.6739 H   0  0  0  0  0  0
    5.8806   58.4362   17.0095 H   0  0  0  0  0  0
    3.5179   56.7500   18.0754 H   0  0  0  0  0  0
    3.3910   58.2849   17.2820 H   0  0  0  0  0  0
    4.3586   57.3317   15.1904 H   0  0  0  0  0  0
    4.7059   54.8613   15.0042 H   0  0  0  0  0  0
    4.2806   54.6632   16.6617 H   0  0  0  0  0  0
    6.7515   56.1769   15.5936 H   0  0  0  0  0  0
    6.7410   54.7126   16.5357 H   0  0  0  0  0  0
    1.9391   55.7447   16.2185 H   0  0  0  0  0  0
    1.8777   57.3257   15.4472 H   0  0  0  0  0  0
    2.3981   55.9214   14.5281 H   0  0  0  0  0  0
  1  2  1  0  0  0
  1 36  1  0  0  0
  1 37  1  0  0  0
  1 38  1  0  0  0
  2  7  2  0  0  0
  2  3  1  0  0  0
  3  4  2  0  0  0
  3 39  1  0  0  0
  4  5  1  0  0  0
  4  9  1  0  0  0
  5  6  2  0  0  0
  5 40  1  0  0  0
  6  7  1  0  0  0
  6 41  1  0  0  0
  7  8  1  0  0  0
  9 10  1  0  0  0
  9 42  1  0  0  0
 10 11  2  0  0  0
 10 12  1  0  0  0
 12 13  1  0  0  0
 12 43  1  0  0  0
 13 18  2  0  0  0
 13 14  1  0  0  0
 14 15  2  0  0  0
 14 44  1  0  0  0
 15 16  1  0  0  0
 15 26  1  0  0  0
 16 17  2  0  0  0
 16 45  1  0  0  0
 17 18  1  0  0  0
 17 46  1  0  0  0
 18 19  1  0  0  0
 19 24  1  0  0  0
 19 20  1  0  0  0
 20 21  1  0  0  0
 20 47  1  0  0  0
 20 48  1  0  0  0
 21 22  1  0  0  0
 21 49  1  0  0  0
 21 50  1  0  0  0
 22 23  1  0  0  0
 22 25  1  0  0  0
 22 51  1  0  0  0
 23 24  1  0  0  0
 23 52  1  0  0  0
 23 53  1  0  0  0
 24 54  1  0  0  0
 24 55  1  0  0  0
 25 56  1  0  0  0
 25 57  1  0  0  0
 25 58  1  0  0  0
 26 27  2  0  0  0
 26 28  2  0  0  0
 26 29  1  0  0  0
 29 34  1  0  0  0
 29 30  1  0  0  0
 30 31  1  0  0  0
 30 59  1  0  0  0
 30 60  1  0  0  0
 31 32  1  0  0  0
 31 61  1  0  0  0
 31 62  1  0  0  0
 32 33  1  0  0  0
 32 35  1  0  0  0
 32 63  1  0  0  0
 33 34  1  0  0  0
 33 64  1  0  0  0
 33 65  1  0  0  0
 34 66  1  0  0  0
 34 67  1  0  0  0
 35 68  1  0  0  0
 35 69  1  0  0  0
 35 70  1  0  0  0
M  END
> <i_i_glide_confnum>
226

> <i_i_glide_lignum>
4126

> <i_i_glide_posenum>
142

> <i_i_glide_rotatable_bonds>
7

> <i_m_Source_File_Index>
2515

> <b_m_subgroup_collapsed>
0

> <r_i_docking_score>
-5.23272

> <r_i_glide_ecoul>
-5.53087

> <r_i_glide_eff_state_penalty>
0

> <r_i_glide_einternal>
6.74435

> <r_i_glide_emodel>
-65.808

> <r_i_glide_energy>
-54.0962

> <r_i_glide_erotb>
0.504531

> <r_i_glide_esite>
-0.0713335

> <r_i_glide_evdw>
-48.5653

> <r_i_glide_gscore>
-5.23272

> <r_i_glide_hbond>
0

> <r_i_glide_ligand_efficiency>
-0.149506

> <r_i_glide_ligand_efficiency_ln>
-1.1487

> <r_i_glide_ligand_efficiency_sa>
-0.489045

> <r_i_glide_lipo>
-2.38905

> <r_i_glide_metal>
0

> <r_i_glide_rewards>
-0.0189681

> <s_i_glide_gridfile>
wee1_glide-grid

> <s_m_Source_File>
wee1_decoys_glide_SP.sdf

> <s_m_Source_Path>
/Users/zhangxujun/Desktop

> <s_m_entry_id>
2790

> <s_m_entry_name>
wee1_decoys_glide_SP.2515

> <s_m_subgroup_title>
wee1_decoys_glide_SP

> <s_m_subgroupid>
wee1_decoys_glide_SP


$$$$
