ZINC04235385_5
                    3D
 Schrodinger Suite 2024-2.
 53 57  0  0  1  0            999 V2000
    4.3396   54.2163   18.1240 C   0  0  0  0  0  0
    4.2163   53.3985   19.2433 C   0  0  0  0  0  0
    4.8727   53.7381   20.4228 C   0  0  0  0  0  0
    5.6711   54.8940   20.4851 C   0  0  0  0  0  0
    5.7981   55.6963   19.3416 C   0  0  0  0  0  0
    5.1264   55.3647   18.1679 C   0  0  0  0  0  0
    6.4224   55.2642   21.7427 C   0  0  0  0  0  0
    7.4433   55.9504   21.6826 O   0  0  0  0  0  0
    5.9047   54.8051   22.9019 N   0  0  0  0  0  0
    6.5104   54.9283   24.2360 C   0  0  1  0  0  0
    7.5758   55.0221   24.1134 H   0  0  0  0  0  0
    6.0147   56.0967   25.0513 C   0  0  0  0  0  0
    4.8191   55.6501   25.6817 O   0  0  0  0  0  0
    4.8617   54.2393   25.8942 C   0  0  1  0  0  0
    3.9741   53.7824   25.4572 H   0  0  0  0  0  0
    6.1246   53.8075   25.1548 C   0  0  2  0  0  0
    5.9436   52.8969   24.5977 H   0  0  0  0  0  0
    7.1044   53.6145   26.1836 O   0  0  0  0  0  0
    6.6237   53.9964   27.4657 C   0  0  0  0  0  0
    5.1321   53.7820   27.3240 C   0  0  1  0  0  0
    4.9133   52.7218   27.4690 H   0  0  0  0  0  0
    4.4466   54.5497   28.3193 O   0  0  0  0  0  0
    3.1752   54.3299   28.7580 C   0  0  0  0  0  0
    2.7045   54.9881   29.6818 O   0  0  0  0  0  0
    2.5161   53.3187   28.0613 N   0  0  0  0  0  0
    1.2327   52.8066   28.3060 C   0  0  0  0  0  0
    0.7535   52.6615   29.6145 C   0  0  0  0  0  0
   -0.4900   52.0971   29.8631 C   0  0  0  0  0  0
   -1.2823   51.6543   28.8133 C   0  0  0  0  0  0
   -0.8400   51.7699   27.4750 C   0  0  0  0  0  0
    0.4346   52.3611   27.2044 C   0  0  0  0  0  0
    0.8436   52.4779   25.8424 C   0  0  0  0  0  0
    0.0314   52.0182   24.8109 C   0  0  0  0  0  0
   -1.1962   51.4308   25.0875 C   0  0  0  0  0  0
   -1.6368   51.3016   26.4001 C   0  0  0  0  0  0
    3.8285   53.9500   17.2101 H   0  0  0  0  0  0
    3.6204   52.4976   19.1906 H   0  0  0  0  0  0
    4.7685   53.0779   21.2712 H   0  0  0  0  0  0
    6.4171   56.5830   19.3544 H   0  0  0  0  0  0
    5.2239   55.9896   17.2921 H   0  0  0  0  0  0
    4.9936   54.3742   22.8619 H   0  0  0  0  0  0
    6.7496   56.3816   25.8024 H   0  0  0  0  0  0
    5.9044   57.0091   24.4818 H   0  0  0  0  0  0
    6.8823   55.0337   27.6816 H   0  0  0  0  0  0
    7.0623   53.3809   28.2529 H   0  0  0  0  0  0
    2.9863   52.9529   27.2490 H   0  0  0  0  0  0
    1.3526   52.9661   30.4601 H   0  0  0  0  0  0
   -0.8362   51.9785   30.8813 H   0  0  0  0  0  0
   -2.2324   51.1822   29.0205 H   0  0  0  0  0  0
    1.7912   52.9309   25.5970 H   0  0  0  0  0  0
    0.3576   52.1144   23.7853 H   0  0  0  0  0  0
   -1.8126   51.0691   24.2778 H   0  0  0  0  0  0
   -2.5892   50.8357   26.6085 H   0  0  0  0  0  0
  1  6  2  0  0  0
  1  2  1  0  0  0
  1 36  1  0  0  0
  2  3  2  0  0  0
  2 37  1  0  0  0
  3  4  1  0  0  0
  3 38  1  0  0  0
  4  5  2  0  0  0
  4  7  1  0  0  0
  5  6  1  0  0  0
  5 39  1  0  0  0
  6 40  1  0  0  0
  7  8  2  0  0  0
  7  9  1  0  0  0
  9 10  1  0  0  0
  9 41  1  0  0  0
 10 11  1  0  0  0
 10 16  1  0  0  0
 10 12  1  0  0  0
 12 13  1  0  0  0
 12 42  1  0  0  0
 12 43  1  0  0  0
 13 14  1  0  0  0
 14 15  1  0  0  0
 14 20  1  0  0  0
 14 16  1  0  0  0
 16 17  1  0  0  0
 16 18  1  0  0  0
 18 19  1  0  0  0
 19 20  1  0  0  0
 19 44  1  0  0  0
 19 45  1  0  0  0
 20 21  1  0  0  0
 20 22  1  0  0  0
 22 23  1  0  0  0
 23 24  2  0  0  0
 23 25  1  0  0  0
 25 26  1  0  0  0
 25 46  1  0  0  0
 26 31  2  0  0  0
 26 27  1  0  0  0
 27 28  2  0  0  0
 27 47  1  0  0  0
 28 29  1  0  0  0
 28 48  1  0  0  0
 29 30  2  0  0  0
 29 49  1  0  0  0
 30 35  1  0  0  0
 30 31  1  0  0  0
 31 32  1  0  0  0
 32 33  2  0  0  0
 32 50  1  0  0  0
 33 34  1  0  0  0
 33 51  1  0  0  0
 34 35  2  0  0  0
 34 52  1  0  0  0
 35 53  1  0  0  0
M  END
> <i_i_glide_confnum>
305

> <i_i_glide_lignum>
6

> <i_i_glide_posenum>
175

> <i_i_glide_rotatable_bonds>
7

> <i_m_Source_File_Index>
1609

> <b_m_subgroup_collapsed>
0

> <r_i_docking_score>
-4.97058

> <r_i_glide_ecoul>
-5.06575

> <r_i_glide_eff_state_penalty>
0

> <r_i_glide_einternal>
6.81573

> <r_i_glide_emodel>
-48.502

> <r_i_glide_energy>
-40.3692

> <r_i_glide_erotb>
0.677614

> <r_i_glide_esite>
0

> <r_i_glide_evdw>
-35.3035

> <r_i_glide_gscore>
-4.97058

> <r_i_glide_hbond>
-0.187364

> <r_i_glide_ligand_efficiency>
-0.160341

> <r_i_glide_ligand_efficiency_ln>
-1.12102

> <r_i_glide_ligand_efficiency_sa>
-0.503693

> <r_i_glide_lipo>
-2.4589

> <r_i_glide_metal>
0

> <r_i_glide_rewards>
-0.476893

> <s_i_glide_gridfile>
wee1_glide-grid

> <s_m_Source_File>
wee1_decoys_glide_SP.sdf

> <s_m_Source_Path>
/Users/zhangxujun/Desktop

> <s_m_entry_id>
1884

> <s_m_entry_name>
wee1_decoys_glide_SP.1609

> <s_m_subgroup_title>
wee1_decoys_glide_SP

> <s_m_subgroupid>
wee1_decoys_glide_SP


$$$$
