ZINC57619999_1764
                    3D
 Schrodinger Suite 2024-2.
 43 45  0  0  1  0            999 V2000
    0.2420   51.2008   24.8532 C   0  0  0  0  0  0
    1.1046   52.0975   25.4755 C   0  0  0  0  0  0
    0.9176   52.4657   26.8116 C   0  0  0  0  0  0
   -0.1782   51.9311   27.5004 C   0  0  0  0  0  0
   -1.0382   51.0276   26.8813 C   0  0  0  0  0  0
   -0.8370   50.6377   25.5486 C   0  0  0  0  0  0
   -1.7322   49.6709   24.8754 C   0  0  0  0  0  0
   -2.0997   49.9233   23.6782 N   0  0  0  0  0  0
   -3.0075   48.9886   23.1395 O   0  0  0  0  0  0
   -2.0135   48.5782   25.6817 N   0  0  0  0  0  0
    1.8164   53.3112   27.4590 N   0  0  0  0  0  0
    1.3860   54.3553   28.4085 C   0  0  0  0  0  0
    2.2473   54.3800   29.6820 C   0  0  0  0  0  0
    3.7359   54.5188   29.3462 C   0  0  0  0  0  0
    4.1600   53.4026   28.3766 C   0  0  1  0  0  0
    3.9769   52.4493   28.8767 H   0  0  0  0  0  0
    3.2536   53.3997   27.1080 C   0  0  2  0  0  0
    3.5363   52.4967   26.5789 H   0  0  0  0  0  0
    3.6032   54.5458   26.1294 C   0  0  0  0  0  0
    5.1031   54.5692   25.7669 C   0  0  0  0  0  0
    6.0075   54.5852   27.0153 C   0  0  0  0  0  0
    5.6595   53.4448   27.9897 C   0  0  0  0  0  0
    0.4292   50.9327   23.8229 H   0  0  0  0  0  0
    1.9323   52.4911   24.9078 H   0  0  0  0  0  0
   -0.3481   52.1681   28.5400 H   0  0  0  0  0  0
   -1.8573   50.6178   27.4568 H   0  0  0  0  0  0
   -3.1955   48.4291   23.8945 H   0  0  0  0  0  0
   -2.4859   47.7564   25.3475 H   0  0  0  0  0  0
   -1.6955   48.5501   26.6561 H   0  0  0  0  0  0
    1.4308   55.3213   27.9049 H   0  0  0  0  0  0
    0.3436   54.2226   28.6956 H   0  0  0  0  0  0
    1.9323   55.2150   30.3090 H   0  0  0  0  0  0
    2.0535   53.4829   30.2718 H   0  0  0  0  0  0
    3.9272   55.4963   28.9076 H   0  0  0  0  0  0
    4.3457   54.4851   30.2486 H   0  0  0  0  0  0
    3.0149   54.4666   25.2152 H   0  0  0  0  0  0
    3.3381   55.5006   26.5716 H   0  0  0  0  0  0
    5.3402   53.6929   25.1618 H   0  0  0  0  0  0
    5.3215   55.4350   25.1401 H   0  0  0  0  0  0
    7.0534   54.5066   26.7153 H   0  0  0  0  0  0
    5.9159   55.5421   27.5283 H   0  0  0  0  0  0
    6.2811   53.5265   28.8818 H   0  0  0  0  0  0
    5.9305   52.4970   27.5256 H   0  0  0  0  0  0
  1  6  2  0  0  0
  1  2  1  0  0  0
  1 23  1  0  0  0
  2  3  2  0  0  0
  2 24  1  0  0  0
  3  4  1  0  0  0
  3 11  1  0  0  0
  4  5  2  0  0  0
  4 25  1  0  0  0
  5  6  1  0  0  0
  5 26  1  0  0  0
  6  7  1  0  0  0
  7  8  2  0  0  0
  7 10  1  0  0  0
  8  9  1  0  0  0
  9 27  1  0  0  0
 10 28  1  0  0  0
 10 29  1  0  0  0
 11 17  1  0  0  0
 11 12  1  0  0  0
 12 13  1  0  0  0
 12 30  1  0  0  0
 12 31  1  0  0  0
 13 14  1  0  0  0
 13 32  1  0  0  0
 13 33  1  0  0  0
 14 15  1  0  0  0
 14 34  1  0  0  0
 14 35  1  0  0  0
 15 16  1  0  0  0
 15 22  1  0  0  0
 15 17  1  0  0  0
 17 18  1  0  0  0
 17 19  1  0  0  0
 19 20  1  0  0  0
 19 36  1  0  0  0
 19 37  1  0  0  0
 20 21  1  0  0  0
 20 38  1  0  0  0
 20 39  1  0  0  0
 21 22  1  0  0  0
 21 40  1  0  0  0
 21 41  1  0  0  0
 22 42  1  0  0  0
 22 43  1  0  0  0
M  END
> <i_i_glide_confnum>
24

> <i_i_glide_lignum>
1765

> <i_i_glide_posenum>
34

> <i_i_glide_rotatable_bonds>
3

> <i_m_Source_File_Index>
5745

> <b_m_subgroup_collapsed>
0

> <r_i_docking_score>
-5.73573

> <r_i_glide_ecoul>
-4.63667

> <r_i_glide_eff_state_penalty>
0

> <r_i_glide_einternal>
1.89686

> <r_i_glide_emodel>
-47.0273

> <r_i_glide_energy>
-33.089

> <r_i_glide_erotb>
0.720092

> <r_i_glide_esite>
-0.13744

> <r_i_glide_evdw>
-28.4524

> <r_i_glide_gscore>
-5.73573

> <r_i_glide_hbond>
-0.16

> <r_i_glide_ligand_efficiency>
-0.286786

> <r_i_glide_ligand_efficiency_ln>
-1.43546

> <r_i_glide_ligand_efficiency_sa>
-0.778458

> <r_i_glide_lipo>
-2.14782

> <r_i_glide_metal>
0

> <r_i_glide_rewards>
-1.89244

> <s_i_glide_gridfile>
wee1_glide-grid

> <s_m_Source_File>
wee1_decoys_glide_SP.sdf

> <s_m_Source_Path>
/Users/zhangxujun/Desktop

> <s_m_entry_id>
6020

> <s_m_entry_name>
wee1_decoys_glide_SP.5745

> <s_m_subgroup_title>
wee1_decoys_glide_SP

> <s_m_subgroupid>
wee1_decoys_glide_SP


$$$$
