ZINC35056780_3387
                    3D
 Schrodinger Suite 2024-2.
 64 68  0  0  1  0            999 V2000
   -5.2448   52.4985   24.3800 C   0  0  0  0  0  0
   -4.0272   52.9254   25.1868 C   0  0  0  0  0  0
   -4.1459   53.7593   26.0827 O   0  0  0  0  0  0
   -2.8826   52.2849   24.9024 N   0  0  0  0  0  0
   -1.6978   52.2239   25.7673 C   0  0  1  0  0  0
   -1.7886   53.0079   26.5233 H   0  0  0  0  0  0
   -1.6504   50.8613   26.4878 C   0  0  1  0  0  0
   -2.6569   50.6060   26.8278 H   0  0  0  0  0  0
   -1.1806   49.7475   25.5270 C   0  0  2  0  0  0
   -0.9781   48.8409   26.0982 H   0  0  0  0  0  0
    0.0920   50.1671   24.7586 C   0  0  1  0  0  0
    0.9298   50.1693   25.4535 H   0  0  0  0  0  0
    0.3471   49.1270   23.6499 C   0  0  0  0  0  0
   -0.8297   48.8278   22.9043 O   0  0  0  0  0  0
   -1.8971   48.4275   23.7242 C   0  0  1  0  0  0
   -1.6034   47.5523   24.3219 H   0  0  0  0  0  0
   -2.2379   49.4693   24.5986 O   0  0  0  0  0  0
   -3.0712   48.1627   22.8500 C   0  0  0  0  0  0
   -4.3681   48.6564   22.8227 C   0  0  0  0  0  0
   -5.0117   48.0426   21.7516 C   0  0  0  0  0  0
   -4.0830   47.1810   21.1865 C   0  0  0  0  0  0
   -2.9035   47.2532   21.8550 O   0  0  0  0  0  0
   -0.0728   51.4518   24.1353 O   0  0  0  0  0  0
   -0.3644   52.4975   25.0338 C   0  0  2  0  0  0
   -0.4611   53.3838   24.4183 H   0  0  0  0  0  0
    0.6353   52.6658   26.0084 O   0  0  0  0  0  0
    1.8426   53.2784   25.7203 C   0  0  0  0  0  0
    2.1681   53.8579   24.4917 C   0  0  0  0  0  0
    3.4191   54.4377   24.3072 C   0  0  0  0  0  0
    4.3992   54.3872   25.3114 C   0  0  0  0  0  0
    4.0467   53.8487   26.5547 C   0  0  0  0  0  0
    2.7796   53.3013   26.7529 C   0  0  0  0  0  0
    5.7998   54.9280   25.1167 C   0  0  0  0  0  0
    6.5614   55.0865   26.0716 O   0  0  0  0  0  0
    6.3129   55.2691   23.7896 C   0  0  0  0  0  0
    5.9877   54.6184   22.6525 C   0  0  0  0  0  0
    6.4314   54.9756   21.2980 C   0  0  0  0  0  0
    5.6322   54.6012   20.2167 C   0  0  0  0  0  0
    6.0207   54.9135   18.9171 C   0  0  0  0  0  0
    7.2078   55.6092   18.6999 C   0  0  0  0  0  0
    8.0063   56.0016   19.7699 C   0  0  0  0  0  0
    7.6104   55.6912   21.0672 C   0  0  0  0  0  0
   -0.9268   50.8965   27.6992 O   0  0  0  0  0  0
   -4.9537   52.0956   23.3990 H   0  0  0  0  0  0
   -5.7991   51.7276   24.9190 H   0  0  0  0  0  0
   -5.9030   53.3518   24.2100 H   0  0  0  0  0  0
   -2.8822   51.6166   24.1375 H   0  0  0  0  0  0
    1.1196   49.4663   22.9606 H   0  0  0  0  0  0
    0.7048   48.1896   24.0829 H   0  0  0  0  0  0
   -4.7843   49.3831   23.5010 H   0  0  0  0  0  0
   -6.0355   48.1893   21.4369 H   0  0  0  0  0  0
   -4.1217   46.5026   20.3487 H   0  0  0  0  0  0
    1.4753   53.8783   23.6646 H   0  0  0  0  0  0
    3.5903   54.8968   23.3439 H   0  0  0  0  0  0
    4.7560   53.8071   27.3683 H   0  0  0  0  0  0
    2.5305   52.8576   27.7062 H   0  0  0  0  0  0
    7.0071   56.0970   23.7764 H   0  0  0  0  0  0
    5.3519   53.7445   22.7004 H   0  0  0  0  0  0
    4.7121   54.0538   20.3735 H   0  0  0  0  0  0
    5.3998   54.6188   18.0837 H   0  0  0  0  0  0
    7.5074   55.8467   17.6893 H   0  0  0  0  0  0
    8.9274   56.5389   19.5971 H   0  0  0  0  0  0
    8.2406   55.9968   21.8855 H   0  0  0  0  0  0
   -1.0097   50.0001   28.0823 H   0  0  0  0  0  0
  1  2  1  0  0  0
  1 44  1  0  0  0
  1 45  1  0  0  0
  1 46  1  0  0  0
  2  3  2  0  0  0
  2  4  1  0  0  0
  4  5  1  0  0  0
  4 47  1  0  0  0
  5  6  1  0  0  0
  5 24  1  0  0  0
  5  7  1  0  0  0
  7  8  1  0  0  0
  7  9  1  0  0  0
  7 43  1  0  0  0
  9 10  1  0  0  0
  9 17  1  0  0  0
  9 11  1  0  0  0
 11 12  1  0  0  0
 11 13  1  0  0  0
 11 23  1  0  0  0
 13 14  1  0  0  0
 13 48  1  0  0  0
 13 49  1  0  0  0
 14 15  1  0  0  0
 15 16  1  0  0  0
 15 17  1  0  0  0
 15 18  1  0  0  0
 18 22  1  0  0  0
 18 19  2  0  0  0
 19 20  1  0  0  0
 19 50  1  0  0  0
 20 21  2  0  0  0
 20 51  1  0  0  0
 21 22  1  0  0  0
 21 52  1  0  0  0
 23 24  1  0  0  0
 24 25  1  0  0  0
 24 26  1  0  0  0
 26 27  1  0  0  0
 27 32  2  0  0  0
 27 28  1  0  0  0
 28 29  2  0  0  0
 28 53  1  0  0  0
 29 30  1  0  0  0
 29 54  1  0  0  0
 30 31  2  0  0  0
 30 33  1  0  0  0
 31 32  1  0  0  0
 31 55  1  0  0  0
 32 56  1  0  0  0
 33 34  2  0  0  0
 33 35  1  0  0  0
 35 36  2  0  0  0
 35 57  1  0  0  0
 36 37  1  0  0  0
 36 58  1  0  0  0
 37 42  2  0  0  0
 37 38  1  0  0  0
 38 39  2  0  0  0
 38 59  1  0  0  0
 39 40  1  0  0  0
 39 60  1  0  0  0
 40 41  2  0  0  0
 40 61  1  0  0  0
 41 42  1  0  0  0
 41 62  1  0  0  0
 42 63  1  0  0  0
 43 64  1  0  0  0
M  END
> <i_i_glide_confnum>
42

> <i_i_glide_lignum>
3388

> <i_i_glide_posenum>
105

> <i_i_glide_rotatable_bonds>
9

> <i_m_Source_File_Index>
1386

> <b_m_subgroup_collapsed>
0

> <r_i_docking_score>
-6.41606

> <r_i_glide_ecoul>
-10.3424

> <r_i_glide_eff_state_penalty>
0

> <r_i_glide_einternal>
11.9676

> <r_i_glide_emodel>
-65.6786

> <r_i_glide_energy>
-50.4932

> <r_i_glide_erotb>
0.480239

> <r_i_glide_esite>
-0.012474

> <r_i_glide_evdw>
-40.1508

> <r_i_glide_gscore>
-6.41606

> <r_i_glide_hbond>
-0.195623

> <r_i_glide_ligand_efficiency>
-0.173407

> <r_i_glide_ligand_efficiency_ln>
-1.39149

> <r_i_glide_ligand_efficiency_sa>
-0.577831

> <r_i_glide_lipo>
-2.47915

> <r_i_glide_metal>
0

> <r_i_glide_rewards>
-0.65015

> <s_i_glide_gridfile>
wee1_glide-grid

> <s_m_Source_File>
wee1_decoys_glide_SP.sdf

> <s_m_Source_Path>
/Users/zhangxujun/Desktop

> <s_m_entry_id>
1661

> <s_m_entry_name>
wee1_decoys_glide_SP.1386

> <s_m_subgroup_title>
wee1_decoys_glide_SP

> <s_m_subgroupid>
wee1_decoys_glide_SP


$$$$
