ZINC51097582_1353
                    3D
 Schrodinger Suite 2024-2.
 58 60  0  0  1  0            999 V2000
   -3.9025   46.8349   20.5149 C   0  0  0  0  0  0
   -2.6404   47.1606   19.7577 C   0  0  0  0  0  0
   -1.9566   46.5618   18.7090 C   0  0  0  0  0  0
   -0.8424   47.3617   18.4409 C   0  0  0  0  0  0
   -0.8674   48.4032   19.3667 C   0  0  0  0  0  0
   -1.9843   48.2888   20.1370 O   0  0  0  0  0  0
   -0.0271   49.5554   19.5567 C   0  0  0  0  0  0
   -0.4013   50.5268   20.2158 O   0  0  0  0  0  0
    1.1883   49.4503   18.9882 N   0  0  0  0  0  0
    2.2769   50.4226   19.0905 C   0  0  2  0  0  0
    2.8027   50.6262   20.5279 C   0  0  0  0  0  0
    3.9735   51.6087   20.6150 C   0  0  0  0  0  0
    3.5177   52.9673   20.0209 N   0  3  2  0  0  0
    3.1672   52.7741   18.5248 C   0  0  0  0  0  0
    2.0012   51.7792   18.3998 C   0  0  0  0  0  0
    4.6488   54.0342   20.1072 C   0  0  0  0  0  0
    5.0188   54.4862   21.5329 C   0  0  0  0  0  0
    5.9314   55.2970   21.6371 O   0  0  0  0  0  0
    4.3373   53.9722   22.5801 N   0  0  0  0  0  0
    4.5402   54.1377   23.9673 C   0  0  0  0  0  0
    3.3848   54.2467   24.7670 C   0  0  0  0  0  0
    3.5077   54.3829   26.1535 C   0  0  0  0  0  0
    4.7603   54.3777   26.7636 C   0  0  0  0  0  0
    5.9032   54.2383   25.9801 C   0  0  0  0  0  0
    5.8106   54.0966   24.5923 C   0  0  0  0  0  0
    7.1008   53.8054   23.8434 C   0  0  0  0  0  0
    4.8796   54.5049   28.2722 C   0  0  0  0  0  0
    1.9807   54.2078   24.1635 C   0  0  0  0  0  0
   -4.3558   45.9028   20.1715 H   0  0  0  0  0  0
   -3.7070   46.7285   21.5838 H   0  0  0  0  0  0
   -4.6481   47.6227   20.3970 H   0  0  0  0  0  0
   -2.2422   45.6580   18.1892 H   0  0  0  0  0  0
   -0.1090   47.1982   17.6621 H   0  0  0  0  0  0
    1.3928   48.6202   18.4512 H   0  0  0  0  0  0
    3.1023   49.9638   18.5410 H   0  0  0  0  0  0
    3.1037   49.6778   20.9613 H   0  0  0  0  0  0
    1.9998   51.0010   21.1645 H   0  0  0  0  0  0
    4.8679   51.2950   20.0817 H   0  0  0  0  0  0
    4.2381   51.7185   21.6621 H   0  0  0  0  0  0
    2.8670   53.7469   18.1322 H   0  0  0  0  0  0
    4.0646   52.4274   18.0057 H   0  0  0  0  0  0
    1.1118   52.2404   18.8314 H   0  0  0  0  0  0
    1.7898   51.6115   17.3426 H   0  0  0  0  0  0
    4.3103   54.8968   19.5306 H   0  0  0  0  0  0
    5.5200   53.6084   19.6058 H   0  0  0  0  0  0
    3.4901   53.4750   22.3580 H   0  0  0  0  0  0
    2.6233   54.4738   26.7683 H   0  0  0  0  0  0
    6.8691   54.1986   26.4609 H   0  0  0  0  0  0
    6.9344   53.1051   23.0268 H   0  0  0  0  0  0
    7.5045   54.7339   23.4480 H   0  0  0  0  0  0
    7.8469   53.3339   24.4805 H   0  0  0  0  0  0
    4.8262   53.5234   28.7418 H   0  0  0  0  0  0
    4.0825   55.1309   28.6747 H   0  0  0  0  0  0
    5.8203   54.9766   28.5574 H   0  0  0  0  0  0
    1.7555   53.2071   23.7936 H   0  0  0  0  0  0
    1.2108   54.4911   24.8800 H   0  0  0  0  0  0
    1.9009   54.8962   23.3227 H   0  0  0  0  0  0
    2.6914   53.3166   20.4933 H   0  0  0  0  0  0
  1  2  1  0  0  0
  1 29  1  0  0  0
  1 30  1  0  0  0
  1 31  1  0  0  0
  2  6  1  0  0  0
  2  3  2  0  0  0
  3  4  1  0  0  0
  3 32  1  0  0  0
  4  5  2  0  0  0
  4 33  1  0  0  0
  5  6  1  0  0  0
  5  7  1  0  0  0
  7  8  2  0  0  0
  7  9  1  0  0  0
  9 10  1  0  0  0
  9 34  1  0  0  0
 10 15  1  0  0  0
 10 11  1  0  0  0
 10 35  1  0  0  0
 11 12  1  0  0  0
 11 36  1  0  0  0
 11 37  1  0  0  0
 12 13  1  0  0  0
 12 38  1  0  0  0
 12 39  1  0  0  0
 13 14  1  0  0  0
 13 16  1  0  0  0
 13 58  1  0  0  0
 14 15  1  0  0  0
 14 40  1  0  0  0
 14 41  1  0  0  0
 15 42  1  0  0  0
 15 43  1  0  0  0
 16 17  1  0  0  0
 16 44  1  0  0  0
 16 45  1  0  0  0
 17 18  2  0  0  0
 17 19  1  0  0  0
 19 20  1  0  0  0
 19 46  1  0  0  0
 20 25  2  0  0  0
 20 21  1  0  0  0
 21 22  2  0  0  0
 21 28  1  0  0  0
 22 23  1  0  0  0
 22 47  1  0  0  0
 23 24  2  0  0  0
 23 27  1  0  0  0
 24 25  1  0  0  0
 24 48  1  0  0  0
 25 26  1  0  0  0
 26 49  1  0  0  0
 26 50  1  0  0  0
 26 51  1  0  0  0
 27 52  1  0  0  0
 27 53  1  0  0  0
 27 54  1  0  0  0
 28 55  1  0  0  0
 28 56  1  0  0  0
 28 57  1  0  0  0
M  CHG  1  13   1
M  END
> <i_i_glide_confnum>
135

> <i_i_glide_lignum>
1354

> <i_i_glide_posenum>
381

> <i_i_glide_rotatable_bonds>
7

> <i_m_Source_File_Index>
5881

> <b_m_subgroup_collapsed>
0

> <r_i_docking_score>
-4.36125

> <r_i_glide_ecoul>
-3.45981

> <r_i_glide_eff_state_penalty>
0

> <r_i_glide_einternal>
7.64926

> <r_i_glide_emodel>
-42.5903

> <r_i_glide_energy>
-34.4377

> <r_i_glide_erotb>
0.920641

> <r_i_glide_esite>
-0.0385751

> <r_i_glide_evdw>
-30.9779

> <r_i_glide_gscore>
-4.36125

> <r_i_glide_hbond>
0

> <r_i_glide_ligand_efficiency>
-0.155759

> <r_i_glide_ligand_efficiency_ln>
-1.0067

> <r_i_glide_ligand_efficiency_sa>
-0.472975

> <r_i_glide_lipo>
-2.14372

> <r_i_glide_metal>
0

> <r_i_glide_rewards>
-1.03172

> <s_i_glide_gridfile>
wee1_glide-grid

> <s_m_Source_File>
wee1_decoys_glide_SP.sdf

> <s_m_Source_Path>
/Users/zhangxujun/Desktop

> <s_m_entry_id>
6156

> <s_m_entry_name>
wee1_decoys_glide_SP.5881

> <s_m_subgroup_title>
wee1_decoys_glide_SP

> <s_m_subgroupid>
wee1_decoys_glide_SP


$$$$
