ZINC59941741_5319
                    3D
 Schrodinger Suite 2024-2.
 63 66  0  0  1  0            999 V2000
   -3.0102   52.0771   24.5580 C   0  0  0  0  0  0
   -2.0350   53.0555   23.8890 C   0  0  0  0  0  0
   -0.9474   52.3850   23.2656 O   0  0  0  0  0  0
   -1.0851   51.7761   22.0626 C   0  0  0  0  0  0
   -2.1055   51.8093   21.3699 O   0  0  0  0  0  0
    0.1403   51.0573   21.6878 C   0  0  0  0  0  0
    0.1515   49.8386   20.9427 C   0  0  0  0  0  0
    1.4346   49.3215   20.7563 C   0  0  0  0  0  0
    2.6467   50.3674   21.3926 S   0  0  0  0  0  0
    1.4560   51.4882   21.9756 C   0  0  0  0  0  0
    1.8151   52.6539   22.6650 N   0  0  0  0  0  0
    3.0277   53.2462   22.7426 C   0  0  0  0  0  0
    4.0142   52.9045   22.0898 O   0  0  0  0  0  0
    3.1193   54.4527   23.6877 C   0  0  0  0  0  0
    4.8429   54.8920   24.1703 S   0  0  0  0  0  0
    4.9858   54.4947   25.9232 C   0  0  0  0  0  0
    6.1605   54.3382   26.3900 N   0  0  0  0  0  0
    6.3971   53.9263   27.7018 C   0  0  0  0  0  0
    7.4922   53.6967   28.2058 O   0  0  0  0  0  0
    5.1461   53.7742   28.6168 C   0  0  0  0  0  0
    3.8214   53.5329   27.8307 C   0  0  2  0  0  0
    3.8436   52.4960   27.4870 H   0  0  0  0  0  0
    3.8016   54.3406   26.6184 N   0  0  0  0  0  0
    2.5872   53.6513   28.7209 C   0  0  0  0  0  0
    2.2014   54.8980   29.2278 C   0  0  0  0  0  0
    1.1052   54.9931   30.0815 C   0  0  0  0  0  0
    0.3901   53.8446   30.4187 C   0  0  0  0  0  0
    0.7606   52.6028   29.9098 C   0  0  0  0  0  0
    1.8627   52.5050   29.0643 C   0  0  0  0  0  0
    1.8316   48.0527   20.0370 C   0  0  0  0  0  0
    2.1228   48.3084   18.5507 C   0  0  0  0  0  0
    1.0449   49.1172   17.7900 C   0  0  0  0  0  0
   -0.4050   48.5842   17.9038 C   0  0  0  0  0  0
   -1.3330   49.3286   18.8994 C   0  0  0  0  0  0
   -1.0755   49.0997   20.4060 C   0  0  0  0  0  0
   -3.7961   52.6185   25.0855 H   0  0  0  0  0  0
   -3.4888   51.4278   23.8250 H   0  0  0  0  0  0
   -2.4954   51.4448   25.2829 H   0  0  0  0  0  0
   -1.6015   53.6965   24.6499 H   0  0  0  0  0  0
   -2.5527   53.7042   23.1831 H   0  0  0  0  0  0
    1.0361   53.1441   23.0793 H   0  0  0  0  0  0
    2.7403   55.2913   23.1112 H   0  0  0  0  0  0
    2.4419   54.3399   24.5288 H   0  0  0  0  0  0
    5.3229   52.9310   29.2779 H   0  0  0  0  0  0
    5.0939   54.6763   29.2250 H   0  0  0  0  0  0
    2.9093   54.3843   26.1554 H   0  0  0  0  0  0
    2.7569   55.7882   28.9700 H   0  0  0  0  0  0
    0.8114   55.9564   30.4827 H   0  0  0  0  0  0
   -0.4575   53.9129   31.0837 H   0  0  0  0  0  0
    0.1975   51.7207   30.1754 H   0  0  0  0  0  0
    2.1480   51.5368   28.6782 H   0  0  0  0  0  0
    1.0576   47.2919   20.1104 H   0  0  0  0  0  0
    2.7044   47.6121   20.5112 H   0  0  0  0  0  0
    2.2869   47.3564   18.0489 H   0  0  0  0  0  0
    3.0707   48.8423   18.4817 H   0  0  0  0  0  0
    1.3354   49.1242   16.7365 H   0  0  0  0  0  0
    1.0834   50.1643   18.0902 H   0  0  0  0  0  0
   -0.4034   47.5142   18.1123 H   0  0  0  0  0  0
   -0.8609   48.6717   16.9173 H   0  0  0  0  0  0
   -2.3517   49.0070   18.6882 H   0  0  0  0  0  0
   -1.3268   50.3991   18.6827 H   0  0  0  0  0  0
   -1.9723   49.3666   20.9610 H   0  0  0  0  0  0
   -0.9971   48.0285   20.5975 H   0  0  0  0  0  0
  1  2  1  0  0  0
  1 36  1  0  0  0
  1 37  1  0  0  0
  1 38  1  0  0  0
  2  3  1  0  0  0
  2 39  1  0  0  0
  2 40  1  0  0  0
  3  4  1  0  0  0
  4  5  2  0  0  0
  4  6  1  0  0  0
  6 10  2  0  0  0
  6  7  1  0  0  0
  7 35  1  0  0  0
  7  8  2  0  0  0
  8  9  1  0  0  0
  8 30  1  0  0  0
  9 10  1  0  0  0
 10 11  1  0  0  0
 11 12  1  0  0  0
 11 41  1  0  0  0
 12 13  2  0  0  0
 12 14  1  0  0  0
 14 15  1  0  0  0
 14 42  1  0  0  0
 14 43  1  0  0  0
 15 16  1  0  0  0
 16 23  1  0  0  0
 16 17  2  0  0  0
 17 18  1  0  0  0
 18 19  2  0  0  0
 18 20  1  0  0  0
 20 21  1  0  0  0
 20 44  1  0  0  0
 20 45  1  0  0  0
 21 22  1  0  0  0
 21 23  1  0  0  0
 21 24  1  0  0  0
 23 46  1  0  0  0
 24 29  2  0  0  0
 24 25  1  0  0  0
 25 26  2  0  0  0
 25 47  1  0  0  0
 26 27  1  0  0  0
 26 48  1  0  0  0
 27 28  2  0  0  0
 27 49  1  0  0  0
 28 29  1  0  0  0
 28 50  1  0  0  0
 29 51  1  0  0  0
 30 31  1  0  0  0
 30 52  1  0  0  0
 30 53  1  0  0  0
 31 32  1  0  0  0
 31 54  1  0  0  0
 31 55  1  0  0  0
 32 33  1  0  0  0
 32 56  1  0  0  0
 32 57  1  0  0  0
 33 34  1  0  0  0
 33 58  1  0  0  0
 33 59  1  0  0  0
 34 35  1  0  0  0
 34 60  1  0  0  0
 34 61  1  0  0  0
 35 62  1  0  0  0
 35 63  1  0  0  0
M  END
> <i_i_glide_confnum>
365

> <i_i_glide_lignum>
5320

> <i_i_glide_posenum>
219

> <i_i_glide_rotatable_bonds>
9

> <i_m_Source_File_Index>
1804

> <b_m_subgroup_collapsed>
0

> <r_i_docking_score>
-5.4062

> <r_i_glide_ecoul>
-2.72042

> <r_i_glide_eff_state_penalty>
0

> <r_i_glide_einternal>
7.54505

> <r_i_glide_emodel>
-60.8767

> <r_i_glide_energy>
-48.8307

> <r_i_glide_erotb>
0.654179

> <r_i_glide_esite>
-0.00332885

> <r_i_glide_evdw>
-46.1102

> <r_i_glide_gscore>
-5.4062

> <r_i_glide_hbond>
-0.100567

> <r_i_glide_ligand_efficiency>
-0.159006

> <r_i_glide_ligand_efficiency_ln>
-1.19438

> <r_i_glide_ligand_efficiency_sa>
-0.515117

> <r_i_glide_lipo>
-2.27073

> <r_i_glide_metal>
0

> <r_i_glide_rewards>
-0.972175

> <s_i_glide_gridfile>
wee1_glide-grid

> <s_m_Source_File>
wee1_decoys_glide_SP.sdf

> <s_m_Source_Path>
/Users/zhangxujun/Desktop

> <s_m_entry_id>
2079

> <s_m_entry_name>
wee1_decoys_glide_SP.1804

> <s_m_subgroup_title>
wee1_decoys_glide_SP

> <s_m_subgroupid>
wee1_decoys_glide_SP


$$$$
