ZINC39666026_1241
                    3D
 Schrodinger Suite 2024-2.
 69 72  0  0  1  0            999 V2000
   -2.0485   58.6617   15.5907 C   0  0  0  0  0  0
   -0.9826   57.5805   15.5856 C   0  0  0  0  0  0
   -0.2630   57.3042   14.4202 C   0  0  0  0  0  0
    0.7299   56.3272   14.4340 C   0  0  0  0  0  0
    1.0188   55.6210   15.6025 C   0  0  0  0  0  0
    0.2755   55.8931   16.7638 C   0  0  0  0  0  0
   -0.7118   56.8737   16.7581 C   0  0  0  0  0  0
    2.0417   54.6920   15.5187 O   0  0  0  0  0  0
    2.5113   54.0181   16.6894 C   0  0  1  0  0  0
    2.4476   54.6720   17.5608 H   0  0  0  0  0  0
    1.6498   52.7649   16.9426 C   0  0  0  0  0  0
    4.0108   53.6794   16.4910 C   0  0  0  0  0  0
    4.6899   53.2969   17.7326 N   0  0  0  0  0  0
    4.9638   54.1465   18.7384 C   0  0  0  0  0  0
    4.7616   55.3597   18.6538 O   0  0  0  0  0  0
    5.5061   53.4914   20.0350 C   0  0  1  0  0  0
    6.3007   52.8277   19.6820 H   0  0  0  0  0  0
    6.1005   54.5982   20.9590 C   0  0  0  0  0  0
    5.8263   54.1305   22.3238 N   0  0  0  0  0  0
    5.0433   52.9035   22.3442 C   0  0  0  0  0  0
    4.4484   52.7736   20.9324 C   0  0  0  0  0  0
    4.1641   51.3224   20.4818 C   0  0  0  0  0  0
    3.1709   50.5753   21.3957 C   0  0  0  0  0  0
    1.8415   51.3553   21.4027 N   0  3  0  0  0  0
    1.9969   52.8357   21.8061 C   0  0  0  0  0  0
    3.0728   53.4807   20.9031 C   0  0  0  0  0  0
    6.2532   54.7940   23.4302 C   0  0  0  0  0  0
    7.0831   55.6963   23.3668 O   0  0  0  0  0  0
    5.6294   54.4746   24.7725 C   0  0  0  0  0  0
    4.2390   54.4970   24.9556 C   0  0  0  0  0  0
    3.6783   54.2357   26.2057 C   0  0  0  0  0  0
    4.4949   53.9657   27.3104 C   0  0  0  0  0  0
    5.8833   53.9635   27.1385 C   0  0  0  0  0  0
    6.4364   54.2267   25.8858 C   0  0  0  0  0  0
    6.7066   53.6981   28.1776 F   0  0  0  0  0  0
    3.8948   53.6884   28.6899 C   0  0  0  0  0  0
    2.5620   53.7023   28.6703 F   0  0  0  0  0  0
    4.2883   52.4958   29.1314 F   0  0  0  0  0  0
    4.3032   54.6150   29.5538 F   0  0  0  0  0  0
   -1.9320   59.2926   16.4708 H   0  0  0  0  0  0
   -3.0417   58.2173   15.6243 H   0  0  0  0  0  0
   -1.9743   59.3097   14.7170 H   0  0  0  0  0  0
   -0.4658   57.8450   13.5068 H   0  0  0  0  0  0
    1.2944   56.1214   13.5351 H   0  0  0  0  0  0
    0.4530   55.3588   17.6823 H   0  0  0  0  0  0
   -1.2590   57.0874   17.6660 H   0  0  0  0  0  0
    1.9979   52.2160   17.8187 H   0  0  0  0  0  0
    0.6054   53.0279   17.1114 H   0  0  0  0  0  0
    1.6834   52.0828   16.0898 H   0  0  0  0  0  0
    4.1134   52.8665   15.7710 H   0  0  0  0  0  0
    4.5265   54.5308   16.0397 H   0  0  0  0  0  0
    4.9314   52.3145   17.8345 H   0  0  0  0  0  0
    7.1622   54.7666   20.7728 H   0  0  0  0  0  0
    5.5408   55.5322   20.8780 H   0  0  0  0  0  0
    4.2819   52.8799   23.1146 H   0  0  0  0  0  0
    5.7388   52.0769   22.4970 H   0  0  0  0  0  0
    3.8205   51.2967   19.4470 H   0  0  0  0  0  0
    5.1043   50.7791   20.4818 H   0  0  0  0  0  0
    2.9389   49.5750   21.0249 H   0  0  0  0  0  0
    3.5007   50.4966   22.4309 H   0  0  0  0  0  0
    1.4461   51.3177   20.4717 H   0  0  0  0  0  0
    1.0196   53.2966   21.6558 H   0  0  0  0  0  0
    2.2254   52.8549   22.8712 H   0  0  0  0  0  0
    3.1921   54.5193   21.2142 H   0  0  0  0  0  0
    2.7041   53.5206   19.8801 H   0  0  0  0  0  0
    3.5810   54.7329   24.1302 H   0  0  0  0  0  0
    2.6038   54.2544   26.3082 H   0  0  0  0  0  0
    7.5043   54.2213   25.7817 H   0  0  0  0  0  0
    1.1798   50.8968   22.0150 H   0  0  0  0  0  0
  1  2  1  0  0  0
  1 40  1  0  0  0
  1 41  1  0  0  0
  1 42  1  0  0  0
  2  7  2  0  0  0
  2  3  1  0  0  0
  3  4  2  0  0  0
  3 43  1  0  0  0
  4  5  1  0  0  0
  4 44  1  0  0  0
  5  6  2  0  0  0
  5  8  1  0  0  0
  6  7  1  0  0  0
  6 45  1  0  0  0
  7 46  1  0  0  0
  8  9  1  0  0  0
  9 10  1  0  0  0
  9 11  1  0  0  0
  9 12  1  0  0  0
 11 47  1  0  0  0
 11 48  1  0  0  0
 11 49  1  0  0  0
 12 13  1  0  0  0
 12 50  1  0  0  0
 12 51  1  0  0  0
 13 14  1  0  0  0
 13 52  1  0  0  0
 14 15  2  0  0  0
 14 16  1  0  0  0
 16 17  1  0  0  0
 16 21  1  0  0  0
 16 18  1  0  0  0
 18 19  1  0  0  0
 18 53  1  0  0  0
 18 54  1  0  0  0
 19 20  1  0  0  0
 19 27  1  0  0  0
 20 21  1  0  0  0
 20 55  1  0  0  0
 20 56  1  0  0  0
 21 26  1  0  0  0
 21 22  1  0  0  0
 22 23  1  0  0  0
 22 57  1  0  0  0
 22 58  1  0  0  0
 23 24  1  0  0  0
 23 59  1  0  0  0
 23 60  1  0  0  0
 24 25  1  0  0  0
 24 61  1  0  0  0
 24 69  1  0  0  0
 25 26  1  0  0  0
 25 62  1  0  0  0
 25 63  1  0  0  0
 26 64  1  0  0  0
 26 65  1  0  0  0
 27 28  2  0  0  0
 27 29  1  0  0  0
 29 34  2  0  0  0
 29 30  1  0  0  0
 30 31  2  0  0  0
 30 66  1  0  0  0
 31 32  1  0  0  0
 31 67  1  0  0  0
 32 33  2  0  0  0
 32 36  1  0  0  0
 33 34  1  0  0  0
 33 35  1  0  0  0
 34 68  1  0  0  0
 36 37  1  0  0  0
 36 38  1  0  0  0
 36 39  1  0  0  0
M  CHG  1  24   1
M  END
> <i_i_glide_confnum>
112

> <i_i_glide_lignum>
1242

> <i_i_glide_posenum>
301

> <i_i_glide_rotatable_bonds>
9

> <i_m_Source_File_Index>
2751

> <b_m_subgroup_collapsed>
0

> <r_i_docking_score>
-6.04118

> <r_i_glide_ecoul>
-0.735188

> <r_i_glide_eff_state_penalty>
0

> <r_i_glide_einternal>
7.77617

> <r_i_glide_emodel>
-54.1988

> <r_i_glide_energy>
-38.7106

> <r_i_glide_erotb>
0.602485

> <r_i_glide_esite>
-0.0847156

> <r_i_glide_evdw>
-37.9754

> <r_i_glide_gscore>
-6.04118

> <r_i_glide_hbond>
-0.16

> <r_i_glide_ligand_efficiency>
-0.163275

> <r_i_glide_ligand_efficiency_ln>
-1.31019

> <r_i_glide_ligand_efficiency_sa>
-0.544069

> <r_i_glide_lipo>
-2.53828

> <r_i_glide_metal>
0

> <r_i_glide_rewards>
-1.85162

> <s_i_glide_gridfile>
wee1_glide-grid

> <s_m_Source_File>
wee1_decoys_glide_SP.sdf

> <s_m_Source_Path>
/Users/zhangxujun/Desktop

> <s_m_entry_id>
3026

> <s_m_entry_name>
wee1_decoys_glide_SP.2751

> <s_m_subgroup_title>
wee1_decoys_glide_SP

> <s_m_subgroupid>
wee1_decoys_glide_SP


$$$$
