ZINC13941996_2596
                    3D
 Schrodinger Suite 2024-2.
 49 51  0  0  1  0            999 V2000
    1.6072   52.0681   29.5016 C   0  0  0  0  0  0
    1.3700   52.2204   28.0117 C   0  0  0  0  0  0
    2.1203   53.1388   27.2820 C   0  0  0  0  0  0
    1.8920   53.2967   25.9180 C   0  0  0  0  0  0
    0.8960   52.5574   25.2510 C   0  0  0  0  0  0
    0.1627   51.6270   26.0117 C   0  0  0  0  0  0
    0.3920   51.4602   27.3747 C   0  0  0  0  0  0
    0.6068   52.7555   23.7990 C   0  0  0  0  0  0
   -0.2746   52.0084   23.2049 N   0  0  0  0  0  0
   -0.5597   52.0967   21.9155 N   0  0  0  0  0  0
    0.2611   51.6797   21.0135 C   0  0  0  0  0  0
    1.4927   51.1390   21.2157 N   0  0  0  0  0  0
    2.5049   50.7905   20.4030 C   0  0  0  0  0  0
    3.5855   50.5012   20.8954 O   0  0  0  0  0  0
    2.2648   50.8496   18.8806 C   0  0  0  0  0  0
    0.7815   50.7019   18.4414 C   0  0  2  0  0  0
    0.6787   50.8976   17.3736 H   0  0  0  0  0  0
   -0.2837   51.9124   19.3048 S   0  0  0  0  0  0
    0.2161   49.2594   18.6102 C   0  0  0  0  0  0
   -0.8567   49.0691   19.1899 O   0  0  0  0  0  0
    0.9384   48.2590   18.0533 N   0  0  0  0  0  0
    0.6774   46.8763   18.1252 C   0  0  0  0  0  0
    1.1289   46.0773   17.0735 C   0  0  0  0  0  0
    0.9804   44.6909   17.1314 C   0  0  0  0  0  0
    0.3953   44.0817   18.2533 C   0  0  0  0  0  0
   -0.0966   44.8965   19.2811 C   0  0  0  0  0  0
    0.0535   46.2776   19.2276 C   0  0  0  0  0  0
    0.3375   42.5874   18.3822 C   0  0  0  0  0  0
    0.0719   42.0975   19.5073 O   0  0  0  0  0  0
    1.4064   53.8789   23.1115 C   0  0  0  0  0  0
    2.4416   51.3906   29.6813 H   0  0  0  0  0  0
    1.8423   53.0332   29.9533 H   0  0  0  0  0  0
    0.7157   51.6957   30.0105 H   0  0  0  0  0  0
    2.8834   53.7302   27.7672 H   0  0  0  0  0  0
    2.5037   54.0208   25.4015 H   0  0  0  0  0  0
   -0.6100   51.0237   25.5563 H   0  0  0  0  0  0
   -0.1959   50.7399   27.9288 H   0  0  0  0  0  0
    1.7450   51.0417   22.1866 H   0  0  0  0  0  0
    2.6383   51.8198   18.5526 H   0  0  0  0  0  0
    2.9063   50.0990   18.4194 H   0  0  0  0  0  0
    1.7457   48.5169   17.5015 H   0  0  0  0  0  0
    1.6192   46.5221   16.2189 H   0  0  0  0  0  0
    1.3632   44.0884   16.3190 H   0  0  0  0  0  0
   -0.5558   44.4624   20.1584 H   0  0  0  0  0  0
   -0.2866   46.8621   20.0691 H   0  0  0  0  0  0
    1.2680   54.8310   23.6216 H   0  0  0  0  0  0
    2.4687   53.6392   23.0779 H   0  0  0  0  0  0
    1.1081   54.0533   22.0820 H   0  0  0  0  0  0
    0.5601   41.8877   17.3700 O   0  5  0  0  0  0
  1  2  1  0  0  0
  1 31  1  0  0  0
  1 32  1  0  0  0
  1 33  1  0  0  0
  2  7  2  0  0  0
  2  3  1  0  0  0
  3  4  2  0  0  0
  3 34  1  0  0  0
  4  5  1  0  0  0
  4 35  1  0  0  0
  5  6  2  0  0  0
  5  8  1  0  0  0
  6  7  1  0  0  0
  6 36  1  0  0  0
  7 37  1  0  0  0
  8  9  2  0  0  0
  8 30  1  0  0  0
  9 10  1  0  0  0
 10 11  2  0  0  0
 11 18  1  0  0  0
 11 12  1  0  0  0
 12 13  1  0  0  0
 12 38  1  0  0  0
 13 14  2  0  0  0
 13 15  1  0  0  0
 15 16  1  0  0  0
 15 39  1  0  0  0
 15 40  1  0  0  0
 16 17  1  0  0  0
 16 18  1  0  0  0
 16 19  1  0  0  0
 19 20  2  0  0  0
 19 21  1  0  0  0
 21 22  1  0  0  0
 21 41  1  0  0  0
 22 27  2  0  0  0
 22 23  1  0  0  0
 23 24  2  0  0  0
 23 42  1  0  0  0
 24 25  1  0  0  0
 24 43  1  0  0  0
 25 26  2  0  0  0
 25 28  1  0  0  0
 26 27  1  0  0  0
 26 44  1  0  0  0
 27 45  1  0  0  0
 28 29  2  0  0  0
 28 49  1  0  0  0
 30 46  1  0  0  0
 30 47  1  0  0  0
 30 48  1  0  0  0
M  CHG  1  49  -1
M  END
> <i_i_glide_confnum>
202

> <i_i_glide_lignum>
2597

> <i_i_glide_posenum>
323

> <i_i_glide_rotatable_bonds>
6

> <i_m_Source_File_Index>
188

> <b_m_subgroup_collapsed>
0

> <r_i_docking_score>
-4.37733

> <r_i_glide_ecoul>
-9.21099

> <r_i_glide_eff_state_penalty>
0

> <r_i_glide_einternal>
4.77999

> <r_i_glide_emodel>
-51.0485

> <r_i_glide_energy>
-37.808

> <r_i_glide_erotb>
0.552623

> <r_i_glide_esite>
-0.141416

> <r_i_glide_evdw>
-28.597

> <r_i_glide_gscore>
-4.37733

> <r_i_glide_hbond>
-0.347609

> <r_i_glide_ligand_efficiency>
-0.145911

> <r_i_glide_ligand_efficiency_ln>
-0.994576

> <r_i_glide_ligand_efficiency_sa>
-0.453379

> <r_i_glide_lipo>
-0.933739

> <r_i_glide_metal>
0

> <r_i_glide_rewards>
-0.695686

> <s_i_glide_gridfile>
wee1_glide-grid

> <s_m_Source_File>
wee1_decoys_glide_SP.sdf

> <s_m_Source_Path>
/Users/zhangxujun/Desktop

> <s_m_entry_id>
463

> <s_m_entry_name>
wee1_decoys_glide_SP.188

> <s_m_subgroup_title>
wee1_decoys_glide_SP

> <s_m_subgroupid>
wee1_decoys_glide_SP


$$$$
