ZINC22996585_1780
                    3D
 Schrodinger Suite 2024-2.
 31 33  0  0  1  0            999 V2000
    4.6739   54.0115   17.5837 C   0  0  0  0  0  0
    5.3409   55.2312   17.6483 C   0  0  0  0  0  0
    5.8098   55.7762   18.8633 C   0  0  0  0  0  0
    5.5673   55.0100   20.0381 C   0  0  0  0  0  0
    5.9044   55.2395   21.3385 N   0  0  0  0  0  0
    5.3326   54.2803   22.0396 C   0  0  0  0  0  0
    4.7044   53.3422   21.2228 C   0  0  0  0  0  0
    4.8507   53.8019   19.9403 N   0  0  0  0  0  0
    4.4226   53.2967   18.7457 C   0  0  0  0  0  0
    5.3737   54.2875   23.5291 C   0  0  0  0  0  0
    6.5711   54.4964   24.2211 C   0  0  0  0  0  0
    6.5808   54.4705   25.6141 C   0  0  0  0  0  0
    5.3946   54.2626   26.3125 C   0  0  0  0  0  0
    4.1918   54.0967   25.6308 C   0  0  0  0  0  0
    4.1836   54.0967   24.2384 C   0  0  0  0  0  0
    5.4251   54.1718   28.2125 Br  0  0  0  0  0  0
    6.4899   57.1320   18.8844 C   0  0  0  0  0  0
    6.7044   57.6967   19.9611 O   0  0  0  0  0  0
    6.8175   57.6780   17.6944 N   0  0  0  0  0  0
    7.5044   58.8967   17.6373 N   0  0  0  0  0  0
    4.3428   53.6223   16.6307 H   0  0  0  0  0  0
    5.4770   55.7536   16.7121 H   0  0  0  0  0  0
    4.1605   52.4401   21.4583 H   0  0  0  0  0  0
    3.9130   52.3425   18.7627 H   0  0  0  0  0  0
    7.4938   54.6494   23.6787 H   0  0  0  0  0  0
    7.5043   54.5828   26.1582 H   0  0  0  0  0  0
    3.2749   53.9371   26.1787 H   0  0  0  0  0  0
    3.2522   53.9496   23.7105 H   0  0  0  0  0  0
    6.8715   57.1370   16.8436 H   0  0  0  0  0  0
    6.8172   59.6486   17.6606 H   0  0  0  0  0  0
    8.0553   58.9653   18.4817 H   0  0  0  0  0  0
  1  9  2  0  0  0
  1  2  1  0  0  0
  1 21  1  0  0  0
  2  3  2  0  0  0
  2 22  1  0  0  0
  3  4  1  0  0  0
  3 17  1  0  0  0
  4  8  1  0  0  0
  4  5  2  0  0  0
  5  6  1  0  0  0
  6  7  2  0  0  0
  6 10  1  0  0  0
  7  8  1  0  0  0
  7 23  1  0  0  0
  8  9  1  0  0  0
  9 24  1  0  0  0
 10 15  2  0  0  0
 10 11  1  0  0  0
 11 12  2  0  0  0
 11 25  1  0  0  0
 12 13  1  0  0  0
 12 26  1  0  0  0
 13 14  2  0  0  0
 13 16  1  0  0  0
 14 15  1  0  0  0
 14 27  1  0  0  0
 15 28  1  0  0  0
 17 18  2  0  0  0
 17 19  1  0  0  0
 19 20  1  0  0  0
 19 29  1  0  0  0
 20 30  1  0  0  0
 20 31  1  0  0  0
M  END
> <i_i_glide_confnum>
4

> <i_i_glide_lignum>
1781

> <i_i_glide_posenum>
113

> <i_i_glide_rotatable_bonds>
3

> <i_m_Source_File_Index>
1889

> <b_m_subgroup_collapsed>
0

> <r_i_docking_score>
-6.5575

> <r_i_glide_ecoul>
-7.63032

> <r_i_glide_eff_state_penalty>
0

> <r_i_glide_einternal>
3.37391

> <r_i_glide_emodel>
-52.3932

> <r_i_glide_energy>
-38.5208

> <r_i_glide_erotb>
0.343165

> <r_i_glide_esite>
-0.0190946

> <r_i_glide_evdw>
-30.8905

> <r_i_glide_gscore>
-6.5575

> <r_i_glide_hbond>
-0.456

> <r_i_glide_ligand_efficiency>
-0.327875

> <r_i_glide_ligand_efficiency_ln>
-1.64113

> <r_i_glide_ligand_efficiency_sa>
-0.889989

> <r_i_glide_lipo>
-2.33683

> <r_i_glide_metal>
0

> <r_i_glide_rewards>
-1.39967

> <s_i_glide_gridfile>
wee1_glide-grid

> <s_m_Source_File>
wee1_decoys_glide_SP.sdf

> <s_m_Source_Path>
/Users/zhangxujun/Desktop

> <s_m_entry_id>
2164

> <s_m_entry_name>
wee1_decoys_glide_SP.1889

> <s_m_subgroup_title>
wee1_decoys_glide_SP

> <s_m_subgroupid>
wee1_decoys_glide_SP


$$$$
