ZINC36612846_5661
                    3D
 Schrodinger Suite 2024-2.
 42 46  0  0  1  0            999 V2000
    5.6160   54.9407   19.1937 C   0  0  0  0  0  0
    5.6440   54.7447   20.7180 C   0  0  0  0  0  0
    6.8962   55.3586   21.3765 C   0  0  0  0  0  0
    7.0980   55.0872   22.7993 N   0  0  0  0  0  0
    6.1918   54.7765   23.7877 C   0  0  0  0  0  0
    4.9461   54.3920   23.6288 N   0  0  0  0  0  0
    4.3589   54.1680   24.7883 C   0  0  0  0  0  0
    3.0043   53.6942   25.0070 C   0  0  0  0  0  0
    2.6095   53.4477   26.3275 C   0  0  0  0  0  0
    1.2793   52.8999   26.3876 C   0  0  0  0  0  0
    0.4512   52.4815   27.4636 C   0  0  0  0  0  0
   -0.8404   52.0337   27.1676 C   0  0  0  0  0  0
   -1.2882   52.0137   25.8455 C   0  0  0  0  0  0
   -0.5205   52.3916   24.7910 N   0  0  0  0  0  0
    0.7112   52.8137   25.0715 C   0  0  0  0  0  0
    1.7952   53.3572   23.8031 S   0  0  0  0  0  0
   -2.7082   51.5702   25.4913 C   0  0  0  0  0  0
   -3.4317   51.2860   26.5781 F   0  0  0  0  0  0
   -3.3362   52.5423   24.8244 F   0  0  0  0  0  0
   -2.6648   50.4816   24.7204 F   0  0  0  0  0  0
    0.8543   52.5013   28.8992 C   0  0  0  0  0  0
    1.9891   52.0989   29.5897 C   0  0  0  0  0  0
    1.7725   52.3762   30.9397 C   0  0  0  0  0  0
    0.5070   52.9336   31.0164 C   0  0  0  0  0  0
   -0.0491   53.0052   29.7823 O   0  0  0  0  0  0
    3.4281   53.6976   27.3938 N   0  5  0  0  0  0
    4.6786   54.1456   27.3063 C   0  0  0  0  0  0
    5.4107   54.3595   28.2712 O   0  0  0  0  0  0
    5.1275   54.3714   25.9384 C   0  0  0  0  0  0
    6.7044   54.8973   25.4452 S   0  0  0  0  0  0
    4.7276   54.4818   18.7544 H   0  0  0  0  0  0
    6.4902   54.4888   18.7215 H   0  0  0  0  0  0
    5.6000   55.9989   18.9264 H   0  0  0  0  0  0
    4.7427   55.1899   21.1441 H   0  0  0  0  0  0
    5.5756   53.6776   20.9458 H   0  0  0  0  0  0
    7.7724   54.9829   20.8474 H   0  0  0  0  0  0
    6.9082   56.4346   21.2074 H   0  0  0  0  0  0
    8.0523   55.2956   23.0863 H   0  0  0  0  0  0
   -1.4871   51.6980   27.9682 H   0  0  0  0  0  0
    2.8747   51.6603   29.1531 H   0  0  0  0  0  0
    2.4432   52.1766   31.7599 H   0  0  0  0  0  0
   -0.0990   53.2949   31.8372 H   0  0  0  0  0  0
  1  2  1  0  0  0
  1 31  1  0  0  0
  1 32  1  0  0  0
  1 33  1  0  0  0
  2  3  1  0  0  0
  2 34  1  0  0  0
  2 35  1  0  0  0
  3  4  1  0  0  0
  3 36  1  0  0  0
  3 37  1  0  0  0
  4  5  1  0  0  0
  4 38  1  0  0  0
  5 30  1  0  0  0
  5  6  2  0  0  0
  6  7  1  0  0  0
  7 29  2  0  0  0
  7  8  1  0  0  0
  8 16  1  0  0  0
  8  9  2  0  0  0
  9 10  1  0  0  0
  9 26  1  0  0  0
 10 15  2  0  0  0
 10 11  1  0  0  0
 11 12  2  0  0  0
 11 21  1  0  0  0
 12 13  1  0  0  0
 12 39  1  0  0  0
 13 14  2  0  0  0
 13 17  1  0  0  0
 14 15  1  0  0  0
 15 16  1  0  0  0
 17 18  1  0  0  0
 17 19  1  0  0  0
 17 20  1  0  0  0
 21 25  1  0  0  0
 21 22  2  0  0  0
 22 23  1  0  0  0
 22 40  1  0  0  0
 23 24  2  0  0  0
 23 41  1  0  0  0
 24 25  1  0  0  0
 24 42  1  0  0  0
 26 27  1  0  0  0
 27 28  2  0  0  0
 27 29  1  0  0  0
 29 30  1  0  0  0
M  CHG  1  26  -1
M  END
> <i_i_glide_confnum>
14

> <i_i_glide_lignum>
5662

> <i_i_glide_posenum>
322

> <i_i_glide_rotatable_bonds>
5

> <i_m_Source_File_Index>
423

> <b_m_subgroup_collapsed>
0

> <r_i_docking_score>
-6.28269

> <r_i_glide_ecoul>
-3.04138

> <r_i_glide_eff_state_penalty>
0

> <r_i_glide_einternal>
0.749564

> <r_i_glide_emodel>
-68.1107

> <r_i_glide_energy>
-48.9646

> <r_i_glide_erotb>
0.297629

> <r_i_glide_esite>
-0.045443

> <r_i_glide_evdw>
-45.9232

> <r_i_glide_gscore>
-6.28269

> <r_i_glide_hbond>
-0.32

> <r_i_glide_ligand_efficiency>
-0.209423

> <r_i_glide_ligand_efficiency_ln>
-1.4275

> <r_i_glide_ligand_efficiency_sa>
-0.650726

> <r_i_glide_lipo>
-2.9118

> <r_i_glide_metal>
0

> <r_i_glide_rewards>
-0.550712

> <s_i_glide_gridfile>
wee1_glide-grid

> <s_m_Source_File>
wee1_decoys_glide_SP.sdf

> <s_m_Source_Path>
/Users/zhangxujun/Desktop

> <s_m_entry_id>
698

> <s_m_entry_name>
wee1_decoys_glide_SP.423

> <s_m_subgroup_title>
wee1_decoys_glide_SP

> <s_m_subgroupid>
wee1_decoys_glide_SP


$$$$
