ZINC15946935_2906
                    3D
 Schrodinger Suite 2024-2.
 59 62  0  0  1  0            999 V2000
    4.4754   53.0426   15.4063 C   0  0  0  0  0  0
    5.0325   53.7230   16.6704 C   0  0  1  0  0  0
    6.1171   53.5845   16.6705 H   0  0  0  0  0  0
    4.6933   55.2123   16.7764 C   0  0  0  0  0  0
    3.3840   55.6668   16.5821 C   0  0  0  0  0  0
    3.1025   57.0302   16.6227 C   0  0  0  0  0  0
    4.1260   57.9410   16.8696 C   0  0  0  0  0  0
    5.4278   57.4997   17.0863 C   0  0  0  0  0  0
    5.7126   56.1367   17.0390 C   0  0  0  0  0  0
    5.2621   53.2195   19.2248 C   0  0  0  0  0  0
    4.2875   53.9959   20.1302 C   0  0  0  0  0  0
    4.9512   54.3850   21.4550 C   0  0  0  0  0  0
    6.0518   54.9348   21.4252 O   0  0  0  0  0  0
    4.2487   54.0968   22.5726 N   0  0  0  0  0  0
    4.6423   54.2137   23.9078 C   0  0  0  0  0  0
    3.8251   53.9367   25.0343 C   0  0  0  0  0  0
    4.5754   54.0969   26.2313 C   0  0  0  0  0  0
    5.8825   54.4735   26.0236 C   0  0  0  0  0  0
    6.2845   54.6532   24.3666 S   0  0  0  0  0  0
    6.6808   54.6378   27.2795 C   0  0  0  0  0  0
    5.6349   54.3877   28.3732 C   0  0  0  0  0  0
    4.3199   53.9304   27.7132 C   0  0  0  0  0  0
    2.4120   53.5603   24.9605 C   0  0  0  0  0  0
    1.7761   53.6884   23.9131 O   0  0  0  0  0  0
    1.9068   53.0504   26.1075 N   0  0  0  0  0  0
    0.6459   52.4969   26.3843 C   0  0  0  0  0  0
    0.3844   52.2207   27.7298 C   0  0  0  0  0  0
   -0.8472   51.6971   28.1131 C   0  0  0  0  0  0
   -1.8226   51.4545   27.1500 C   0  0  0  0  0  0
   -1.5627   51.6955   25.8032 C   0  0  0  0  0  0
   -0.3277   52.2084   25.4147 C   0  0  0  0  0  0
   -3.5298   50.8063   27.6835 Br  0  0  0  0  0  0
    4.8188   53.5558   14.5055 H   0  0  0  0  0  0
    4.8072   52.0048   15.3327 H   0  0  0  0  0  0
    3.3854   53.0354   15.3831 H   0  0  0  0  0  0
    2.5809   54.9721   16.3856 H   0  0  0  0  0  0
    2.0947   57.3840   16.4618 H   0  0  0  0  0  0
    3.9116   59.0012   16.8910 H   0  0  0  0  0  0
    6.2129   58.2174   17.2769 H   0  0  0  0  0  0
    6.7289   55.8053   17.1920 H   0  0  0  0  0  0
    5.5051   52.2362   19.6366 H   0  0  0  0  0  0
    6.1853   53.7562   18.9902 H   0  0  0  0  0  0
    3.9603   54.9078   19.6381 H   0  0  0  0  0  0
    3.3932   53.3983   20.3196 H   0  0  0  0  0  0
    3.2979   53.7738   22.4468 H   0  0  0  0  0  0
    7.5024   53.9238   27.3466 H   0  0  0  0  0  0
    7.1031   55.6375   27.3630 H   0  0  0  0  0  0
    5.9971   53.6372   29.0715 H   0  0  0  0  0  0
    5.4792   55.2967   28.9571 H   0  0  0  0  0  0
    3.4803   54.5273   28.0711 H   0  0  0  0  0  0
    4.1259   52.8896   27.9732 H   0  0  0  0  0  0
    2.5423   53.0456   26.8908 H   0  0  0  0  0  0
    1.1255   52.4168   28.4907 H   0  0  0  0  0  0
   -1.0525   51.4833   29.1518 H   0  0  0  0  0  0
   -2.3195   51.4896   25.0624 H   0  0  0  0  0  0
   -0.1585   52.3815   24.3646 H   0  0  0  0  0  0
    4.5749   52.8967   17.8861 N   0  3  0  0  0  0
    3.5721   52.9651   17.9882 H   0  0  0  0  0  0
    4.7863   51.9120   17.7004 H   0  0  0  0  0  0
  1  2  1  0  0  0
  1 33  1  0  0  0
  1 34  1  0  0  0
  1 35  1  0  0  0
  2  3  1  0  0  0
  2  4  1  0  0  0
  2 57  1  0  0  0
  4  9  2  0  0  0
  4  5  1  0  0  0
  5  6  2  0  0  0
  5 36  1  0  0  0
  6  7  1  0  0  0
  6 37  1  0  0  0
  7  8  2  0  0  0
  7 38  1  0  0  0
  8  9  1  0  0  0
  8 39  1  0  0  0
  9 40  1  0  0  0
 10 11  1  0  0  0
 10 41  1  0  0  0
 10 42  1  0  0  0
 10 57  1  0  0  0
 11 12  1  0  0  0
 11 43  1  0  0  0
 11 44  1  0  0  0
 12 13  2  0  0  0
 12 14  1  0  0  0
 14 15  1  0  0  0
 14 45  1  0  0  0
 15 19  1  0  0  0
 15 16  2  0  0  0
 16 17  1  0  0  0
 16 23  1  0  0  0
 17 22  1  0  0  0
 17 18  2  0  0  0
 18 19  1  0  0  0
 18 20  1  0  0  0
 20 21  1  0  0  0
 20 46  1  0  0  0
 20 47  1  0  0  0
 21 22  1  0  0  0
 21 48  1  0  0  0
 21 49  1  0  0  0
 22 50  1  0  0  0
 22 51  1  0  0  0
 23 24  2  0  0  0
 23 25  1  0  0  0
 25 26  1  0  0  0
 25 52  1  0  0  0
 26 31  2  0  0  0
 26 27  1  0  0  0
 27 28  2  0  0  0
 27 53  1  0  0  0
 28 29  1  0  0  0
 28 54  1  0  0  0
 29 30  2  0  0  0
 29 32  1  0  0  0
 30 31  1  0  0  0
 30 55  1  0  0  0
 31 56  1  0  0  0
 57 58  1  0  0  0
 57 59  1  0  0  0
M  CHG  1  57   1
M  END
> <i_i_glide_confnum>
128

> <i_i_glide_lignum>
2907

> <i_i_glide_posenum>
157

> <i_i_glide_rotatable_bonds>
10

> <i_m_Source_File_Index>
5342

> <b_m_subgroup_collapsed>
0

> <r_i_docking_score>
-5.32239

> <r_i_glide_ecoul>
-4.90343

> <r_i_glide_eff_state_penalty>
0

> <r_i_glide_einternal>
8.97369

> <r_i_glide_emodel>
-64.1365

> <r_i_glide_energy>
-48.7107

> <r_i_glide_erotb>
0.700002

> <r_i_glide_esite>
-0.1

> <r_i_glide_evdw>
-43.8073

> <r_i_glide_gscore>
-5.32239

> <r_i_glide_hbond>
-0.2

> <r_i_glide_ligand_efficiency>
-0.166325

> <r_i_glide_ligand_efficiency_ln>
-1.19183

> <r_i_glide_ligand_efficiency_sa>
-0.528048

> <r_i_glide_lipo>
-2.25635

> <r_i_glide_metal>
0

> <r_i_glide_rewards>
-0.540163

> <s_i_glide_gridfile>
wee1_glide-grid

> <s_m_Source_File>
wee1_decoys_glide_SP.sdf

> <s_m_Source_Path>
/Users/zhangxujun/Desktop

> <s_m_entry_id>
5617

> <s_m_entry_name>
wee1_decoys_glide_SP.5342

> <s_m_subgroup_title>
wee1_decoys_glide_SP

> <s_m_subgroupid>
wee1_decoys_glide_SP


$$$$
