ZINC49503900_4050
                    3D
 Schrodinger Suite 2024-2.
 65 69  0  0  1  0            999 V2000
   -0.7124   51.9584   30.0051 C   0  0  0  0  0  0
    0.6671   52.3425   29.5006 C   0  0  0  0  0  0
    0.8359   52.5927   28.1367 C   0  0  0  0  0  0
    2.0669   53.0136   27.6400 C   0  0  0  0  0  0
    3.1527   53.2019   28.5022 C   0  0  0  0  0  0
    2.9878   52.9171   29.8686 C   0  0  0  0  0  0
    1.7544   52.4967   30.3771 C   0  0  0  0  0  0
    1.6287   52.2165   31.8719 C   0  0  0  0  0  0
    4.3904   53.6391   27.9742 N   0  0  0  0  0  0
    4.9256   53.1506   26.7130 C   0  0  0  0  0  0
    6.2838   53.7953   26.4831 C   0  0  2  0  0  0
    7.0537   53.0308   26.3689 H   0  0  0  0  0  0
    6.5153   54.5977   27.7519 C   0  0  0  0  0  0
    5.2590   54.4645   28.6045 C   0  0  0  0  0  0
    5.1043   55.0205   29.6817 O   0  0  0  0  0  0
    6.3298   54.6037   25.1689 C   0  0  0  0  0  0
    6.7045   55.7741   25.1628 O   0  0  0  0  0  0
    5.9642   53.9098   24.0723 N   0  0  0  0  0  0
    5.9349   54.3034   22.7306 C   0  0  0  0  0  0
    6.7044   55.3433   22.2036 C   0  0  0  0  0  0
    6.6001   55.6657   20.8548 C   0  0  0  0  0  0
    5.7902   54.9169   19.9917 C   0  0  0  0  0  0
    5.0197   53.8523   20.5172 C   0  0  0  0  0  0
    5.1067   53.5676   21.8827 C   0  0  0  0  0  0
    4.0873   53.0287   19.6378 C   0  0  0  0  0  0
    4.2780   53.3396   18.1496 C   0  0  0  0  0  0
    4.4821   54.8467   17.9383 C   0  0  0  0  0  0
    5.7000   55.3028   18.6271 N   0  0  0  0  0  0
    7.1859   55.3703   17.6249 S   0  0  0  0  0  0
    8.2775   55.9149   18.4410 O   0  0  0  0  0  0
    7.3227   54.0721   16.9551 O   0  0  0  0  0  0
    6.8088   56.6003   16.3811 C   0  0  0  0  0  0
    6.7387   57.9459   16.7483 C   0  0  0  0  0  0
    6.3759   58.8993   15.8018 C   0  0  0  0  0  0
    6.0883   58.5067   14.4969 C   0  0  0  0  0  0
    6.1554   57.1646   14.1281 C   0  0  0  0  0  0
    6.5106   56.2064   15.0737 C   0  0  0  0  0  0
   -1.4912   52.2120   29.2880 H   0  0  0  0  0  0
   -0.7948   50.8967   30.2169 H   0  0  0  0  0  0
   -0.9182   52.4993   30.9262 H   0  0  0  0  0  0
    0.0064   52.4717   27.4552 H   0  0  0  0  0  0
    2.1568   53.2129   26.5827 H   0  0  0  0  0  0
    3.8253   53.0167   30.5437 H   0  0  0  0  0  0
    2.6041   52.0971   32.3449 H   0  0  0  0  0  0
    1.0776   51.3001   32.0816 H   0  0  0  0  0  0
    1.0927   53.0260   32.3666 H   0  0  0  0  0  0
    5.1048   52.0967   26.8818 H   0  0  0  0  0  0
    4.2336   53.2310   25.8740 H   0  0  0  0  0  0
    6.7048   55.6603   27.6005 H   0  0  0  0  0  0
    7.3684   54.2099   28.3097 H   0  0  0  0  0  0
    5.6036   52.9837   24.2426 H   0  0  0  0  0  0
    7.3789   55.9145   22.8239 H   0  0  0  0  0  0
    7.1733   56.4989   20.4826 H   0  0  0  0  0  0
    4.5112   52.7583   22.2807 H   0  0  0  0  0  0
    4.2216   51.9605   19.8156 H   0  0  0  0  0  0
    3.0640   53.2685   19.9227 H   0  0  0  0  0  0
    3.4191   52.9843   17.5790 H   0  0  0  0  0  0
    5.1369   52.7877   17.7616 H   0  0  0  0  0  0
    3.6554   55.4028   18.3851 H   0  0  0  0  0  0
    4.4909   55.1000   16.8779 H   0  0  0  0  0  0
    6.9476   58.2530   17.7631 H   0  0  0  0  0  0
    6.3044   59.9425   16.0815 H   0  0  0  0  0  0
    5.8019   59.2513   13.7684 H   0  0  0  0  0  0
    5.9233   56.8676   13.1158 H   0  0  0  0  0  0
    6.5473   55.1641   14.7900 H   0  0  0  0  0  0
  1  2  1  0  0  0
  1 38  1  0  0  0
  1 39  1  0  0  0
  1 40  1  0  0  0
  2  7  2  0  0  0
  2  3  1  0  0  0
  3  4  2  0  0  0
  3 41  1  0  0  0
  4  5  1  0  0  0
  4 42  1  0  0  0
  5  6  2  0  0  0
  5  9  1  0  0  0
  6  7  1  0  0  0
  6 43  1  0  0  0
  7  8  1  0  0  0
  8 44  1  0  0  0
  8 45  1  0  0  0
  8 46  1  0  0  0
  9 14  1  0  0  0
  9 10  1  0  0  0
 10 11  1  0  0  0
 10 47  1  0  0  0
 10 48  1  0  0  0
 11 12  1  0  0  0
 11 13  1  0  0  0
 11 16  1  0  0  0
 13 14  1  0  0  0
 13 49  1  0  0  0
 13 50  1  0  0  0
 14 15  2  0  0  0
 16 17  2  0  0  0
 16 18  1  0  0  0
 18 19  1  0  0  0
 18 51  1  0  0  0
 19 24  2  0  0  0
 19 20  1  0  0  0
 20 21  2  0  0  0
 20 52  1  0  0  0
 21 22  1  0  0  0
 21 53  1  0  0  0
 22 28  1  0  0  0
 22 23  2  0  0  0
 23 24  1  0  0  0
 23 25  1  0  0  0
 24 54  1  0  0  0
 25 26  1  0  0  0
 25 55  1  0  0  0
 25 56  1  0  0  0
 26 27  1  0  0  0
 26 57  1  0  0  0
 26 58  1  0  0  0
 27 28  1  0  0  0
 27 59  1  0  0  0
 27 60  1  0  0  0
 28 29  1  0  0  0
 29 30  2  0  0  0
 29 31  2  0  0  0
 29 32  1  0  0  0
 32 37  2  0  0  0
 32 33  1  0  0  0
 33 34  2  0  0  0
 33 61  1  0  0  0
 34 35  1  0  0  0
 34 62  1  0  0  0
 35 36  2  0  0  0
 35 63  1  0  0  0
 36 37  1  0  0  0
 36 64  1  0  0  0
 37 65  1  0  0  0
M  END
> <i_i_glide_confnum>
261

> <i_i_glide_lignum>
4051

> <i_i_glide_posenum>
232

> <i_i_glide_rotatable_bonds>
6

> <i_m_Source_File_Index>
199

> <b_m_subgroup_collapsed>
0

> <r_i_docking_score>
-5.03149

> <r_i_glide_ecoul>
-4.89474

> <r_i_glide_eff_state_penalty>
0

> <r_i_glide_einternal>
13.3579

> <r_i_glide_emodel>
-55.8682

> <r_i_glide_energy>
-50.4719

> <r_i_glide_erotb>
0.483572

> <r_i_glide_esite>
-0.00137895

> <r_i_glide_evdw>
-45.5771

> <r_i_glide_gscore>
-5.03149

> <r_i_glide_hbond>
-0.215691

> <r_i_glide_ligand_efficiency>
-0.139764

> <r_i_glide_ligand_efficiency_ln>
-1.09774

> <r_i_glide_ligand_efficiency_sa>
-0.46149

> <r_i_glide_lipo>
-2.2765

> <r_i_glide_metal>
0

> <r_i_glide_rewards>
-0.0084258

> <s_i_glide_gridfile>
wee1_glide-grid

> <s_m_Source_File>
wee1_decoys_glide_SP.sdf

> <s_m_Source_Path>
/Users/zhangxujun/Desktop

> <s_m_entry_id>
474

> <s_m_entry_name>
wee1_decoys_glide_SP.199

> <s_m_subgroup_title>
wee1_decoys_glide_SP

> <s_m_subgroupid>
wee1_decoys_glide_SP


$$$$
