ZINC44171456_3488
                    3D
 Schrodinger Suite 2024-2.
 72 75  0  0  1  0            999 V2000
    3.2892   53.7747   22.1795 C   0  0  0  0  0  0
    2.1163   53.1230   22.9384 C   0  0  0  0  0  0
    2.1553   53.1499   24.4764 C   0  0  0  0  0  0
    3.2485   53.6983   25.1531 C   0  0  0  0  0  0
    3.3575   53.7281   26.5534 C   0  0  0  0  0  0
    2.2640   53.2427   27.3213 C   0  0  0  0  0  0
    1.1770   52.6809   26.6324 C   0  0  0  0  0  0
    1.1121   52.6003   25.2378 C   0  0  0  0  0  0
   -0.1029   51.9277   24.5871 C   0  0  2  0  0  0
    0.0405   51.8350   23.5129 H   0  0  0  0  0  0
   -1.4271   52.6644   24.8452 C   0  0  0  0  0  0
   -2.8457   51.9553   23.8879 S   0  0  1  0  0  0
   -2.4829   51.9584   22.4015 O   0  0  0  0  0  0
   -2.6847   50.2364   24.5824 C   0  0  0  0  0  0
   -1.2822   49.5757   24.4414 C   0  0  2  0  0  0
   -1.2220   48.6256   24.9785 H   0  0  0  0  0  0
   -0.1845   50.4641   25.0821 N   0  3  0  0  0  0
   -0.8152   49.2449   22.9944 C   0  0  0  0  0  0
    0.3593   49.4090   22.6558 O   0  0  0  0  0  0
   -1.7329   48.7327   22.1564 N   0  0  0  0  0  0
   -1.4830   48.3324   20.7693 C   0  0  0  0  0  0
   -2.3211   49.1157   19.7643 C   0  0  0  0  0  0
   -2.1494   50.5019   19.6309 C   0  0  0  0  0  0
   -2.9006   51.2215   18.7000 C   0  0  0  0  0  0
   -3.8254   50.5603   17.8926 C   0  0  0  0  0  0
   -3.9992   49.1811   18.0134 C   0  0  0  0  0  0
   -3.2497   48.4596   18.9429 C   0  0  0  0  0  0
   -3.4328   47.1219   19.0418 F   0  0  0  0  0  0
   -2.7305   52.5568   18.5687 F   0  0  0  0  0  0
    2.1913   53.3665   28.8707 C   0  0  0  0  0  0
    3.5304   53.8732   29.4833 C   0  0  0  0  0  0
    4.2583   54.8764   28.5868 C   0  0  0  0  0  0
    4.6519   54.2433   27.2307 C   0  0  0  0  0  0
    5.6229   53.0722   27.4758 C   0  0  0  0  0  0
    5.3814   55.2922   26.3656 C   0  0  0  0  0  0
    1.0902   54.4018   29.2083 C   0  0  0  0  0  0
    1.9191   51.9810   29.5115 C   0  0  0  0  0  0
    3.1514   53.6696   21.1030 H   0  0  0  0  0  0
    3.3669   54.8409   22.3969 H   0  0  0  0  0  0
    4.2419   53.3039   22.4260 H   0  0  0  0  0  0
    2.0548   52.0809   22.6193 H   0  0  0  0  0  0
    1.1968   53.6162   22.6143 H   0  0  0  0  0  0
    4.0661   54.0750   24.5643 H   0  0  0  0  0  0
    0.3431   52.3027   27.2054 H   0  0  0  0  0  0
   -1.3516   53.6947   24.4968 H   0  0  0  0  0  0
   -1.7170   52.6708   25.8969 H   0  0  0  0  0  0
   -3.4693   49.6481   24.1063 H   0  0  0  0  0  0
   -2.9584   50.3219   25.6346 H   0  0  0  0  0  0
   -0.2854   50.4558   26.0868 H   0  0  0  0  0  0
   -2.6758   48.5947   22.4895 H   0  0  0  0  0  0
   -1.6809   47.2617   20.6938 H   0  0  0  0  0  0
   -0.4336   48.4412   20.4829 H   0  0  0  0  0  0
   -1.4274   51.0235   20.2450 H   0  0  0  0  0  0
   -4.4050   51.1156   17.1718 H   0  0  0  0  0  0
   -4.7131   48.6672   17.3860 H   0  0  0  0  0  0
    3.3614   54.3258   30.4586 H   0  0  0  0  0  0
    4.2051   53.0430   29.6973 H   0  0  0  0  0  0
    3.5690   55.6972   28.4217 H   0  0  0  0  0  0
    5.1259   55.2985   29.1010 H   0  0  0  0  0  0
    6.4128   53.3353   28.1851 H   0  0  0  0  0  0
    5.1200   52.1819   27.8464 H   0  0  0  0  0  0
    6.1206   52.8174   26.5411 H   0  0  0  0  0  0
    6.2242   55.7095   26.9141 H   0  0  0  0  0  0
    5.8287   54.8583   25.4696 H   0  0  0  0  0  0
    4.7157   56.0935   26.0353 H   0  0  0  0  0  0
    1.0269   54.5832   30.2806 H   0  0  0  0  0  0
    1.2678   55.3638   28.7254 H   0  0  0  0  0  0
    0.1047   54.0609   28.8942 H   0  0  0  0  0  0
    1.9029   52.0469   30.5996 H   0  0  0  0  0  0
    0.9552   51.5617   29.2180 H   0  0  0  0  0  0
    2.6882   51.2588   29.2361 H   0  0  0  0  0  0
    0.7120   50.0261   24.9042 H   0  0  0  0  0  0
  1  2  1  0  0  0
  1 38  1  0  0  0
  1 39  1  0  0  0
  1 40  1  0  0  0
  2  3  1  0  0  0
  2 41  1  0  0  0
  2 42  1  0  0  0
  3  8  2  0  0  0
  3  4  1  0  0  0
  4  5  2  0  0  0
  4 43  1  0  0  0
  5 33  1  0  0  0
  5  6  1  0  0  0
  6  7  2  0  0  0
  6 30  1  0  0  0
  7  8  1  0  0  0
  7 44  1  0  0  0
  8  9  1  0  0  0
  9 10  1  0  0  0
  9 17  1  0  0  0
  9 11  1  0  0  0
 11 12  1  0  0  0
 11 45  1  0  0  0
 11 46  1  0  0  0
 12 13  2  0  0  0
 12 14  1  0  0  0
 14 15  1  0  0  0
 14 47  1  0  0  0
 14 48  1  0  0  0
 15 16  1  0  0  0
 15 17  1  0  0  0
 15 18  1  0  0  0
 17 49  1  0  0  0
 17 72  1  0  0  0
 18 19  2  0  0  0
 18 20  1  0  0  0
 20 21  1  0  0  0
 20 50  1  0  0  0
 21 22  1  0  0  0
 21 51  1  0  0  0
 21 52  1  0  0  0
 22 27  2  0  0  0
 22 23  1  0  0  0
 23 24  2  0  0  0
 23 53  1  0  0  0
 24 25  1  0  0  0
 24 29  1  0  0  0
 25 26  2  0  0  0
 25 54  1  0  0  0
 26 27  1  0  0  0
 26 55  1  0  0  0
 27 28  1  0  0  0
 30 31  1  0  0  0
 30 36  1  0  0  0
 30 37  1  0  0  0
 31 32  1  0  0  0
 31 56  1  0  0  0
 31 57  1  0  0  0
 32 33  1  0  0  0
 32 58  1  0  0  0
 32 59  1  0  0  0
 33 34  1  0  0  0
 33 35  1  0  0  0
 34 60  1  0  0  0
 34 61  1  0  0  0
 34 62  1  0  0  0
 35 63  1  0  0  0
 35 64  1  0  0  0
 35 65  1  0  0  0
 36 66  1  0  0  0
 36 67  1  0  0  0
 36 68  1  0  0  0
 37 69  1  0  0  0
 37 70  1  0  0  0
 37 71  1  0  0  0
M  CHG  1  17   1
M  END
> <i_i_glide_confnum>
9

> <i_i_glide_lignum>
3489

> <i_i_glide_posenum>
331

> <i_i_glide_rotatable_bonds>
6

> <i_m_Source_File_Index>
463

> <b_m_subgroup_collapsed>
0

> <r_i_docking_score>
-4.37094

> <r_i_glide_ecoul>
-1.20384

> <r_i_glide_eff_state_penalty>
0

> <r_i_glide_einternal>
3.35443

> <r_i_glide_emodel>
-41.3248

> <r_i_glide_energy>
-34.0897

> <r_i_glide_erotb>
0.322317

> <r_i_glide_esite>
-0.0675545

> <r_i_glide_evdw>
-32.8858

> <r_i_glide_gscore>
-4.37094

> <r_i_glide_hbond>
0

> <r_i_glide_ligand_efficiency>
-0.124884

> <r_i_glide_ligand_efficiency_ln>
-0.959519

> <r_i_glide_ligand_efficiency_sa>
-0.408504

> <r_i_glide_lipo>
-2.71455

> <r_i_glide_metal>
0

> <r_i_glide_rewards>
-0.086287

> <s_i_glide_gridfile>
wee1_glide-grid

> <s_m_Source_File>
wee1_decoys_glide_SP.sdf

> <s_m_Source_Path>
/Users/zhangxujun/Desktop

> <s_m_entry_id>
738

> <s_m_entry_name>
wee1_decoys_glide_SP.463

> <s_m_subgroup_title>
wee1_decoys_glide_SP

> <s_m_subgroupid>
wee1_decoys_glide_SP


$$$$
