ZINC37462305_2823
                    3D
 Schrodinger Suite 2024-2.
 57 60  0  0  1  0            999 V2000
    2.9786   51.8086   17.7731 C   0  0  0  0  0  0
    2.6786   52.7242   18.9908 C   0  0  0  0  0  0
    1.3051   52.2465   19.5238 C   0  0  0  0  0  0
    3.9125   52.9713   20.0023 C   0  0  2  0  0  0
    3.4808   53.2785   21.5234 C   0  0  2  0  0  0
    2.8149   54.1399   21.5026 H   0  0  0  0  0  0
    4.7341   53.6595   22.4071 C   0  0  1  0  0  0
    5.4124   52.8032   22.3726 H   0  0  0  0  0  0
    5.4107   54.7352   21.7100 N   0  0  0  0  0  0
    5.5855   54.8968   20.3845 C   0  0  0  0  0  0
    6.7043   56.0829   19.9895 S   0  0  0  0  0  0
    4.8647   54.0684   19.5381 N   0  0  0  0  0  0
    5.1341   54.1157   18.1475 C   0  0  0  0  0  0
    4.4255   54.9998   17.3193 C   0  0  0  0  0  0
    4.6943   55.0468   15.9497 C   0  0  0  0  0  0
    5.6772   54.2192   15.4081 C   0  0  0  0  0  0
    6.3921   53.3373   16.2348 C   0  0  0  0  0  0
    6.1358   53.2989   17.6026 C   0  0  0  0  0  0
    7.3974   52.5267   15.7481 O   0  0  0  0  0  0
    7.3260   52.3036   14.3365 C   0  0  0  0  0  0
    7.0775   53.6412   13.5971 C   0  0  0  0  0  0
    5.8603   54.2526   14.0405 O   0  0  0  0  0  0
    4.6421   53.9821   23.9149 C   0  0  0  0  0  0
    3.4381   54.1444   24.6131 C   0  0  0  0  0  0
    3.4386   54.3046   26.0004 C   0  0  0  0  0  0
    4.6372   54.3640   26.7039 C   0  0  0  0  0  0
    5.8428   54.2849   26.0187 C   0  0  0  0  0  0
    5.8460   54.0965   24.6377 C   0  0  0  0  0  0
    7.0360   53.9846   24.0040 F   0  0  0  0  0  0
    4.6288   54.5048   28.0482 F   0  0  0  0  0  0
    2.6740   52.1131   22.1750 C   0  0  0  0  0  0
    3.0159   50.9308   22.0819 O   0  0  0  0  0  0
    1.5257   52.5286   22.7524 O   0  0  0  0  0  0
    0.6549   51.5954   23.3773 C   0  0  0  0  0  0
    4.6662   51.7678   20.0818 O   0  0  0  0  0  0
    3.0976   50.7694   18.0814 H   0  0  0  0  0  0
    2.1651   51.8306   17.0476 H   0  0  0  0  0  0
    3.8685   52.0823   17.2168 H   0  0  0  0  0  0
    2.4408   53.7040   18.5810 H   0  0  0  0  0  0
    1.3541   51.2317   19.9199 H   0  0  0  0  0  0
    0.8941   52.9014   20.2869 H   0  0  0  0  0  0
    0.5596   52.2302   18.7278 H   0  0  0  0  0  0
    6.0566   55.2935   22.2484 H   0  0  0  0  0  0
    3.6667   55.6466   17.7364 H   0  0  0  0  0  0
    4.1409   55.7181   15.3088 H   0  0  0  0  0  0
    6.7019   52.6263   18.2290 H   0  0  0  0  0  0
    8.2519   51.8395   13.9957 H   0  0  0  0  0  0
    6.5070   51.6124   14.1232 H   0  0  0  0  0  0
    7.9099   54.3168   13.7961 H   0  0  0  0  0  0
    7.0287   53.4849   12.5204 H   0  0  0  0  0  0
    2.4911   54.1592   24.1044 H   0  0  0  0  0  0
    2.5076   54.3832   26.5407 H   0  0  0  0  0  0
    6.7724   54.3381   26.5637 H   0  0  0  0  0  0
   -0.2107   52.1133   23.7905 H   0  0  0  0  0  0
    0.2984   50.8536   22.6609 H   0  0  0  0  0  0
    1.1596   51.0737   24.1915 H   0  0  0  0  0  0
    4.7046   51.3427   19.2009 H   0  0  0  0  0  0
  1  2  1  0  0  0
  1 36  1  0  0  0
  1 37  1  0  0  0
  1 38  1  0  0  0
  2  3  1  0  0  0
  2  4  1  0  0  0
  2 39  1  0  0  0
  3 40  1  0  0  0
  3 41  1  0  0  0
  3 42  1  0  0  0
  4 12  1  0  0  0
  4  5  1  0  0  0
  4 35  1  0  0  0
  5  6  1  0  0  0
  5  7  1  0  0  0
  5 31  1  0  0  0
  7  8  1  0  0  0
  7  9  1  0  0  0
  7 23  1  0  0  0
  9 10  1  0  0  0
  9 43  1  0  0  0
 10 11  2  0  0  0
 10 12  1  0  0  0
 12 13  1  0  0  0
 13 18  2  0  0  0
 13 14  1  0  0  0
 14 15  2  0  0  0
 14 44  1  0  0  0
 15 16  1  0  0  0
 15 45  1  0  0  0
 16 22  1  0  0  0
 16 17  2  0  0  0
 17 18  1  0  0  0
 17 19  1  0  0  0
 18 46  1  0  0  0
 19 20  1  0  0  0
 20 21  1  0  0  0
 20 47  1  0  0  0
 20 48  1  0  0  0
 21 22  1  0  0  0
 21 49  1  0  0  0
 21 50  1  0  0  0
 23 28  2  0  0  0
 23 24  1  0  0  0
 24 25  2  0  0  0
 24 51  1  0  0  0
 25 26  1  0  0  0
 25 52  1  0  0  0
 26 27  2  0  0  0
 26 30  1  0  0  0
 27 28  1  0  0  0
 27 53  1  0  0  0
 28 29  1  0  0  0
 31 32  2  0  0  0
 31 33  1  0  0  0
 33 34  1  0  0  0
 34 54  1  0  0  0
 34 55  1  0  0  0
 34 56  1  0  0  0
 35 57  1  0  0  0
M  END
> <i_i_glide_confnum>
13

> <i_i_glide_lignum>
2824

> <i_i_glide_posenum>
25

> <i_i_glide_rotatable_bonds>
6

> <i_m_Source_File_Index>
2573

> <b_m_subgroup_collapsed>
0

> <r_i_docking_score>
-5.60862

> <r_i_glide_ecoul>
-7.66695

> <r_i_glide_eff_state_penalty>
0

> <r_i_glide_einternal>
19.9961

> <r_i_glide_emodel>
-35.6645

> <r_i_glide_energy>
-41.0386

> <r_i_glide_erotb>
0.265513

> <r_i_glide_esite>
-0.013479

> <r_i_glide_evdw>
-33.3717

> <r_i_glide_gscore>
-5.60862

> <r_i_glide_hbond>
0

> <r_i_glide_ligand_efficiency>
-0.169958

> <r_i_glide_ligand_efficiency_ln>
-1.24733

> <r_i_glide_ligand_efficiency_sa>
-0.545147

> <r_i_glide_lipo>
-1.90096

> <r_i_glide_metal>
0

> <r_i_glide_rewards>
-1.14106

> <s_i_glide_gridfile>
wee1_glide-grid

> <s_m_Source_File>
wee1_decoys_glide_SP.sdf

> <s_m_Source_Path>
/Users/zhangxujun/Desktop

> <s_m_entry_id>
2848

> <s_m_entry_name>
wee1_decoys_glide_SP.2573

> <s_m_subgroup_title>
wee1_decoys_glide_SP

> <s_m_subgroupid>
wee1_decoys_glide_SP


$$$$
