ZINC55084881_4817
                    3D
 Schrodinger Suite 2024-2.
 48 51  0  0  1  0            999 V2000
    1.4566   44.1007   14.6838 C   0  0  0  0  0  0
    1.8352   45.3520   14.2055 C   0  0  0  0  0  0
    1.8659   46.4426   15.0702 C   0  0  0  0  0  0
    1.4920   46.2905   16.4080 C   0  0  0  0  0  0
    1.1040   45.0256   16.8802 C   0  0  0  0  0  0
    1.0963   43.9323   16.0177 C   0  0  0  0  0  0
    1.5045   47.4666   17.1804 N   0  0  0  0  0  0
    1.1425   47.6584   18.4625 C   0  0  0  0  0  0
    0.8726   46.7809   19.2816 O   0  0  0  0  0  0
    1.0886   48.9685   18.7421 N   0  0  0  0  0  0
    0.7629   49.5610   20.0471 C   0  0  2  0  0  0
    0.2391   51.0135   19.9489 C   0  0  1  0  0  0
   -0.3053   51.4705   21.3317 C   0  0  0  0  0  0
    0.7384   51.3681   22.4683 C   0  0  0  0  0  0
    1.4592   49.9998   22.4620 C   0  0  0  0  0  0
    1.9400   49.5670   21.0497 C   0  0  2  0  0  0
    3.1044   50.4155   20.4811 C   0  0  0  0  0  0
    2.6583   51.8500   20.1115 N   0  3  2  0  0  0
    1.3198   51.9495   19.3369 C   0  0  0  0  0  0
    3.7935   52.5471   19.3413 C   0  0  0  0  0  0
    4.1006   54.0028   19.5982 C   0  0  0  0  0  0
    5.0496   52.9370   20.0831 C   0  0  0  0  0  0
    1.4385   43.2546   14.0121 H   0  0  0  0  0  0
    2.0963   45.4753   13.1654 H   0  0  0  0  0  0
    2.1645   47.4099   14.6899 H   0  0  0  0  0  0
    0.8030   44.8630   17.9021 H   0  0  0  0  0  0
    0.8010   42.9589   16.3800 H   0  0  0  0  0  0
    1.8509   48.2795   16.6919 H   0  0  0  0  0  0
    1.0856   49.6031   17.9587 H   0  0  0  0  0  0
   -0.0431   48.9453   20.4589 H   0  0  0  0  0  0
   -0.6079   50.9993   19.2595 H   0  0  0  0  0  0
   -0.6625   52.4973   21.2722 H   0  0  0  0  0  0
   -1.1727   50.8628   21.5963 H   0  0  0  0  0  0
    1.4613   52.1798   22.3956 H   0  0  0  0  0  0
    0.2466   51.5157   23.4311 H   0  0  0  0  0  0
    0.7819   49.2410   22.8582 H   0  0  0  0  0  0
    2.3039   50.0361   23.1524 H   0  0  0  0  0  0
    2.2989   48.5383   21.1335 H   0  0  0  0  0  0
    3.9016   50.5318   21.2161 H   0  0  0  0  0  0
    3.5045   49.9728   19.5659 H   0  0  0  0  0  0
    1.5362   51.6977   18.2968 H   0  0  0  0  0  0
    1.0230   52.9962   19.4009 H   0  0  0  0  0  0
    3.9037   52.1053   18.3455 H   0  0  0  0  0  0
    4.3820   54.6282   18.7503 H   0  0  0  0  0  0
    3.5048   54.5438   20.3319 H   0  0  0  0  0  0
    5.1220   52.7325   21.1515 H   0  0  0  0  0  0
    5.9935   52.7814   19.5613 H   0  0  0  0  0  0
    2.4910   52.3109   20.9946 H   0  0  0  0  0  0
  1  6  2  0  0  0
  1  2  1  0  0  0
  1 23  1  0  0  0
  2  3  2  0  0  0
  2 24  1  0  0  0
  3  4  1  0  0  0
  3 25  1  0  0  0
  4  5  2  0  0  0
  4  7  1  0  0  0
  5  6  1  0  0  0
  5 26  1  0  0  0
  6 27  1  0  0  0
  7  8  1  0  0  0
  7 28  1  0  0  0
  8  9  2  0  0  0
  8 10  1  0  0  0
 10 11  1  0  0  0
 10 29  1  0  0  0
 11 16  1  0  0  0
 11 12  1  0  0  0
 11 30  1  0  0  0
 12 19  1  0  0  0
 12 13  1  0  0  0
 12 31  1  0  0  0
 13 14  1  0  0  0
 13 32  1  0  0  0
 13 33  1  0  0  0
 14 15  1  0  0  0
 14 34  1  0  0  0
 14 35  1  0  0  0
 15 16  1  0  0  0
 15 36  1  0  0  0
 15 37  1  0  0  0
 16 17  1  0  0  0
 16 38  1  0  0  0
 17 18  1  0  0  0
 17 39  1  0  0  0
 17 40  1  0  0  0
 18 19  1  0  0  0
 18 20  1  0  0  0
 18 48  1  0  0  0
 19 41  1  0  0  0
 19 42  1  0  0  0
 20 22  1  0  0  0
 20 21  1  0  0  0
 20 43  1  0  0  0
 21 22  1  0  0  0
 21 44  1  0  0  0
 21 45  1  0  0  0
 22 46  1  0  0  0
 22 47  1  0  0  0
M  CHG  1  18   1
M  END
> <i_i_glide_confnum>
1

> <i_i_glide_lignum>
4818

> <i_i_glide_posenum>
311

> <i_i_glide_rotatable_bonds>
5

> <i_m_Source_File_Index>
4503

> <b_m_subgroup_collapsed>
0

> <r_i_docking_score>
-2.3577

> <r_i_glide_ecoul>
-1.93365

> <r_i_glide_eff_state_penalty>
0

> <r_i_glide_einternal>
4.71393

> <r_i_glide_emodel>
-26.4989

> <r_i_glide_energy>
-23.3255

> <r_i_glide_erotb>
0.814676

> <r_i_glide_esite>
-0.16199

> <r_i_glide_evdw>
-21.3918

> <r_i_glide_gscore>
-2.3577

> <r_i_glide_hbond>
0

> <r_i_glide_ligand_efficiency>
-0.107168

> <r_i_glide_ligand_efficiency_ln>
-0.576308

> <r_i_glide_ligand_efficiency_sa>
-0.30029

> <r_i_glide_lipo>
-0.292708

> <r_i_glide_metal>
0

> <r_i_glide_rewards>
-1.35804

> <s_i_glide_gridfile>
wee1_glide-grid

> <s_m_Source_File>
wee1_decoys_glide_SP.sdf

> <s_m_Source_Path>
/Users/zhangxujun/Desktop

> <s_m_entry_id>
4778

> <s_m_entry_name>
wee1_decoys_glide_SP.4503

> <s_m_subgroup_title>
wee1_decoys_glide_SP

> <s_m_subgroupid>
wee1_decoys_glide_SP


$$$$
