ZINC09088216_715
                    3D
 Schrodinger Suite 2024-2.
 64 69  0  0  1  0            999 V2000
   -2.0628   48.9311   19.1536 C   0  0  0  0  0  0
   -3.3873   48.1851   19.4523 C   0  0  0  0  0  0
   -4.5572   48.8837   18.7166 C   0  0  0  0  0  0
   -3.2830   46.7411   18.8898 C   0  0  0  0  0  0
   -3.7181   48.1529   20.9751 C   0  0  0  0  0  0
   -4.2098   47.1476   21.4929 O   0  0  0  0  0  0
   -3.4968   49.4604   21.7918 C   0  0  2  0  0  0
   -3.7371   50.3124   21.1541 H   0  0  0  0  0  0
   -2.0951   49.5051   22.4736 C   0  0  2  0  0  0
   -1.4672   48.7394   22.0156 H   0  0  0  0  0  0
   -2.2927   49.2239   24.0282 C   0  0  2  0  0  0
   -1.8293   50.2898   24.9968 C   0  0  0  0  0  0
   -2.3274   51.5635   25.2840 C   0  0  0  0  0  0
   -1.6950   52.3462   26.2504 C   0  0  0  0  0  0
   -0.5636   51.8668   26.9174 C   0  0  0  0  0  0
   -0.0720   50.5911   26.6328 C   0  0  0  0  0  0
   -0.7274   49.8127   25.6813 C   0  0  0  0  0  0
   -0.4939   48.4972   25.3230 N   0  0  0  0  0  0
   -1.3775   48.0368   24.4240 C   0  0  0  0  0  0
   -1.4323   46.8966   23.9679 O   0  0  0  0  0  0
   -3.7878   48.7841   24.1377 C   0  0  1  0  0  0
   -3.9242   47.7416   23.8435 H   0  0  0  0  0  0
   -5.9086   49.3779   22.8604 C   0  0  0  0  0  0
   -6.6289   49.1444   23.9721 C   0  0  0  0  0  0
   -6.0246   49.0459   25.3115 C   0  0  0  0  0  0
   -4.6251   48.9214   25.4321 C   0  0  0  0  0  0
   -4.0842   48.8520   26.7236 C   0  0  0  0  0  0
   -4.8881   48.9468   27.8570 C   0  0  0  0  0  0
   -6.2647   49.1010   27.7197 C   0  0  0  0  0  0
   -6.8328   49.1525   26.4482 C   0  0  0  0  0  0
   -1.4080   50.8647   22.1379 C   0  0  0  0  0  0
   -2.0959   51.8914   22.1337 O   0  0  0  0  0  0
    0.0385   50.8584   21.7431 C   0  0  0  0  0  0
    0.9173   49.8190   22.0928 C   0  0  0  0  0  0
    2.2465   49.8816   21.6683 C   0  0  0  0  0  0
    2.6795   50.9739   20.9154 C   0  0  0  0  0  0
    1.7611   51.9814   20.6207 C   0  0  0  0  0  0
    0.4655   51.9338   21.0219 N   0  0  0  0  0  0
   -1.2141   48.4897   19.6783 H   0  0  0  0  0  0
   -1.8243   48.8923   18.0895 H   0  0  0  0  0  0
   -2.1098   49.9896   19.4115 H   0  0  0  0  0  0
   -5.5169   48.4020   18.9150 H   0  0  0  0  0  0
   -4.6506   49.9347   18.9947 H   0  0  0  0  0  0
   -4.4125   48.8630   17.6352 H   0  0  0  0  0  0
   -4.1982   46.1667   19.0449 H   0  0  0  0  0  0
   -3.0960   46.7451   17.8148 H   0  0  0  0  0  0
   -2.4627   46.1876   19.3501 H   0  0  0  0  0  0
   -3.1971   51.9502   24.7740 H   0  0  0  0  0  0
   -2.0882   53.3233   26.4820 H   0  0  0  0  0  0
   -0.0807   52.4742   27.6685 H   0  0  0  0  0  0
    0.7773   50.2083   27.1786 H   0  0  0  0  0  0
    0.1528   47.8857   25.8085 H   0  0  0  0  0  0
   -6.3378   49.4940   21.8744 H   0  0  0  0  0  0
   -7.7001   49.0359   23.8712 H   0  0  0  0  0  0
   -3.0232   48.7182   26.8760 H   0  0  0  0  0  0
   -4.4311   48.8959   28.8363 H   0  0  0  0  0  0
   -6.8899   49.1775   28.5974 H   0  0  0  0  0  0
   -7.9025   49.2737   26.3528 H   0  0  0  0  0  0
    0.6060   48.9720   22.6831 H   0  0  0  0  0  0
    2.9340   49.0865   21.9189 H   0  0  0  0  0  0
    3.7007   51.0388   20.5665 H   0  0  0  0  0  0
    2.0543   52.8511   20.0481 H   0  0  0  0  0  0
   -4.4577   49.5883   22.9952 N   0  3  2  0  0  0
   -4.3568   50.5522   23.2832 H   0  0  0  0  0  0
  1  2  1  0  0  0
  1 39  1  0  0  0
  1 40  1  0  0  0
  1 41  1  0  0  0
  2  3  1  0  0  0
  2  4  1  0  0  0
  2  5  1  0  0  0
  3 42  1  0  0  0
  3 43  1  0  0  0
  3 44  1  0  0  0
  4 45  1  0  0  0
  4 46  1  0  0  0
  4 47  1  0  0  0
  5  6  2  0  0  0
  5  7  1  0  0  0
  7  8  1  0  0  0
  7  9  1  0  0  0
  7 63  1  0  0  0
  9 10  1  0  0  0
  9 11  1  0  0  0
  9 31  1  0  0  0
 11 19  1  0  0  0
 11 12  1  0  0  0
 11 21  1  0  0  0
 12 17  2  0  0  0
 12 13  1  0  0  0
 13 14  2  0  0  0
 13 48  1  0  0  0
 14 15  1  0  0  0
 14 49  1  0  0  0
 15 16  2  0  0  0
 15 50  1  0  0  0
 16 17  1  0  0  0
 16 51  1  0  0  0
 17 18  1  0  0  0
 18 19  1  0  0  0
 18 52  1  0  0  0
 19 20  2  0  0  0
 21 22  1  0  0  0
 21 26  1  0  0  0
 21 63  1  0  0  0
 23 24  2  0  0  0
 23 53  1  0  0  0
 23 63  1  0  0  0
 24 25  1  0  0  0
 24 54  1  0  0  0
 25 30  2  0  0  0
 25 26  1  0  0  0
 26 27  2  0  0  0
 27 28  1  0  0  0
 27 55  1  0  0  0
 28 29  2  0  0  0
 28 56  1  0  0  0
 29 30  1  0  0  0
 29 57  1  0  0  0
 30 58  1  0  0  0
 31 32  2  0  0  0
 31 33  1  0  0  0
 33 38  2  0  0  0
 33 34  1  0  0  0
 34 35  2  0  0  0
 34 59  1  0  0  0
 35 36  1  0  0  0
 35 60  1  0  0  0
 36 37  2  0  0  0
 36 61  1  0  0  0
 37 38  1  0  0  0
 37 62  1  0  0  0
 63 64  1  0  0  0
M  CHG  1  63   1
M  END
> <i_i_glide_confnum>
3

> <i_i_glide_lignum>
716

> <i_i_glide_posenum>
95

> <i_i_glide_rotatable_bonds>
4

> <i_m_Source_File_Index>
5511

> <b_m_subgroup_collapsed>
0

> <r_i_docking_score>
-2.96455

> <r_i_glide_ecoul>
-7.08162

> <r_i_glide_eff_state_penalty>
0

> <r_i_glide_einternal>
3.44844

> <r_i_glide_emodel>
-37.5071

> <r_i_glide_energy>
-32.3247

> <r_i_glide_erotb>
0.26546

> <r_i_glide_esite>
-0.126788

> <r_i_glide_evdw>
-25.2431

> <r_i_glide_gscore>
-2.96455

> <r_i_glide_hbond>
-0.32

> <r_i_glide_ligand_efficiency>
-0.0823486

> <r_i_glide_ligand_efficiency_ln>
-0.646785

> <r_i_glide_ligand_efficiency_sa>
-0.271909

> <r_i_glide_lipo>
-0.312656

> <r_i_glide_metal>
0

> <r_i_glide_rewards>
-0.146171

> <s_i_glide_gridfile>
wee1_glide-grid

> <s_m_Source_File>
wee1_decoys_glide_SP.sdf

> <s_m_Source_Path>
/Users/zhangxujun/Desktop

> <s_m_entry_id>
5786

> <s_m_entry_name>
wee1_decoys_glide_SP.5511

> <s_m_subgroup_title>
wee1_decoys_glide_SP

> <s_m_subgroupid>
wee1_decoys_glide_SP


$$$$
