ZINC20214251_214
                    3D
 Schrodinger Suite 2024-2.
 57 59  0  0  1  0            999 V2000
    0.7074   50.1742   24.6297 C   0  0  0  0  0  0
    0.3005   50.6005   23.2128 C   0  0  0  0  0  0
    1.4187   51.0888   22.4741 O   0  0  0  0  0  0
    1.8493   52.3720   22.5752 C   0  0  0  0  0  0
    1.2848   53.2030   23.2907 O   0  0  0  0  0  0
    3.0355   52.7165   21.7433 C   0  0  0  0  0  0
    3.6305   51.9061   20.8216 C   0  0  0  0  0  0
    4.6860   52.3594   20.0821 N   0  0  0  0  0  0
    5.1027   53.6447   20.0028 C   0  0  0  0  0  0
    5.9995   54.0144   19.2541 O   0  0  0  0  0  0
    4.4712   54.4959   20.8502 N   0  0  0  0  0  0
    3.7139   54.0754   22.0609 C   0  0  2  0  0  0
    2.9563   54.8364   22.2644 H   0  0  0  0  0  0
    4.5459   54.1019   23.3642 C   0  0  0  0  0  0
    3.9272   54.4239   24.5816 C   0  0  0  0  0  0
    4.6779   54.5660   25.7459 C   0  0  0  0  0  0
    6.0599   54.4111   25.7018 C   0  0  0  0  0  0
    6.6941   54.0968   24.5050 C   0  0  0  0  0  0
    5.9402   53.9412   23.3442 C   0  0  0  0  0  0
    6.7939   54.5768   26.8255 F   0  0  0  0  0  0
    3.2106   50.4968   20.3881 C   0  0  0  0  0  0
    1.8496   50.4253   19.6575 N   0  3  2  0  0  0
    1.3829   48.9493   19.5593 C   0  0  0  0  0  0
    0.0020   48.8938   18.8609 C   0  0  2  0  0  0
   -0.2034   47.8397   18.6618 H   0  0  0  0  0  0
    0.0749   49.5971   17.4856 C   0  0  0  0  0  0
    0.5645   51.0599   17.5905 C   0  0  1  0  0  0
   -0.1234   51.6175   18.2298 H   0  0  0  0  0  0
    1.9580   51.0777   18.2541 C   0  0  0  0  0  0
    0.6026   51.7458   16.2133 C   0  0  0  0  0  0
   -1.1356   49.4225   19.7610 C   0  0  0  0  0  0
   -0.1447   49.7762   25.1803 H   0  0  0  0  0  0
    1.4724   49.3972   24.5992 H   0  0  0  0  0  0
    1.1036   51.0185   25.1960 H   0  0  0  0  0  0
   -0.5028   51.3392   23.2426 H   0  0  0  0  0  0
   -0.0963   49.7352   22.6824 H   0  0  0  0  0  0
    5.1036   51.7528   19.3814 H   0  0  0  0  0  0
    4.8487   55.4304   20.8516 H   0  0  0  0  0  0
    2.8607   54.5905   24.6323 H   0  0  0  0  0  0
    4.1932   54.8153   26.6789 H   0  0  0  0  0  0
    7.7672   53.9884   24.4752 H   0  0  0  0  0  0
    6.4606   53.7131   22.4303 H   0  0  0  0  0  0
    3.9044   50.0471   19.6818 H   0  0  0  0  0  0
    3.1694   49.8290   21.2505 H   0  0  0  0  0  0
    2.1560   48.4005   19.0130 H   0  0  0  0  0  0
    1.3178   48.5743   20.5828 H   0  0  0  0  0  0
    0.7395   49.0416   16.8187 H   0  0  0  0  0  0
   -0.8969   49.5758   16.9912 H   0  0  0  0  0  0
    2.3052   52.1037   18.3938 H   0  0  0  0  0  0
    2.7041   50.5181   17.6816 H   0  0  0  0  0  0
    1.2837   51.2313   15.5314 H   0  0  0  0  0  0
   -0.3819   51.7589   15.7461 H   0  0  0  0  0  0
    0.9389   52.7814   16.2930 H   0  0  0  0  0  0
   -0.9760   50.4576   20.0651 H   0  0  0  0  0  0
   -2.0984   49.3753   19.2505 H   0  0  0  0  0  0
   -1.2254   48.8278   20.6709 H   0  0  0  0  0  0
    1.1769   50.9429   20.2086 H   0  0  0  0  0  0
  1  2  1  0  0  0
  1 32  1  0  0  0
  1 33  1  0  0  0
  1 34  1  0  0  0
  2  3  1  0  0  0
  2 35  1  0  0  0
  2 36  1  0  0  0
  3  4  1  0  0  0
  4  5  2  0  0  0
  4  6  1  0  0  0
  6 12  1  0  0  0
  6  7  2  0  0  0
  7  8  1  0  0  0
  7 21  1  0  0  0
  8  9  1  0  0  0
  8 37  1  0  0  0
  9 10  2  0  0  0
  9 11  1  0  0  0
 11 12  1  0  0  0
 11 38  1  0  0  0
 12 13  1  0  0  0
 12 14  1  0  0  0
 14 19  2  0  0  0
 14 15  1  0  0  0
 15 16  2  0  0  0
 15 39  1  0  0  0
 16 17  1  0  0  0
 16 40  1  0  0  0
 17 18  2  0  0  0
 17 20  1  0  0  0
 18 19  1  0  0  0
 18 41  1  0  0  0
 19 42  1  0  0  0
 21 22  1  0  0  0
 21 43  1  0  0  0
 21 44  1  0  0  0
 22 29  1  0  0  0
 22 23  1  0  0  0
 22 57  1  0  0  0
 23 24  1  0  0  0
 23 45  1  0  0  0
 23 46  1  0  0  0
 24 25  1  0  0  0
 24 26  1  0  0  0
 24 31  1  0  0  0
 26 27  1  0  0  0
 26 47  1  0  0  0
 26 48  1  0  0  0
 27 28  1  0  0  0
 27 29  1  0  0  0
 27 30  1  0  0  0
 29 49  1  0  0  0
 29 50  1  0  0  0
 30 51  1  0  0  0
 30 52  1  0  0  0
 30 53  1  0  0  0
 31 54  1  0  0  0
 31 55  1  0  0  0
 31 56  1  0  0  0
M  CHG  1  22   1
M  END
> <i_i_glide_confnum>
28

> <i_i_glide_lignum>
215

> <i_i_glide_posenum>
399

> <i_i_glide_rotatable_bonds>
6

> <i_m_Source_File_Index>
4353

> <b_m_subgroup_collapsed>
0

> <r_i_docking_score>
-4.71323

> <r_i_glide_ecoul>
-2.98531

> <r_i_glide_eff_state_penalty>
0

> <r_i_glide_einternal>
5.71332

> <r_i_glide_emodel>
-44.587

> <r_i_glide_energy>
-34.6715

> <r_i_glide_erotb>
0.639636

> <r_i_glide_esite>
-0.130398

> <r_i_glide_evdw>
-31.6862

> <r_i_glide_gscore>
-4.71323

> <r_i_glide_hbond>
-0.16

> <r_i_glide_ligand_efficiency>
-0.16833

> <r_i_glide_ligand_efficiency_ln>
-1.08795

> <r_i_glide_ligand_efficiency_sa>
-0.511148

> <r_i_glide_lipo>
-1.84288

> <r_i_glide_metal>
0

> <r_i_glide_rewards>
-1.18748

> <s_i_glide_gridfile>
wee1_glide-grid

> <s_m_Source_File>
wee1_decoys_glide_SP.sdf

> <s_m_Source_Path>
/Users/zhangxujun/Desktop

> <s_m_entry_id>
4628

> <s_m_entry_name>
wee1_decoys_glide_SP.4353

> <s_m_subgroup_title>
wee1_decoys_glide_SP

> <s_m_subgroupid>
wee1_decoys_glide_SP


$$$$
