ZINC34001986_774
                    3D
 Schrodinger Suite 2024-2.
 80 85  0  0  1  0            999 V2000
   -1.6933   47.5073   22.3683 C   0  0  0  0  0  0
   -2.6591   48.3415   23.2636 C   0  0  0  0  0  0
   -4.0382   47.6739   23.5027 C   0  0  1  0  0  0
   -4.6271   47.5119   22.5989 H   0  0  0  0  0  0
   -3.6978   46.3651   24.2393 C   0  0  0  0  0  0
   -2.5335   46.8112   25.1447 C   0  0  0  0  0  0
   -2.3418   48.3307   24.7986 C   0  0  2  0  0  0
   -3.5648   49.1118   25.3994 C   0  0  1  0  0  0
   -3.4516   50.1685   25.1955 H   0  0  0  0  0  0
   -4.7424   48.6032   24.5235 C   0  0  0  0  0  0
   -3.7295   48.9231   26.8418 N   0  0  0  0  0  0
   -4.6984   49.4932   27.5750 C   0  0  0  0  0  0
   -5.5581   50.2362   27.0971 O   0  0  0  0  0  0
   -4.6790   49.2033   29.0847 C   0  0  2  0  0  0
   -3.9985   48.3576   29.2148 H   0  0  0  0  0  0
   -6.1009   48.8440   29.5847 C   0  0  0  0  0  0
   -6.0554   48.5853   31.1028 C   0  0  0  0  0  0
   -5.4411   49.7674   31.8822 C   0  0  0  0  0  0
   -4.0473   50.0999   31.3071 N   0  3  0  0  0  0
   -4.0946   50.4374   29.8058 C   0  0  0  0  0  0
   -0.9125   48.7448   25.2833 C   0  0  0  0  0  0
   -0.4245   50.5885   25.3010 S   0  0  0  0  0  0
   -1.5974   51.4494   25.4800 O   0  0  0  0  0  0
    0.7043   50.7337   26.2250 O   0  0  0  0  0  0
    0.2080   50.8704   23.6726 N   0  0  0  0  0  0
    1.5055   50.2367   23.3515 C   0  0  0  0  0  0
    1.7004   50.1309   21.8260 C   0  0  0  0  0  0
    1.4811   51.4836   21.0801 C   0  0  0  0  0  0
    1.2677   51.2243   19.5740 C   0  0  0  0  0  0
    2.6217   51.3808   18.9026 C   0  0  0  0  0  0
    3.3677   52.3049   19.8404 C   0  0  0  0  0  0
    2.7410   52.3504   21.0918 C   0  0  0  0  0  0
    3.3120   53.1089   22.1209 C   0  0  0  0  0  0
    4.4822   53.8321   21.8924 C   0  0  0  0  0  0
    5.1044   53.7767   20.6464 C   0  0  0  0  0  0
    4.5675   52.9853   19.6315 C   0  0  0  0  0  0
    0.2375   52.2479   21.6146 C   0  0  0  0  0  0
    0.0562   52.2411   23.1456 C   0  0  0  0  0  0
   -2.7914   49.7236   22.5527 C   0  0  0  0  0  0
   -0.7247   47.9993   22.2876 H   0  0  0  0  0  0
   -1.4911   46.5001   22.7239 H   0  0  0  0  0  0
   -2.0864   47.4058   21.3567 H   0  0  0  0  0  0
   -4.5414   45.9720   24.8093 H   0  0  0  0  0  0
   -3.3932   45.5888   23.5383 H   0  0  0  0  0  0
   -2.7542   46.6384   26.1983 H   0  0  0  0  0  0
   -1.6334   46.2300   24.9374 H   0  0  0  0  0  0
   -5.5071   48.0703   25.0918 H   0  0  0  0  0  0
   -5.2356   49.4316   24.0122 H   0  0  0  0  0  0
   -2.9410   48.5151   27.3442 H   0  0  0  0  0  0
   -6.4702   47.9300   29.1156 H   0  0  0  0  0  0
   -6.7988   49.6725   29.4352 H   0  0  0  0  0  0
   -5.4857   47.6752   31.2979 H   0  0  0  0  0  0
   -7.0630   48.3891   31.4744 H   0  0  0  0  0  0
   -5.2956   49.5473   32.9404 H   0  0  0  0  0  0
   -6.0352   50.6796   31.7974 H   0  0  0  0  0  0
   -3.4161   49.3078   31.4013 H   0  0  0  0  0  0
   -4.7087   51.3352   29.7158 H   0  0  0  0  0  0
   -3.0574   50.6431   29.5276 H   0  0  0  0  0  0
   -0.7736   48.4264   26.3141 H   0  0  0  0  0  0
   -0.1480   48.2162   24.7201 H   0  0  0  0  0  0
    2.3037   50.8843   23.7177 H   0  0  0  0  0  0
    1.5606   49.2564   23.8171 H   0  0  0  0  0  0
    2.6982   49.7302   21.6314 H   0  0  0  0  0  0
    0.9709   49.3956   21.4853 H   0  0  0  0  0  0
    0.7519   50.2902   19.3443 H   0  0  0  0  0  0
    0.6334   52.0067   19.1498 H   0  0  0  0  0  0
    2.5292   51.7749   17.8908 H   0  0  0  0  0  0
    3.1045   50.4077   18.8244 H   0  0  0  0  0  0
    2.8635   53.1566   23.0992 H   0  0  0  0  0  0
    4.9112   54.4307   22.6831 H   0  0  0  0  0  0
    6.0056   54.3429   20.4668 H   0  0  0  0  0  0
    5.0726   52.9151   18.6789 H   0  0  0  0  0  0
   -0.6729   51.8080   21.2054 H   0  0  0  0  0  0
    0.3043   53.2818   21.2820 H   0  0  0  0  0  0
   -0.9270   52.6378   23.3998 H   0  0  0  0  0  0
    0.8456   52.8615   23.5635 H   0  0  0  0  0  0
   -1.8203   50.1267   22.2841 H   0  0  0  0  0  0
   -3.3430   49.6151   21.6181 H   0  0  0  0  0  0
   -3.3043   50.4962   23.1198 H   0  0  0  0  0  0
   -3.6157   50.8472   31.8453 H   0  0  0  0  0  0
  1  2  1  0  0  0
  1 40  1  0  0  0
  1 41  1  0  0  0
  1 42  1  0  0  0
  2  7  1  0  0  0
  2  3  1  0  0  0
  2 39  1  0  0  0
  3  4  1  0  0  0
  3 10  1  0  0  0
  3  5  1  0  0  0
  5  6  1  0  0  0
  5 43  1  0  0  0
  5 44  1  0  0  0
  6  7  1  0  0  0
  6 45  1  0  0  0
  6 46  1  0  0  0
  7  8  1  0  0  0
  7 21  1  0  0  0
  8  9  1  0  0  0
  8 10  1  0  0  0
  8 11  1  0  0  0
 10 47  1  0  0  0
 10 48  1  0  0  0
 11 12  1  0  0  0
 11 49  1  0  0  0
 12 13  2  0  0  0
 12 14  1  0  0  0
 14 15  1  0  0  0
 14 20  1  0  0  0
 14 16  1  0  0  0
 16 17  1  0  0  0
 16 50  1  0  0  0
 16 51  1  0  0  0
 17 18  1  0  0  0
 17 52  1  0  0  0
 17 53  1  0  0  0
 18 19  1  0  0  0
 18 54  1  0  0  0
 18 55  1  0  0  0
 19 20  1  0  0  0
 19 56  1  0  0  0
 19 80  1  0  0  0
 20 57  1  0  0  0
 20 58  1  0  0  0
 21 22  1  0  0  0
 21 59  1  0  0  0
 21 60  1  0  0  0
 22 23  2  0  0  0
 22 24  2  0  0  0
 22 25  1  0  0  0
 25 38  1  0  0  0
 25 26  1  0  0  0
 26 27  1  0  0  0
 26 61  1  0  0  0
 26 62  1  0  0  0
 27 28  1  0  0  0
 27 63  1  0  0  0
 27 64  1  0  0  0
 28 32  1  0  0  0
 28 29  1  0  0  0
 28 37  1  0  0  0
 29 30  1  0  0  0
 29 65  1  0  0  0
 29 66  1  0  0  0
 30 31  1  0  0  0
 30 67  1  0  0  0
 30 68  1  0  0  0
 31 36  2  0  0  0
 31 32  1  0  0  0
 32 33  2  0  0  0
 33 34  1  0  0  0
 33 69  1  0  0  0
 34 35  2  0  0  0
 34 70  1  0  0  0
 35 36  1  0  0  0
 35 71  1  0  0  0
 36 72  1  0  0  0
 37 38  1  0  0  0
 37 73  1  0  0  0
 37 74  1  0  0  0
 38 75  1  0  0  0
 38 76  1  0  0  0
 39 77  1  0  0  0
 39 78  1  0  0  0
 39 79  1  0  0  0
M  CHG  1  19   1
M  END
> <i_i_glide_confnum>
130

> <i_i_glide_lignum>
775

> <i_i_glide_posenum>
141

> <i_i_glide_rotatable_bonds>
6

> <i_m_Source_File_Index>
476

> <b_m_subgroup_collapsed>
0

> <r_i_docking_score>
-3.81771

> <r_i_glide_ecoul>
-8.07771

> <r_i_glide_eff_state_penalty>
0

> <r_i_glide_einternal>
10.3935

> <r_i_glide_emodel>
-48.8859

> <r_i_glide_energy>
-42.1284

> <r_i_glide_erotb>
0.464549

> <r_i_glide_esite>
-0.320796

> <r_i_glide_evdw>
-34.0507

> <r_i_glide_gscore>
-3.81771

> <r_i_glide_hbond>
-0.42245

> <r_i_glide_ligand_efficiency>
-0.106048

> <r_i_glide_ligand_efficiency_ln>
-0.832922

> <r_i_glide_ligand_efficiency_sa>
-0.350161

> <r_i_glide_lipo>
-0.584291

> <r_i_glide_metal>
0

> <r_i_glide_rewards>
-0.0405372

> <s_i_glide_gridfile>
wee1_glide-grid

> <s_m_Source_File>
wee1_decoys_glide_SP.sdf

> <s_m_Source_Path>
/Users/zhangxujun/Desktop

> <s_m_entry_id>
751

> <s_m_entry_name>
wee1_decoys_glide_SP.476

> <s_m_subgroup_title>
wee1_decoys_glide_SP

> <s_m_subgroupid>
wee1_decoys_glide_SP


$$$$
