ZINC16925720_3923
                    3D
 Schrodinger Suite 2024-2.
 67 70  0  0  1  0            999 V2000
   -1.5310   49.7589   18.1221 C   0  0  0  0  0  0
   -1.7263   50.8560   19.1828 C   0  0  0  0  0  0
   -1.9619   52.0965   18.9627 N   0  0  0  0  0  0
   -1.8649   52.5259   17.6836 N   0  0  0  0  0  0
   -2.1150   53.7958   17.3199 C   0  0  0  0  0  0
   -2.4951   54.6969   18.0651 O   0  0  0  0  0  0
   -1.9034   54.0104   16.0249 N   0  0  0  0  0  0
   -1.6265   50.3915   20.6521 C   0  0  1  0  0  0
   -2.3841   50.9798   21.1788 H   0  0  0  0  0  0
   -2.0085   48.9271   21.0092 C   0  0  0  0  0  0
   -1.2779   48.6068   22.3321 C   0  0  0  0  0  0
   -0.6250   49.9350   22.7464 C   0  0  2  0  0  0
   -1.4327   50.5009   23.2080 H   0  0  0  0  0  0
   -0.2785   50.6207   21.4008 C   0  0  2  0  0  0
    0.0348   52.0967   21.7242 C   0  0  0  0  0  0
    1.2218   52.2558   22.7080 C   0  0  0  0  0  0
    1.1434   51.3923   24.0155 C   0  0  2  0  0  0
    2.1872   51.1795   24.2393 H   0  0  0  0  0  0
    0.5563   49.9542   23.7554 C   0  0  1  0  0  0
    1.3560   49.4154   23.2454 H   0  0  0  0  0  0
    0.3454   49.0862   25.0186 C   0  0  0  0  0  0
    0.1461   49.8777   26.2794 C   0  0  0  0  0  0
    0.2330   51.2070   26.4357 C   0  0  0  0  0  0
    0.5478   52.1683   25.2694 C   0  0  1  0  0  0
    1.6353   53.1796   25.7858 C   0  0  0  0  0  0
    1.5035   53.7682   27.2146 C   0  0  0  0  0  0
    1.0562   52.7735   28.2976 C   0  0  1  0  0  0
    0.5896   53.3319   29.1132 H   0  0  0  0  0  0
   -0.0619   51.8362   27.8022 C   0  0  0  0  0  0
    2.1671   52.0686   28.8354 O   0  0  0  0  0  0
    3.0171   52.7132   29.6682 C   0  0  0  0  0  0
    2.9100   53.8684   30.0820 O   0  0  0  0  0  0
    4.2145   51.8764   30.0320 C   0  0  0  0  0  0
   -0.7747   52.8838   24.8817 C   0  0  0  0  0  0
    0.9133   49.9628   20.6295 C   0  0  0  0  0  0
   -0.5810   49.2443   18.2638 H   0  0  0  0  0  0
   -2.3260   49.0158   18.1856 H   0  0  0  0  0  0
   -1.5369   50.1238   17.0964 H   0  0  0  0  0  0
   -1.5724   51.8348   17.0113 H   0  0  0  0  0  0
   -1.5335   53.2919   15.4225 H   0  0  0  0  0  0
   -2.0597   54.9379   15.6598 H   0  0  0  0  0  0
   -3.0896   48.8162   21.1096 H   0  0  0  0  0  0
   -1.6915   48.2111   20.2510 H   0  0  0  0  0  0
   -1.9303   48.1927   23.1020 H   0  0  0  0  0  0
   -0.5020   47.8666   22.1338 H   0  0  0  0  0  0
    0.2427   52.6497   20.8063 H   0  0  0  0  0  0
   -0.8497   52.5680   22.1489 H   0  0  0  0  0  0
    1.4462   53.3003   22.9223 H   0  0  0  0  0  0
    2.1166   51.9441   22.1684 H   0  0  0  0  0  0
   -0.4788   48.3828   24.9086 H   0  0  0  0  0  0
    1.2276   48.4964   25.2399 H   0  0  0  0  0  0
   -0.0954   49.2971   27.1533 H   0  0  0  0  0  0
    2.6048   52.6800   25.7739 H   0  0  0  0  0  0
    1.7405   54.0055   25.0813 H   0  0  0  0  0  0
    0.7957   54.5850   27.2817 H   0  0  0  0  0  0
    2.4535   54.2380   27.4712 H   0  0  0  0  0  0
   -0.9914   52.3985   27.7359 H   0  0  0  0  0  0
   -0.2527   51.0720   28.5590 H   0  0  0  0  0  0
    4.0899   51.4333   31.0189 H   0  0  0  0  0  0
    4.3582   51.1007   29.2823 H   0  0  0  0  0  0
    5.1045   52.4937   30.0340 H   0  0  0  0  0  0
   -0.6047   53.7025   24.1832 H   0  0  0  0  0  0
   -1.4904   52.2078   24.4250 H   0  0  0  0  0  0
   -1.2988   53.2964   25.7402 H   0  0  0  0  0  0
    1.8466   49.9650   21.1895 H   0  0  0  0  0  0
    0.7158   48.9245   20.3643 H   0  0  0  0  0  0
    1.1162   50.4949   19.6994 H   0  0  0  0  0  0
  1  2  1  0  0  0
  1 36  1  0  0  0
  1 37  1  0  0  0
  1 38  1  0  0  0
  2  3  2  0  0  0
  2  8  1  0  0  0
  3  4  1  0  0  0
  4  5  1  0  0  0
  4 39  1  0  0  0
  5  6  2  0  0  0
  5  7  1  0  0  0
  7 40  1  0  0  0
  7 41  1  0  0  0
  8  9  1  0  0  0
  8 14  1  0  0  0
  8 10  1  0  0  0
 10 11  1  0  0  0
 10 42  1  0  0  0
 10 43  1  0  0  0
 11 12  1  0  0  0
 11 44  1  0  0  0
 11 45  1  0  0  0
 12 13  1  0  0  0
 12 19  1  0  0  0
 12 14  1  0  0  0
 14 15  1  0  0  0
 14 35  1  0  0  0
 15 16  1  0  0  0
 15 46  1  0  0  0
 15 47  1  0  0  0
 16 17  1  0  0  0
 16 48  1  0  0  0
 16 49  1  0  0  0
 17 18  1  0  0  0
 17 24  1  0  0  0
 17 19  1  0  0  0
 19 20  1  0  0  0
 19 21  1  0  0  0
 21 22  1  0  0  0
 21 50  1  0  0  0
 21 51  1  0  0  0
 22 23  2  0  0  0
 22 52  1  0  0  0
 23 29  1  0  0  0
 23 24  1  0  0  0
 24 25  1  0  0  0
 24 34  1  0  0  0
 25 26  1  0  0  0
 25 53  1  0  0  0
 25 54  1  0  0  0
 26 27  1  0  0  0
 26 55  1  0  0  0
 26 56  1  0  0  0
 27 28  1  0  0  0
 27 29  1  0  0  0
 27 30  1  0  0  0
 29 57  1  0  0  0
 29 58  1  0  0  0
 30 31  1  0  0  0
 31 32  2  0  0  0
 31 33  1  0  0  0
 33 59  1  0  0  0
 33 60  1  0  0  0
 33 61  1  0  0  0
 34 62  1  0  0  0
 34 63  1  0  0  0
 34 64  1  0  0  0
 35 65  1  0  0  0
 35 66  1  0  0  0
 35 67  1  0  0  0
M  END
> <i_i_glide_confnum>
6

> <i_i_glide_lignum>
3924

> <i_i_glide_posenum>
335

> <i_i_glide_rotatable_bonds>
5

> <i_m_Source_File_Index>
1178

> <b_m_subgroup_collapsed>
0

> <r_i_docking_score>
-4.73111

> <r_i_glide_ecoul>
-9.20307

> <r_i_glide_eff_state_penalty>
0

> <r_i_glide_einternal>
14.9556

> <r_i_glide_emodel>
-35.4467

> <r_i_glide_energy>
-31.2815

> <r_i_glide_erotb>
0.34305

> <r_i_glide_esite>
-0.0353323

> <r_i_glide_evdw>
-22.0785

> <r_i_glide_gscore>
-4.73111

> <r_i_glide_hbond>
-0.588051

> <r_i_glide_ligand_efficiency>
-0.157704

> <r_i_glide_ligand_efficiency_ln>
-1.07496

> <r_i_glide_ligand_efficiency_sa>
-0.490022

> <r_i_glide_lipo>
-1.14664

> <r_i_glide_metal>
0

> <r_i_glide_rewards>
-0.819759

> <s_i_glide_gridfile>
wee1_glide-grid

> <s_m_Source_File>
wee1_decoys_glide_SP.sdf

> <s_m_Source_Path>
/Users/zhangxujun/Desktop

> <s_m_entry_id>
1453

> <s_m_entry_name>
wee1_decoys_glide_SP.1178

> <s_m_subgroup_title>
wee1_decoys_glide_SP

> <s_m_subgroupid>
wee1_decoys_glide_SP


$$$$
