ZINC12428645_1982
                    3D
 Schrodinger Suite 2024-2.
 57 62  0  0  1  0            999 V2000
    3.2209   54.1120   27.6728 C   0  0  0  0  0  0
    2.2881   53.7441   26.7057 C   0  0  0  0  0  0
    2.6305   53.6967   25.3492 C   0  0  0  0  0  0
    3.9359   54.0840   24.9923 C   0  0  0  0  0  0
    4.8887   54.4746   25.9464 C   0  0  0  0  0  0
    4.5146   54.4673   27.2970 C   0  0  0  0  0  0
    6.2659   54.8979   25.5256 C   0  0  0  0  0  0
    6.5000   54.9989   24.2996 O   0  0  0  0  0  0
    1.5851   53.3019   24.2793 C   0  0  2  0  0  0
    0.8181   54.0747   24.3527 H   0  0  0  0  0  0
    0.9010   51.9067   24.4899 C   0  0  1  0  0  0
    1.7322   51.1981   24.4319 H   0  0  0  0  0  0
    0.0030   51.4226   25.6816 C   0  0  2  0  0  0
    0.1711   51.8799   26.6518 H   0  0  0  0  0  0
    0.0901   49.8764   25.7553 C   0  0  0  0  0  0
   -0.5844   49.4242   24.4397 C   0  0  0  0  0  0
   -1.1561   50.7472   23.8793 C   0  0  1  0  0  0
   -2.0185   50.6228   23.2231 H   0  0  0  0  0  0
   -1.4378   51.5350   25.1678 C   0  0  0  0  0  0
   -0.0736   51.6894   23.3195 C   0  0  2  0  0  0
   -0.5949   52.6192   23.0688 H   0  0  0  0  0  0
    0.7740   51.4531   22.0938 C   0  0  0  0  0  0
    0.5807   50.4151   21.1817 C   0  0  0  0  0  0
    1.4586   50.2464   20.1105 C   0  0  0  0  0  0
    2.5357   51.1199   19.9450 C   0  0  0  0  0  0
    2.7225   52.1739   20.8416 C   0  0  0  0  0  0
    1.8377   52.3589   21.9054 C   0  0  0  0  0  0
    2.1090   53.3595   22.8793 N   0  0  0  0  0  0
    1.2198   48.8855   18.9768 S   0  0  0  0  0  0
    2.3036   47.9357   19.2364 O   0  0  0  0  0  0
   -0.1809   48.4544   19.0612 O   0  0  0  0  0  0
    1.5043   49.5380   17.3570 N   0  0  0  0  0  0
    0.6610   50.4513   16.7176 C   0  0  0  0  0  0
    1.1365   50.9676   15.5547 N   0  0  0  0  0  0
    0.3531   51.8801   14.9221 C   0  0  0  0  0  0
   -0.8870   52.2783   15.4257 C   0  0  0  0  0  0
   -1.2946   51.6897   16.6241 C   0  0  0  0  0  0
   -0.5339   50.7778   17.2835 N   0  0  0  0  0  0
    2.9356   54.1392   28.7145 H   0  0  0  0  0  0
    1.2823   53.5412   27.0308 H   0  0  0  0  0  0
    4.2332   54.0795   23.9542 H   0  0  0  0  0  0
    5.2215   54.7594   28.0625 H   0  0  0  0  0  0
    1.1045   49.4951   25.8532 H   0  0  0  0  0  0
   -0.4668   49.4996   26.6149 H   0  0  0  0  0  0
   -1.3762   48.7023   24.6430 H   0  0  0  0  0  0
    0.1227   48.9565   23.7530 H   0  0  0  0  0  0
   -1.7594   52.5679   25.0096 H   0  0  0  0  0  0
   -2.1757   51.0582   25.8179 H   0  0  0  0  0  0
   -0.2392   49.7259   21.3234 H   0  0  0  0  0  0
    3.2318   50.9791   19.1285 H   0  0  0  0  0  0
    3.5645   52.8380   20.7125 H   0  0  0  0  0  0
    2.7147   54.1382   22.6696 H   0  0  0  0  0  0
    2.4443   49.4014   16.9764 H   0  0  0  0  0  0
    0.7379   52.2902   14.0000 H   0  0  0  0  0  0
   -1.5004   53.0045   14.9122 H   0  0  0  0  0  0
   -2.2418   51.9421   17.0765 H   0  0  0  0  0  0
    7.1042   55.1532   26.4190 O   0  5  0  0  0  0
  1  6  2  0  0  0
  1  2  1  0  0  0
  1 39  1  0  0  0
  2  3  2  0  0  0
  2 40  1  0  0  0
  3  4  1  0  0  0
  3  9  1  0  0  0
  4  5  2  0  0  0
  4 41  1  0  0  0
  5  6  1  0  0  0
  5  7  1  0  0  0
  6 42  1  0  0  0
  7  8  2  0  0  0
  7 57  1  0  0  0
  9 10  1  0  0  0
  9 28  1  0  0  0
  9 11  1  0  0  0
 11 12  1  0  0  0
 11 20  1  0  0  0
 11 13  1  0  0  0
 13 14  1  0  0  0
 13 19  1  0  0  0
 13 15  1  0  0  0
 15 16  1  0  0  0
 15 43  1  0  0  0
 15 44  1  0  0  0
 16 17  1  0  0  0
 16 45  1  0  0  0
 16 46  1  0  0  0
 17 18  1  0  0  0
 17 19  1  0  0  0
 17 20  1  0  0  0
 19 47  1  0  0  0
 19 48  1  0  0  0
 20 21  1  0  0  0
 20 22  1  0  0  0
 22 27  2  0  0  0
 22 23  1  0  0  0
 23 24  2  0  0  0
 23 49  1  0  0  0
 24 25  1  0  0  0
 24 29  1  0  0  0
 25 26  2  0  0  0
 25 50  1  0  0  0
 26 27  1  0  0  0
 26 51  1  0  0  0
 27 28  1  0  0  0
 28 52  1  0  0  0
 29 30  2  0  0  0
 29 31  2  0  0  0
 29 32  1  0  0  0
 32 33  1  0  0  0
 32 53  1  0  0  0
 33 38  2  0  0  0
 33 34  1  0  0  0
 34 35  2  0  0  0
 35 36  1  0  0  0
 35 54  1  0  0  0
 36 37  2  0  0  0
 36 55  1  0  0  0
 37 38  1  0  0  0
 37 56  1  0  0  0
M  CHG  1  57  -1
M  END
> <i_i_glide_confnum>
10

> <i_i_glide_lignum>
1983

> <i_i_glide_posenum>
361

> <i_i_glide_rotatable_bonds>
5

> <i_m_Source_File_Index>
4811

> <b_m_subgroup_collapsed>
0

> <r_i_docking_score>
-4.98918

> <r_i_glide_ecoul>
-7.24275

> <r_i_glide_eff_state_penalty>
0

> <r_i_glide_einternal>
5.78366

> <r_i_glide_emodel>
-55.9739

> <r_i_glide_energy>
-43.6036

> <r_i_glide_erotb>
0.358066

> <r_i_glide_esite>
-0.234745

> <r_i_glide_evdw>
-36.3608

> <r_i_glide_gscore>
-4.98918

> <r_i_glide_hbond>
-0.32

> <r_i_glide_ligand_efficiency>
-0.14674

> <r_i_glide_ligand_efficiency_ln>
-1.10225

> <r_i_glide_ligand_efficiency_sa>
-0.475382

> <r_i_glide_lipo>
-1.822

> <r_i_glide_metal>
0

> <r_i_glide_rewards>
-0.066044

> <s_i_glide_gridfile>
wee1_glide-grid

> <s_m_Source_File>
wee1_decoys_glide_SP.sdf

> <s_m_Source_Path>
/Users/zhangxujun/Desktop

> <s_m_entry_id>
5086

> <s_m_entry_name>
wee1_decoys_glide_SP.4811

> <s_m_subgroup_title>
wee1_decoys_glide_SP

> <s_m_subgroupid>
wee1_decoys_glide_SP


$$$$
