ZINC19858033_6106
                    3D
 Schrodinger Suite 2024-2.
 68 72  0  0  1  0            999 V2000
   -1.6514   51.2473   29.9197 C   0  0  0  0  0  0
   -1.8749   51.3907   28.4225 C   0  0  0  0  0  0
   -0.9820   51.8480   27.4979 C   0  0  0  0  0  0
   -1.4422   52.0733   26.0166 C   0  0  2  0  0  0
   -1.3107   53.1290   25.7799 H   0  0  0  0  0  0
   -2.9678   51.8177   25.8355 C   0  0  0  0  0  0
   -3.7146   51.2815   26.8343 C   0  0  0  0  0  0
   -3.1679   51.0929   28.0770 N   0  0  0  0  0  0
   -5.2208   51.0188   26.7481 C   0  0  0  0  0  0
   -5.9023   51.9657   25.7213 C   0  0  0  0  0  0
   -5.0950   51.8734   24.4004 C   0  0  0  0  0  0
   -3.6029   52.2196   24.5590 C   0  0  0  0  0  0
   -3.0123   52.8531   23.6827 O   0  0  0  0  0  0
   -7.3217   51.4298   25.4391 C   0  0  0  0  0  0
   -5.9236   53.4293   26.2423 C   0  0  0  0  0  0
   -0.5828   51.3318   24.9780 C   0  0  0  0  0  0
   -0.0334   52.0138   23.8834 C   0  0  0  0  0  0
    0.7817   51.3418   22.9788 C   0  0  0  0  0  0
    1.0468   49.9871   23.1630 C   0  0  0  0  0  0
    0.4920   49.2962   24.2393 C   0  0  0  0  0  0
   -0.3187   49.9682   25.1467 C   0  0  0  0  0  0
    0.4145   52.1340   27.8587 C   0  0  0  0  0  0
    0.9409   51.6967   28.8780 O   0  0  0  0  0  0
    1.0755   52.8967   26.9651 N   0  0  0  0  0  0
    2.3914   53.3378   26.9695 C   0  0  0  0  0  0
    3.3760   53.5458   27.9666 C   0  0  0  0  0  0
    4.5931   53.9653   27.3620 C   0  0  0  0  0  0
    4.5061   54.0966   25.9693 C   0  0  0  0  0  0
    2.9402   53.7055   25.3762 S   0  0  0  0  0  0
    5.6512   54.4424   25.0317 C   0  0  0  0  0  0
    6.8056   55.0607   25.8386 C   0  0  0  0  0  0
    7.1009   54.2857   27.1348 C   0  0  0  0  0  0
    5.9022   54.2615   28.1050 C   0  0  0  0  0  0
    3.2086   53.4099   29.4119 C   0  0  0  0  0  0
    2.3858   54.0479   30.0722 O   0  0  0  0  0  0
    4.0268   52.4502   29.8943 O   0  0  0  0  0  0
    3.9968   52.1025   31.2702 C   0  0  0  0  0  0
   -0.8955   50.4986   30.0872 H   0  0  0  0  0  0
   -1.2953   52.1746   30.3637 H   0  0  0  0  0  0
   -2.5280   50.8965   30.4675 H   0  0  0  0  0  0
   -3.6612   50.4739   28.7035 H   0  0  0  0  0  0
   -5.3486   49.9613   26.5092 H   0  0  0  0  0  0
   -5.7066   51.2199   27.7066 H   0  0  0  0  0  0
   -5.1183   50.8467   24.0353 H   0  0  0  0  0  0
   -5.5303   52.4949   23.6215 H   0  0  0  0  0  0
   -7.8323   52.0327   24.6852 H   0  0  0  0  0  0
   -7.3046   50.4009   25.0747 H   0  0  0  0  0  0
   -7.9392   51.4478   26.3383 H   0  0  0  0  0  0
   -6.3591   54.0993   25.4979 H   0  0  0  0  0  0
   -6.5289   53.5140   27.1464 H   0  0  0  0  0  0
   -4.9308   53.8125   26.4818 H   0  0  0  0  0  0
   -0.2293   53.0661   23.7365 H   0  0  0  0  0  0
    1.2114   51.8694   22.1387 H   0  0  0  0  0  0
    1.6841   49.4655   22.4650 H   0  0  0  0  0  0
    0.7041   48.2472   24.3839 H   0  0  0  0  0  0
   -0.7317   49.4308   25.9929 H   0  0  0  0  0  0
    0.5860   53.0410   26.0986 H   0  0  0  0  0  0
    5.3329   55.1282   24.2459 H   0  0  0  0  0  0
    6.0044   53.5369   24.5376 H   0  0  0  0  0  0
    6.5742   56.0969   26.0792 H   0  0  0  0  0  0
    7.6860   55.0868   25.2000 H   0  0  0  0  0  0
    7.9386   54.7306   27.6653 H   0  0  0  0  0  0
    7.3947   53.2640   26.8905 H   0  0  0  0  0  0
    6.1061   53.5240   28.8808 H   0  0  0  0  0  0
    5.8213   55.2255   28.6088 H   0  0  0  0  0  0
    4.7029   51.2966   31.4588 H   0  0  0  0  0  0
    4.3028   52.9436   31.8920 H   0  0  0  0  0  0
    3.0010   51.7774   31.5798 H   0  0  0  0  0  0
  1  2  1  0  0  0
  1 38  1  0  0  0
  1 39  1  0  0  0
  1 40  1  0  0  0
  2  8  1  0  0  0
  2  3  2  0  0  0
  3  4  1  0  0  0
  3 22  1  0  0  0
  4  5  1  0  0  0
  4  6  1  0  0  0
  4 16  1  0  0  0
  6 12  1  0  0  0
  6  7  2  0  0  0
  7  8  1  0  0  0
  7  9  1  0  0  0
  8 41  1  0  0  0
  9 10  1  0  0  0
  9 42  1  0  0  0
  9 43  1  0  0  0
 10 11  1  0  0  0
 10 14  1  0  0  0
 10 15  1  0  0  0
 11 12  1  0  0  0
 11 44  1  0  0  0
 11 45  1  0  0  0
 12 13  2  0  0  0
 14 46  1  0  0  0
 14 47  1  0  0  0
 14 48  1  0  0  0
 15 49  1  0  0  0
 15 50  1  0  0  0
 15 51  1  0  0  0
 16 21  2  0  0  0
 16 17  1  0  0  0
 17 18  2  0  0  0
 17 52  1  0  0  0
 18 19  1  0  0  0
 18 53  1  0  0  0
 19 20  2  0  0  0
 19 54  1  0  0  0
 20 21  1  0  0  0
 20 55  1  0  0  0
 21 56  1  0  0  0
 22 23  2  0  0  0
 22 24  1  0  0  0
 24 25  1  0  0  0
 24 57  1  0  0  0
 25 29  1  0  0  0
 25 26  2  0  0  0
 26 27  1  0  0  0
 26 34  1  0  0  0
 27 33  1  0  0  0
 27 28  2  0  0  0
 28 29  1  0  0  0
 28 30  1  0  0  0
 30 31  1  0  0  0
 30 58  1  0  0  0
 30 59  1  0  0  0
 31 32  1  0  0  0
 31 60  1  0  0  0
 31 61  1  0  0  0
 32 33  1  0  0  0
 32 62  1  0  0  0
 32 63  1  0  0  0
 33 64  1  0  0  0
 33 65  1  0  0  0
 34 35  2  0  0  0
 34 36  1  0  0  0
 36 37  1  0  0  0
 37 66  1  0  0  0
 37 67  1  0  0  0
 37 68  1  0  0  0
M  END
> <i_i_glide_confnum>
72

> <i_i_glide_lignum>
6107

> <i_i_glide_posenum>
222

> <i_i_glide_rotatable_bonds>
6

> <i_m_Source_File_Index>
265

> <b_m_subgroup_collapsed>
0

> <r_i_docking_score>
-5.82943

> <r_i_glide_ecoul>
-4.71593

> <r_i_glide_eff_state_penalty>
0

> <r_i_glide_einternal>
12.3744

> <r_i_glide_emodel>
-62.3335

> <r_i_glide_energy>
-51.4909

> <r_i_glide_erotb>
0.401472

> <r_i_glide_esite>
-0.0853413

> <r_i_glide_evdw>
-46.7749

> <r_i_glide_gscore>
-5.82943

> <r_i_glide_hbond>
-0.32

> <r_i_glide_ligand_efficiency>
-0.161929

> <r_i_glide_ligand_efficiency_ln>
-1.27182

> <r_i_glide_ligand_efficiency_sa>
-0.534676

> <r_i_glide_lipo>
-2.34997

> <r_i_glide_metal>
0

> <r_i_glide_rewards>
-0.429453

> <s_i_glide_gridfile>
wee1_glide-grid

> <s_m_Source_File>
wee1_decoys_glide_SP.sdf

> <s_m_Source_Path>
/Users/zhangxujun/Desktop

> <s_m_entry_id>
540

> <s_m_entry_name>
wee1_decoys_glide_SP.265

> <s_m_subgroup_title>
wee1_decoys_glide_SP

> <s_m_subgroupid>
wee1_decoys_glide_SP


$$$$
