ZINC01933709_5213
                    3D
 Schrodinger Suite 2024-2.
 68 72  0  0  1  0            999 V2000
    8.0761   55.9629   16.8241 C   0  0  0  0  0  0
    7.4179   55.2037   17.9891 C   0  0  2  0  0  0
    7.9195   54.2355   18.0542 H   0  0  0  0  0  0
    5.9075   55.0134   17.7384 C   0  0  0  0  0  0
    5.2673   54.0554   18.7680 C   0  0  0  0  0  0
    5.7230   54.4226   20.1871 C   0  0  0  0  0  0
    6.8033   55.2967   20.4030 C   0  0  0  0  0  0
    7.1044   55.5488   22.0806 S   0  0  0  0  0  0
    5.7769   54.5098   22.5348 C   0  0  0  0  0  0
    5.1039   54.0071   21.3988 C   0  0  0  0  0  0
    3.9858   53.0873   21.4372 C   0  0  0  0  0  0
    3.9428   52.1136   20.6867 O   0  0  0  0  0  0
    3.0479   53.4164   22.3525 N   0  0  0  0  0  0
    1.8581   52.7559   22.7034 C   0  0  0  0  0  0
    1.0786   53.3953   23.6669 C   0  0  0  0  0  0
   -0.1030   52.8130   24.1049 C   0  0  0  0  0  0
   -0.5425   51.5948   23.5844 C   0  0  0  0  0  0
    0.2380   50.9607   22.6094 C   0  0  0  0  0  0
    1.4294   51.5341   22.1685 C   0  0  0  0  0  0
   -1.7133   51.0305   24.0815 N   0  0  0  0  0  0
   -2.9291   51.8204   24.3391 C   0  0  0  0  0  0
   -3.5560   51.4249   25.6929 C   0  0  0  0  0  0
   -3.9242   49.9304   25.7247 C   0  0  0  0  0  0
   -2.6764   49.1141   25.3358 C   0  0  0  0  0  0
   -2.0401   49.5929   24.0095 C   0  0  0  0  0  0
   -4.5090   49.5029   27.0836 C   0  0  0  0  0  0
    5.4297   54.2751   23.8698 N   0  0  0  0  0  0
    5.9282   54.8158   25.0081 C   0  0  0  0  0  0
    6.9059   55.5614   25.0697 O   0  0  0  0  0  0
    5.1874   54.4385   26.2749 C   0  0  0  0  0  0
    3.8612   53.9721   26.2424 C   0  0  0  0  0  0
    3.1764   53.6833   27.4174 C   0  0  0  0  0  0
    3.8068   53.8701   28.6413 C   0  0  0  0  0  0
    5.1160   54.3369   28.6976 C   0  0  0  0  0  0
    5.8074   54.6092   27.5209 C   0  0  0  0  0  0
    7.6352   55.9666   19.3175 C   0  0  0  0  0  0
    7.6318   56.9508   16.6839 H   0  0  0  0  0  0
    9.1459   56.1017   16.9941 H   0  0  0  0  0  0
    7.9660   55.4172   15.8849 H   0  0  0  0  0  0
    5.3988   55.9799   17.7080 H   0  0  0  0  0  0
    5.7543   54.5957   16.7409 H   0  0  0  0  0  0
    5.5513   53.0232   18.5447 H   0  0  0  0  0  0
    4.1824   54.0961   18.6736 H   0  0  0  0  0  0
    3.1957   54.2960   22.8258 H   0  0  0  0  0  0
    1.3812   54.3427   24.0903 H   0  0  0  0  0  0
   -0.6721   53.2968   24.8813 H   0  0  0  0  0  0
   -0.0707   50.0201   22.1824 H   0  0  0  0  0  0
    1.9955   51.0012   21.4211 H   0  0  0  0  0  0
   -2.7273   52.8920   24.3397 H   0  0  0  0  0  0
   -3.6393   51.6504   23.5261 H   0  0  0  0  0  0
   -2.8578   51.6637   26.4978 H   0  0  0  0  0  0
   -4.4376   52.0317   25.9058 H   0  0  0  0  0  0
   -4.6710   49.7663   24.9451 H   0  0  0  0  0  0
   -2.9283   48.0535   25.2859 H   0  0  0  0  0  0
   -1.9184   49.1657   26.1207 H   0  0  0  0  0  0
   -2.7010   49.4033   23.1601 H   0  0  0  0  0  0
   -1.1334   49.0068   23.8549 H   0  0  0  0  0  0
   -3.7946   49.6776   27.8920 H   0  0  0  0  0  0
   -5.4159   50.0582   27.3193 H   0  0  0  0  0  0
   -4.7603   48.4431   27.0924 H   0  0  0  0  0  0
    4.6974   53.5944   24.0000 H   0  0  0  0  0  0
    3.3347   53.8299   25.3128 H   0  0  0  0  0  0
    2.1595   53.3241   27.3789 H   0  0  0  0  0  0
    3.2758   53.6512   29.5543 H   0  0  0  0  0  0
    5.5929   54.4982   29.6500 H   0  0  0  0  0  0
    6.8194   54.9827   27.5951 H   0  0  0  0  0  0
    7.3229   57.0059   19.2105 H   0  0  0  0  0  0
    8.6958   55.9714   19.5818 H   0  0  0  0  0  0
  1  2  1  0  0  0
  1 37  1  0  0  0
  1 38  1  0  0  0
  1 39  1  0  0  0
  2  3  1  0  0  0
  2 36  1  0  0  0
  2  4  1  0  0  0
  4  5  1  0  0  0
  4 40  1  0  0  0
  4 41  1  0  0  0
  5  6  1  0  0  0
  5 42  1  0  0  0
  5 43  1  0  0  0
  6 10  1  0  0  0
  6  7  2  0  0  0
  7  8  1  0  0  0
  7 36  1  0  0  0
  8  9  1  0  0  0
  9 10  2  0  0  0
  9 27  1  0  0  0
 10 11  1  0  0  0
 11 12  2  0  0  0
 11 13  1  0  0  0
 13 14  1  0  0  0
 13 44  1  0  0  0
 14 19  2  0  0  0
 14 15  1  0  0  0
 15 16  2  0  0  0
 15 45  1  0  0  0
 16 17  1  0  0  0
 16 46  1  0  0  0
 17 18  2  0  0  0
 17 20  1  0  0  0
 18 19  1  0  0  0
 18 47  1  0  0  0
 19 48  1  0  0  0
 20 25  1  0  0  0
 20 21  1  0  0  0
 21 22  1  0  0  0
 21 49  1  0  0  0
 21 50  1  0  0  0
 22 23  1  0  0  0
 22 51  1  0  0  0
 22 52  1  0  0  0
 23 24  1  0  0  0
 23 26  1  0  0  0
 23 53  1  0  0  0
 24 25  1  0  0  0
 24 54  1  0  0  0
 24 55  1  0  0  0
 25 56  1  0  0  0
 25 57  1  0  0  0
 26 58  1  0  0  0
 26 59  1  0  0  0
 26 60  1  0  0  0
 27 28  1  0  0  0
 27 61  1  0  0  0
 28 29  2  0  0  0
 28 30  1  0  0  0
 30 35  2  0  0  0
 30 31  1  0  0  0
 31 32  2  0  0  0
 31 62  1  0  0  0
 32 33  1  0  0  0
 32 63  1  0  0  0
 33 34  2  0  0  0
 33 64  1  0  0  0
 34 35  1  0  0  0
 34 65  1  0  0  0
 35 66  1  0  0  0
 36 67  1  0  0  0
 36 68  1  0  0  0
M  END
> <i_i_glide_confnum>
39

> <i_i_glide_lignum>
5214

> <i_i_glide_posenum>
133

> <i_i_glide_rotatable_bonds>
7

> <i_m_Source_File_Index>
2866

> <b_m_subgroup_collapsed>
0

> <r_i_docking_score>
-5.88426

> <r_i_glide_ecoul>
-1.40064

> <r_i_glide_eff_state_penalty>
0

> <r_i_glide_einternal>
2.92448

> <r_i_glide_emodel>
-68.1215

> <r_i_glide_energy>
-51.2458

> <r_i_glide_erotb>
0.598447

> <r_i_glide_esite>
-0.00151376

> <r_i_glide_evdw>
-49.8452

> <r_i_glide_gscore>
-5.88426

> <r_i_glide_hbond>
-0.309574

> <r_i_glide_ligand_efficiency>
-0.168122

> <r_i_glide_ligand_efficiency_ln>
-1.29173

> <r_i_glide_ligand_efficiency_sa>
-0.549937

> <r_i_glide_lipo>
-2.74409

> <r_i_glide_metal>
0

> <r_i_glide_rewards>
-0.725173

> <s_i_glide_gridfile>
wee1_glide-grid

> <s_m_Source_File>
wee1_decoys_glide_SP.sdf

> <s_m_Source_Path>
/Users/zhangxujun/Desktop

> <s_m_entry_id>
3141

> <s_m_entry_name>
wee1_decoys_glide_SP.2866

> <s_m_subgroup_title>
wee1_decoys_glide_SP

> <s_m_subgroupid>
wee1_decoys_glide_SP


$$$$
