ZINC35664241_2919
                    3D
 Schrodinger Suite 2024-2.
 72 74  0  0  1  0            999 V2000
    2.7072   50.0535   20.5623 C   0  0  0  0  0  0
    1.3727   50.7662   20.8523 C   0  0  0  0  0  0
    1.0663   50.8741   22.3097 N   0  0  0  0  0  0
    1.4114   51.9576   23.1326 C   0  0  0  0  0  0
    1.1928   51.9135   24.4850 C   0  0  0  0  0  0
    0.3039   50.7848   25.0612 C   0  0  2  0  0  0
    0.6859   50.4260   26.0213 H   0  0  0  0  0  0
    0.3329   49.6476   24.1307 N   0  0  0  0  0  0
    0.4160   49.7552   22.7865 C   0  0  0  0  0  0
   -0.1504   48.8906   22.1188 O   0  0  0  0  0  0
   -1.1225   51.2641   25.3839 C   0  0  0  0  0  0
   -1.8857   51.9358   24.4175 C   0  0  0  0  0  0
   -3.1671   52.3981   24.7174 C   0  0  0  0  0  0
   -3.7039   52.1830   25.9846 C   0  0  0  0  0  0
   -2.9653   51.4989   26.9486 C   0  0  0  0  0  0
   -1.6800   51.0449   26.6521 C   0  0  0  0  0  0
   -3.4948   51.2805   28.1726 F   0  0  0  0  0  0
    1.6035   52.9643   25.4690 C   0  0  0  0  0  0
    2.1148   54.0419   25.1662 O   0  0  0  0  0  0
    1.4349   52.5811   26.7656 O   0  0  0  0  0  0
    1.9568   53.3144   27.8708 C   0  0  0  0  0  0
    1.0225   54.4367   28.3431 C   0  0  0  0  0  0
    1.9658   53.1826   22.3662 C   0  0  0  0  0  0
    3.4699   53.1168   21.9785 N   0  3  2  0  0  0
    4.3571   53.5686   23.1626 C   0  0  0  0  0  0
    5.8684   53.4492   22.9152 C   0  0  0  0  0  0
    6.4915   54.5994   22.0918 C   0  0  0  0  0  0
    6.0608   54.7469   20.6835 N   0  0  0  0  0  0
    5.1707   53.7050   20.1276 C   0  0  0  0  0  0
    3.7397   53.8516   20.6455 C   0  0  0  0  0  0
    6.3344   55.9216   20.0442 C   0  0  0  0  0  0
    6.8215   56.8961   20.6216 O   0  0  0  0  0  0
    6.2746   55.8735   18.6961 N   0  0  0  0  0  0
    6.6680   56.9209   17.7439 C   0  0  0  0  0  0
    5.8222   58.2052   17.8543 C   0  0  0  0  0  0
    8.1838   57.2057   17.7458 C   0  0  0  0  0  0
    2.9199   50.0525   19.4912 H   0  0  0  0  0  0
    3.5511   50.5285   21.0594 H   0  0  0  0  0  0
    2.6758   49.0090   20.8768 H   0  0  0  0  0  0
    0.5986   50.2006   20.3278 H   0  0  0  0  0  0
    1.3552   51.7151   20.3296 H   0  0  0  0  0  0
   -0.1290   48.8079   24.4464 H   0  0  0  0  0  0
   -1.4868   52.1039   23.4293 H   0  0  0  0  0  0
   -3.7422   52.9247   23.9692 H   0  0  0  0  0  0
   -4.6970   52.5382   26.2196 H   0  0  0  0  0  0
   -1.1319   50.5065   27.4140 H   0  0  0  0  0  0
    2.0758   52.5969   28.6855 H   0  0  0  0  0  0
    2.9554   53.7001   27.6531 H   0  0  0  0  0  0
    1.3078   54.7849   29.3335 H   0  0  0  0  0  0
    1.0699   55.2961   27.6812 H   0  0  0  0  0  0
   -0.0119   54.0995   28.3959 H   0  0  0  0  0  0
    1.8128   54.1440   22.8517 H   0  0  0  0  0  0
    1.3949   53.3017   21.4502 H   0  0  0  0  0  0
    4.0602   52.9022   23.9701 H   0  0  0  0  0  0
    4.0551   54.5848   23.4209 H   0  0  0  0  0  0
    6.1036   52.4779   22.4856 H   0  0  0  0  0  0
    6.3545   53.4454   23.8916 H   0  0  0  0  0  0
    7.5788   54.4995   22.1104 H   0  0  0  0  0  0
    6.2683   55.5279   22.6197 H   0  0  0  0  0  0
    5.1411   53.7482   19.0392 H   0  0  0  0  0  0
    5.5460   52.7004   20.3176 H   0  0  0  0  0  0
    3.4976   54.8963   20.8187 H   0  0  0  0  0  0
    3.0377   53.4289   19.9250 H   0  0  0  0  0  0
    6.0294   54.9910   18.2766 H   0  0  0  0  0  0
    6.4425   56.5009   16.7615 H   0  0  0  0  0  0
    6.1477   58.9479   17.1242 H   0  0  0  0  0  0
    5.9137   58.6769   18.8323 H   0  0  0  0  0  0
    4.7680   58.0086   17.6539 H   0  0  0  0  0  0
    8.4319   57.9999   17.0393 H   0  0  0  0  0  0
    8.5346   57.5444   18.7214 H   0  0  0  0  0  0
    8.7595   56.3277   17.4460 H   0  0  0  0  0  0
    3.6693   52.1441   21.7859 H   0  0  0  0  0  0
  1  2  1  0  0  0
  1 37  1  0  0  0
  1 38  1  0  0  0
  1 39  1  0  0  0
  2  3  1  0  0  0
  2 40  1  0  0  0
  2 41  1  0  0  0
  3  9  1  0  0  0
  3  4  1  0  0  0
  4  5  2  0  0  0
  4 23  1  0  0  0
  5  6  1  0  0  0
  5 18  1  0  0  0
  6  7  1  0  0  0
  6  8  1  0  0  0
  6 11  1  0  0  0
  8  9  1  0  0  0
  8 42  1  0  0  0
  9 10  2  0  0  0
 11 16  2  0  0  0
 11 12  1  0  0  0
 12 13  2  0  0  0
 12 43  1  0  0  0
 13 14  1  0  0  0
 13 44  1  0  0  0
 14 15  2  0  0  0
 14 45  1  0  0  0
 15 16  1  0  0  0
 15 17  1  0  0  0
 16 46  1  0  0  0
 18 19  2  0  0  0
 18 20  1  0  0  0
 20 21  1  0  0  0
 21 22  1  0  0  0
 21 47  1  0  0  0
 21 48  1  0  0  0
 22 49  1  0  0  0
 22 50  1  0  0  0
 22 51  1  0  0  0
 23 24  1  0  0  0
 23 52  1  0  0  0
 23 53  1  0  0  0
 24 30  1  0  0  0
 24 25  1  0  0  0
 24 72  1  0  0  0
 25 26  1  0  0  0
 25 54  1  0  0  0
 25 55  1  0  0  0
 26 27  1  0  0  0
 26 56  1  0  0  0
 26 57  1  0  0  0
 27 28  1  0  0  0
 27 58  1  0  0  0
 27 59  1  0  0  0
 28 29  1  0  0  0
 28 31  1  0  0  0
 29 30  1  0  0  0
 29 60  1  0  0  0
 29 61  1  0  0  0
 30 62  1  0  0  0
 30 63  1  0  0  0
 31 32  2  0  0  0
 31 33  1  0  0  0
 33 34  1  0  0  0
 33 64  1  0  0  0
 34 35  1  0  0  0
 34 36  1  0  0  0
 34 65  1  0  0  0
 35 66  1  0  0  0
 35 67  1  0  0  0
 35 68  1  0  0  0
 36 69  1  0  0  0
 36 70  1  0  0  0
 36 71  1  0  0  0
M  CHG  1  24   1
M  END
> <i_i_glide_confnum>
307

> <i_i_glide_lignum>
2920

> <i_i_glide_posenum>
18

> <i_i_glide_rotatable_bonds>
10

> <i_m_Source_File_Index>
2311

> <b_m_subgroup_collapsed>
0

> <r_i_docking_score>
-4.77711

> <r_i_glide_ecoul>
-7.18936

> <r_i_glide_eff_state_penalty>
0

> <r_i_glide_einternal>
8.94739

> <r_i_glide_emodel>
-51.0276

> <r_i_glide_energy>
-42.8066

> <r_i_glide_erotb>
0.591913

> <r_i_glide_esite>
-0.0619409

> <r_i_glide_evdw>
-35.6172

> <r_i_glide_gscore>
-4.77711

> <r_i_glide_hbond>
-0.32

> <r_i_glide_ligand_efficiency>
-0.136489

> <r_i_glide_ligand_efficiency_ln>
-1.04868

> <r_i_glide_ligand_efficiency_sa>
-0.446464

> <r_i_glide_lipo>
-1.33733

> <r_i_glide_metal>
0

> <r_i_glide_rewards>
-0.790485

> <s_i_glide_gridfile>
wee1_glide-grid

> <s_m_Source_File>
wee1_decoys_glide_SP.sdf

> <s_m_Source_Path>
/Users/zhangxujun/Desktop

> <s_m_entry_id>
2586

> <s_m_entry_name>
wee1_decoys_glide_SP.2311

> <s_m_subgroup_title>
wee1_decoys_glide_SP

> <s_m_subgroupid>
wee1_decoys_glide_SP


$$$$
