ZINC03251520_2335
                    3D
 Schrodinger Suite 2024-2.
 55 57  0  0  1  0            999 V2000
    4.1486   52.6802   28.8425 C   0  0  0  0  0  0
    4.1973   54.0960   28.2320 C   0  0  0  0  0  0
    3.0991   54.9582   28.9149 C   0  0  0  0  0  0
    5.5753   54.7115   28.6005 C   0  0  0  0  0  0
    3.9686   54.0044   26.6985 C   0  0  0  0  0  0
    2.6873   53.7514   26.1928 C   0  0  0  0  0  0
    2.4523   53.6981   24.8226 C   0  0  0  0  0  0
    3.4997   53.8518   23.9095 C   0  0  0  0  0  0
    4.7851   54.0980   24.4075 C   0  0  0  0  0  0
    5.0139   54.1811   25.7799 C   0  0  0  0  0  0
    3.2421   53.7413   22.3877 C   0  0  2  0  0  0
    2.4145   54.4329   22.2004 H   0  0  0  0  0  0
    2.8799   52.2817   21.8952 C   0  0  2  0  0  0
    3.5055   51.5783   22.4345 H   0  0  0  0  0  0
    3.1815   52.0104   20.4080 C   0  0  0  0  0  0
    2.7042   50.9639   19.7091 C   0  0  0  0  0  0
    4.0238   52.8991   19.8107 N   0  0  0  0  0  0
    4.7143   53.9235   20.3436 C   0  0  0  0  0  0
    5.7354   54.3712   19.8296 O   0  0  0  0  0  0
    4.3046   54.3343   21.5553 N   0  0  0  0  0  0
    1.4257   51.9468   22.3012 C   0  0  0  0  0  0
    0.4914   52.4961   21.7170 O   0  0  0  0  0  0
    1.2740   51.0524   23.3012 N   0  0  0  0  0  0
    0.1047   50.7257   24.0059 C   0  0  0  0  0  0
    0.1281   49.5368   24.7357 C   0  0  0  0  0  0
   -0.9700   49.1681   25.5084 C   0  0  0  0  0  0
   -2.0964   49.9909   25.5679 C   0  0  0  0  0  0
   -2.1366   51.1906   24.8480 C   0  0  0  0  0  0
   -1.0292   51.5515   24.0706 C   0  0  0  0  0  0
   -3.3737   52.0851   24.9334 C   0  0  0  0  0  0
   -3.2744   53.1753   24.1645 F   0  0  0  0  0  0
   -4.4518   51.4026   24.5409 F   0  0  0  0  0  0
   -3.5539   52.4886   26.1937 F   0  0  0  0  0  0
    4.2110   52.7053   29.9324 H   0  0  0  0  0  0
    4.9928   52.0970   28.4850 H   0  0  0  0  0  0
    3.2340   52.1473   28.5784 H   0  0  0  0  0  0
    3.0332   55.9553   28.4838 H   0  0  0  0  0  0
    2.1095   54.5070   28.8411 H   0  0  0  0  0  0
    3.2944   55.0802   29.9810 H   0  0  0  0  0  0
    5.7603   55.6569   28.0915 H   0  0  0  0  0  0
    5.6609   54.8998   29.6719 H   0  0  0  0  0  0
    6.3996   54.0460   28.3380 H   0  0  0  0  0  0
    1.8527   53.5992   26.8584 H   0  0  0  0  0  0
    1.4410   53.5410   24.4843 H   0  0  0  0  0  0
    5.6277   54.2131   23.7427 H   0  0  0  0  0  0
    6.0244   54.3617   26.1074 H   0  0  0  0  0  0
    2.0448   50.2357   20.1557 H   0  0  0  0  0  0
    2.9679   50.8129   18.6699 H   0  0  0  0  0  0
    4.2847   52.7145   18.8539 H   0  0  0  0  0  0
    4.6768   55.2203   21.8516 H   0  0  0  0  0  0
    2.0952   50.5470   23.5899 H   0  0  0  0  0  0
    0.9987   48.8954   24.7218 H   0  0  0  0  0  0
   -0.9426   48.2520   26.0816 H   0  0  0  0  0  0
   -2.9279   49.6939   26.1924 H   0  0  0  0  0  0
   -1.0526   52.4916   23.5443 H   0  0  0  0  0  0
  1  2  1  0  0  0
  1 34  1  0  0  0
  1 35  1  0  0  0
  1 36  1  0  0  0
  2  3  1  0  0  0
  2  4  1  0  0  0
  2  5  1  0  0  0
  3 37  1  0  0  0
  3 38  1  0  0  0
  3 39  1  0  0  0
  4 40  1  0  0  0
  4 41  1  0  0  0
  4 42  1  0  0  0
  5 10  2  0  0  0
  5  6  1  0  0  0
  6  7  2  0  0  0
  6 43  1  0  0  0
  7  8  1  0  0  0
  7 44  1  0  0  0
  8  9  2  0  0  0
  8 11  1  0  0  0
  9 10  1  0  0  0
  9 45  1  0  0  0
 10 46  1  0  0  0
 11 12  1  0  0  0
 11 20  1  0  0  0
 11 13  1  0  0  0
 13 14  1  0  0  0
 13 15  1  0  0  0
 13 21  1  0  0  0
 15 16  2  0  0  0
 15 17  1  0  0  0
 16 47  1  0  0  0
 16 48  1  0  0  0
 17 18  1  0  0  0
 17 49  1  0  0  0
 18 19  2  0  0  0
 18 20  1  0  0  0
 20 50  1  0  0  0
 21 22  2  0  0  0
 21 23  1  0  0  0
 23 24  1  0  0  0
 23 51  1  0  0  0
 24 29  2  0  0  0
 24 25  1  0  0  0
 25 26  2  0  0  0
 25 52  1  0  0  0
 26 27  1  0  0  0
 26 53  1  0  0  0
 27 28  2  0  0  0
 27 54  1  0  0  0
 28 29  1  0  0  0
 28 30  1  0  0  0
 29 55  1  0  0  0
 30 31  1  0  0  0
 30 32  1  0  0  0
 30 33  1  0  0  0
M  END
> <i_i_glide_confnum>
4

> <i_i_glide_lignum>
2336

> <i_i_glide_posenum>
41

> <i_i_glide_rotatable_bonds>
6

> <i_m_Source_File_Index>
3218

> <b_m_subgroup_collapsed>
0

> <r_i_docking_score>
-5.39493

> <r_i_glide_ecoul>
-2.95059

> <r_i_glide_eff_state_penalty>
0

> <r_i_glide_einternal>
3.78179

> <r_i_glide_emodel>
-52.3722

> <r_i_glide_energy>
-40.9245

> <r_i_glide_erotb>
0.427397

> <r_i_glide_esite>
-0.0231787

> <r_i_glide_evdw>
-37.9739

> <r_i_glide_gscore>
-5.39493

> <r_i_glide_hbond>
0

> <r_i_glide_ligand_efficiency>
-0.17403

> <r_i_glide_ligand_efficiency_ln>
-1.21672

> <r_i_glide_ligand_efficiency_sa>
-0.546694

> <r_i_glide_lipo>
-2.45594

> <r_i_glide_metal>
0

> <r_i_glide_rewards>
-1.00192

> <s_i_glide_gridfile>
wee1_glide-grid

> <s_m_Source_File>
wee1_decoys_glide_SP.sdf

> <s_m_Source_Path>
/Users/zhangxujun/Desktop

> <s_m_entry_id>
3493

> <s_m_entry_name>
wee1_decoys_glide_SP.3218

> <s_m_subgroup_title>
wee1_decoys_glide_SP

> <s_m_subgroupid>
wee1_decoys_glide_SP


$$$$
