ZINC35453989_3876
                    3D
 Schrodinger Suite 2024-2.
 24 25  0  0  1  0            999 V2000
    3.7229   54.0969   23.4218 C   0  0  0  0  0  0
    5.1033   53.9738   23.2681 C   0  0  0  0  0  0
    5.9418   54.0974   24.3755 C   0  0  0  0  0  0
    5.4035   54.3470   25.6404 C   0  0  0  0  0  0
    4.0186   54.4921   25.8002 C   0  0  0  0  0  0
    3.1850   54.3667   24.6803 C   0  0  0  0  0  0
    3.5066   54.8282   27.0388 O   0  0  0  0  0  0
    2.5400   54.0909   27.7017 C   0  0  0  0  0  0
    2.0412   54.5941   28.9063 C   0  0  0  0  0  0
    1.0489   53.8785   29.5820 C   0  0  0  0  0  0
    0.5737   52.6827   29.0392 C   0  0  0  0  0  0
    1.1229   52.2365   27.8349 C   0  0  0  0  0  0
    2.0930   52.9162   27.1678 N   0  0  0  0  0  0
   -0.4278   51.9548   29.6823 N   0  0  0  0  0  0
    6.7041   54.4966   27.2762 I   0  0  0  0  0  0
    3.0722   54.0030   22.5638 H   0  0  0  0  0  0
    5.5211   53.7776   22.2912 H   0  0  0  0  0  0
    7.0107   53.9932   24.2532 H   0  0  0  0  0  0
    2.1174   54.4891   24.7889 H   0  0  0  0  0  0
    2.4118   55.5285   29.3011 H   0  0  0  0  0  0
    0.6469   54.2572   30.5100 H   0  0  0  0  0  0
    0.7879   51.3149   27.3805 H   0  0  0  0  0  0
   -0.7287   51.0713   29.2892 H   0  0  0  0  0  0
   -0.6616   52.1622   30.6461 H   0  0  0  0  0  0
  1  6  2  0  0  0
  1  2  1  0  0  0
  1 16  1  0  0  0
  2  3  2  0  0  0
  2 17  1  0  0  0
  3  4  1  0  0  0
  3 18  1  0  0  0
  4  5  2  0  0  0
  4 15  1  0  0  0
  5  6  1  0  0  0
  5  7  1  0  0  0
  6 19  1  0  0  0
  7  8  1  0  0  0
  8 13  2  0  0  0
  8  9  1  0  0  0
  9 10  2  0  0  0
  9 20  1  0  0  0
 10 11  1  0  0  0
 10 21  1  0  0  0
 11 12  2  0  0  0
 11 14  1  0  0  0
 12 13  1  0  0  0
 12 22  1  0  0  0
 14 23  1  0  0  0
 14 24  1  0  0  0
M  END
> <i_i_glide_confnum>
1

> <i_i_glide_lignum>
3877

> <i_i_glide_posenum>
374

> <i_i_glide_rotatable_bonds>
2

> <i_m_Source_File_Index>
3544

> <b_m_subgroup_collapsed>
0

> <r_i_docking_score>
-5.50115

> <r_i_glide_ecoul>
-1.64543

> <r_i_glide_eff_state_penalty>
0

> <r_i_glide_einternal>
0.731803

> <r_i_glide_emodel>
-42.2439

> <r_i_glide_energy>
-31.0719

> <r_i_glide_erotb>
0.380964

> <r_i_glide_esite>
-0.0543451

> <r_i_glide_evdw>
-29.4265

> <r_i_glide_gscore>
-5.50115

> <r_i_glide_hbond>
0

> <r_i_glide_ligand_efficiency>
-0.366743

> <r_i_glide_ligand_efficiency_ln>
-1.48357

> <r_i_glide_ligand_efficiency_sa>
-0.904467

> <r_i_glide_lipo>
-2.75354

> <r_i_glide_metal>
0

> <r_i_glide_rewards>
-1.35609

> <s_i_glide_gridfile>
wee1_glide-grid

> <s_m_Source_File>
wee1_decoys_glide_SP.sdf

> <s_m_Source_Path>
/Users/zhangxujun/Desktop

> <s_m_entry_id>
3819

> <s_m_entry_name>
wee1_decoys_glide_SP.3544

> <s_m_subgroup_title>
wee1_decoys_glide_SP

> <s_m_subgroupid>
wee1_decoys_glide_SP


$$$$
