ZINC21096623_830
                    3D
 Schrodinger Suite 2024-2.
 61 64  0  0  1  0            999 V2000
    2.4673   47.6947   18.4706 C   0  0  0  0  0  0
    1.2388   47.1003   18.8873 O   0  0  0  0  0  0
    0.1598   47.9294   19.1210 C   0  0  0  0  0  0
   -1.0726   47.3257   19.3797 C   0  0  0  0  0  0
   -2.2129   48.1004   19.5989 C   0  0  0  0  0  0
   -2.1291   49.4928   19.5670 C   0  0  0  0  0  0
   -0.9011   50.1114   19.3247 C   0  0  0  0  0  0
    0.2335   49.3298   19.1040 C   0  0  0  0  0  0
   -0.7672   51.6207   19.3260 C   0  0  0  0  0  0
    0.1475   52.0632   20.3864 N   0  3  0  0  0  0
   -0.1105   52.0701   21.7000 C   0  0  0  0  0  0
   -1.3939   51.9533   22.0857 N   0  0  0  0  0  0
   -1.9257   51.8089   23.3911 C   0  0  0  0  0  0
   -1.4447   50.8462   24.2801 C   0  0  0  0  0  0
   -2.0134   50.7333   25.5489 C   0  0  0  0  0  0
   -3.0567   51.5819   25.9283 C   0  0  0  0  0  0
   -3.5448   52.5607   25.0462 C   0  0  0  0  0  0
   -2.9666   52.6526   23.7725 C   0  0  0  0  0  0
   -4.6504   53.4926   25.4480 C   0  0  0  0  0  0
   -4.8664   54.4967   24.7277 O   0  0  0  0  0  0
   -5.2974   53.2217   26.4833 O   0  5  0  0  0  0
    0.9263   52.2235   22.5468 N   0  0  0  0  0  0
    2.3296   51.8561   22.2527 C   0  0  0  0  0  0
    3.2167   53.1181   22.1099 C   0  0  0  0  0  0
    3.1217   54.0194   23.2726 N   0  0  0  0  0  0
    1.7150   54.2969   23.5876 C   0  0  0  0  0  0
    0.8892   53.0183   23.7856 C   0  0  0  0  0  0
    4.1365   54.1173   24.2220 C   0  0  0  0  0  0
    3.8580   54.0969   25.5985 C   0  0  0  0  0  0
    4.8790   54.2262   26.5333 C   0  0  0  0  0  0
    6.1896   54.3872   26.1014 C   0  0  0  0  0  0
    6.4874   54.4175   24.7419 C   0  0  0  0  0  0
    5.4658   54.2724   23.8072 C   0  0  0  0  0  0
    7.1773   54.5096   27.0116 F   0  0  0  0  0  0
    3.1358   46.9315   18.0750 H   0  0  0  0  0  0
    2.3046   48.4182   17.6740 H   0  0  0  0  0  0
    2.9710   48.1916   19.2996 H   0  0  0  0  0  0
   -1.1436   46.2480   19.3973 H   0  0  0  0  0  0
   -3.1614   47.6216   19.7907 H   0  0  0  0  0  0
   -3.0171   50.0813   19.7444 H   0  0  0  0  0  0
    1.1745   49.8292   18.9285 H   0  0  0  0  0  0
   -0.3553   51.9584   18.3735 H   0  0  0  0  0  0
   -1.7296   52.1139   19.4604 H   0  0  0  0  0  0
    1.0887   52.3086   20.1088 H   0  0  0  0  0  0
   -0.6409   50.1833   23.9932 H   0  0  0  0  0  0
   -1.6517   49.9870   26.2434 H   0  0  0  0  0  0
   -3.4821   51.4747   26.9168 H   0  0  0  0  0  0
   -3.3128   53.4063   23.0801 H   0  0  0  0  0  0
    2.7036   51.2009   23.0390 H   0  0  0  0  0  0
    2.3601   51.2585   21.3424 H   0  0  0  0  0  0
    2.9058   53.6923   21.2375 H   0  0  0  0  0  0
    4.2453   52.8026   21.9342 H   0  0  0  0  0  0
    1.3106   54.8954   22.7681 H   0  0  0  0  0  0
    1.6186   54.8971   24.4815 H   0  0  0  0  0  0
   -0.1273   53.3266   24.0097 H   0  0  0  0  0  0
    1.2347   52.4287   24.6361 H   0  0  0  0  0  0
    2.8519   53.9610   25.9623 H   0  0  0  0  0  0
    4.6593   54.2010   27.5905 H   0  0  0  0  0  0
    7.5045   54.5483   24.4089 H   0  0  0  0  0  0
    5.7099   54.3103   22.7551 H   0  0  0  0  0  0
   -2.0623   52.0965   21.3472 H   0  0  0  0  0  0
  1  2  1  0  0  0
  1 35  1  0  0  0
  1 36  1  0  0  0
  1 37  1  0  0  0
  2  3  1  0  0  0
  3  8  2  0  0  0
  3  4  1  0  0  0
  4  5  2  0  0  0
  4 38  1  0  0  0
  5  6  1  0  0  0
  5 39  1  0  0  0
  6  7  2  0  0  0
  6 40  1  0  0  0
  7  8  1  0  0  0
  7  9  1  0  0  0
  8 41  1  0  0  0
  9 10  1  0  0  0
  9 42  1  0  0  0
  9 43  1  0  0  0
 10 11  2  0  0  0
 10 44  1  0  0  0
 11 12  1  0  0  0
 11 22  1  0  0  0
 12 13  1  0  0  0
 12 61  1  0  0  0
 13 18  2  0  0  0
 13 14  1  0  0  0
 14 15  2  0  0  0
 14 45  1  0  0  0
 15 16  1  0  0  0
 15 46  1  0  0  0
 16 17  2  0  0  0
 16 47  1  0  0  0
 17 18  1  0  0  0
 17 19  1  0  0  0
 18 48  1  0  0  0
 19 20  2  0  0  0
 19 21  1  0  0  0
 22 27  1  0  0  0
 22 23  1  0  0  0
 23 24  1  0  0  0
 23 49  1  0  0  0
 23 50  1  0  0  0
 24 25  1  0  0  0
 24 51  1  0  0  0
 24 52  1  0  0  0
 25 26  1  0  0  0
 25 28  1  0  0  0
 26 27  1  0  0  0
 26 53  1  0  0  0
 26 54  1  0  0  0
 27 55  1  0  0  0
 27 56  1  0  0  0
 28 33  2  0  0  0
 28 29  1  0  0  0
 29 30  2  0  0  0
 29 57  1  0  0  0
 30 31  1  0  0  0
 30 58  1  0  0  0
 31 32  2  0  0  0
 31 34  1  0  0  0
 32 33  1  0  0  0
 32 59  1  0  0  0
 33 60  1  0  0  0
M  CHG  2  10   1  21  -1
M  END
> <i_i_glide_confnum>
150

> <i_i_glide_lignum>
831

> <i_i_glide_posenum>
316

> <i_i_glide_rotatable_bonds>
8

> <i_m_Source_File_Index>
5138

> <b_m_subgroup_collapsed>
0

> <r_i_docking_score>
-4.68999

> <r_i_glide_ecoul>
-3.34105

> <r_i_glide_eff_state_penalty>
0

> <r_i_glide_einternal>
6.92666

> <r_i_glide_emodel>
-47.5989

> <r_i_glide_energy>
-38.0709

> <r_i_glide_erotb>
0.565009

> <r_i_glide_esite>
-0.0273608

> <r_i_glide_evdw>
-34.7299

> <r_i_glide_gscore>
-4.68999

> <r_i_glide_hbond>
-0.122848

> <r_i_glide_ligand_efficiency>
-0.137941

> <r_i_glide_ligand_efficiency_ln>
-1.03615

> <r_i_glide_ligand_efficiency_sa>
-0.446875

> <r_i_glide_lipo>
-2.34982

> <r_i_glide_metal>
0

> <r_i_glide_rewards>
-0.517317

> <s_i_glide_gridfile>
wee1_glide-grid

> <s_m_Source_File>
wee1_decoys_glide_SP.sdf

> <s_m_Source_Path>
/Users/zhangxujun/Desktop

> <s_m_entry_id>
5413

> <s_m_entry_name>
wee1_decoys_glide_SP.5138

> <s_m_subgroup_title>
wee1_decoys_glide_SP

> <s_m_subgroupid>
wee1_decoys_glide_SP


$$$$
