ZINC12714652_3114
                    3D
 Schrodinger Suite 2024-2.
 65 68  0  0  1  0            999 V2000
   -0.5369   47.4226   24.8410 C   0  0  0  0  0  0
   -0.8953   47.9954   23.4888 C   0  0  0  0  0  0
   -1.9004   47.4250   22.7093 C   0  0  0  0  0  0
   -2.2092   47.9644   21.4622 C   0  0  0  0  0  0
   -1.5252   49.0923   20.9772 C   0  0  0  0  0  0
   -0.4976   49.6478   21.7654 C   0  0  0  0  0  0
   -0.1839   49.0916   23.0085 C   0  0  0  0  0  0
    0.1545   50.8544   21.4015 N   0  0  0  0  0  0
   -0.1725   52.0940   22.1648 C   0  0  2  0  0  0
   -0.1132   52.8982   21.4372 H   0  0  0  0  0  0
    0.8013   52.4513   23.2485 C   0  0  0  0  0  0
    1.9446   53.2355   23.2664 C   0  0  0  0  0  0
    2.3756   53.2981   24.5921 C   0  0  0  0  0  0
    1.5035   52.5182   25.3341 C   0  0  0  0  0  0
    0.5739   51.9830   24.5067 O   0  0  0  0  0  0
    1.3711   52.1743   26.7972 C   0  0  0  0  0  0
   -1.6679   52.2098   22.5729 C   0  0  0  0  0  0
   -2.4956   52.0958   21.6752 O   0  0  0  0  0  0
   -1.9991   52.4744   23.8482 N   0  0  0  0  0  0
   -3.3534   52.4921   24.4002 C   0  0  0  0  0  0
   -4.0016   51.0992   24.4259 C   0  0  0  0  0  0
   -3.4742   50.4371   25.7058 C   0  0  0  0  0  0
   -3.1134   51.5846   26.6665 C   0  0  0  0  0  0
   -3.3212   52.8906   25.8816 C   0  0  0  0  0  0
    1.0393   50.9487   20.3540 C   0  0  0  0  0  0
    1.6360   51.9896   20.0699 O   0  0  0  0  0  0
    1.2368   49.8076   19.4906 C   0  0  0  0  0  0
    0.9202   49.6527   18.1426 C   0  0  0  0  0  0
    1.2813   48.3669   17.6748 C   0  0  0  0  0  0
    1.7834   47.5381   18.5780 N   0  0  0  0  0  0
    1.9053   48.3302   20.0818 S   0  0  0  0  0  0
    1.0614   47.8523   16.3285 C   0  0  0  0  0  0
    0.1500   48.2577   15.6099 O   0  0  0  0  0  0
    1.9060   46.9056   15.9037 N   0  0  0  0  0  0
    0.3435   50.6383   17.3784 N   0  0  0  0  0  0
   -1.8211   49.7033   19.7726 O   0  0  0  0  0  0
   -2.7434   49.0922   18.8799 C   0  0  0  0  0  0
    0.5442   47.2967   24.8815 H   0  0  0  0  0  0
   -0.8181   48.1035   25.6454 H   0  0  0  0  0  0
   -0.9984   46.4516   25.0204 H   0  0  0  0  0  0
   -2.4521   46.5694   23.0706 H   0  0  0  0  0  0
   -3.0035   47.5061   20.8938 H   0  0  0  0  0  0
    0.5954   49.5276   23.6186 H   0  0  0  0  0  0
    2.3843   53.7368   22.4146 H   0  0  0  0  0  0
    3.2252   53.8478   24.9685 H   0  0  0  0  0  0
    2.2971   52.3592   27.3429 H   0  0  0  0  0  0
    0.5886   52.7675   27.2719 H   0  0  0  0  0  0
    1.1066   51.1262   26.9438 H   0  0  0  0  0  0
   -1.2421   52.5454   24.5147 H   0  0  0  0  0  0
   -3.9041   53.2200   23.8006 H   0  0  0  0  0  0
   -3.8140   50.5128   23.5253 H   0  0  0  0  0  0
   -5.0852   51.2124   24.4891 H   0  0  0  0  0  0
   -2.5833   49.8489   25.4791 H   0  0  0  0  0  0
   -4.2044   49.7522   26.1390 H   0  0  0  0  0  0
   -2.0765   51.4878   26.9925 H   0  0  0  0  0  0
   -3.7329   51.5595   27.5643 H   0  0  0  0  0  0
   -4.2886   53.3182   26.1511 H   0  0  0  0  0  0
   -2.5872   53.6621   26.1142 H   0  0  0  0  0  0
    2.7434   46.7241   16.4377 H   0  0  0  0  0  0
    1.7939   46.5230   14.9795 H   0  0  0  0  0  0
    0.1329   50.4812   16.4013 H   0  0  0  0  0  0
    0.1924   51.5687   17.7404 H   0  0  0  0  0  0
   -2.7950   49.6810   17.9651 H   0  0  0  0  0  0
   -2.4299   48.0830   18.6083 H   0  0  0  0  0  0
   -3.7473   49.0558   19.3053 H   0  0  0  0  0  0
  1  2  1  0  0  0
  1 38  1  0  0  0
  1 39  1  0  0  0
  1 40  1  0  0  0
  2  7  2  0  0  0
  2  3  1  0  0  0
  3  4  2  0  0  0
  3 41  1  0  0  0
  4  5  1  0  0  0
  4 42  1  0  0  0
  5  6  2  0  0  0
  5 36  1  0  0  0
  6  7  1  0  0  0
  6  8  1  0  0  0
  7 43  1  0  0  0
  8  9  1  0  0  0
  8 25  1  0  0  0
  9 10  1  0  0  0
  9 11  1  0  0  0
  9 17  1  0  0  0
 11 15  1  0  0  0
 11 12  2  0  0  0
 12 13  1  0  0  0
 12 44  1  0  0  0
 13 14  2  0  0  0
 13 45  1  0  0  0
 14 15  1  0  0  0
 14 16  1  0  0  0
 16 46  1  0  0  0
 16 47  1  0  0  0
 16 48  1  0  0  0
 17 18  2  0  0  0
 17 19  1  0  0  0
 19 20  1  0  0  0
 19 49  1  0  0  0
 20 24  1  0  0  0
 20 21  1  0  0  0
 20 50  1  0  0  0
 21 22  1  0  0  0
 21 51  1  0  0  0
 21 52  1  0  0  0
 22 23  1  0  0  0
 22 53  1  0  0  0
 22 54  1  0  0  0
 23 24  1  0  0  0
 23 55  1  0  0  0
 23 56  1  0  0  0
 24 57  1  0  0  0
 24 58  1  0  0  0
 25 26  2  0  0  0
 25 27  1  0  0  0
 27 31  1  0  0  0
 27 28  2  0  0  0
 28 29  1  0  0  0
 28 35  1  0  0  0
 29 30  2  0  0  0
 29 32  1  0  0  0
 30 31  1  0  0  0
 32 33  2  0  0  0
 32 34  1  0  0  0
 34 59  1  0  0  0
 34 60  1  0  0  0
 35 61  1  0  0  0
 35 62  1  0  0  0
 36 37  1  0  0  0
 37 63  1  0  0  0
 37 64  1  0  0  0
 37 65  1  0  0  0
M  END
> <i_i_glide_confnum>
285

> <i_i_glide_lignum>
3115

> <i_i_glide_posenum>
147

> <i_i_glide_rotatable_bonds>
10

> <i_m_Source_File_Index>
4099

> <b_m_subgroup_collapsed>
0

> <r_i_docking_score>
-2.57382

> <r_i_glide_ecoul>
-2.42933

> <r_i_glide_eff_state_penalty>
0

> <r_i_glide_einternal>
13.0802

> <r_i_glide_emodel>
-31.8867

> <r_i_glide_energy>
-33.6806

> <r_i_glide_erotb>
0.548119

> <r_i_glide_esite>
-0.138859

> <r_i_glide_evdw>
-31.2512

> <r_i_glide_gscore>
-2.57382

> <r_i_glide_hbond>
-0.0316081

> <r_i_glide_ligand_efficiency>
-0.0714951

> <r_i_glide_ligand_efficiency_ln>
-0.561539

> <r_i_glide_ligand_efficiency_sa>
-0.236072

> <r_i_glide_lipo>
-1.02169

> <r_i_glide_metal>
0

> <r_i_glide_rewards>
-0.00282244

> <s_i_glide_gridfile>
wee1_glide-grid

> <s_m_Source_File>
wee1_decoys_glide_SP.sdf

> <s_m_Source_Path>
/Users/zhangxujun/Desktop

> <s_m_entry_id>
4374

> <s_m_entry_name>
wee1_decoys_glide_SP.4099

> <s_m_subgroup_title>
wee1_decoys_glide_SP

> <s_m_subgroupid>
wee1_decoys_glide_SP


$$$$
