ZINC35664575_1081
                    3D
 Schrodinger Suite 2024-2.
 76 79  0  0  1  0            999 V2000
    5.7858   54.3337   25.0865 C   0  0  0  0  0  0
    6.6932   54.6939   23.9048 C   0  0  0  0  0  0
    6.0014   54.4780   22.6770 O   0  0  0  0  0  0
    6.3043   55.1811   21.5627 C   0  0  0  0  0  0
    7.1336   56.0926   21.5773 O   0  0  0  0  0  0
    5.5459   54.8287   20.3220 C   0  0  0  0  0  0
    4.7103   53.7608   20.1066 C   0  0  0  0  0  0
    4.0153   53.6367   18.8889 N   0  0  0  0  0  0
    3.9750   54.6513   17.9486 C   0  0  0  0  0  0
    3.3319   54.6742   16.8953 O   0  0  0  0  0  0
    4.7422   55.7303   18.2104 N   0  0  0  0  0  0
    5.8996   55.7229   19.1168 C   0  0  2  0  0  0
    6.0809   56.7612   19.4138 H   0  0  0  0  0  0
    7.2283   55.3098   18.4596 C   0  0  0  0  0  0
    7.3462   54.0913   17.7749 C   0  0  0  0  0  0
    8.5758   53.6955   17.2519 C   0  0  0  0  0  0
    9.6872   54.5193   17.4042 C   0  0  0  0  0  0
    9.5800   55.7342   18.0731 C   0  0  0  0  0  0
    8.3570   56.1271   18.6016 C   0  0  0  0  0  0
    3.2013   52.4625   18.4633 C   0  0  0  0  0  0
    1.6949   52.6317   18.6306 C   0  0  0  0  0  0
    0.8080   52.4836   17.6354 C   0  0  0  0  0  0
    4.4055   52.6338   21.1226 C   0  0  0  0  0  0
    2.9886   52.7703   21.7297 N   0  3  2  0  0  0
    2.9502   53.7808   22.9005 C   0  0  0  0  0  0
    1.5420   54.3179   23.1744 C   0  0  0  0  0  0
    0.5804   53.4541   24.0074 C   0  0  0  0  0  0
    0.6712   51.9988   23.8099 N   0  0  0  0  0  0
    0.8403   51.5539   22.4163 C   0  0  0  0  0  0
    2.3086   51.4045   21.9857 C   0  0  0  0  0  0
    0.6232   51.0800   24.8208 C   0  0  0  0  0  0
    0.7038   49.8689   24.6020 O   0  0  0  0  0  0
    0.3932   51.5340   26.2457 C   0  0  0  0  0  0
   -0.6706   50.9871   26.9667 C   0  0  0  0  0  0
   -0.9127   51.3772   28.2802 C   0  0  0  0  0  0
   -0.0950   52.3247   28.8916 C   0  0  0  0  0  0
    0.9928   52.8784   28.1985 C   0  0  0  0  0  0
    1.2453   52.4471   26.8920 C   0  0  0  0  0  0
    1.8428   53.8355   28.7152 O   0  0  0  0  0  0
    1.5317   54.4172   29.9767 C   0  0  0  0  0  0
    6.3104   54.4555   26.0337 H   0  0  0  0  0  0
    4.9015   54.9752   25.1119 H   0  0  0  0  0  0
    5.4489   53.2972   25.0306 H   0  0  0  0  0  0
    7.5912   54.0719   23.9190 H   0  0  0  0  0  0
    7.0196   55.7342   24.0097 H   0  0  0  0  0  0
    4.7779   56.3805   17.4383 H   0  0  0  0  0  0
    6.5025   53.4280   17.6660 H   0  0  0  0  0  0
    8.6675   52.7484   16.7395 H   0  0  0  0  0  0
   10.6428   54.2102   17.0035 H   0  0  0  0  0  0
   10.4493   56.3647   18.1934 H   0  0  0  0  0  0
    8.2954   57.0647   19.1364 H   0  0  0  0  0  0
    3.4049   52.2334   17.4134 H   0  0  0  0  0  0
    3.5041   51.5487   18.9674 H   0  0  0  0  0  0
    1.3333   52.8947   19.6116 H   0  0  0  0  0  0
   -0.2495   52.6177   17.8054 H   0  0  0  0  0  0
    1.1264   52.2260   16.6347 H   0  0  0  0  0  0
    4.4914   51.6584   20.6509 H   0  0  0  0  0  0
    5.0821   52.5305   21.9661 H   0  0  0  0  0  0
    3.4340   53.3143   23.7592 H   0  0  0  0  0  0
    3.5483   54.6231   22.5569 H   0  0  0  0  0  0
    1.6029   55.2965   23.6587 H   0  0  0  0  0  0
    1.1044   54.5033   22.1987 H   0  0  0  0  0  0
   -0.4275   53.7435   23.7045 H   0  0  0  0  0  0
    0.7012   53.7563   25.0391 H   0  0  0  0  0  0
    0.2539   52.1540   21.7187 H   0  0  0  0  0  0
    0.3814   50.5654   22.3138 H   0  0  0  0  0  0
    2.3561   50.8822   21.0298 H   0  0  0  0  0  0
    2.9081   50.8345   22.6931 H   0  0  0  0  0  0
   -1.3171   50.2368   26.5251 H   0  0  0  0  0  0
   -1.7257   50.9203   28.8308 H   0  0  0  0  0  0
   -0.3161   52.6062   29.9107 H   0  0  0  0  0  0
    2.1045   52.8489   26.3760 H   0  0  0  0  0  0
    2.2709   55.1833   30.2049 H   0  0  0  0  0  0
    0.5536   54.8975   29.9682 H   0  0  0  0  0  0
    1.5566   53.6763   30.7754 H   0  0  0  0  0  0
    2.4436   53.1906   20.9858 H   0  0  0  0  0  0
  1  2  1  0  0  0
  1 41  1  0  0  0
  1 42  1  0  0  0
  1 43  1  0  0  0
  2  3  1  0  0  0
  2 44  1  0  0  0
  2 45  1  0  0  0
  3  4  1  0  0  0
  4  5  2  0  0  0
  4  6  1  0  0  0
  6 12  1  0  0  0
  6  7  2  0  0  0
  7  8  1  0  0  0
  7 23  1  0  0  0
  8  9  1  0  0  0
  8 20  1  0  0  0
  9 10  2  0  0  0
  9 11  1  0  0  0
 11 12  1  0  0  0
 11 46  1  0  0  0
 12 13  1  0  0  0
 12 14  1  0  0  0
 14 19  2  0  0  0
 14 15  1  0  0  0
 15 16  2  0  0  0
 15 47  1  0  0  0
 16 17  1  0  0  0
 16 48  1  0  0  0
 17 18  2  0  0  0
 17 49  1  0  0  0
 18 19  1  0  0  0
 18 50  1  0  0  0
 19 51  1  0  0  0
 20 21  1  0  0  0
 20 52  1  0  0  0
 20 53  1  0  0  0
 21 22  2  0  0  0
 21 54  1  0  0  0
 22 55  1  0  0  0
 22 56  1  0  0  0
 23 24  1  0  0  0
 23 57  1  0  0  0
 23 58  1  0  0  0
 24 30  1  0  0  0
 24 25  1  0  0  0
 24 76  1  0  0  0
 25 26  1  0  0  0
 25 59  1  0  0  0
 25 60  1  0  0  0
 26 27  1  0  0  0
 26 61  1  0  0  0
 26 62  1  0  0  0
 27 28  1  0  0  0
 27 63  1  0  0  0
 27 64  1  0  0  0
 28 29  1  0  0  0
 28 31  1  0  0  0
 29 30  1  0  0  0
 29 65  1  0  0  0
 29 66  1  0  0  0
 30 67  1  0  0  0
 30 68  1  0  0  0
 31 32  2  0  0  0
 31 33  1  0  0  0
 33 38  2  0  0  0
 33 34  1  0  0  0
 34 35  2  0  0  0
 34 69  1  0  0  0
 35 36  1  0  0  0
 35 70  1  0  0  0
 36 37  2  0  0  0
 36 71  1  0  0  0
 37 38  1  0  0  0
 37 39  1  0  0  0
 38 72  1  0  0  0
 39 40  1  0  0  0
 40 73  1  0  0  0
 40 74  1  0  0  0
 40 75  1  0  0  0
M  CHG  1  24   1
M  END
> <i_i_glide_confnum>
176

> <i_i_glide_lignum>
1082

> <i_i_glide_posenum>
32

> <i_i_glide_rotatable_bonds>
11

> <i_m_Source_File_Index>
587

> <b_m_subgroup_collapsed>
0

> <r_i_docking_score>
-4.51141

> <r_i_glide_ecoul>
-0.107496

> <r_i_glide_eff_state_penalty>
0

> <r_i_glide_einternal>
7.62273

> <r_i_glide_emodel>
-55.8123

> <r_i_glide_energy>
-44.2841

> <r_i_glide_erotb>
0.652108

> <r_i_glide_esite>
-0.0313977

> <r_i_glide_evdw>
-44.1766

> <r_i_glide_gscore>
-4.51141

> <r_i_glide_hbond>
-0.0444627

> <r_i_glide_ligand_efficiency>
-0.115677

> <r_i_glide_ligand_efficiency_ln>
-0.967374

> <r_i_glide_ligand_efficiency_sa>
-0.392286

> <r_i_glide_lipo>
-2.37821

> <r_i_glide_metal>
0

> <r_i_glide_rewards>
-0.484497

> <s_i_glide_gridfile>
wee1_glide-grid

> <s_m_Source_File>
wee1_decoys_glide_SP.sdf

> <s_m_Source_Path>
/Users/zhangxujun/Desktop

> <s_m_entry_id>
862

> <s_m_entry_name>
wee1_decoys_glide_SP.587

> <s_m_subgroup_title>
wee1_decoys_glide_SP

> <s_m_subgroupid>
wee1_decoys_glide_SP


$$$$
