ZINC39469600_777
                    3D
 Schrodinger Suite 2024-2.
 59 63  0  0  1  0            999 V2000
    1.1015   51.9938   27.7973 C   0  0  0  0  0  0
    1.9052   52.9134   27.1266 C   0  0  0  0  0  0
    1.7092   53.1400   25.7653 C   0  0  0  0  0  0
    0.7115   52.4433   25.0782 C   0  0  0  0  0  0
   -0.0959   51.5282   25.7616 C   0  0  0  0  0  0
    0.1039   51.2986   27.1205 C   0  0  0  0  0  0
    0.4828   52.7008   23.5930 C   0  0  0  0  0  0
    1.3037   51.7869   22.6854 C   0  0  0  0  0  0
    2.5065   52.1994   22.2261 C   0  0  0  0  0  0
    3.3603   51.3528   21.2814 C   0  0  2  0  0  0
    3.8942   50.6894   21.9598 H   0  0  0  0  0  0
    4.4444   52.1263   20.5138 C   0  0  0  0  0  0
    3.8612   52.9393   19.3385 C   0  0  1  0  0  0
    3.0998   53.6337   19.6967 H   0  0  0  0  0  0
    4.9337   53.7225   18.5521 C   0  0  0  0  0  0
    4.3062   54.5358   17.5766 O   0  0  0  0  0  0
    3.5046   53.8341   16.3418 P   0  0  1  0  0  0
    4.3698   53.4289   15.2010 O   0  0  0  0  0  0
    2.6395   52.6114   17.1434 N   0  0  0  0  0  0
    3.1043   51.9766   18.3811 N   0  3  2  0  0  0
    1.9638   51.2339   19.1021 C   0  0  0  0  0  0
    2.4707   50.4681   20.3480 C   0  0  2  0  0  0
    3.0883   49.6327   20.0091 H   0  0  0  0  0  0
    1.2919   49.8965   21.1324 C   0  0  0  0  0  0
    0.7641   50.5078   22.2135 C   0  0  0  0  0  0
   -0.2755   49.9163   22.8569 O   0  0  0  0  0  0
    1.9816   55.4007   15.6854 S   0  0  0  0  0  0
    1.2693   54.8780   14.5131 O   0  0  0  0  0  0
    1.2638   55.8569   16.8822 O   0  0  0  0  0  0
    3.0262   56.6008   15.1907 O   0  0  0  0  0  0
    2.4667   57.7853   14.7985 C   0  0  0  0  0  0
    2.4583   58.8653   15.6807 C   0  0  0  0  0  0
    1.9044   60.0787   15.2814 C   0  0  0  0  0  0
    1.3659   60.2054   14.0029 C   0  0  0  0  0  0
    1.3743   59.1283   13.1171 C   0  0  0  0  0  0
    1.9297   57.9148   13.5161 C   0  0  0  0  0  0
    1.2535   51.8136   28.8511 H   0  0  0  0  0  0
    2.6763   53.4478   27.6596 H   0  0  0  0  0  0
    2.3337   53.8534   25.2484 H   0  0  0  0  0  0
   -0.8737   50.9857   25.2448 H   0  0  0  0  0  0
   -0.5096   50.5784   27.6455 H   0  0  0  0  0  0
   -0.5772   52.5832   23.3636 H   0  0  0  0  0  0
    0.7053   53.7454   23.3694 H   0  0  0  0  0  0
    2.8836   53.1588   22.5543 H   0  0  0  0  0  0
    5.0190   52.7628   21.1897 H   0  0  0  0  0  0
    5.1302   51.3959   20.0816 H   0  0  0  0  0  0
    5.4981   54.3736   19.2208 H   0  0  0  0  0  0
    5.6554   53.0505   18.0814 H   0  0  0  0  0  0
    1.6382   52.5527   16.9409 H   0  0  0  0  0  0
    1.2024   51.9773   19.3482 H   0  0  0  0  0  0
    1.5432   50.5490   18.3632 H   0  0  0  0  0  0
    0.8644   48.9599   20.8020 H   0  0  0  0  0  0
   -0.4660   49.0747   22.4419 H   0  0  0  0  0  0
    2.8790   58.7671   16.6718 H   0  0  0  0  0  0
    1.9076   60.9163   15.9655 H   0  0  0  0  0  0
    0.9483   61.1512   13.6942 H   0  0  0  0  0  0
    0.9548   59.2339   12.1279 H   0  0  0  0  0  0
    1.9443   57.0719   12.8406 H   0  0  0  0  0  0
    3.7656   51.2710   18.0770 H   0  0  0  0  0  0
  1  6  2  0  0  0
  1  2  1  0  0  0
  1 37  1  0  0  0
  2  3  2  0  0  0
  2 38  1  0  0  0
  3  4  1  0  0  0
  3 39  1  0  0  0
  4  5  2  0  0  0
  4  7  1  0  0  0
  5  6  1  0  0  0
  5 40  1  0  0  0
  6 41  1  0  0  0
  7  8  1  0  0  0
  7 42  1  0  0  0
  7 43  1  0  0  0
  8 25  1  0  0  0
  8  9  2  0  0  0
  9 10  1  0  0  0
  9 44  1  0  0  0
 10 11  1  0  0  0
 10 22  1  0  0  0
 10 12  1  0  0  0
 12 13  1  0  0  0
 12 45  1  0  0  0
 12 46  1  0  0  0
 13 14  1  0  0  0
 13 20  1  0  0  0
 13 15  1  0  0  0
 15 16  1  0  0  0
 15 47  1  0  0  0
 15 48  1  0  0  0
 16 17  1  0  0  0
 17 18  2  0  0  0
 17 19  1  0  0  0
 17 27  1  0  0  0
 19 20  1  0  0  0
 19 49  1  0  0  0
 20 21  1  0  0  0
 20 59  1  0  0  0
 21 22  1  0  0  0
 21 50  1  0  0  0
 21 51  1  0  0  0
 22 23  1  0  0  0
 22 24  1  0  0  0
 24 25  2  0  0  0
 24 52  1  0  0  0
 25 26  1  0  0  0
 26 53  1  0  0  0
 27 28  2  0  0  0
 27 29  2  0  0  0
 27 30  1  0  0  0
 30 31  1  0  0  0
 31 36  2  0  0  0
 31 32  1  0  0  0
 32 33  2  0  0  0
 32 54  1  0  0  0
 33 34  1  0  0  0
 33 55  1  0  0  0
 34 35  2  0  0  0
 34 56  1  0  0  0
 35 36  1  0  0  0
 35 57  1  0  0  0
 36 58  1  0  0  0
M  CHG  1  20   1
M  END
> <i_i_glide_confnum>
11

> <i_i_glide_lignum>
778

> <i_i_glide_posenum>
230

> <i_i_glide_rotatable_bonds>
6

> <i_m_Source_File_Index>
4326

> <b_m_subgroup_collapsed>
0

> <r_i_docking_score>
-2.94172

> <r_i_glide_ecoul>
-3.35334

> <r_i_glide_eff_state_penalty>
0

> <r_i_glide_einternal>
0.473619

> <r_i_glide_emodel>
-40.4465

> <r_i_glide_energy>
-31.6185

> <r_i_glide_erotb>
0.424518

> <r_i_glide_esite>
-0.143555

> <r_i_glide_evdw>
-28.2652

> <r_i_glide_gscore>
-2.94172

> <r_i_glide_hbond>
-0.2

> <r_i_glide_ligand_efficiency>
-0.0891431

> <r_i_glide_ligand_efficiency_ln>
-0.654224

> <r_i_glide_ligand_efficiency_sa>
-0.28593

> <r_i_glide_lipo>
-1.02826

> <r_i_glide_metal>
0

> <r_i_glide_rewards>
-0.0781703

> <s_i_glide_gridfile>
wee1_glide-grid

> <s_m_Source_File>
wee1_decoys_glide_SP.sdf

> <s_m_Source_Path>
/Users/zhangxujun/Desktop

> <s_m_entry_id>
4601

> <s_m_entry_name>
wee1_decoys_glide_SP.4326

> <s_m_subgroup_title>
wee1_decoys_glide_SP

> <s_m_subgroupid>
wee1_decoys_glide_SP


$$$$
