ZINC50059520_227
                    3D
 Schrodinger Suite 2024-2.
 45 47  0  0  1  0            999 V2000
    6.1623   54.1498   27.5864 C   0  0  0  0  0  0
    5.1086   54.4965   28.4337 C   0  0  0  0  0  0
    3.8604   54.5389   27.8132 C   0  0  0  0  0  0
    4.0257   54.1114   26.1309 S   0  0  0  0  0  0
    5.7419   53.9504   26.2854 C   0  0  0  0  0  0
    2.5373   54.9656   28.4000 C   0  0  0  0  0  0
    1.8421   53.7265   29.0141 N   0  3  1  0  0  0
    0.9868   54.1475   30.2259 C   0  0  0  0  0  0
    0.4474   52.8672   30.8836 C   0  0  0  0  0  0
   -0.4476   52.1002   29.8957 C   0  0  0  0  0  0
    0.2492   51.7872   28.5478 C   0  0  2  0  0  0
    1.0303   51.0535   28.7586 H   0  0  0  0  0  0
    0.9320   53.0500   27.9650 C   0  0  0  0  0  0
   -0.7682   51.2027   27.5364 C   0  0  0  0  0  0
   -0.1605   50.4756   26.4191 N   0  0  0  0  0  0
    0.2273   51.0229   25.2545 C   0  0  0  0  0  0
    0.1586   52.2312   25.0238 O   0  0  0  0  0  0
    0.7049   50.0905   24.4072 N   0  0  0  0  0  0
    1.3186   50.3019   23.1785 C   0  0  0  0  0  0
    1.6461   49.2965   22.4086 N   0  0  0  0  0  0
    2.3041   49.6947   21.2531 N   0  0  0  0  0  0
    2.4707   50.9931   21.1656 C   0  0  0  0  0  0
    1.8071   51.8536   22.5288 S   0  0  0  0  0  0
    3.1705   51.6560   20.0029 C   0  0  0  0  0  0
    4.2513   52.3264   20.4044 F   0  0  0  0  0  0
    2.3613   52.4973   19.3626 F   0  0  0  0  0  0
    7.1901   54.0799   27.9109 H   0  0  0  0  0  0
    5.2538   54.7430   29.4753 H   0  0  0  0  0  0
    6.3415   53.6978   25.4239 H   0  0  0  0  0  0
    1.8482   55.4228   27.6878 H   0  0  0  0  0  0
    2.6978   55.6809   29.2090 H   0  0  0  0  0  0
    0.2002   54.8169   29.8764 H   0  0  0  0  0  0
    1.6433   54.7017   30.8826 H   0  0  0  0  0  0
   -0.1162   53.1166   31.7844 H   0  0  0  0  0  0
    1.2690   52.2313   31.2154 H   0  0  0  0  0  0
   -1.2957   52.7429   29.6813 H   0  0  0  0  0  0
   -0.8917   51.2077   30.3435 H   0  0  0  0  0  0
    1.5669   52.8029   27.1138 H   0  0  0  0  0  0
    0.1914   53.7958   27.6818 H   0  0  0  0  0  0
   -1.4302   51.9861   27.1597 H   0  0  0  0  0  0
   -1.4280   50.5018   28.0443 H   0  0  0  0  0  0
   -0.1450   49.4698   26.5233 H   0  0  0  0  0  0
    0.6452   49.1252   24.6958 H   0  0  0  0  0  0
    3.5047   50.9351   19.2567 H   0  0  0  0  0  0
    2.5666   53.0893   29.3160 H   0  0  0  0  0  0
  1  5  2  0  0  0
  1  2  1  0  0  0
  1 27  1  0  0  0
  2  3  2  0  0  0
  2 28  1  0  0  0
  3  4  1  0  0  0
  3  6  1  0  0  0
  4  5  1  0  0  0
  5 29  1  0  0  0
  6  7  1  0  0  0
  6 30  1  0  0  0
  6 31  1  0  0  0
  7 13  1  0  0  0
  7  8  1  0  0  0
  7 45  1  0  0  0
  8  9  1  0  0  0
  8 32  1  0  0  0
  8 33  1  0  0  0
  9 10  1  0  0  0
  9 34  1  0  0  0
  9 35  1  0  0  0
 10 11  1  0  0  0
 10 36  1  0  0  0
 10 37  1  0  0  0
 11 12  1  0  0  0
 11 13  1  0  0  0
 11 14  1  0  0  0
 13 38  1  0  0  0
 13 39  1  0  0  0
 14 15  1  0  0  0
 14 40  1  0  0  0
 14 41  1  0  0  0
 15 16  1  0  0  0
 15 42  1  0  0  0
 16 17  2  0  0  0
 16 18  1  0  0  0
 18 19  1  0  0  0
 18 43  1  0  0  0
 19 23  1  0  0  0
 19 20  2  0  0  0
 20 21  1  0  0  0
 21 22  2  0  0  0
 22 23  1  0  0  0
 22 24  1  0  0  0
 24 25  1  0  0  0
 24 26  1  0  0  0
 24 44  1  0  0  0
M  CHG  1   7   1
M  END
> <i_i_glide_confnum>
106

> <i_i_glide_lignum>
228

> <i_i_glide_posenum>
366

> <i_i_glide_rotatable_bonds>
8

> <i_m_Source_File_Index>
291

> <b_m_subgroup_collapsed>
0

> <r_i_docking_score>
-4.47117

> <r_i_glide_ecoul>
-2.06793

> <r_i_glide_eff_state_penalty>
0

> <r_i_glide_einternal>
6.95834

> <r_i_glide_emodel>
-50.0109

> <r_i_glide_energy>
-40.283

> <r_i_glide_erotb>
0.903747

> <r_i_glide_esite>
-0.123575

> <r_i_glide_evdw>
-38.2151

> <r_i_glide_gscore>
-4.47117

> <r_i_glide_hbond>
0

> <r_i_glide_ligand_efficiency>
-0.178847

> <r_i_glide_ligand_efficiency_ln>
-1.0598

> <r_i_glide_ligand_efficiency_sa>
-0.522951

> <r_i_glide_lipo>
-2.21656

> <r_i_glide_metal>
0

> <r_i_glide_rewards>
-0.813829

> <s_i_glide_gridfile>
wee1_glide-grid

> <s_m_Source_File>
wee1_decoys_glide_SP.sdf

> <s_m_Source_Path>
/Users/zhangxujun/Desktop

> <s_m_entry_id>
566

> <s_m_entry_name>
wee1_decoys_glide_SP.291

> <s_m_subgroup_title>
wee1_decoys_glide_SP

> <s_m_subgroupid>
wee1_decoys_glide_SP


$$$$
