ZINC32127688_2766
                    3D
 Schrodinger Suite 2024-2.
 44 47  0  0  1  0            999 V2000
    5.2971   53.9555   20.1898 C   0  0  0  0  0  0
    5.0042   53.9991   21.6843 C   0  0  0  0  0  0
    5.9953   54.4533   22.5610 C   0  0  0  0  0  0
    5.7642   54.4952   23.9348 C   0  0  0  0  0  0
    4.5251   54.1107   24.4632 C   0  0  0  0  0  0
    3.5224   53.6969   23.5766 C   0  0  0  0  0  0
    3.7627   53.5915   22.2024 C   0  0  0  0  0  0
    2.7479   53.1704   21.3218 N   0  0  0  0  0  0
    1.8836   52.1089   21.3320 C   0  0  0  0  0  0
    1.9046   50.8773   22.4816 S   0  0  0  0  0  0
    1.0101   52.2210   20.2806 N   0  0  0  0  0  0
   -0.0149   51.4499   19.8333 C   0  0  0  0  0  0
   -0.2913   50.3166   20.2366 O   0  0  0  0  0  0
   -0.8871   52.0984   18.7802 C   0  0  0  0  0  0
   -0.3794   53.0767   17.9072 C   0  0  0  0  0  0
   -1.2124   53.6864   16.9725 C   0  0  0  0  0  0
   -2.5517   53.3157   16.8913 C   0  0  0  0  0  0
   -3.0631   52.3341   17.7326 C   0  0  0  0  0  0
   -2.2350   51.7257   18.6738 C   0  0  0  0  0  0
   -3.3604   53.9156   15.9899 F   0  0  0  0  0  0
    4.2564   54.1064   25.9425 C   0  0  0  0  0  0
    3.0686   53.8525   26.4424 N   0  0  0  0  0  0
    3.1633   53.8563   27.8001 N   0  0  0  0  0  0
    2.3024   53.6468   28.8618 C   0  0  0  0  0  0
    2.9788   53.7794   29.9824 N   0  0  0  0  0  0
    4.3032   54.0967   29.6817 N   0  0  0  0  0  0
    4.3772   54.1184   28.3755 C   0  0  0  0  0  0
    5.5605   54.3809   27.1181 S   0  0  0  0  0  0
    0.8346   53.3112   28.7385 C   0  0  0  0  0  0
    6.2956   54.3218   19.9489 H   0  0  0  0  0  0
    5.2086   52.9338   19.8143 H   0  0  0  0  0  0
    4.5766   54.5659   19.6424 H   0  0  0  0  0  0
    6.9570   54.7670   22.1808 H   0  0  0  0  0  0
    6.5641   54.8317   24.5770 H   0  0  0  0  0  0
    2.5529   53.4151   23.9600 H   0  0  0  0  0  0
    2.6715   53.7727   20.5125 H   0  0  0  0  0  0
    1.0780   53.1059   19.7993 H   0  0  0  0  0  0
    0.6582   53.3813   17.9401 H   0  0  0  0  0  0
   -0.8215   54.4421   16.3063 H   0  0  0  0  0  0
   -4.1015   52.0445   17.6541 H   0  0  0  0  0  0
   -2.6541   50.9671   19.3219 H   0  0  0  0  0  0
    0.3503   53.2131   29.7108 H   0  0  0  0  0  0
    0.2953   54.0786   28.1820 H   0  0  0  0  0  0
    0.6843   52.3668   28.2148 H   0  0  0  0  0  0
  1  2  1  0  0  0
  1 30  1  0  0  0
  1 31  1  0  0  0
  1 32  1  0  0  0
  2  7  2  0  0  0
  2  3  1  0  0  0
  3  4  2  0  0  0
  3 33  1  0  0  0
  4  5  1  0  0  0
  4 34  1  0  0  0
  5  6  2  0  0  0
  5 21  1  0  0  0
  6  7  1  0  0  0
  6 35  1  0  0  0
  7  8  1  0  0  0
  8  9  1  0  0  0
  8 36  1  0  0  0
  9 10  2  0  0  0
  9 11  1  0  0  0
 11 12  1  0  0  0
 11 37  1  0  0  0
 12 13  2  0  0  0
 12 14  1  0  0  0
 14 19  2  0  0  0
 14 15  1  0  0  0
 15 16  2  0  0  0
 15 38  1  0  0  0
 16 17  1  0  0  0
 16 39  1  0  0  0
 17 18  2  0  0  0
 17 20  1  0  0  0
 18 19  1  0  0  0
 18 40  1  0  0  0
 19 41  1  0  0  0
 21 28  1  0  0  0
 21 22  2  0  0  0
 22 23  1  0  0  0
 23 27  1  0  0  0
 23 24  1  0  0  0
 24 25  2  0  0  0
 24 29  1  0  0  0
 25 26  1  0  0  0
 26 27  2  0  0  0
 27 28  1  0  0  0
 29 42  1  0  0  0
 29 43  1  0  0  0
 29 44  1  0  0  0
M  END
> <i_i_glide_confnum>
1

> <i_i_glide_lignum>
2767

> <i_i_glide_posenum>
379

> <i_i_glide_rotatable_bonds>
6

> <i_m_Source_File_Index>
1288

> <b_m_subgroup_collapsed>
0

> <r_i_docking_score>
-6.39695

> <r_i_glide_ecoul>
-6.13681

> <r_i_glide_eff_state_penalty>
0

> <r_i_glide_einternal>
0.335701

> <r_i_glide_emodel>
-63.398

> <r_i_glide_energy>
-45.823

> <r_i_glide_erotb>
0.545548

> <r_i_glide_esite>
-0.0871678

> <r_i_glide_evdw>
-39.6862

> <r_i_glide_gscore>
-6.39695

> <r_i_glide_hbond>
-0.387644

> <r_i_glide_ligand_efficiency>
-0.220585

> <r_i_glide_ligand_efficiency_ln>
-1.46474

> <r_i_glide_ligand_efficiency_sa>
-0.677706

> <r_i_glide_lipo>
-1.98248

> <r_i_glide_metal>
0

> <r_i_glide_rewards>
-1.58038

> <s_i_glide_gridfile>
wee1_glide-grid

> <s_m_Source_File>
wee1_decoys_glide_SP.sdf

> <s_m_Source_Path>
/Users/zhangxujun/Desktop

> <s_m_entry_id>
1563

> <s_m_entry_name>
wee1_decoys_glide_SP.1288

> <s_m_subgroup_title>
wee1_decoys_glide_SP

> <s_m_subgroupid>
wee1_decoys_glide_SP


$$$$
