ZINC61900158_235
                    3D
 Schrodinger Suite 2024-2.
 58 60  0  0  1  0            999 V2000
   -3.7223   48.1848   25.2765 C   0  0  0  0  0  0
   -2.4248   48.9960   25.4218 C   0  0  0  0  0  0
   -1.2005   48.2398   24.8790 C   0  0  0  0  0  0
    0.0966   49.0582   25.0497 C   0  0  0  0  0  0
   -0.0266   50.4071   24.4235 N   0  0  0  0  0  0
   -1.2181   51.1668   24.8928 C   0  0  0  0  0  0
   -2.5059   50.3433   24.6961 C   0  0  0  0  0  0
    0.8324   50.8855   23.3733 C   0  0  0  0  0  0
    0.9225   52.2440   23.0326 C   0  0  0  0  0  0
    1.7158   52.6439   21.9558 C   0  0  0  0  0  0
    2.4312   51.6857   21.2252 C   0  0  0  0  0  0
    2.3624   50.3479   21.6253 C   0  0  0  0  0  0
    1.5883   50.0066   22.6746 N   0  3  0  0  0  0
    3.3068   52.1052   20.0436 C   0  0  0  0  0  0
    4.1816   53.2589   20.2869 N   0  0  0  0  0  0
    5.1014   53.3369   21.2720 C   0  0  0  0  0  0
    5.2637   52.4168   22.0733 O   0  0  0  0  0  0
    5.8935   54.5617   21.3331 C   0  0  0  0  0  0
    6.2214   55.1107   22.5443 C   0  0  0  0  0  0
    5.7770   54.7395   23.9197 C   0  0  0  0  0  0
    4.4364   54.4390   24.2038 C   0  0  0  0  0  0
    4.0420   54.1080   25.4963 C   0  0  0  0  0  0
    4.9849   54.0968   26.5195 C   0  0  0  0  0  0
    6.3138   54.4136   26.2596 C   0  0  0  0  0  0
    6.7048   54.7361   24.9620 C   0  0  0  0  0  0
    6.2726   55.0641   20.1033 N   0  0  0  0  0  0
    6.6764   56.3030   19.7504 C   0  0  0  0  0  0
    6.7040   57.2904   20.4842 O   0  0  0  0  0  0
    7.1049   56.4534   18.2975 C   0  0  0  0  0  0
   -3.9430   47.9684   24.2299 H   0  0  0  0  0  0
   -3.6563   47.2359   25.8100 H   0  0  0  0  0  0
   -4.5724   48.7305   25.6886 H   0  0  0  0  0  0
   -2.2518   49.2010   26.4817 H   0  0  0  0  0  0
   -1.3521   47.9888   23.8277 H   0  0  0  0  0  0
   -1.1062   47.2778   25.3895 H   0  0  0  0  0  0
    0.9181   48.4984   24.6049 H   0  0  0  0  0  0
    0.3651   49.1977   26.0976 H   0  0  0  0  0  0
   -1.0492   51.4627   25.9287 H   0  0  0  0  0  0
   -1.3325   52.0839   24.3183 H   0  0  0  0  0  0
   -3.3689   50.9073   25.0564 H   0  0  0  0  0  0
   -2.7003   50.1877   23.6312 H   0  0  0  0  0  0
    0.3835   53.0034   23.5816 H   0  0  0  0  0  0
    1.7756   53.6906   21.6852 H   0  0  0  0  0  0
    2.8981   49.5387   21.1453 H   0  0  0  0  0  0
    2.6433   52.3499   19.2097 H   0  0  0  0  0  0
    3.9044   51.2655   19.6834 H   0  0  0  0  0  0
    4.0535   54.0522   19.6788 H   0  0  0  0  0  0
    6.8685   55.9747   22.5468 H   0  0  0  0  0  0
    3.6927   54.4638   23.4210 H   0  0  0  0  0  0
    3.0097   53.8619   25.7017 H   0  0  0  0  0  0
    4.6842   53.8354   27.5229 H   0  0  0  0  0  0
    7.0396   54.4030   27.0608 H   0  0  0  0  0  0
    7.7365   54.9756   24.7654 H   0  0  0  0  0  0
    6.2522   54.3869   19.3537 H   0  0  0  0  0  0
    6.2380   56.3808   17.6382 H   0  0  0  0  0  0
    7.5713   57.4260   18.1353 H   0  0  0  0  0  0
    7.8253   55.6813   18.0187 H   0  0  0  0  0  0
    1.5573   49.0360   22.9552 H   0  0  0  0  0  0
  1  2  1  0  0  0
  1 30  1  0  0  0
  1 31  1  0  0  0
  1 32  1  0  0  0
  2  7  1  0  0  0
  2  3  1  0  0  0
  2 33  1  0  0  0
  3  4  1  0  0  0
  3 34  1  0  0  0
  3 35  1  0  0  0
  4  5  1  0  0  0
  4 36  1  0  0  0
  4 37  1  0  0  0
  5  6  1  0  0  0
  5  8  1  0  0  0
  6  7  1  0  0  0
  6 38  1  0  0  0
  6 39  1  0  0  0
  7 40  1  0  0  0
  7 41  1  0  0  0
  8 13  2  0  0  0
  8  9  1  0  0  0
  9 10  2  0  0  0
  9 42  1  0  0  0
 10 11  1  0  0  0
 10 43  1  0  0  0
 11 12  2  0  0  0
 11 14  1  0  0  0
 12 13  1  0  0  0
 12 44  1  0  0  0
 13 58  1  0  0  0
 14 15  1  0  0  0
 14 45  1  0  0  0
 14 46  1  0  0  0
 15 16  1  0  0  0
 15 47  1  0  0  0
 16 17  2  0  0  0
 16 18  1  0  0  0
 18 19  2  0  0  0
 18 26  1  0  0  0
 19 20  1  0  0  0
 19 48  1  0  0  0
 20 25  2  0  0  0
 20 21  1  0  0  0
 21 22  2  0  0  0
 21 49  1  0  0  0
 22 23  1  0  0  0
 22 50  1  0  0  0
 23 24  2  0  0  0
 23 51  1  0  0  0
 24 25  1  0  0  0
 24 52  1  0  0  0
 25 53  1  0  0  0
 26 27  1  0  0  0
 26 54  1  0  0  0
 27 28  2  0  0  0
 27 29  1  0  0  0
 29 55  1  0  0  0
 29 56  1  0  0  0
 29 57  1  0  0  0
M  CHG  1  13   1
M  END
> <i_i_glide_confnum>
11

> <i_i_glide_lignum>
236

> <i_i_glide_posenum>
191

> <i_i_glide_rotatable_bonds>
8

> <i_m_Source_File_Index>
6000

> <b_m_subgroup_collapsed>
0

> <r_i_docking_score>
-6.27373

> <r_i_glide_ecoul>
-10.7847

> <r_i_glide_eff_state_penalty>
0

> <r_i_glide_einternal>
2.9622

> <r_i_glide_emodel>
-64.2008

> <r_i_glide_energy>
-46.8232

> <r_i_glide_erotb>
0.756975

> <r_i_glide_esite>
-0.00722181

> <r_i_glide_evdw>
-36.0386

> <r_i_glide_gscore>
-6.27373

> <r_i_glide_hbond>
-0.32

> <r_i_glide_ligand_efficiency>
-0.216336

> <r_i_glide_ligand_efficiency_ln>
-1.43653

> <r_i_glide_ligand_efficiency_sa>
-0.664651

> <r_i_glide_lipo>
-2.33021

> <r_i_glide_metal>
0

> <r_i_glide_rewards>
-0.953651

> <s_i_glide_gridfile>
wee1_glide-grid

> <s_m_Source_File>
wee1_decoys_glide_SP.sdf

> <s_m_Source_Path>
/Users/zhangxujun/Desktop

> <s_m_entry_id>
6275

> <s_m_entry_name>
wee1_decoys_glide_SP.6000

> <s_m_subgroup_title>
wee1_decoys_glide_SP

> <s_m_subgroupid>
wee1_decoys_glide_SP


$$$$
