ZINC39938594_803
                    3D
 Schrodinger Suite 2024-2.
 58 63  0  0  1  0            999 V2000
    0.4146   51.7453   28.5458 C   0  0  0  0  0  0
    1.4222   52.6736   29.0367 C   0  0  0  0  0  0
    2.2011   53.4056   28.1957 C   0  0  0  0  0  0
    2.0463   53.2931   26.8069 C   0  0  0  0  0  0
    2.7045   53.9019   25.8446 N   0  3  0  0  0  0
    2.1780   53.5029   24.5240 C   0  0  0  0  0  0
    1.1245   52.4962   24.9284 C   0  0  0  0  0  0
    1.0829   52.4224   26.2789 C   0  0  0  0  0  0
    0.2586   51.6272   27.2123 C   0  0  0  0  0  0
    0.3289   51.7537   23.9846 C   0  0  0  0  0  0
   -0.4298   50.7692   24.2510 N   0  0  0  0  0  0
   -1.0119   50.4119   23.0384 N   0  0  0  0  0  0
   -0.3466   51.1537   22.0203 C   0  0  1  0  0  0
   -1.0795   51.6708   21.4009 H   0  0  0  0  0  0
    0.4176   52.1002   22.6647 O   0  0  0  0  0  0
    0.5507   50.0782   20.8467 S   0  0  0  0  0  0
    2.3026   50.3124   21.3075 C   0  0  0  0  0  0
    2.9147   51.6770   20.9539 C   0  0  0  0  0  0
    2.3037   52.4885   20.2571 O   0  0  0  0  0  0
    4.1329   51.9116   21.4809 N   0  0  0  0  0  0
    4.8871   53.0820   21.3394 C   0  0  0  0  0  0
    5.5044   53.6168   22.4871 C   0  0  0  0  0  0
    6.3017   54.7660   22.4087 C   0  0  0  0  0  0
    6.4745   55.3356   21.1540 C   0  0  0  0  0  0
    5.9022   54.8070   20.0323 C   0  0  0  0  0  0
    5.0901   53.6802   20.0819 C   0  0  0  0  0  0
    6.2656   55.5459   18.9533 O   0  0  0  0  0  0
    7.2369   56.4612   19.4099 C   0  0  0  0  0  0
    7.1766   56.4459   20.8153 O   0  0  0  0  0  0
    6.8897   57.8550   18.8924 C   0  0  0  0  0  0
    6.9296   57.8832   17.3481 C   0  0  0  0  0  0
    8.2897   57.3986   16.8017 C   0  0  0  0  0  0
    8.6996   56.0323   17.3922 C   0  0  0  0  0  0
    8.6348   56.0280   18.9361 C   0  0  0  0  0  0
   -0.1876   51.1595   29.2276 H   0  0  0  0  0  0
    1.5546   52.7759   30.1039 H   0  0  0  0  0  0
    2.9386   54.0731   28.6173 H   0  0  0  0  0  0
    2.9920   53.0835   23.9341 H   0  0  0  0  0  0
    1.7761   54.3868   24.0244 H   0  0  0  0  0  0
   -0.4860   50.9214   26.8671 H   0  0  0  0  0  0
   -1.0333   49.4037   22.9968 H   0  0  0  0  0  0
    2.8771   49.5478   20.7836 H   0  0  0  0  0  0
    2.4077   50.1165   22.3750 H   0  0  0  0  0  0
    4.5236   51.2059   22.0831 H   0  0  0  0  0  0
    5.3716   53.1458   23.4489 H   0  0  0  0  0  0
    6.7730   55.1804   23.2871 H   0  0  0  0  0  0
    4.6523   53.2635   19.1843 H   0  0  0  0  0  0
    7.6074   58.5778   19.2794 H   0  0  0  0  0  0
    5.9039   58.1079   19.2690 H   0  0  0  0  0  0
    6.7234   58.8938   16.9930 H   0  0  0  0  0  0
    6.1297   57.2599   16.9444 H   0  0  0  0  0  0
    9.0555   58.1372   17.0405 H   0  0  0  0  0  0
    8.2541   57.3384   15.7145 H   0  0  0  0  0  0
    9.7061   55.7726   17.0639 H   0  0  0  0  0  0
    8.0465   55.2537   16.9957 H   0  0  0  0  0  0
    8.8713   55.0427   19.3424 H   0  0  0  0  0  0
    9.3725   56.7327   19.3255 H   0  0  0  0  0  0
    3.4562   54.5728   25.9784 H   0  0  0  0  0  0
  1  9  2  0  0  0
  1  2  1  0  0  0
  1 35  1  0  0  0
  2  3  2  0  0  0
  2 36  1  0  0  0
  3  4  1  0  0  0
  3 37  1  0  0  0
  4  8  1  0  0  0
  4  5  2  0  0  0
  5  6  1  0  0  0
  5 58  1  0  0  0
  6  7  1  0  0  0
  6 38  1  0  0  0
  6 39  1  0  0  0
  7  8  2  0  0  0
  7 10  1  0  0  0
  8  9  1  0  0  0
  9 40  1  0  0  0
 10 15  1  0  0  0
 10 11  2  0  0  0
 11 12  1  0  0  0
 12 13  1  0  0  0
 12 41  1  0  0  0
 13 14  1  0  0  0
 13 15  1  0  0  0
 13 16  1  0  0  0
 16 17  1  0  0  0
 17 18  1  0  0  0
 17 42  1  0  0  0
 17 43  1  0  0  0
 18 19  2  0  0  0
 18 20  1  0  0  0
 20 21  1  0  0  0
 20 44  1  0  0  0
 21 26  2  0  0  0
 21 22  1  0  0  0
 22 23  2  0  0  0
 22 45  1  0  0  0
 23 24  1  0  0  0
 23 46  1  0  0  0
 24 29  1  0  0  0
 24 25  2  0  0  0
 25 26  1  0  0  0
 25 27  1  0  0  0
 26 47  1  0  0  0
 27 28  1  0  0  0
 28 34  1  0  0  0
 28 29  1  0  0  0
 28 30  1  0  0  0
 30 31  1  0  0  0
 30 48  1  0  0  0
 30 49  1  0  0  0
 31 32  1  0  0  0
 31 50  1  0  0  0
 31 51  1  0  0  0
 32 33  1  0  0  0
 32 52  1  0  0  0
 32 53  1  0  0  0
 33 34  1  0  0  0
 33 54  1  0  0  0
 33 55  1  0  0  0
 34 56  1  0  0  0
 34 57  1  0  0  0
M  CHG  1   5   1
M  END
> <i_i_glide_confnum>
13

> <i_i_glide_lignum>
804

> <i_i_glide_posenum>
267

> <i_i_glide_rotatable_bonds>
6

> <i_m_Source_File_Index>
2336

> <b_m_subgroup_collapsed>
0

> <r_i_docking_score>
-3.6238

> <r_i_glide_ecoul>
1.82429

> <r_i_glide_eff_state_penalty>
0

> <r_i_glide_einternal>
9.13924

> <r_i_glide_emodel>
-44.5327

> <r_i_glide_energy>
-37.3713

> <r_i_glide_erotb>
0.465271

> <r_i_glide_esite>
-0.00820244

> <r_i_glide_evdw>
-39.1955

> <r_i_glide_gscore>
-3.6238

> <r_i_glide_hbond>
-0.253432

> <r_i_glide_ligand_efficiency>
-0.109812

> <r_i_glide_ligand_efficiency_ln>
-0.805914

> <r_i_glide_ligand_efficiency_sa>
-0.352226

> <r_i_glide_lipo>
-2.1232

> <r_i_glide_metal>
0

> <r_i_glide_rewards>
-0.018102

> <s_i_glide_gridfile>
wee1_glide-grid

> <s_m_Source_File>
wee1_decoys_glide_SP.sdf

> <s_m_Source_Path>
/Users/zhangxujun/Desktop

> <s_m_entry_id>
2611

> <s_m_entry_name>
wee1_decoys_glide_SP.2336

> <s_m_subgroup_title>
wee1_decoys_glide_SP

> <s_m_subgroupid>
wee1_decoys_glide_SP


$$$$
