ZINC26809050_2763
                    3D
 Schrodinger Suite 2024-2.
 59 63  0  0  1  0            999 V2000
   -0.1008   51.9965   27.4047 C   0  0  0  0  0  0
    0.6472   52.6714   28.3712 C   0  0  0  0  0  0
    1.5469   53.5690   27.8086 C   0  0  0  0  0  0
    1.5052   53.5741   26.0780 S   0  0  0  0  0  0
    0.2272   52.3931   26.1168 C   0  0  0  0  0  0
    2.6792   54.6071   28.7210 S   0  0  0  0  0  0
    2.7353   54.0637   30.0791 O   0  0  0  0  0  0
    2.2994   56.0010   28.4733 O   0  0  0  0  0  0
    4.1893   54.2226   27.8750 N   0  0  0  0  0  0
    5.3766   54.1139   28.7399 C   0  0  0  0  0  0
    6.4582   53.2965   28.0151 C   0  0  0  0  0  0
    6.7124   53.7337   26.5477 C   0  0  0  0  0  0
    5.3939   53.9730   25.7352 C   0  0  1  0  0  0
    4.8738   53.0487   25.5231 H   0  0  0  0  0  0
    4.4953   54.8864   26.5821 C   0  0  0  0  0  0
    5.7325   54.6654   24.3849 C   0  0  0  0  0  0
    6.6293   55.5057   24.3689 O   0  0  0  0  0  0
    5.0196   54.4958   23.2511 N   0  0  0  0  0  0
    4.3984   53.2995   22.9271 N   0  0  0  0  0  0
    3.0560   53.2772   22.7235 C   0  0  0  0  0  0
    2.3155   54.1877   23.1024 O   0  0  0  0  0  0
    2.4332   52.0406   21.9717 C   0  0  0  0  0  0
    1.9088   50.9760   22.9902 C   0  0  0  0  0  0
    1.2432   49.7852   22.2466 C   0  0  2  0  0  0
    2.2795   49.1248   21.3014 C   0  0  0  0  0  0
    2.7778   50.1643   20.2614 C   0  0  2  0  0  0
    3.4550   51.3529   21.0001 C   0  0  0  0  0  0
    1.5778   50.6809   19.4296 C   0  0  0  0  0  0
    0.5397   51.3338   20.3735 C   0  0  1  0  0  0
    0.0410   50.2918   21.4059 C   0  0  0  0  0  0
    1.2036   52.5092   21.1280 C   0  0  0  0  0  0
   -0.8559   51.2549   27.6374 H   0  0  0  0  0  0
    0.5350   52.5094   29.4343 H   0  0  0  0  0  0
   -0.2196   52.0396   25.2033 H   0  0  0  0  0  0
    5.0950   53.6472   29.6834 H   0  0  0  0  0  0
    5.7907   55.1089   28.9029 H   0  0  0  0  0  0
    6.1430   52.2547   28.0274 H   0  0  0  0  0  0
    7.3891   53.3205   28.5853 H   0  0  0  0  0  0
    7.3197   52.9563   26.0851 H   0  0  0  0  0  0
    7.2808   54.6599   26.6529 H   0  0  0  0  0  0
    5.1395   55.7029   26.8459 H   0  0  0  0  0  0
    3.5884   55.2337   26.0890 H   0  0  0  0  0  0
    5.2962   54.9923   22.4185 H   0  0  0  0  0  0
    5.0159   52.6592   22.4472 H   0  0  0  0  0  0
    1.1974   51.4265   23.6751 H   0  0  0  0  0  0
    2.7059   50.5795   23.6148 H   0  0  0  0  0  0
    0.8969   49.0494   22.9724 H   0  0  0  0  0  0
    3.1112   48.7333   21.8848 H   0  0  0  0  0  0
    1.8459   48.2590   20.7982 H   0  0  0  0  0  0
    3.5068   49.7027   19.5905 H   0  0  0  0  0  0
    4.3232   50.9803   21.5492 H   0  0  0  0  0  0
    3.8351   52.0650   20.2638 H   0  0  0  0  0  0
    1.1237   49.8573   18.8748 H   0  0  0  0  0  0
    1.9214   51.3955   18.6803 H   0  0  0  0  0  0
   -0.3054   51.7054   19.7889 H   0  0  0  0  0  0
   -0.7179   50.7395   22.0530 H   0  0  0  0  0  0
   -0.4482   49.4583   20.8974 H   0  0  0  0  0  0
    1.5200   53.2929   20.4295 H   0  0  0  0  0  0
    0.4513   52.9789   21.7708 H   0  0  0  0  0  0
  1  5  2  0  0  0
  1  2  1  0  0  0
  1 32  1  0  0  0
  2  3  2  0  0  0
  2 33  1  0  0  0
  3  4  1  0  0  0
  3  6  1  0  0  0
  4  5  1  0  0  0
  5 34  1  0  0  0
  6  7  2  0  0  0
  6  8  2  0  0  0
  6  9  1  0  0  0
  9 15  1  0  0  0
  9 10  1  0  0  0
 10 11  1  0  0  0
 10 35  1  0  0  0
 10 36  1  0  0  0
 11 12  1  0  0  0
 11 37  1  0  0  0
 11 38  1  0  0  0
 12 13  1  0  0  0
 12 39  1  0  0  0
 12 40  1  0  0  0
 13 14  1  0  0  0
 13 15  1  0  0  0
 13 16  1  0  0  0
 15 41  1  0  0  0
 15 42  1  0  0  0
 16 17  2  0  0  0
 16 18  1  0  0  0
 18 19  1  0  0  0
 18 43  1  0  0  0
 19 20  1  0  0  0
 19 44  1  0  0  0
 20 21  2  0  0  0
 20 22  1  0  0  0
 22 27  1  0  0  0
 22 31  1  0  0  0
 22 23  1  0  0  0
 23 24  1  0  0  0
 23 45  1  0  0  0
 23 46  1  0  0  0
 24 30  1  0  0  0
 24 25  1  0  0  0
 24 47  1  0  0  0
 25 26  1  0  0  0
 25 48  1  0  0  0
 25 49  1  0  0  0
 26 27  1  0  0  0
 26 28  1  0  0  0
 26 50  1  0  0  0
 27 51  1  0  0  0
 27 52  1  0  0  0
 28 29  1  0  0  0
 28 53  1  0  0  0
 28 54  1  0  0  0
 29 30  1  0  0  0
 29 31  1  0  0  0
 29 55  1  0  0  0
 30 56  1  0  0  0
 30 57  1  0  0  0
 31 58  1  0  0  0
 31 59  1  0  0  0
M  END
> <i_i_glide_confnum>
44

> <i_i_glide_lignum>
2764

> <i_i_glide_posenum>
292

> <i_i_glide_rotatable_bonds>
7

> <i_m_Source_File_Index>
3501

> <b_m_subgroup_collapsed>
0

> <r_i_docking_score>
-4.12707

> <r_i_glide_ecoul>
-4.15954

> <r_i_glide_eff_state_penalty>
0

> <r_i_glide_einternal>
13.2427

> <r_i_glide_emodel>
-36.5678

> <r_i_glide_energy>
-38.7935

> <r_i_glide_erotb>
0.590107

> <r_i_glide_esite>
-0.0611926

> <r_i_glide_evdw>
-34.6339

> <r_i_glide_gscore>
-4.12707

> <r_i_glide_hbond>
0

> <r_i_glide_ligand_efficiency>
-0.137569

> <r_i_glide_ligand_efficiency_ln>
-0.937715

> <r_i_glide_ligand_efficiency_sa>
-0.427459

> <r_i_glide_lipo>
-1.99892

> <r_i_glide_metal>
0

> <r_i_glide_rewards>
-0.301431

> <s_i_glide_gridfile>
wee1_glide-grid

> <s_m_Source_File>
wee1_decoys_glide_SP.sdf

> <s_m_Source_Path>
/Users/zhangxujun/Desktop

> <s_m_entry_id>
3776

> <s_m_entry_name>
wee1_decoys_glide_SP.3501

> <s_m_subgroup_title>
wee1_decoys_glide_SP

> <s_m_subgroupid>
wee1_decoys_glide_SP


$$$$
