ZINC39686515_647
                    3D
 Schrodinger Suite 2024-2.
 66 69  0  0  1  0            999 V2000
    3.0090   50.4542   20.2135 C   0  0  0  0  0  0
    2.3536   51.8448   20.0646 C   0  0  2  0  0  0
    1.5538   51.7234   19.3293 H   0  0  0  0  0  0
    3.3323   52.8949   19.4653 C   0  0  0  0  0  0
    4.3842   53.5732   20.3719 C   0  0  0  0  0  0
    4.6352   53.1349   21.6803 C   0  0  0  0  0  0
    5.5404   53.8010   22.5010 C   0  0  0  0  0  0
    6.2508   54.8926   22.0109 C   0  0  0  0  0  0
    6.0408   55.3220   20.7025 C   0  0  0  0  0  0
    5.1032   54.6778   19.8745 C   0  0  0  0  0  0
    4.8285   55.0883   18.5818 O   0  0  0  0  0  0
    5.4758   56.2413   18.0535 C   0  0  0  0  0  0
    1.7293   52.3214   21.3017 N   0  0  0  0  0  0
    0.7232   51.7470   21.9841 C   0  0  0  0  0  0
    0.0863   50.7962   21.5334 O   0  0  0  0  0  0
    0.4044   52.3069   23.4008 C   0  0  2  0  0  0
   -0.2661   53.1540   23.2525 H   0  0  0  0  0  0
    1.6990   52.8190   24.0779 C   0  0  0  0  0  0
    1.3755   52.7905   25.5056 N   0  0  0  0  0  0
    0.0933   52.1182   25.7385 C   0  0  0  0  0  0
   -0.2028   51.3210   24.4418 C   0  0  0  0  0  0
    0.4918   49.9230   24.4460 C   0  0  0  0  0  0
    0.0994   49.0920   25.6774 C   0  0  0  0  0  0
   -1.4377   48.9140   25.6818 N   0  3  0  0  0  0
   -2.2579   50.2144   25.4725 C   0  0  0  0  0  0
   -1.7030   50.9918   24.2523 C   0  0  0  0  0  0
    2.1235   53.4812   26.4086 C   0  0  0  0  0  0
    3.1397   54.0959   26.0740 O   0  0  0  0  0  0
    1.6716   53.5715   27.8503 C   0  0  0  0  0  0
    1.3164   52.4326   28.5888 C   0  0  0  0  0  0
    0.8849   52.5615   29.9063 C   0  0  0  0  0  0
    0.8476   53.8164   30.5039 C   0  0  0  0  0  0
    1.2379   54.9508   29.8000 C   0  0  0  0  0  0
    1.6559   54.8252   28.4798 C   0  0  0  0  0  0
    0.3042   53.9706   32.3186 Br  0  0  0  0  0  0
    3.5008   50.1669   19.2858 H   0  0  0  0  0  0
    3.7717   50.4324   20.9879 H   0  0  0  0  0  0
    2.2744   49.6762   20.4183 H   0  0  0  0  0  0
    2.7101   53.6966   19.0646 H   0  0  0  0  0  0
    3.8477   52.4707   18.6012 H   0  0  0  0  0  0
    4.1284   52.2776   22.0852 H   0  0  0  0  0  0
    5.7086   53.4579   23.5114 H   0  0  0  0  0  0
    6.9709   55.3963   22.6414 H   0  0  0  0  0  0
    6.6096   56.1666   20.3481 H   0  0  0  0  0  0
    5.1153   56.4244   17.0404 H   0  0  0  0  0  0
    5.2555   57.1324   18.6448 H   0  0  0  0  0  0
    6.5570   56.1034   17.9984 H   0  0  0  0  0  0
    2.1006   53.1958   21.6455 H   0  0  0  0  0  0
    2.5060   52.1016   23.9222 H   0  0  0  0  0  0
    1.9513   53.8168   23.7119 H   0  0  0  0  0  0
   -0.6638   52.8962   25.8406 H   0  0  0  0  0  0
   -0.0041   51.5359   26.6465 H   0  0  0  0  0  0
    0.3114   49.3560   23.5325 H   0  0  0  0  0  0
    1.5706   50.0450   24.4817 H   0  0  0  0  0  0
    0.5327   48.0967   25.6395 H   0  0  0  0  0  0
    0.3734   49.5277   26.6381 H   0  0  0  0  0  0
   -1.6949   48.2352   24.9817 H   0  0  0  0  0  0
   -3.2945   49.9013   25.3374 H   0  0  0  0  0  0
   -2.1848   50.7695   26.4088 H   0  0  0  0  0  0
   -2.2657   51.9237   24.1835 H   0  0  0  0  0  0
   -1.8904   50.4711   23.3113 H   0  0  0  0  0  0
    1.3827   51.4430   28.1597 H   0  0  0  0  0  0
    0.5877   51.6970   30.4767 H   0  0  0  0  0  0
    1.2199   55.9214   30.2756 H   0  0  0  0  0  0
    1.9588   55.7130   27.9431 H   0  0  0  0  0  0
   -1.6838   48.5123   26.5938 H   0  0  0  0  0  0
  1  2  1  0  0  0
  1 36  1  0  0  0
  1 37  1  0  0  0
  1 38  1  0  0  0
  2  3  1  0  0  0
  2  4  1  0  0  0
  2 13  1  0  0  0
  4  5  1  0  0  0
  4 39  1  0  0  0
  4 40  1  0  0  0
  5 10  2  0  0  0
  5  6  1  0  0  0
  6  7  2  0  0  0
  6 41  1  0  0  0
  7  8  1  0  0  0
  7 42  1  0  0  0
  8  9  2  0  0  0
  8 43  1  0  0  0
  9 10  1  0  0  0
  9 44  1  0  0  0
 10 11  1  0  0  0
 11 12  1  0  0  0
 12 45  1  0  0  0
 12 46  1  0  0  0
 12 47  1  0  0  0
 13 14  1  0  0  0
 13 48  1  0  0  0
 14 15  2  0  0  0
 14 16  1  0  0  0
 16 17  1  0  0  0
 16 21  1  0  0  0
 16 18  1  0  0  0
 18 19  1  0  0  0
 18 49  1  0  0  0
 18 50  1  0  0  0
 19 20  1  0  0  0
 19 27  1  0  0  0
 20 21  1  0  0  0
 20 51  1  0  0  0
 20 52  1  0  0  0
 21 26  1  0  0  0
 21 22  1  0  0  0
 22 23  1  0  0  0
 22 53  1  0  0  0
 22 54  1  0  0  0
 23 24  1  0  0  0
 23 55  1  0  0  0
 23 56  1  0  0  0
 24 25  1  0  0  0
 24 57  1  0  0  0
 24 66  1  0  0  0
 25 26  1  0  0  0
 25 58  1  0  0  0
 25 59  1  0  0  0
 26 60  1  0  0  0
 26 61  1  0  0  0
 27 28  2  0  0  0
 27 29  1  0  0  0
 29 34  2  0  0  0
 29 30  1  0  0  0
 30 31  2  0  0  0
 30 62  1  0  0  0
 31 32  1  0  0  0
 31 63  1  0  0  0
 32 33  2  0  0  0
 32 35  1  0  0  0
 33 34  1  0  0  0
 33 64  1  0  0  0
 34 65  1  0  0  0
M  CHG  1  24   1
M  END
> <i_i_glide_confnum>
365

> <i_i_glide_lignum>
648

> <i_i_glide_posenum>
52

> <i_i_glide_rotatable_bonds>
8

> <i_m_Source_File_Index>
4856

> <b_m_subgroup_collapsed>
0

> <r_i_docking_score>
-5.55109

> <r_i_glide_ecoul>
-4.73449

> <r_i_glide_eff_state_penalty>
0

> <r_i_glide_einternal>
10.4895

> <r_i_glide_emodel>
-60.5299

> <r_i_glide_energy>
-46.8506

> <r_i_glide_erotb>
0.540587

> <r_i_glide_esite>
-0.112167

> <r_i_glide_evdw>
-42.1161

> <r_i_glide_gscore>
-5.55109

> <r_i_glide_hbond>
-0.2

> <r_i_glide_ligand_efficiency>
-0.168215

> <r_i_glide_ligand_efficiency_ln>
-1.23453

> <r_i_glide_ligand_efficiency_sa>
-0.539555

> <r_i_glide_lipo>
-2.46273

> <r_i_glide_metal>
0

> <r_i_glide_rewards>
-0.500808

> <s_i_glide_gridfile>
wee1_glide-grid

> <s_m_Source_File>
wee1_decoys_glide_SP.sdf

> <s_m_Source_Path>
/Users/zhangxujun/Desktop

> <s_m_entry_id>
5131

> <s_m_entry_name>
wee1_decoys_glide_SP.4856

> <s_m_subgroup_title>
wee1_decoys_glide_SP

> <s_m_subgroupid>
wee1_decoys_glide_SP


$$$$
