ZINC56899395_1338
                    3D
 Schrodinger Suite 2024-2.
 59 61  0  0  1  0            999 V2000
    7.0206   53.6979   28.2494 C   0  0  0  0  0  0
    5.6474   54.3828   28.0880 C   0  0  1  0  0  0
    5.7656   55.4198   28.4004 H   0  0  0  0  0  0
    5.2278   54.3822   26.6055 C   0  0  0  0  0  0
    6.0931   54.8767   25.6223 C   0  0  0  0  0  0
    5.7768   54.7447   24.2694 C   0  0  0  0  0  0
    4.5768   54.1334   23.8716 C   0  0  0  0  0  0
    3.6981   53.6968   24.8676 C   0  0  0  0  0  0
    4.0119   53.8342   26.2034 C   0  0  0  0  0  0
    4.2511   53.9141   22.5352 N   0  0  0  0  0  0
    2.8519   53.8862   22.0810 C   0  0  0  0  0  0
    2.5720   52.8042   21.0204 C   0  0  0  0  0  0
    3.5024   53.0275   19.8159 N   0  3  0  0  0  0
    4.9740   53.0128   20.2774 C   0  0  0  0  0  0
    5.1821   54.0617   21.3984 C   0  0  0  0  0  0
    3.2403   51.9397   18.7499 C   0  0  0  0  0  0
    4.6917   53.7480   29.0147 N   0  0  0  0  0  0
    3.4716   54.1994   29.3891 C   0  0  0  0  0  0
    3.1550   55.3810   29.2710 O   0  0  0  0  0  0
    2.6668   53.2847   30.0010 N   0  0  0  0  0  0
    2.7650   51.8386   29.7020 C   0  0  0  0  0  0
    1.7643   51.5376   28.5642 C   0  0  0  0  0  0
    0.3226   51.8656   28.9971 C   0  0  0  0  0  0
    0.2810   53.3626   29.3853 C   0  0  0  0  0  0
    1.3235   53.6889   30.4876 C   0  0  0  0  0  0
   -0.7109   51.4616   27.9203 C   0  0  0  0  0  0
   -1.9979   51.2966   28.4812 O   0  0  0  0  0  0
    7.7965   54.2138   27.6871 H   0  0  0  0  0  0
    7.3584   53.6983   29.2818 H   0  0  0  0  0  0
    6.9951   52.6623   27.9089 H   0  0  0  0  0  0
    7.0283   55.3374   25.8955 H   0  0  0  0  0  0
    6.4813   55.1220   23.5435 H   0  0  0  0  0  0
    2.7761   53.1861   24.6431 H   0  0  0  0  0  0
    3.3040   53.4533   26.9089 H   0  0  0  0  0  0
    2.1107   53.8158   22.8735 H   0  0  0  0  0  0
    2.7044   54.8860   21.6817 H   0  0  0  0  0  0
    1.5543   52.8975   20.6370 H   0  0  0  0  0  0
    2.7285   51.7941   21.4021 H   0  0  0  0  0  0
    5.5597   53.2678   19.3930 H   0  0  0  0  0  0
    5.2157   51.9979   20.6007 H   0  0  0  0  0  0
    4.9791   55.0547   20.9920 H   0  0  0  0  0  0
    6.2228   54.0884   21.7167 H   0  0  0  0  0  0
    3.4494   50.9678   19.2026 H   0  0  0  0  0  0
    2.1968   52.0166   18.4410 H   0  0  0  0  0  0
    3.9041   52.1164   17.9005 H   0  0  0  0  0  0
    4.9269   52.8041   29.2746 H   0  0  0  0  0  0
    2.4575   51.3165   30.6089 H   0  0  0  0  0  0
    3.7828   51.4861   29.5267 H   0  0  0  0  0  0
    1.8454   50.4962   28.2886 H   0  0  0  0  0  0
    2.0072   52.0519   27.6384 H   0  0  0  0  0  0
    0.1183   51.2970   29.9045 H   0  0  0  0  0  0
    0.4425   53.9919   28.5077 H   0  0  0  0  0  0
   -0.7175   53.6239   29.7344 H   0  0  0  0  0  0
    1.1138   53.0926   31.3770 H   0  0  0  0  0  0
    1.2908   54.7220   30.8390 H   0  0  0  0  0  0
   -0.4426   50.5058   27.4686 H   0  0  0  0  0  0
   -0.7434   52.1957   27.1137 H   0  0  0  0  0  0
   -2.0955   50.3624   28.7265 H   0  0  0  0  0  0
    3.2901   53.9416   19.4325 H   0  0  0  0  0  0
  1  2  1  0  0  0
  1 28  1  0  0  0
  1 29  1  0  0  0
  1 30  1  0  0  0
  2  3  1  0  0  0
  2  4  1  0  0  0
  2 17  1  0  0  0
  4  9  2  0  0  0
  4  5  1  0  0  0
  5  6  2  0  0  0
  5 31  1  0  0  0
  6  7  1  0  0  0
  6 32  1  0  0  0
  7  8  2  0  0  0
  7 10  1  0  0  0
  8  9  1  0  0  0
  8 33  1  0  0  0
  9 34  1  0  0  0
 10 15  1  0  0  0
 10 11  1  0  0  0
 11 12  1  0  0  0
 11 35  1  0  0  0
 11 36  1  0  0  0
 12 13  1  0  0  0
 12 37  1  0  0  0
 12 38  1  0  0  0
 13 14  1  0  0  0
 13 16  1  0  0  0
 13 59  1  0  0  0
 14 15  1  0  0  0
 14 39  1  0  0  0
 14 40  1  0  0  0
 15 41  1  0  0  0
 15 42  1  0  0  0
 16 43  1  0  0  0
 16 44  1  0  0  0
 16 45  1  0  0  0
 17 18  1  0  0  0
 17 46  1  0  0  0
 18 19  2  0  0  0
 18 20  1  0  0  0
 20 25  1  0  0  0
 20 21  1  0  0  0
 21 22  1  0  0  0
 21 47  1  0  0  0
 21 48  1  0  0  0
 22 23  1  0  0  0
 22 49  1  0  0  0
 22 50  1  0  0  0
 23 24  1  0  0  0
 23 26  1  0  0  0
 23 51  1  0  0  0
 24 25  1  0  0  0
 24 52  1  0  0  0
 24 53  1  0  0  0
 25 54  1  0  0  0
 25 55  1  0  0  0
 26 27  1  0  0  0
 26 56  1  0  0  0
 26 57  1  0  0  0
 27 58  1  0  0  0
M  CHG  1  13   1
M  END
> <i_i_glide_confnum>
27

> <i_i_glide_lignum>
1339

> <i_i_glide_posenum>
385

> <i_i_glide_rotatable_bonds>
7

> <i_m_Source_File_Index>
4013

> <b_m_subgroup_collapsed>
0

> <r_i_docking_score>
-5.49131

> <r_i_glide_ecoul>
-1.98042

> <r_i_glide_eff_state_penalty>
0

> <r_i_glide_einternal>
6.64763

> <r_i_glide_emodel>
-54.2331

> <r_i_glide_energy>
-40.5024

> <r_i_glide_erotb>
0.881118

> <r_i_glide_esite>
-0.000111632

> <r_i_glide_evdw>
-38.522

> <r_i_glide_gscore>
-5.49131

> <r_i_glide_hbond>
-0.129856

> <r_i_glide_ligand_efficiency>
-0.211204

> <r_i_glide_ligand_efficiency_ln>
-1.28962

> <r_i_glide_ligand_efficiency_sa>
-0.625692

> <r_i_glide_lipo>
-2.6673

> <r_i_glide_metal>
0

> <r_i_glide_rewards>
-1.352

> <s_i_glide_gridfile>
wee1_glide-grid

> <s_m_Source_File>
wee1_decoys_glide_SP.sdf

> <s_m_Source_Path>
/Users/zhangxujun/Desktop

> <s_m_entry_id>
4288

> <s_m_entry_name>
wee1_decoys_glide_SP.4013

> <s_m_subgroup_title>
wee1_decoys_glide_SP

> <s_m_subgroupid>
wee1_decoys_glide_SP


$$$$
