ZINC20211200_5360
                    3D
 Schrodinger Suite 2024-2.
 47 51  0  0  1  0            999 V2000
    3.7615   58.3960   16.3370 C   0  0  0  0  0  0
    3.1002   57.1787   16.4818 C   0  0  0  0  0  0
    3.8090   56.0564   16.9039 C   0  0  0  0  0  0
    5.1776   56.1558   17.1762 C   0  0  0  0  0  0
    5.8376   57.3767   17.0122 C   0  0  0  0  0  0
    5.1265   58.4968   16.5942 C   0  0  0  0  0  0
    5.9522   54.9307   17.6423 C   0  0  0  0  0  0
    5.9652   54.7940   19.1528 C   0  0  0  0  0  0
    5.1268   54.0646   19.7688 N   0  0  0  0  0  0
    5.3070   54.1493   21.1533 N   0  0  0  0  0  0
    4.5056   53.4100   22.0819 C   0  0  0  0  0  0
    3.7714   52.4610   21.6829 N   0  0  0  0  0  0
    4.6925   53.8675   23.4712 C   0  0  0  0  0  0
    3.6989   53.8587   24.4121 C   0  0  0  0  0  0
    2.2764   53.4663   24.3554 C   0  0  0  0  0  0
    1.3923   53.4529   23.2751 C   0  0  0  0  0  0
    0.1769   52.9146   23.6730 C   0  0  0  0  0  0
    0.2859   52.6869   25.0210 C   0  0  0  0  0  0
    1.5353   53.0628   25.4751 N   0  0  0  0  0  0
    1.9046   52.9891   26.8453 C   0  0  0  0  0  0
    1.5046   51.8773   27.5994 C   0  0  0  0  0  0
    1.9040   51.7573   28.9236 C   0  0  0  0  0  0
    2.7091   52.7335   29.5014 C   0  0  0  0  0  0
    3.0463   53.8804   28.7880 C   0  0  0  0  0  0
    2.6205   54.0209   27.4697 C   0  0  0  0  0  0
    3.3663   52.4820   31.2689 Br  0  0  0  0  0  0
    5.9906   54.4956   23.8555 C   0  0  0  0  0  0
    6.3679   54.4172   25.0268 O   0  0  0  0  0  0
    6.6931   55.1514   22.8238 N   0  0  0  0  0  0
    6.3567   54.9745   21.6040 C   0  0  0  0  0  0
    7.1347   55.6994   20.1888 S   0  0  0  0  0  0
    3.2161   59.2775   16.0304 H   0  0  0  0  0  0
    2.0408   57.1110   16.2825 H   0  0  0  0  0  0
    3.2931   55.1152   17.0306 H   0  0  0  0  0  0
    6.8945   57.4647   17.2188 H   0  0  0  0  0  0
    5.6237   59.4506   16.4818 H   0  0  0  0  0  0
    6.9763   54.9848   17.2711 H   0  0  0  0  0  0
    5.5279   54.0347   17.1843 H   0  0  0  0  0  0
    3.8479   52.3705   20.6785 H   0  0  0  0  0  0
    3.9747   54.2181   25.3859 H   0  0  0  0  0  0
    1.6184   53.7677   22.2659 H   0  0  0  0  0  0
   -0.6894   52.7366   23.0526 H   0  0  0  0  0  0
   -0.4510   52.3103   25.7156 H   0  0  0  0  0  0
    0.9183   51.0810   27.1617 H   0  0  0  0  0  0
    1.5984   50.8969   29.4915 H   0  0  0  0  0  0
    3.6431   54.6540   29.2492 H   0  0  0  0  0  0
    2.8651   54.9327   26.9491 H   0  0  0  0  0  0
  1  6  2  0  0  0
  1  2  1  0  0  0
  1 32  1  0  0  0
  2  3  2  0  0  0
  2 33  1  0  0  0
  3  4  1  0  0  0
  3 34  1  0  0  0
  4  5  2  0  0  0
  4  7  1  0  0  0
  5  6  1  0  0  0
  5 35  1  0  0  0
  6 36  1  0  0  0
  7  8  1  0  0  0
  7 37  1  0  0  0
  7 38  1  0  0  0
  8 31  1  0  0  0
  8  9  2  0  0  0
  9 10  1  0  0  0
 10 30  1  0  0  0
 10 11  1  0  0  0
 11 12  2  0  0  0
 11 13  1  0  0  0
 12 39  1  0  0  0
 13 14  2  0  0  0
 13 27  1  0  0  0
 14 15  1  0  0  0
 14 40  1  0  0  0
 15 19  1  0  0  0
 15 16  2  0  0  0
 16 17  1  0  0  0
 16 41  1  0  0  0
 17 18  2  0  0  0
 17 42  1  0  0  0
 18 19  1  0  0  0
 18 43  1  0  0  0
 19 20  1  0  0  0
 20 25  2  0  0  0
 20 21  1  0  0  0
 21 22  2  0  0  0
 21 44  1  0  0  0
 22 23  1  0  0  0
 22 45  1  0  0  0
 23 24  2  0  0  0
 23 26  1  0  0  0
 24 25  1  0  0  0
 24 46  1  0  0  0
 25 47  1  0  0  0
 27 28  2  0  0  0
 27 29  1  0  0  0
 29 30  2  0  0  0
 30 31  1  0  0  0
M  END
> <i_i_glide_confnum>
2

> <i_i_glide_lignum>
5361

> <i_i_glide_posenum>
331

> <i_i_glide_rotatable_bonds>
4

> <i_m_Source_File_Index>
5610

> <b_m_subgroup_collapsed>
0

> <r_i_docking_score>
-6.40213

> <r_i_glide_ecoul>
-2.52402

> <r_i_glide_eff_state_penalty>
0

> <r_i_glide_einternal>
2.24066

> <r_i_glide_emodel>
-66.934

> <r_i_glide_energy>
-48.8746

> <r_i_glide_erotb>
0.338507

> <r_i_glide_esite>
0

> <r_i_glide_evdw>
-46.3506

> <r_i_glide_gscore>
-6.40213

> <r_i_glide_hbond>
0

> <r_i_glide_ligand_efficiency>
-0.20652

> <r_i_glide_ligand_efficiency_ln>
-1.44388

> <r_i_glide_ligand_efficiency_sa>
-0.648758

> <r_i_glide_lipo>
-2.48312

> <r_i_glide_metal>
0

> <r_i_glide_rewards>
-1.56138

> <s_i_glide_gridfile>
wee1_glide-grid

> <s_m_Source_File>
wee1_decoys_glide_SP.sdf

> <s_m_Source_Path>
/Users/zhangxujun/Desktop

> <s_m_entry_id>
5885

> <s_m_entry_name>
wee1_decoys_glide_SP.5610

> <s_m_subgroup_title>
wee1_decoys_glide_SP

> <s_m_subgroupid>
wee1_decoys_glide_SP


$$$$
