ZINC22506148_80
                    3D
 Schrodinger Suite 2024-2.
 57 60  0  0  1  0            999 V2000
    4.1719   51.9985   21.2624 C   0  0  0  0  0  0
    3.1381   51.1795   21.7989 O   0  0  0  0  0  0
    2.3233   50.4608   20.9430 C   0  0  0  0  0  0
    2.4828   50.4626   19.5482 C   0  0  0  0  0  0
    1.6447   49.7104   18.7300 C   0  0  0  0  0  0
    0.6224   48.9341   19.2761 C   0  0  0  0  0  0
    0.4736   48.8995   20.6697 C   0  0  0  0  0  0
    1.3011   49.6668   21.4970 C   0  0  0  0  0  0
    1.0821   49.5866   22.8815 N   0  0  0  0  0  0
    0.6835   50.6097   23.6598 C   0  0  0  0  0  0
    0.4788   51.7557   23.2565 O   0  0  0  0  0  0
    0.4796   50.2051   24.9269 N   0  0  0  0  0  0
   -0.2913   50.8739   25.9942 C   0  0  0  0  0  0
    0.4284   51.9807   26.7896 C   0  0  0  0  0  0
    1.5033   52.7153   26.2686 C   0  0  0  0  0  0
    2.1308   53.6895   27.0418 C   0  0  0  0  0  0
    1.6923   53.9298   28.3416 C   0  0  0  0  0  0
    0.6377   53.1964   28.8792 C   0  0  0  0  0  0
    0.0135   52.2211   28.1062 C   0  0  0  0  0  0
   -1.7231   51.2534   25.5836 C   0  0  0  0  0  0
   -2.7793   50.3799   25.8647 C   0  0  0  0  0  0
   -4.0844   50.7275   25.5244 C   0  0  0  0  0  0
   -4.3364   51.9524   24.9100 C   0  0  0  0  0  0
   -3.2955   52.8375   24.6406 C   0  0  0  0  0  0
   -1.9920   52.4914   24.9859 C   0  0  0  0  0  0
   -0.2220   48.2332   18.3922 N   0  0  0  0  0  0
   -1.6038   47.9408   18.7575 C   0  0  0  0  0  0
   -1.6817   46.4960   19.3018 C   0  0  0  0  0  0
   -0.4180   45.7195   18.8779 C   0  0  0  0  0  0
    0.3652   46.7879   17.5561 S   0  0  0  0  0  0
   -0.3879   46.5243   16.3249 O   0  0  0  0  0  0
    1.8247   46.6649   17.6021 O   0  0  0  0  0  0
    4.6978   52.4940   22.0785 H   0  0  0  0  0  0
    4.9038   51.4088   20.7080 H   0  0  0  0  0  0
    3.7687   52.7754   20.6110 H   0  0  0  0  0  0
    3.2651   51.0322   19.0687 H   0  0  0  0  0  0
    1.8061   49.7310   17.6605 H   0  0  0  0  0  0
   -0.3008   48.2951   21.1175 H   0  0  0  0  0  0
    1.1534   48.6719   23.2998 H   0  0  0  0  0  0
    0.9068   49.3335   25.2029 H   0  0  0  0  0  0
   -0.3932   50.0678   26.7262 H   0  0  0  0  0  0
    1.8620   52.5453   25.2654 H   0  0  0  0  0  0
    2.9549   54.2553   26.6326 H   0  0  0  0  0  0
    2.1780   54.6879   28.9379 H   0  0  0  0  0  0
    0.3052   53.3786   29.8910 H   0  0  0  0  0  0
   -0.8009   51.6500   28.5311 H   0  0  0  0  0  0
   -2.5906   49.4326   26.3525 H   0  0  0  0  0  0
   -4.8975   50.0501   25.7406 H   0  0  0  0  0  0
   -5.3489   52.2195   24.6444 H   0  0  0  0  0  0
   -3.4969   53.7878   24.1688 H   0  0  0  0  0  0
   -1.1857   53.1795   24.7777 H   0  0  0  0  0  0
   -1.9384   48.6044   19.5565 H   0  0  0  0  0  0
   -2.3227   48.1574   17.9658 H   0  0  0  0  0  0
   -1.7803   46.4971   20.3886 H   0  0  0  0  0  0
   -2.5865   46.0149   18.9267 H   0  0  0  0  0  0
    0.3034   45.5964   19.6816 H   0  0  0  0  0  0
   -0.6402   44.7446   18.4464 H   0  0  0  0  0  0
  1  2  1  0  0  0
  1 33  1  0  0  0
  1 34  1  0  0  0
  1 35  1  0  0  0
  2  3  1  0  0  0
  3  8  2  0  0  0
  3  4  1  0  0  0
  4  5  2  0  0  0
  4 36  1  0  0  0
  5  6  1  0  0  0
  5 37  1  0  0  0
  6  7  2  0  0  0
  6 26  1  0  0  0
  7  8  1  0  0  0
  7 38  1  0  0  0
  8  9  1  0  0  0
  9 10  1  0  0  0
  9 39  1  0  0  0
 10 11  2  0  0  0
 10 12  1  0  0  0
 12 13  1  0  0  0
 12 40  1  0  0  0
 13 14  1  0  0  0
 13 20  1  0  0  0
 13 41  1  0  0  0
 14 19  2  0  0  0
 14 15  1  0  0  0
 15 16  2  0  0  0
 15 42  1  0  0  0
 16 17  1  0  0  0
 16 43  1  0  0  0
 17 18  2  0  0  0
 17 44  1  0  0  0
 18 19  1  0  0  0
 18 45  1  0  0  0
 19 46  1  0  0  0
 20 25  2  0  0  0
 20 21  1  0  0  0
 21 22  2  0  0  0
 21 47  1  0  0  0
 22 23  1  0  0  0
 22 48  1  0  0  0
 23 24  2  0  0  0
 23 49  1  0  0  0
 24 25  1  0  0  0
 24 50  1  0  0  0
 25 51  1  0  0  0
 26 30  1  0  0  0
 26 27  1  0  0  0
 27 28  1  0  0  0
 27 52  1  0  0  0
 27 53  1  0  0  0
 28 29  1  0  0  0
 28 54  1  0  0  0
 28 55  1  0  0  0
 29 30  1  0  0  0
 29 56  1  0  0  0
 29 57  1  0  0  0
 30 31  2  0  0  0
 30 32  2  0  0  0
M  END
> <i_i_glide_confnum>
60

> <i_i_glide_lignum>
81

> <i_i_glide_posenum>
374

> <i_i_glide_rotatable_bonds>
8

> <i_m_Source_File_Index>
2612

> <b_m_subgroup_collapsed>
0

> <r_i_docking_score>
-2.96466

> <r_i_glide_ecoul>
-2.82284

> <r_i_glide_eff_state_penalty>
0

> <r_i_glide_einternal>
4.7605

> <r_i_glide_emodel>
-41.6914

> <r_i_glide_energy>
-35.5146

> <r_i_glide_erotb>
0.688641

> <r_i_glide_esite>
-0.0687068

> <r_i_glide_evdw>
-32.6918

> <r_i_glide_gscore>
-2.96466

> <r_i_glide_hbond>
0

> <r_i_glide_ligand_efficiency>
-0.0926456

> <r_i_glide_ligand_efficiency_ln>
-0.663868

> <r_i_glide_ligand_efficiency_sa>
-0.294131

> <r_i_glide_lipo>
-1.14888

> <r_i_glide_metal>
0

> <r_i_glide_rewards>
-0.377699

> <s_i_glide_gridfile>
wee1_glide-grid

> <s_m_Source_File>
wee1_decoys_glide_SP.sdf

> <s_m_Source_Path>
/Users/zhangxujun/Desktop

> <s_m_entry_id>
2887

> <s_m_entry_name>
wee1_decoys_glide_SP.2612

> <s_m_subgroup_title>
wee1_decoys_glide_SP

> <s_m_subgroupid>
wee1_decoys_glide_SP


$$$$
