ZINC05649579_3809
                    3D
 Schrodinger Suite 2024-2.
 29 31  0  0  1  0            999 V2000
    4.6884   54.0967   22.4782 C   0  0  0  0  0  0
    5.0844   54.3645   21.1698 C   0  0  0  0  0  0
    6.2872   55.0267   20.9355 C   0  0  0  0  0  0
    7.1044   55.4036   21.9965 C   0  0  0  0  0  0
    6.7044   55.1415   23.3028 C   0  0  0  0  0  0
    5.4938   54.4967   23.5523 C   0  0  0  0  0  0
    5.0593   54.2981   24.9617 C   0  0  0  0  0  0
    5.6606   54.4529   26.2027 C   0  0  0  0  0  0
    4.7235   54.0571   27.1589 C   0  0  0  0  0  0
    3.5664   53.6967   26.4765 C   0  0  0  0  0  0
    3.7894   53.8660   25.1494 O   0  0  0  0  0  0
    2.2882   53.1006   26.8115 C   0  0  0  0  0  0
    1.5782   52.9412   27.9472 C   0  0  0  0  0  0
    1.9324   53.4069   29.2817 C   0  0  0  0  0  0
    2.9024   54.0958   29.5934 O   0  0  0  0  0  0
    1.0240   52.9632   30.2184 N   0  0  0  0  0  0
    0.0903   52.2744   29.7366 C   0  0  0  0  0  0
    0.0479   52.0733   28.0014 S   0  0  0  0  0  0
   -0.8956   51.6967   30.4817 N   0  0  0  0  0  0
    6.8314   55.4077   19.1539 Br  0  0  0  0  0  0
    3.7452   53.5987   22.6505 H   0  0  0  0  0  0
    4.4563   54.0685   20.3416 H   0  0  0  0  0  0
    8.0451   55.9021   21.8115 H   0  0  0  0  0  0
    7.3420   55.4574   24.1150 H   0  0  0  0  0  0
    6.6708   54.7793   26.3957 H   0  0  0  0  0  0
    4.8963   54.0101   28.2229 H   0  0  0  0  0  0
    1.8226   52.6883   25.9270 H   0  0  0  0  0  0
   -0.9322   51.8375   31.4917 H   0  0  0  0  0  0
   -1.3317   50.8472   30.1453 H   0  0  0  0  0  0
  1  6  2  0  0  0
  1  2  1  0  0  0
  1 21  1  0  0  0
  2  3  2  0  0  0
  2 22  1  0  0  0
  3  4  1  0  0  0
  3 20  1  0  0  0
  4  5  2  0  0  0
  4 23  1  0  0  0
  5  6  1  0  0  0
  5 24  1  0  0  0
  6  7  1  0  0  0
  7 11  1  0  0  0
  7  8  2  0  0  0
  8  9  1  0  0  0
  8 25  1  0  0  0
  9 10  2  0  0  0
  9 26  1  0  0  0
 10 11  1  0  0  0
 10 12  1  0  0  0
 12 13  2  0  0  0
 12 27  1  0  0  0
 13 18  1  0  0  0
 13 14  1  0  0  0
 14 15  2  0  0  0
 14 16  1  0  0  0
 16 17  2  0  0  0
 17 18  1  0  0  0
 17 19  1  0  0  0
 19 28  1  0  0  0
 19 29  1  0  0  0
M  END
> <i_i_glide_confnum>
4

> <i_i_glide_lignum>
3810

> <i_i_glide_posenum>
91

> <i_i_glide_rotatable_bonds>
2

> <i_m_Source_File_Index>
5320

> <b_m_subgroup_collapsed>
0

> <r_i_docking_score>
-6.40581

> <r_i_glide_ecoul>
-6.59192

> <r_i_glide_eff_state_penalty>
0

> <r_i_glide_einternal>
1.54014

> <r_i_glide_emodel>
-54.4081

> <r_i_glide_energy>
-38.7264

> <r_i_glide_erotb>
0.312374

> <r_i_glide_esite>
-0.107301

> <r_i_glide_evdw>
-32.1345

> <r_i_glide_gscore>
-6.40581

> <r_i_glide_hbond>
-0.309025

> <r_i_glide_ligand_efficiency>
-0.320291

> <r_i_glide_ligand_efficiency_ln>
-1.60316

> <r_i_glide_ligand_efficiency_sa>
-0.869403

> <r_i_glide_lipo>
-2.3609

> <r_i_glide_metal>
0

> <r_i_glide_rewards>
-1.34545

> <s_i_glide_gridfile>
wee1_glide-grid

> <s_m_Source_File>
wee1_decoys_glide_SP.sdf

> <s_m_Source_Path>
/Users/zhangxujun/Desktop

> <s_m_entry_id>
5595

> <s_m_entry_name>
wee1_decoys_glide_SP.5320

> <s_m_subgroup_title>
wee1_decoys_glide_SP

> <s_m_subgroupid>
wee1_decoys_glide_SP


$$$$
