ZINC39508497_6056
                    3D
 Schrodinger Suite 2024-2.
 63 66  0  0  1  0            999 V2000
    0.3037   53.9798   30.8833 C   0  0  0  0  0  0
    1.1157   52.7587   30.4104 C   0  0  0  0  0  0
    0.2047   51.7722   29.6485 C   0  0  0  0  0  0
    2.2560   53.1707   29.5617 C   0  0  0  0  0  0
    3.1445   53.4988   28.7875 C   0  0  0  0  0  0
    4.0999   53.8693   27.7513 C   0  0  0  0  0  0
    5.4735   53.6961   27.9369 C   0  0  0  0  0  0
    6.3550   53.9829   26.8935 C   0  0  0  0  0  0
    5.8751   54.4570   25.6676 C   0  0  0  0  0  0
    4.5027   54.6907   25.5178 C   0  0  0  0  0  0
    3.6194   54.3751   26.5451 C   0  0  0  0  0  0
    6.8609   54.6568   24.5097 C   0  0  0  0  0  0
    6.2534   54.8961   23.1013 N   0  3  1  0  0  0
    7.3361   55.3341   22.0885 C   0  0  0  0  0  0
    6.6229   55.7642   20.7932 C   0  0  0  0  0  0
    5.7039   54.6778   20.1928 C   0  0  0  0  0  0
    4.7971   53.9696   21.2381 C   0  0  2  0  0  0
    4.0174   54.6845   21.5071 H   0  0  0  0  0  0
    5.5400   53.6280   22.5678 C   0  0  0  0  0  0
    4.0799   52.7354   20.6606 C   0  0  0  0  0  0
    4.2463   51.5360   21.0448 N   0  0  0  0  0  0
    3.4483   50.7260   20.4819 N   0  0  0  0  0  0
    2.7052   51.3215   19.6565 C   0  0  0  0  0  0
    2.9748   52.7898   19.6194 C   0  0  2  0  0  0
    2.1143   53.2967   20.0461 H   0  0  0  0  0  0
    3.2728   53.3435   18.2173 C   0  0  0  0  0  0
    4.4794   53.0990   17.5508 C   0  0  0  0  0  0
    4.7098   53.6173   16.2781 C   0  0  0  0  0  0
    3.7330   54.3888   15.6518 C   0  0  0  0  0  0
    2.5141   54.6401   16.2934 C   0  0  0  0  0  0
    2.2937   54.1003   17.5664 C   0  0  0  0  0  0
    1.4284   55.4888   15.6329 C   0  0  0  0  0  0
    1.8851   56.1490   14.5674 F   0  0  0  0  0  0
    0.4310   54.6968   15.2391 F   0  0  0  0  0  0
    0.9452   56.3816   16.5010 F   0  0  0  0  0  0
    1.5510   52.1022   31.5811 O   0  0  0  0  0  0
   -0.1625   54.4953   30.0438 H   0  0  0  0  0  0
    0.9176   54.7114   31.4081 H   0  0  0  0  0  0
   -0.4953   53.6848   31.5658 H   0  0  0  0  0  0
   -0.2512   52.2428   28.7764 H   0  0  0  0  0  0
    0.7475   50.8979   29.2813 H   0  0  0  0  0  0
   -0.6147   51.4078   30.2716 H   0  0  0  0  0  0
    5.8579   53.3086   28.8697 H   0  0  0  0  0  0
    7.4094   53.8012   27.0383 H   0  0  0  0  0  0
    4.0914   55.0730   24.5967 H   0  0  0  0  0  0
    2.5577   54.4971   26.3880 H   0  0  0  0  0  0
    7.4962   55.5229   24.7075 H   0  0  0  0  0  0
    7.5055   53.7832   24.3983 H   0  0  0  0  0  0
    7.8748   56.1771   22.5199 H   0  0  0  0  0  0
    8.0325   54.5062   21.9576 H   0  0  0  0  0  0
    6.0247   56.6551   20.9914 H   0  0  0  0  0  0
    7.3635   56.0646   20.0495 H   0  0  0  0  0  0
    5.1184   55.0578   19.3553 H   0  0  0  0  0  0
    6.3471   53.9376   19.7106 H   0  0  0  0  0  0
    6.3009   52.8482   22.4809 H   0  0  0  0  0  0
    4.8186   53.3051   23.3190 H   0  0  0  0  0  0
    1.9601   50.8065   19.0570 H   0  0  0  0  0  0
    5.2427   52.4967   18.0188 H   0  0  0  0  0  0
    5.6452   53.4133   15.7773 H   0  0  0  0  0  0
    3.9281   54.7827   14.6642 H   0  0  0  0  0  0
    1.3497   54.2813   18.0620 H   0  0  0  0  0  0
    0.7899   52.0066   32.1659 H   0  0  0  0  0  0
    5.5809   55.6419   23.2083 H   0  0  0  0  0  0
  1  2  1  0  0  0
  1 37  1  0  0  0
  1 38  1  0  0  0
  1 39  1  0  0  0
  2  3  1  0  0  0
  2  4  1  0  0  0
  2 36  1  0  0  0
  3 40  1  0  0  0
  3 41  1  0  0  0
  3 42  1  0  0  0
  4  5  3  0  0  0
  5  6  1  0  0  0
  6 11  2  0  0  0
  6  7  1  0  0  0
  7  8  2  0  0  0
  7 43  1  0  0  0
  8  9  1  0  0  0
  8 44  1  0  0  0
  9 10  2  0  0  0
  9 12  1  0  0  0
 10 11  1  0  0  0
 10 45  1  0  0  0
 11 46  1  0  0  0
 12 13  1  0  0  0
 12 47  1  0  0  0
 12 48  1  0  0  0
 13 19  1  0  0  0
 13 14  1  0  0  0
 13 63  1  0  0  0
 14 15  1  0  0  0
 14 49  1  0  0  0
 14 50  1  0  0  0
 15 16  1  0  0  0
 15 51  1  0  0  0
 15 52  1  0  0  0
 16 17  1  0  0  0
 16 53  1  0  0  0
 16 54  1  0  0  0
 17 18  1  0  0  0
 17 19  1  0  0  0
 17 20  1  0  0  0
 19 55  1  0  0  0
 19 56  1  0  0  0
 20 24  1  0  0  0
 20 21  2  0  0  0
 21 22  1  0  0  0
 22 23  2  0  0  0
 23 24  1  0  0  0
 23 57  1  0  0  0
 24 25  1  0  0  0
 24 26  1  0  0  0
 26 31  2  0  0  0
 26 27  1  0  0  0
 27 28  2  0  0  0
 27 58  1  0  0  0
 28 29  1  0  0  0
 28 59  1  0  0  0
 29 30  2  0  0  0
 29 60  1  0  0  0
 30 31  1  0  0  0
 30 32  1  0  0  0
 31 61  1  0  0  0
 32 33  1  0  0  0
 32 34  1  0  0  0
 32 35  1  0  0  0
 36 62  1  0  0  0
M  CHG  1  13   1
M  END
> <i_i_glide_confnum>
15

> <i_i_glide_lignum>
6057

> <i_i_glide_posenum>
307

> <i_i_glide_rotatable_bonds>
8

> <i_m_Source_File_Index>
648

> <b_m_subgroup_collapsed>
0

> <r_i_docking_score>
-5.65836

> <r_i_glide_ecoul>
-4.06129

> <r_i_glide_eff_state_penalty>
0

> <r_i_glide_einternal>
6.10043

> <r_i_glide_emodel>
-57.8381

> <r_i_glide_energy>
-45.4002

> <r_i_glide_erotb>
0.551849

> <r_i_glide_esite>
-0.0924318

> <r_i_glide_evdw>
-41.3389

> <r_i_glide_gscore>
-5.65836

> <r_i_glide_hbond>
-0.0077644

> <r_i_glide_ligand_efficiency>
-0.166422

> <r_i_glide_ligand_efficiency_ln>
-1.25009

> <r_i_glide_ligand_efficiency_sa>
-0.539144

> <r_i_glide_lipo>
-3.06434

> <r_i_glide_metal>
0

> <r_i_glide_rewards>
-0.369532

> <s_i_glide_gridfile>
wee1_glide-grid

> <s_m_Source_File>
wee1_decoys_glide_SP.sdf

> <s_m_Source_Path>
/Users/zhangxujun/Desktop

> <s_m_entry_id>
923

> <s_m_entry_name>
wee1_decoys_glide_SP.648

> <s_m_subgroup_title>
wee1_decoys_glide_SP

> <s_m_subgroupid>
wee1_decoys_glide_SP


$$$$
