ZINC21226020_3931
                    3D
 Schrodinger Suite 2024-2.
 45 48  0  0  1  0            999 V2000
    0.0622   48.9906   24.5360 C   0  0  0  0  0  0
   -0.8107   50.2316   24.2241 C   0  0  1  0  0  0
   -1.8330   49.8791   24.0867 H   0  0  0  0  0  0
   -0.9043   51.2605   25.3752 C   0  0  0  0  0  0
   -1.3390   52.3913   25.1401 O   0  0  0  0  0  0
   -0.5158   50.8677   26.6067 N   0  0  0  0  0  0
   -0.2468   51.7105   27.6834 C   0  0  0  0  0  0
    0.4794   52.8973   27.5315 C   0  0  0  0  0  0
    0.6796   53.7180   28.6439 C   0  0  0  0  0  0
    0.1658   53.3227   29.8797 C   0  0  0  0  0  0
   -0.4955   52.0964   29.9565 C   0  0  0  0  0  0
   -0.7049   51.2974   28.8851 N   0  0  0  0  0  0
    0.3116   54.3319   31.2705 Cl  0  0  0  0  0  0
   -0.3379   50.9599   22.6060 S   0  0  0  0  0  0
    1.1604   51.9089   22.7159 C   0  0  0  0  0  0
    1.9076   51.9429   21.5869 N   0  0  0  0  0  0
    3.0790   52.6247   21.6301 C   0  0  0  0  0  0
    3.4896   53.3186   22.7959 C   0  0  0  0  0  0
    4.6622   54.0695   23.1360 C   0  0  0  0  0  0
    4.6401   54.4965   24.4631 C   0  0  0  0  0  0
    3.1631   54.0954   25.2998 S   0  0  0  0  0  0
    2.5885   53.2291   23.8931 C   0  0  0  0  0  0
    1.4509   52.5317   23.8868 N   0  0  0  0  0  0
    5.7495   55.2940   25.1331 C   0  0  0  0  0  0
    7.0624   55.0868   24.3571 C   0  0  0  0  0  0
    6.8861   55.2507   22.8351 C   0  0  0  0  0  0
    5.8569   54.2796   22.2213 C   0  0  0  0  0  0
    3.8614   52.5650   20.4766 N   0  0  0  0  0  0
   -0.2579   48.4678   25.4376 H   0  0  0  0  0  0
    0.0151   48.2669   23.7215 H   0  0  0  0  0  0
    1.1105   49.2645   24.6650 H   0  0  0  0  0  0
   -0.5002   49.8776   26.8167 H   0  0  0  0  0  0
    0.8562   53.1879   26.5651 H   0  0  0  0  0  0
    1.2062   54.6550   28.5408 H   0  0  0  0  0  0
   -0.8958   51.7280   30.8816 H   0  0  0  0  0  0
    5.5041   56.3562   25.1491 H   0  0  0  0  0  0
    5.8786   54.9952   26.1745 H   0  0  0  0  0  0
    7.7940   55.8073   24.7196 H   0  0  0  0  0  0
    7.4711   54.0967   24.5670 H   0  0  0  0  0  0
    6.5931   56.2722   22.6119 H   0  0  0  0  0  0
    7.8466   55.1182   22.3332 H   0  0  0  0  0  0
    6.3044   53.3010   22.0821 H   0  0  0  0  0  0
    5.5579   54.6424   21.2376 H   0  0  0  0  0  0
    4.7399   53.0577   20.4322 H   0  0  0  0  0  0
    3.5358   52.0256   19.6844 H   0  0  0  0  0  0
  1  2  1  0  0  0
  1 29  1  0  0  0
  1 30  1  0  0  0
  1 31  1  0  0  0
  2  3  1  0  0  0
  2  4  1  0  0  0
  2 14  1  0  0  0
  4  5  2  0  0  0
  4  6  1  0  0  0
  6  7  1  0  0  0
  6 32  1  0  0  0
  7 12  2  0  0  0
  7  8  1  0  0  0
  8  9  2  0  0  0
  8 33  1  0  0  0
  9 10  1  0  0  0
  9 34  1  0  0  0
 10 11  2  0  0  0
 10 13  1  0  0  0
 11 12  1  0  0  0
 11 35  1  0  0  0
 14 15  1  0  0  0
 15 23  2  0  0  0
 15 16  1  0  0  0
 16 17  2  0  0  0
 17 18  1  0  0  0
 17 28  1  0  0  0
 18 22  2  0  0  0
 18 19  1  0  0  0
 19 27  1  0  0  0
 19 20  2  0  0  0
 20 21  1  0  0  0
 20 24  1  0  0  0
 21 22  1  0  0  0
 22 23  1  0  0  0
 24 25  1  0  0  0
 24 36  1  0  0  0
 24 37  1  0  0  0
 25 26  1  0  0  0
 25 38  1  0  0  0
 25 39  1  0  0  0
 26 27  1  0  0  0
 26 40  1  0  0  0
 26 41  1  0  0  0
 27 42  1  0  0  0
 27 43  1  0  0  0
 28 44  1  0  0  0
 28 45  1  0  0  0
M  END
> <i_i_glide_confnum>
87

> <i_i_glide_lignum>
3932

> <i_i_glide_posenum>
377

> <i_i_glide_rotatable_bonds>
5

> <i_m_Source_File_Index>
5169

> <b_m_subgroup_collapsed>
0

> <r_i_docking_score>
-4.64621

> <r_i_glide_ecoul>
-3.39598

> <r_i_glide_eff_state_penalty>
0

> <r_i_glide_einternal>
10.851

> <r_i_glide_emodel>
-49.8102

> <r_i_glide_energy>
-41.4449

> <r_i_glide_erotb>
0.448809

> <r_i_glide_esite>
-0.0864894

> <r_i_glide_evdw>
-38.049

> <r_i_glide_gscore>
-4.64621

> <r_i_glide_hbond>
-0.016179

> <r_i_glide_ligand_efficiency>
-0.172082

> <r_i_glide_ligand_efficiency_ln>
-1.08156

> <r_i_glide_ligand_efficiency_sa>
-0.516246

> <r_i_glide_lipo>
-2.1322

> <r_i_glide_metal>
0

> <r_i_glide_rewards>
-0.448304

> <s_i_glide_gridfile>
wee1_glide-grid

> <s_m_Source_File>
wee1_decoys_glide_SP.sdf

> <s_m_Source_Path>
/Users/zhangxujun/Desktop

> <s_m_entry_id>
5444

> <s_m_entry_name>
wee1_decoys_glide_SP.5169

> <s_m_subgroup_title>
wee1_decoys_glide_SP

> <s_m_subgroupid>
wee1_decoys_glide_SP


$$$$
