ZINC67547936_1513
                    3D
 Schrodinger Suite 2024-2.
 53 55  0  0  1  0            999 V2000
    7.3416   56.5044   15.4942 C   0  0  0  0  0  0
    6.3029   56.1677   16.5834 C   0  0  2  0  0  0
    6.5749   55.1800   16.9496 H   0  0  0  0  0  0
    4.8648   56.0188   16.0186 C   0  0  0  0  0  0
    4.1748   57.3529   15.6840 C   0  0  0  0  0  0
    4.2621   58.3193   16.8715 C   0  0  0  0  0  0
    5.7125   58.4930   17.3664 C   0  0  0  0  0  0
    6.2508   57.1496   17.6981 N   0  0  0  0  0  0
    6.7101   56.9056   18.9617 C   0  0  0  0  0  0
    6.7044   57.7678   19.8452 O   0  0  0  0  0  0
    7.2912   55.5129   19.3454 C   0  0  1  0  0  0
    6.6373   54.7303   18.9599 H   0  0  0  0  0  0
    8.7234   55.3250   18.8098 C   0  0  0  0  0  0
    7.3502   55.2973   20.7989 N   0  0  0  0  0  0
    6.3044   55.0237   21.5938 C   0  0  0  0  0  0
    5.1539   54.8906   21.1820 O   0  0  0  0  0  0
    6.7073   54.8969   22.8709 N   0  0  0  0  0  0
    5.9635   54.6164   24.0295 C   0  0  0  0  0  0
    4.5741   54.4378   24.0760 C   0  0  0  0  0  0
    3.9436   54.1889   25.2920 C   0  0  0  0  0  0
    4.6896   54.0970   26.4786 C   0  0  0  0  0  0
    6.0780   54.2831   26.4187 C   0  0  0  0  0  0
    6.7043   54.5379   25.2050 C   0  0  0  0  0  0
    4.0883   53.8373   27.7363 N   0  0  0  0  0  0
    4.7890   53.9156   29.0060 C   0  0  0  0  0  0
    3.7275   53.6929   30.0450 C   0  0  0  0  0  0
    2.6667   53.1510   29.3044 O   0  0  0  0  0  0
    2.8109   53.2976   27.9701 C   0  0  0  0  0  0
    1.9082   52.9863   27.1950 O   0  0  0  0  0  0
    7.3629   55.7270   14.7301 H   0  0  0  0  0  0
    8.3482   56.5956   15.9005 H   0  0  0  0  0  0
    7.0983   57.4335   14.9784 H   0  0  0  0  0  0
    4.8627   55.3583   15.1509 H   0  0  0  0  0  0
    4.2585   55.5047   16.7671 H   0  0  0  0  0  0
    4.6489   57.8052   14.8119 H   0  0  0  0  0  0
    3.1322   57.1823   15.4123 H   0  0  0  0  0  0
    3.8595   59.2945   16.5887 H   0  0  0  0  0  0
    3.6276   57.9623   17.6817 H   0  0  0  0  0  0
    6.3190   58.9106   16.5627 H   0  0  0  0  0  0
    5.7736   59.2126   18.1851 H   0  0  0  0  0  0
    8.7582   55.3182   17.7230 H   0  0  0  0  0  0
    9.3880   56.1179   19.1561 H   0  0  0  0  0  0
    9.1460   54.3763   19.1399 H   0  0  0  0  0  0
    8.2470   55.4791   21.2193 H   0  0  0  0  0  0
    7.6961   55.0172   23.0390 H   0  0  0  0  0  0
    3.9593   54.4981   23.1917 H   0  0  0  0  0  0
    2.8711   54.0753   25.2835 H   0  0  0  0  0  0
    6.6920   54.2254   27.3052 H   0  0  0  0  0  0
    7.7735   54.6746   25.1774 H   0  0  0  0  0  0
    5.5834   53.1725   29.0863 H   0  0  0  0  0  0
    5.2459   54.8976   29.1407 H   0  0  0  0  0  0
    3.4206   54.6425   30.4817 H   0  0  0  0  0  0
    4.0722   53.0105   30.8225 H   0  0  0  0  0  0
  1  2  1  0  0  0
  1 30  1  0  0  0
  1 31  1  0  0  0
  1 32  1  0  0  0
  2  3  1  0  0  0
  2  8  1  0  0  0
  2  4  1  0  0  0
  4  5  1  0  0  0
  4 33  1  0  0  0
  4 34  1  0  0  0
  5  6  1  0  0  0
  5 35  1  0  0  0
  5 36  1  0  0  0
  6  7  1  0  0  0
  6 37  1  0  0  0
  6 38  1  0  0  0
  7  8  1  0  0  0
  7 39  1  0  0  0
  7 40  1  0  0  0
  8  9  1  0  0  0
  9 10  2  0  0  0
  9 11  1  0  0  0
 11 12  1  0  0  0
 11 13  1  0  0  0
 11 14  1  0  0  0
 13 41  1  0  0  0
 13 42  1  0  0  0
 13 43  1  0  0  0
 14 15  1  0  0  0
 14 44  1  0  0  0
 15 16  2  0  0  0
 15 17  1  0  0  0
 17 18  1  0  0  0
 17 45  1  0  0  0
 18 23  2  0  0  0
 18 19  1  0  0  0
 19 20  2  0  0  0
 19 46  1  0  0  0
 20 21  1  0  0  0
 20 47  1  0  0  0
 21 22  2  0  0  0
 21 24  1  0  0  0
 22 23  1  0  0  0
 22 48  1  0  0  0
 23 49  1  0  0  0
 24 28  1  0  0  0
 24 25  1  0  0  0
 25 26  1  0  0  0
 25 50  1  0  0  0
 25 51  1  0  0  0
 26 27  1  0  0  0
 26 52  1  0  0  0
 26 53  1  0  0  0
 27 28  1  0  0  0
 28 29  2  0  0  0
M  END
> <i_i_glide_confnum>
155

> <i_i_glide_lignum>
1514

> <i_i_glide_posenum>
116

> <i_i_glide_rotatable_bonds>
7

> <i_m_Source_File_Index>
445

> <b_m_subgroup_collapsed>
0

> <r_i_docking_score>
-6.06388

> <r_i_glide_ecoul>
-5.10253

> <r_i_glide_eff_state_penalty>
0

> <r_i_glide_einternal>
7.8859

> <r_i_glide_emodel>
-56.0571

> <r_i_glide_energy>
-41.7492

> <r_i_glide_erotb>
0.965412

> <r_i_glide_esite>
-0.00315378

> <r_i_glide_evdw>
-36.6467

> <r_i_glide_gscore>
-6.06388

> <r_i_glide_hbond>
-0.576421

> <r_i_glide_ligand_efficiency>
-0.224588

> <r_i_glide_ligand_efficiency_ln>
-1.41157

> <r_i_glide_ligand_efficiency_sa>
-0.673764

> <r_i_glide_lipo>
-1.98789

> <r_i_glide_metal>
0

> <r_i_glide_rewards>
-1.86411

> <s_i_glide_gridfile>
wee1_glide-grid

> <s_m_Source_File>
wee1_decoys_glide_SP.sdf

> <s_m_Source_Path>
/Users/zhangxujun/Desktop

> <s_m_entry_id>
720

> <s_m_entry_name>
wee1_decoys_glide_SP.445

> <s_m_subgroup_title>
wee1_decoys_glide_SP

> <s_m_subgroupid>
wee1_decoys_glide_SP


$$$$
