ZINC52886385_6171
                    3D
 Schrodinger Suite 2024-2.
 32 34  0  0  1  0            999 V2000
    4.8548   53.1004   28.4812 C   0  0  0  0  0  0
    4.1705   52.5718   29.5724 C   0  0  0  0  0  0
    2.7836   52.6249   29.6453 C   0  0  0  0  0  0
    2.0654   53.2460   28.5935 C   0  0  0  0  0  0
    2.7665   53.7821   27.5153 C   0  0  0  0  0  0
    4.1600   53.7033   27.4276 C   0  0  0  0  0  0
    4.8777   54.1872   26.2166 C   0  0  0  0  0  0
    4.2954   54.0966   24.9427 C   0  0  0  0  0  0
    5.0237   54.4452   23.8073 C   0  0  0  0  0  0
    6.3282   54.8971   23.9744 C   0  0  0  0  0  0
    6.9037   55.0486   25.1910 N   0  0  0  0  0  0
    6.1815   54.6979   26.2844 C   0  0  0  0  0  0
    7.1044   55.1918   22.8630 N   0  0  0  0  0  0
    0.6910   53.2806   28.5012 O   0  0  0  0  0  0
   -0.0136   52.1428   28.9742 C   0  0  0  0  0  0
   -0.2201   52.2369   30.4819 C   0  0  0  0  0  0
    1.0156   52.6711   31.2728 C   0  0  0  0  0  0
    2.2190   52.0965   30.7877 O   0  0  0  0  0  0
    5.9299   53.0016   28.4483 H   0  0  0  0  0  0
    4.7119   52.0954   30.3748 H   0  0  0  0  0  0
    2.1972   54.2331   26.7162 H   0  0  0  0  0  0
    3.2982   53.7031   24.8164 H   0  0  0  0  0  0
    4.5886   54.3425   22.8243 H   0  0  0  0  0  0
    6.6864   54.8128   27.2331 H   0  0  0  0  0  0
    6.7603   54.9656   21.9414 H   0  0  0  0  0  0
    8.1014   55.3047   23.0391 H   0  0  0  0  0  0
    0.4867   51.2149   28.6858 H   0  0  0  0  0  0
   -0.9810   52.1044   28.4729 H   0  0  0  0  0  0
   -0.6155   51.2969   30.8652 H   0  0  0  0  0  0
   -0.9813   52.9754   30.6827 H   0  0  0  0  0  0
    0.8969   52.3865   32.3191 H   0  0  0  0  0  0
    1.1051   53.7605   31.2846 H   0  0  0  0  0  0
  1  6  2  0  0  0
  1  2  1  0  0  0
  1 19  1  0  0  0
  2  3  2  0  0  0
  2 20  1  0  0  0
  3 18  1  0  0  0
  3  4  1  0  0  0
  4  5  2  0  0  0
  4 14  1  0  0  0
  5  6  1  0  0  0
  5 21  1  0  0  0
  6  7  1  0  0  0
  7 12  2  0  0  0
  7  8  1  0  0  0
  8  9  2  0  0  0
  8 22  1  0  0  0
  9 10  1  0  0  0
  9 23  1  0  0  0
 10 11  2  0  0  0
 10 13  1  0  0  0
 11 12  1  0  0  0
 12 24  1  0  0  0
 13 25  1  0  0  0
 13 26  1  0  0  0
 14 15  1  0  0  0
 15 16  1  0  0  0
 15 27  1  0  0  0
 15 28  1  0  0  0
 16 17  1  0  0  0
 16 29  1  0  0  0
 16 30  1  0  0  0
 17 18  1  0  0  0
 17 31  1  0  0  0
 17 32  1  0  0  0
M  END
> <i_i_glide_confnum>
6

> <i_i_glide_lignum>
6172

> <i_i_glide_posenum>
258

> <i_i_glide_rotatable_bonds>
1

> <i_m_Source_File_Index>
4919

> <b_m_subgroup_collapsed>
0

> <r_i_docking_score>
-8.34116

> <r_i_glide_ecoul>
-6.76356

> <r_i_glide_eff_state_penalty>
0

> <r_i_glide_einternal>
0.419163

> <r_i_glide_emodel>
-58.2479

> <r_i_glide_energy>
-38.2098

> <r_i_glide_erotb>
0.206817

> <r_i_glide_esite>
-0.00891991

> <r_i_glide_evdw>
-31.4463

> <r_i_glide_gscore>
-8.34116

> <r_i_glide_hbond>
-0.816015

> <r_i_glide_ligand_efficiency>
-0.463398

> <r_i_glide_ligand_efficiency_ln>
-2.14405

> <r_i_glide_ligand_efficiency_sa>
-1.21445

> <r_i_glide_lipo>
-2.49102

> <r_i_glide_metal>
0

> <r_i_glide_rewards>
-2.64517

> <s_i_glide_gridfile>
wee1_glide-grid

> <s_m_Source_File>
wee1_decoys_glide_SP.sdf

> <s_m_Source_Path>
/Users/zhangxujun/Desktop

> <s_m_entry_id>
5194

> <s_m_entry_name>
wee1_decoys_glide_SP.4919

> <s_m_subgroup_title>
wee1_decoys_glide_SP

> <s_m_subgroupid>
wee1_decoys_glide_SP


$$$$
