ZINC14544791_3412
                    3D
 Schrodinger Suite 2024-2.
 61 66  0  0  1  0            999 V2000
   -5.9764   50.7656   31.9901 C   0  0  0  0  0  0
   -5.5979   50.9004   30.5252 C   0  0  0  0  0  0
   -4.3952   50.3725   30.0586 C   0  0  0  0  0  0
   -4.0842   50.4339   28.7021 C   0  0  0  0  0  0
   -4.9617   51.0198   27.7903 C   0  0  0  0  0  0
   -6.1634   51.5854   28.2588 C   0  0  0  0  0  0
   -6.4688   51.5193   29.6249 C   0  0  0  0  0  0
   -7.1836   52.2115   27.3158 C   0  0  0  0  0  0
   -4.6629   50.9226   26.4229 N   0  0  0  0  0  0
   -4.0430   52.2879   25.4775 S   0  0  0  0  0  0
   -4.3409   51.9753   24.0771 O   0  0  0  0  0  0
   -4.5211   53.5351   26.0834 O   0  0  0  0  0  0
   -2.2585   52.2741   25.6319 C   0  0  0  0  0  0
   -1.4587   52.4044   24.4946 C   0  0  0  0  0  0
   -0.0740   52.5029   24.6227 C   0  0  0  0  0  0
    0.5154   52.4762   25.8871 C   0  0  0  0  0  0
   -0.2737   52.3054   27.0421 C   0  0  0  0  0  0
   -1.6596   52.1983   26.8894 C   0  0  0  0  0  0
    0.4498   52.2449   28.3795 C   0  0  2  0  0  0
    0.8662   51.2365   28.4419 H   0  0  0  0  0  0
   -0.2491   52.5357   29.6875 C   0  0  0  0  0  0
    0.6098   53.1487   30.5251 C   0  0  0  0  0  0
    1.9312   53.4586   29.8321 C   0  0  0  0  0  0
    1.5505   53.3060   28.3585 C   0  0  1  0  0  0
    1.1324   54.2705   28.0504 H   0  0  0  0  0  0
    2.5940   52.8978   27.2811 C   0  0  1  0  0  0
    2.9456   51.9073   27.5674 H   0  0  0  0  0  0
    1.9025   52.7222   25.9900 N   0  0  0  0  0  0
    3.8545   53.7646   27.1616 C   0  0  0  0  0  0
    4.6482   54.2341   28.1992 C   0  0  0  0  0  0
    5.7514   54.8967   27.7261 N   0  0  0  0  0  0
    6.4525   55.3004   28.3387 H   0  0  0  0  0  0
    5.7392   54.8807   26.3517 C   0  0  0  0  0  0
    4.5509   54.1897   25.9547 C   0  0  0  0  0  0
    4.3175   54.0514   24.5691 C   0  0  0  0  0  0
    5.2683   54.4962   23.6558 C   0  0  0  0  0  0
    6.4072   55.1663   24.0817 C   0  0  0  0  0  0
    6.6487   55.4061   25.4296 C   0  0  0  0  0  0
   -5.2929   50.1083   32.5300 H   0  0  0  0  0  0
   -6.9764   50.3407   32.0769 H   0  0  0  0  0  0
   -5.9894   51.7348   32.4843 H   0  0  0  0  0  0
   -3.7014   49.8927   30.7352 H   0  0  0  0  0  0
   -3.1496   50.0118   28.3623 H   0  0  0  0  0  0
   -7.4058   51.9219   29.9832 H   0  0  0  0  0  0
   -7.1888   51.7157   26.3464 H   0  0  0  0  0  0
   -8.1972   52.1209   27.7112 H   0  0  0  0  0  0
   -6.9643   53.2682   27.1631 H   0  0  0  0  0  0
   -4.1599   50.0812   26.1831 H   0  0  0  0  0  0
   -1.9044   52.4663   23.5120 H   0  0  0  0  0  0
    0.5342   52.6464   23.7412 H   0  0  0  0  0  0
   -2.2736   52.0964   27.7706 H   0  0  0  0  0  0
   -1.2371   52.1626   29.9279 H   0  0  0  0  0  0
    0.4183   53.3996   31.5578 H   0  0  0  0  0  0
    2.7261   52.7734   30.1305 H   0  0  0  0  0  0
    2.2608   54.4772   30.0401 H   0  0  0  0  0  0
    2.5104   52.5844   25.1985 H   0  0  0  0  0  0
    4.5322   54.1264   29.2671 H   0  0  0  0  0  0
    3.4397   53.5595   24.1875 H   0  0  0  0  0  0
    5.1019   54.3516   22.5981 H   0  0  0  0  0  0
    7.1132   55.5328   23.3470 H   0  0  0  0  0  0
    7.5041   55.9765   25.7291 H   0  0  0  0  0  0
  1  2  1  0  0  0
  1 39  1  0  0  0
  1 40  1  0  0  0
  1 41  1  0  0  0
  2  7  2  0  0  0
  2  3  1  0  0  0
  3  4  2  0  0  0
  3 42  1  0  0  0
  4  5  1  0  0  0
  4 43  1  0  0  0
  5  6  2  0  0  0
  5  9  1  0  0  0
  6  7  1  0  0  0
  6  8  1  0  0  0
  7 44  1  0  0  0
  8 45  1  0  0  0
  8 46  1  0  0  0
  8 47  1  0  0  0
  9 10  1  0  0  0
  9 48  1  0  0  0
 10 11  2  0  0  0
 10 12  2  0  0  0
 10 13  1  0  0  0
 13 18  2  0  0  0
 13 14  1  0  0  0
 14 15  2  0  0  0
 14 49  1  0  0  0
 15 16  1  0  0  0
 15 50  1  0  0  0
 16 28  1  0  0  0
 16 17  2  0  0  0
 17 18  1  0  0  0
 17 19  1  0  0  0
 18 51  1  0  0  0
 19 20  1  0  0  0
 19 24  1  0  0  0
 19 21  1  0  0  0
 21 22  2  0  0  0
 21 52  1  0  0  0
 22 23  1  0  0  0
 22 53  1  0  0  0
 23 24  1  0  0  0
 23 54  1  0  0  0
 23 55  1  0  0  0
 24 25  1  0  0  0
 24 26  1  0  0  0
 26 27  1  0  0  0
 26 28  1  0  0  0
 26 29  1  0  0  0
 28 56  1  0  0  0
 29 34  1  0  0  0
 29 30  2  0  0  0
 30 31  1  0  0  0
 30 57  1  0  0  0
 31 32  1  0  0  0
 31 33  1  0  0  0
 33 38  2  0  0  0
 33 34  1  0  0  0
 34 35  2  0  0  0
 35 36  1  0  0  0
 35 58  1  0  0  0
 36 37  2  0  0  0
 36 59  1  0  0  0
 37 38  1  0  0  0
 37 60  1  0  0  0
 38 61  1  0  0  0
M  END
> <i_i_glide_confnum>
17

> <i_i_glide_lignum>
3413

> <i_i_glide_posenum>
45

> <i_i_glide_rotatable_bonds>
4

> <i_m_Source_File_Index>
4586

> <b_m_subgroup_collapsed>
0

> <r_i_docking_score>
-5.56639

> <r_i_glide_ecoul>
-2.00972

> <r_i_glide_eff_state_penalty>
0

> <r_i_glide_einternal>
6.29869

> <r_i_glide_emodel>
-54.9497

> <r_i_glide_energy>
-44.1456

> <r_i_glide_erotb>
0.366378

> <r_i_glide_esite>
-0.00857752

> <r_i_glide_evdw>
-42.1359

> <r_i_glide_gscore>
-5.56639

> <r_i_glide_hbond>
-0.32

> <r_i_glide_ligand_efficiency>
-0.163717

> <r_i_glide_ligand_efficiency_ln>
-1.22977

> <r_i_glide_ligand_efficiency_sa>
-0.530381

> <r_i_glide_lipo>
-2.79765

> <r_i_glide_metal>
0

> <r_i_glide_rewards>
-0.39829

> <s_i_glide_gridfile>
wee1_glide-grid

> <s_m_Source_File>
wee1_decoys_glide_SP.sdf

> <s_m_Source_Path>
/Users/zhangxujun/Desktop

> <s_m_entry_id>
4861

> <s_m_entry_name>
wee1_decoys_glide_SP.4586

> <s_m_subgroup_title>
wee1_decoys_glide_SP

> <s_m_subgroupid>
wee1_decoys_glide_SP


$$$$
