ZINC39608845_1240
                    3D
 Schrodinger Suite 2024-2.
 70 74  0  0  1  0            999 V2000
    0.4234   54.3784   30.9995 C   0  0  0  0  0  0
    1.1047   55.1507   30.0630 C   0  0  0  0  0  0
    1.3721   54.6229   28.8034 C   0  0  0  0  0  0
    0.9591   53.3193   28.4868 C   0  0  0  0  0  0
    0.2883   52.5512   29.4395 C   0  0  0  0  0  0
    0.0240   53.0802   30.6962 C   0  0  0  0  0  0
    1.2332   52.7010   27.1254 C   0  0  0  0  0  0
    1.8935   53.6214   26.2630 O   0  0  0  0  0  0
    2.2832   53.0860   25.0068 C   0  0  2  0  0  0
    2.7046   52.0993   25.1662 H   0  0  0  0  0  0
    3.3337   54.0356   24.4032 C   0  0  0  0  0  0
    3.0297   54.0606   22.9098 C   0  0  0  0  0  0
    1.5064   53.9869   22.8818 C   0  0  0  0  0  0
    1.1027   53.0190   24.0039 C   0  0  1  0  0  0
    0.1670   53.3527   24.4645 H   0  0  0  0  0  0
    0.9075   51.6607   23.4772 N   0  0  0  0  0  0
   -0.0963   51.2903   22.6616 C   0  0  0  0  0  0
   -1.0410   52.0378   22.3958 O   0  0  0  0  0  0
   -0.0186   49.8506   22.0955 C   0  0  1  0  0  0
    0.5376   49.2252   22.7951 H   0  0  0  0  0  0
   -1.4436   49.2830   21.9538 C   0  0  0  0  0  0
   -1.3097   48.2725   20.9041 N   0  0  0  0  0  0
   -0.0575   48.4235   20.1566 C   0  0  0  0  0  0
    0.5897   49.7372   20.6624 C   0  0  0  0  0  0
    2.1352   49.6894   20.6904 C   0  0  0  0  0  0
    2.6874   49.3351   19.2987 C   0  0  0  0  0  0
    2.3039   50.4598   18.3211 N   0  3  0  0  0  0
    0.7832   50.7424   18.2714 C   0  0  0  0  0  0
    0.2491   50.9369   19.7153 C   0  0  0  0  0  0
   -2.2928   47.3636   20.6678 C   0  0  0  0  0  0
   -3.3521   47.3713   21.3022 O   0  0  0  0  0  0
   -2.1188   46.3196   19.5868 C   0  0  0  0  0  0
   -3.1958   46.0201   18.7384 C   0  0  0  0  0  0
   -3.0829   45.0290   17.7616 C   0  0  0  0  0  0
   -1.8977   44.3039   17.6292 C   0  0  0  0  0  0
   -0.8168   44.5803   18.4753 C   0  0  0  0  0  0
   -0.9355   45.5773   19.4445 C   0  0  0  0  0  0
    0.6672   43.6990   18.3666 Cl  0  0  0  0  0  0
   -1.8047   43.0647   16.4252 Cl  0  0  0  0  0  0
    0.2177   54.7790   31.9804 H   0  0  0  0  0  0
    1.4162   56.1549   30.3106 H   0  0  0  0  0  0
    1.8972   55.2291   28.0806 H   0  0  0  0  0  0
   -0.0298   51.5421   29.2082 H   0  0  0  0  0  0
   -0.4945   52.4865   31.4332 H   0  0  0  0  0  0
    0.2853   52.3841   26.6831 H   0  0  0  0  0  0
    1.8544   51.8161   27.2802 H   0  0  0  0  0  0
    3.2515   55.0358   24.8298 H   0  0  0  0  0  0
    4.3518   53.6891   24.5885 H   0  0  0  0  0  0
    3.4131   54.9504   22.4113 H   0  0  0  0  0  0
    3.4601   53.1909   22.4119 H   0  0  0  0  0  0
    1.1154   53.7008   21.9063 H   0  0  0  0  0  0
    1.1049   54.9738   23.1019 H   0  0  0  0  0  0
    1.6152   50.9785   23.7074 H   0  0  0  0  0  0
   -2.1360   50.0270   21.5571 H   0  0  0  0  0  0
   -1.8158   48.8810   22.8984 H   0  0  0  0  0  0
    0.6033   47.6255   20.4858 H   0  0  0  0  0  0
   -0.1434   48.3576   19.0741 H   0  0  0  0  0  0
    2.5621   50.6122   21.0850 H   0  0  0  0  0  0
    2.4645   48.9053   21.3727 H   0  0  0  0  0  0
    3.7725   49.2967   19.2810 H   0  0  0  0  0  0
    2.3115   48.3996   18.8837 H   0  0  0  0  0  0
    2.8033   51.2983   18.5901 H   0  0  0  0  0  0
    0.6594   51.6409   17.6657 H   0  0  0  0  0  0
    0.3297   49.9072   17.7366 H   0  0  0  0  0  0
   -0.8348   51.0530   19.6624 H   0  0  0  0  0  0
    0.6161   51.8853   20.1160 H   0  0  0  0  0  0
   -4.1305   46.5577   18.8308 H   0  0  0  0  0  0
   -3.9227   44.8189   17.1135 H   0  0  0  0  0  0
   -0.0955   45.7381   20.0980 H   0  0  0  0  0  0
    2.6728   50.2082   17.4055 H   0  0  0  0  0  0
  1  6  2  0  0  0
  1  2  1  0  0  0
  1 40  1  0  0  0
  2  3  2  0  0  0
  2 41  1  0  0  0
  3  4  1  0  0  0
  3 42  1  0  0  0
  4  5  2  0  0  0
  4  7  1  0  0  0
  5  6  1  0  0  0
  5 43  1  0  0  0
  6 44  1  0  0  0
  7  8  1  0  0  0
  7 45  1  0  0  0
  7 46  1  0  0  0
  8  9  1  0  0  0
  9 10  1  0  0  0
  9 14  1  0  0  0
  9 11  1  0  0  0
 11 12  1  0  0  0
 11 47  1  0  0  0
 11 48  1  0  0  0
 12 13  1  0  0  0
 12 49  1  0  0  0
 12 50  1  0  0  0
 13 14  1  0  0  0
 13 51  1  0  0  0
 13 52  1  0  0  0
 14 15  1  0  0  0
 14 16  1  0  0  0
 16 17  1  0  0  0
 16 53  1  0  0  0
 17 18  2  0  0  0
 17 19  1  0  0  0
 19 20  1  0  0  0
 19 24  1  0  0  0
 19 21  1  0  0  0
 21 22  1  0  0  0
 21 54  1  0  0  0
 21 55  1  0  0  0
 22 23  1  0  0  0
 22 30  1  0  0  0
 23 24  1  0  0  0
 23 56  1  0  0  0
 23 57  1  0  0  0
 24 29  1  0  0  0
 24 25  1  0  0  0
 25 26  1  0  0  0
 25 58  1  0  0  0
 25 59  1  0  0  0
 26 27  1  0  0  0
 26 60  1  0  0  0
 26 61  1  0  0  0
 27 28  1  0  0  0
 27 62  1  0  0  0
 27 70  1  0  0  0
 28 29  1  0  0  0
 28 63  1  0  0  0
 28 64  1  0  0  0
 29 65  1  0  0  0
 29 66  1  0  0  0
 30 31  2  0  0  0
 30 32  1  0  0  0
 32 37  2  0  0  0
 32 33  1  0  0  0
 33 34  2  0  0  0
 33 67  1  0  0  0
 34 35  1  0  0  0
 34 68  1  0  0  0
 35 36  2  0  0  0
 35 39  1  0  0  0
 36 37  1  0  0  0
 36 38  1  0  0  0
 37 69  1  0  0  0
M  CHG  1  27   1
M  END
> <i_i_glide_confnum>
702

> <i_i_glide_lignum>
1241

> <i_i_glide_posenum>
398

> <i_i_glide_rotatable_bonds>
8

> <i_m_Source_File_Index>
266

> <b_m_subgroup_collapsed>
0

> <r_i_docking_score>
-4.43018

> <r_i_glide_ecoul>
-5.37705

> <r_i_glide_eff_state_penalty>
0

> <r_i_glide_einternal>
1.58829

> <r_i_glide_emodel>
-53.5822

> <r_i_glide_energy>
-39.5485

> <r_i_glide_erotb>
0.583969

> <r_i_glide_esite>
-0.1

> <r_i_glide_evdw>
-34.1714

> <r_i_glide_gscore>
-4.43018

> <r_i_glide_hbond>
-0.155104

> <r_i_glide_ligand_efficiency>
-0.123061

> <r_i_glide_ligand_efficiency_ln>
-0.966546

> <r_i_glide_ligand_efficiency_sa>
-0.406337

> <r_i_glide_lipo>
-2.21089

> <r_i_glide_metal>
0

> <r_i_glide_rewards>
-0.0330231

> <s_i_glide_gridfile>
wee1_glide-grid

> <s_m_Source_File>
wee1_decoys_glide_SP.sdf

> <s_m_Source_Path>
/Users/zhangxujun/Desktop

> <s_m_entry_id>
541

> <s_m_entry_name>
wee1_decoys_glide_SP.266

> <s_m_subgroup_title>
wee1_decoys_glide_SP

> <s_m_subgroupid>
wee1_decoys_glide_SP


$$$$
