ZINC39884976_3629
                    3D
 Schrodinger Suite 2024-2.
 49 52  0  0  1  0            999 V2000
    6.7044   55.0848   23.4150 C   0  0  0  0  0  0
    7.0857   55.2971   22.0922 C   0  0  0  0  0  0
    6.2276   54.9215   21.0611 C   0  0  0  0  0  0
    5.0053   54.3150   21.3421 C   0  0  0  0  0  0
    4.6315   54.0967   22.6660 C   0  0  0  0  0  0
    5.4772   54.4911   23.7106 C   0  0  0  0  0  0
    5.0723   54.3058   25.1333 C   0  0  0  0  0  0
    5.7326   54.3552   26.3547 C   0  0  0  0  0  0
    4.7891   54.0584   27.3412 C   0  0  0  0  0  0
    3.5793   53.8446   26.6939 C   0  0  0  0  0  0
    3.7663   54.0177   25.3615 O   0  0  0  0  0  0
    2.2460   53.4705   27.1065 C   0  0  0  0  0  0
    1.8513   52.7968   28.2151 C   0  0  0  0  0  0
    2.7635   52.3993   29.2424 C   0  0  0  0  0  0
    3.5036   52.0969   30.0812 N   0  0  0  0  0  0
    0.4574   52.4468   28.4334 C   0  0  0  0  0  0
   -0.0084   52.3804   29.5704 O   0  0  0  0  0  0
   -0.2461   52.2159   27.2985 N   0  0  0  0  0  0
   -1.5816   51.8651   27.1214 C   0  0  0  0  0  0
   -2.2928   51.9290   25.9029 C   0  0  0  0  0  0
   -3.6284   51.4379   26.0573 C   0  0  0  0  0  0
   -3.9128   51.0767   27.3849 C   0  0  0  0  0  0
   -2.5663   51.2966   28.4338 S   0  0  0  0  0  0
   -5.2129   50.4641   27.8860 C   0  0  0  0  0  0
   -6.3169   50.6729   26.8327 C   0  0  0  0  0  0
   -5.8225   50.3109   25.4242 C   0  0  0  0  0  0
   -4.6808   51.2382   24.9526 C   0  0  0  0  0  0
   -1.6765   52.3865   24.6558 C   0  0  0  0  0  0
   -0.4593   52.4942   24.5143 O   0  0  0  0  0  0
   -2.4983   52.7718   23.6815 N   0  0  0  0  0  0
    6.6935   55.1955   19.4235 Cl  0  0  0  0  0  0
    7.3729   55.3922   24.2055 H   0  0  0  0  0  0
    8.0406   55.7528   21.8731 H   0  0  0  0  0  0
    4.3464   54.0194   20.5380 H   0  0  0  0  0  0
    3.6774   53.6332   22.8724 H   0  0  0  0  0  0
    6.7799   54.5595   26.5155 H   0  0  0  0  0  0
    4.9727   53.9929   28.4040 H   0  0  0  0  0  0
    1.5178   53.7737   26.3654 H   0  0  0  0  0  0
    0.2378   52.3586   26.4228 H   0  0  0  0  0  0
   -5.5145   50.8918   28.8426 H   0  0  0  0  0  0
   -5.0682   49.3951   28.0510 H   0  0  0  0  0  0
   -6.6545   51.7108   26.8483 H   0  0  0  0  0  0
   -7.1878   50.0690   27.0914 H   0  0  0  0  0  0
   -6.6496   50.3587   24.7144 H   0  0  0  0  0  0
   -5.4807   49.2740   25.4166 H   0  0  0  0  0  0
   -4.2391   50.8081   24.0531 H   0  0  0  0  0  0
   -5.1030   52.2027   24.6674 H   0  0  0  0  0  0
   -3.4960   52.6753   23.7871 H   0  0  0  0  0  0
   -2.1030   53.1252   22.8259 H   0  0  0  0  0  0
  1  6  2  0  0  0
  1  2  1  0  0  0
  1 32  1  0  0  0
  2  3  2  0  0  0
  2 33  1  0  0  0
  3  4  1  0  0  0
  3 31  1  0  0  0
  4  5  2  0  0  0
  4 34  1  0  0  0
  5  6  1  0  0  0
  5 35  1  0  0  0
  6  7  1  0  0  0
  7 11  1  0  0  0
  7  8  2  0  0  0
  8  9  1  0  0  0
  8 36  1  0  0  0
  9 10  2  0  0  0
  9 37  1  0  0  0
 10 11  1  0  0  0
 10 12  1  0  0  0
 12 13  2  0  0  0
 12 38  1  0  0  0
 13 14  1  0  0  0
 13 16  1  0  0  0
 14 15  3  0  0  0
 16 17  2  0  0  0
 16 18  1  0  0  0
 18 19  1  0  0  0
 18 39  1  0  0  0
 19 23  1  0  0  0
 19 20  2  0  0  0
 20 21  1  0  0  0
 20 28  1  0  0  0
 21 27  1  0  0  0
 21 22  2  0  0  0
 22 23  1  0  0  0
 22 24  1  0  0  0
 24 25  1  0  0  0
 24 40  1  0  0  0
 24 41  1  0  0  0
 25 26  1  0  0  0
 25 42  1  0  0  0
 25 43  1  0  0  0
 26 27  1  0  0  0
 26 44  1  0  0  0
 26 45  1  0  0  0
 27 46  1  0  0  0
 27 47  1  0  0  0
 28 29  2  0  0  0
 28 30  1  0  0  0
 30 48  1  0  0  0
 30 49  1  0  0  0
M  END
> <i_i_glide_confnum>
67

> <i_i_glide_lignum>
3630

> <i_i_glide_posenum>
307

> <i_i_glide_rotatable_bonds>
7

> <i_m_Source_File_Index>
978

> <b_m_subgroup_collapsed>
0

> <r_i_docking_score>
-5.24518

> <r_i_glide_ecoul>
-1.61182

> <r_i_glide_eff_state_penalty>
0

> <r_i_glide_einternal>
4.66073

> <r_i_glide_emodel>
-56.2006

> <r_i_glide_energy>
-41.3137

> <r_i_glide_erotb>
0.589344

> <r_i_glide_esite>
-0.010334

> <r_i_glide_evdw>
-39.7018

> <r_i_glide_gscore>
-5.24518

> <r_i_glide_hbond>
-0.203551

> <r_i_glide_ligand_efficiency>
-0.169199

> <r_i_glide_ligand_efficiency_ln>
-1.18295

> <r_i_glide_ligand_efficiency_sa>
-0.53152

> <r_i_glide_lipo>
-2.50365

> <r_i_glide_metal>
0

> <r_i_glide_rewards>
-0.890122

> <s_i_glide_gridfile>
wee1_glide-grid

> <s_m_Source_File>
wee1_decoys_glide_SP.sdf

> <s_m_Source_Path>
/Users/zhangxujun/Desktop

> <s_m_entry_id>
1253

> <s_m_entry_name>
wee1_decoys_glide_SP.978

> <s_m_subgroup_title>
wee1_decoys_glide_SP

> <s_m_subgroupid>
wee1_decoys_glide_SP


$$$$
