ZINC03312834_2646
                    3D
 Schrodinger Suite 2024-2.
 42 45  0  0  1  0            999 V2000
    6.6607   54.7489   19.2366 C   0  0  0  0  0  0
    6.6161   54.8382   17.8479 C   0  0  0  0  0  0
    5.4127   54.6322   17.1802 C   0  0  0  0  0  0
    4.2555   54.3326   17.8922 C   0  0  0  0  0  0
    4.3047   54.2406   19.2800 C   0  0  0  0  0  0
    5.5038   54.4532   19.9718 C   0  0  0  0  0  0
    5.5047   54.3326   21.4746 C   0  0  0  0  0  0
    4.5982   53.6624   22.1490 N   0  0  0  0  0  0
    4.8925   53.7842   23.5004 N   0  0  0  0  0  0
    5.9795   54.5057   23.6080 C   0  0  0  0  0  0
    6.4148   54.8897   22.3573 N   0  0  0  0  0  0
    7.5037   55.6966   22.0814 N   0  0  0  0  0  0
    6.7038   55.0650   25.1279 S   0  0  0  0  0  0
    5.9814   53.9329   26.3758 C   0  0  0  0  0  0
    4.5366   54.3253   26.7596 C   0  0  0  0  0  0
    3.9046   55.1176   26.0607 O   0  0  0  0  0  0
    3.9378   53.6951   27.9813 C   0  0  0  0  0  0
    4.7000   52.8967   28.8501 C   0  0  0  0  0  0
    4.1369   52.3566   30.0050 C   0  0  0  0  0  0
    2.8097   52.6161   30.3129 C   0  0  0  0  0  0
    2.0166   53.3686   29.4371 C   0  0  0  0  0  0
    2.5829   53.9214   28.2882 C   0  0  0  0  0  0
    0.6853   53.6207   29.7017 O   0  0  0  0  0  0
    0.0964   52.6481   30.5754 C   0  0  0  0  0  0
    0.9879   52.4543   31.8240 C   0  0  0  0  0  0
    2.3206   52.0653   31.4767 O   0  0  0  0  0  0
    5.3562   54.7437   15.4590 Cl  0  0  0  0  0  0
    7.6137   54.8905   19.7200 H   0  0  0  0  0  0
    7.5143   55.0611   17.2916 H   0  0  0  0  0  0
    3.3229   54.1685   17.3731 H   0  0  0  0  0  0
    3.3973   54.0080   19.8182 H   0  0  0  0  0  0
    7.3703   56.6177   22.4644 H   0  0  0  0  0  0
    8.3642   55.2877   22.4328 H   0  0  0  0  0  0
    6.6208   53.9933   27.2551 H   0  0  0  0  0  0
    5.9961   52.8981   26.0360 H   0  0  0  0  0  0
    5.7381   52.6778   28.6535 H   0  0  0  0  0  0
    4.7313   51.7495   30.6703 H   0  0  0  0  0  0
    1.9590   54.5240   27.6428 H   0  0  0  0  0  0
   -0.8956   52.9737   30.8729 H   0  0  0  0  0  0
   -0.0137   51.6963   30.0521 H   0  0  0  0  0  0
    1.0129   53.3790   32.3976 H   0  0  0  0  0  0
    0.5750   51.6873   32.4776 H   0  0  0  0  0  0
  1  6  2  0  0  0
  1  2  1  0  0  0
  1 28  1  0  0  0
  2  3  2  0  0  0
  2 29  1  0  0  0
  3  4  1  0  0  0
  3 27  1  0  0  0
  4  5  2  0  0  0
  4 30  1  0  0  0
  5  6  1  0  0  0
  5 31  1  0  0  0
  6  7  1  0  0  0
  7 11  1  0  0  0
  7  8  2  0  0  0
  8  9  1  0  0  0
  9 10  2  0  0  0
 10 11  1  0  0  0
 10 13  1  0  0  0
 11 12  1  0  0  0
 12 32  1  0  0  0
 12 33  1  0  0  0
 13 14  1  0  0  0
 14 15  1  0  0  0
 14 34  1  0  0  0
 14 35  1  0  0  0
 15 16  2  0  0  0
 15 17  1  0  0  0
 17 22  2  0  0  0
 17 18  1  0  0  0
 18 19  2  0  0  0
 18 36  1  0  0  0
 19 20  1  0  0  0
 19 37  1  0  0  0
 20 26  1  0  0  0
 20 21  2  0  0  0
 21 22  1  0  0  0
 21 23  1  0  0  0
 22 38  1  0  0  0
 23 24  1  0  0  0
 24 25  1  0  0  0
 24 39  1  0  0  0
 24 40  1  0  0  0
 25 26  1  0  0  0
 25 41  1  0  0  0
 25 42  1  0  0  0
M  END
> <i_i_glide_confnum>
192

> <i_i_glide_lignum>
2647

> <i_i_glide_posenum>
398

> <i_i_glide_rotatable_bonds>
5

> <i_m_Source_File_Index>
428

> <b_m_subgroup_collapsed>
0

> <r_i_docking_score>
-6.90211

> <r_i_glide_ecoul>
-6.30868

> <r_i_glide_eff_state_penalty>
0

> <r_i_glide_einternal>
2.66455

> <r_i_glide_emodel>
-66.9667

> <r_i_glide_energy>
-48.2424

> <r_i_glide_erotb>
0.483764

> <r_i_glide_esite>
0

> <r_i_glide_evdw>
-41.9337

> <r_i_glide_gscore>
-6.90211

> <r_i_glide_hbond>
-0.558617

> <r_i_glide_ligand_efficiency>
-0.255634

> <r_i_glide_ligand_efficiency_ln>
-1.6067

> <r_i_glide_ligand_efficiency_sa>
-0.766901

> <r_i_glide_lipo>
-1.73713

> <r_i_glide_metal>
0

> <r_i_glide_rewards>
-2.04714

> <s_i_glide_gridfile>
wee1_glide-grid

> <s_m_Source_File>
wee1_decoys_glide_SP.sdf

> <s_m_Source_Path>
/Users/zhangxujun/Desktop

> <s_m_entry_id>
703

> <s_m_entry_name>
wee1_decoys_glide_SP.428

> <s_m_subgroup_title>
wee1_decoys_glide_SP

> <s_m_subgroupid>
wee1_decoys_glide_SP


$$$$
