ZINC08437641_3995
                    3D
 Schrodinger Suite 2024-2.
 58 62  0  0  1  0            999 V2000
   -0.4406   52.4235   30.1681 C   0  0  0  0  0  0
    0.5269   53.4614   30.0220 O   0  0  0  0  0  0
    1.2768   53.5143   28.8638 C   0  0  0  0  0  0
    2.2840   54.4768   28.8043 C   0  0  0  0  0  0
    3.0933   54.5810   27.6740 C   0  0  0  0  0  0
    2.8850   53.7660   26.5546 C   0  0  0  0  0  0
    1.9047   52.7827   26.6485 C   0  0  0  0  0  0
    1.1003   52.6538   27.7744 C   0  0  0  0  0  0
    3.7591   53.8966   25.3280 C   0  0  0  0  0  0
    3.4936   53.6993   23.9271 C   0  0  0  0  0  0
    4.7538   53.8583   23.3694 C   0  0  0  0  0  0
    5.6221   54.2231   24.3424 N   0  0  0  0  0  0
    6.6047   54.4163   24.2119 H   0  0  0  0  0  0
    5.0217   54.2584   25.5294 N   0  0  0  0  0  0
    5.1592   53.6732   22.0741 O   0  0  0  0  0  0
    4.1890   53.1714   21.2641 C   0  0  0  0  0  0
    2.8843   52.9957   21.5882 C   0  0  0  0  0  0
    2.3094   53.3392   22.9856 C   0  0  1  0  0  0
    1.7170   54.2440   22.8374 H   0  0  0  0  0  0
    1.3164   52.2805   23.4725 C   0  0  0  0  0  0
    1.6027   50.9196   23.3273 C   0  0  0  0  0  0
    0.7059   49.9541   23.7702 C   0  0  0  0  0  0
   -0.4955   50.3238   24.3938 C   0  0  0  0  0  0
   -0.7836   51.6908   24.5529 C   0  0  0  0  0  0
    0.1056   52.6569   24.0651 C   0  0  0  0  0  0
   -2.0220   52.1483   25.3170 C   0  0  0  0  0  0
   -3.2614   52.8917   24.2104 S   0  0  0  0  0  0
   -4.7142   52.9962   25.2798 C   0  0  0  0  0  0
   -5.7037   53.7057   24.9310 N   0  0  0  0  0  0
   -6.8059   53.6647   25.8592 C   0  0  0  0  0  0
   -6.5104   52.7623   27.0613 C   0  0  0  0  0  0
   -4.8569   52.0974   26.8256 S   0  0  0  0  0  0
   -1.4082   49.4065   24.8824 O   0  0  0  0  0  0
   -1.1062   48.0152   24.8280 C   0  0  0  0  0  0
    1.9797   52.4964   20.5992 C   0  0  0  0  0  0
    1.2229   52.0950   19.8204 N   0  0  0  0  0  0
    4.7691   52.9007   20.0541 N   0  0  0  0  0  0
   -0.8934   52.4975   31.1546 H   0  0  0  0  0  0
   -1.2383   52.4967   29.4289 H   0  0  0  0  0  0
    0.0103   51.4358   30.0815 H   0  0  0  0  0  0
    2.4495   55.1330   29.6452 H   0  0  0  0  0  0
    3.8947   55.2973   27.6699 H   0  0  0  0  0  0
    1.7932   52.0638   25.8662 H   0  0  0  0  0  0
    0.3578   51.8695   27.7871 H   0  0  0  0  0  0
    2.5295   50.6009   22.8718 H   0  0  0  0  0  0
    0.9773   48.9186   23.6371 H   0  0  0  0  0  0
   -0.1236   53.7043   24.1945 H   0  0  0  0  0  0
   -1.7228   52.8952   26.0525 H   0  0  0  0  0  0
   -2.4342   51.3180   25.8880 H   0  0  0  0  0  0
   -7.6696   53.2919   25.3056 H   0  0  0  0  0  0
   -6.9917   54.6906   26.1797 H   0  0  0  0  0  0
   -6.5070   53.3099   28.0048 H   0  0  0  0  0  0
   -7.1898   51.9100   27.1195 H   0  0  0  0  0  0
   -1.8688   47.4598   25.3765 H   0  0  0  0  0  0
   -1.1039   47.6541   23.7987 H   0  0  0  0  0  0
   -0.1415   47.7842   25.2818 H   0  0  0  0  0  0
    4.3149   52.3091   19.3691 H   0  0  0  0  0  0
    5.5996   53.3899   19.7605 H   0  0  0  0  0  0
  1  2  1  0  0  0
  1 38  1  0  0  0
  1 39  1  0  0  0
  1 40  1  0  0  0
  2  3  1  0  0  0
  3  8  2  0  0  0
  3  4  1  0  0  0
  4  5  2  0  0  0
  4 41  1  0  0  0
  5  6  1  0  0  0
  5 42  1  0  0  0
  6  7  2  0  0  0
  6  9  1  0  0  0
  7  8  1  0  0  0
  7 43  1  0  0  0
  8 44  1  0  0  0
  9 14  2  0  0  0
  9 10  1  0  0  0
 10 18  1  0  0  0
 10 11  2  0  0  0
 11 12  1  0  0  0
 11 15  1  0  0  0
 12 13  1  0  0  0
 12 14  1  0  0  0
 15 16  1  0  0  0
 16 17  2  0  0  0
 16 37  1  0  0  0
 17 18  1  0  0  0
 17 35  1  0  0  0
 18 19  1  0  0  0
 18 20  1  0  0  0
 20 25  2  0  0  0
 20 21  1  0  0  0
 21 22  2  0  0  0
 21 45  1  0  0  0
 22 23  1  0  0  0
 22 46  1  0  0  0
 23 24  2  0  0  0
 23 33  1  0  0  0
 24 25  1  0  0  0
 24 26  1  0  0  0
 25 47  1  0  0  0
 26 27  1  0  0  0
 26 48  1  0  0  0
 26 49  1  0  0  0
 27 28  1  0  0  0
 28 32  1  0  0  0
 28 29  2  0  0  0
 29 30  1  0  0  0
 30 31  1  0  0  0
 30 50  1  0  0  0
 30 51  1  0  0  0
 31 32  1  0  0  0
 31 52  1  0  0  0
 31 53  1  0  0  0
 33 34  1  0  0  0
 34 54  1  0  0  0
 34 55  1  0  0  0
 34 56  1  0  0  0
 35 36  3  0  0  0
 37 57  1  0  0  0
 37 58  1  0  0  0
M  END
> <i_i_glide_confnum>
48

> <i_i_glide_lignum>
3996

> <i_i_glide_posenum>
349

> <i_i_glide_rotatable_bonds>
8

> <i_m_Source_File_Index>
5137

> <b_m_subgroup_collapsed>
0

> <r_i_docking_score>
-5.03718

> <r_i_glide_ecoul>
-1.75248

> <r_i_glide_eff_state_penalty>
0

> <r_i_glide_einternal>
7.3799

> <r_i_glide_emodel>
-58.2912

> <r_i_glide_energy>
-46.9171

> <r_i_glide_erotb>
0.400057

> <r_i_glide_esite>
-0.0735984

> <r_i_glide_evdw>
-45.1647

> <r_i_glide_gscore>
-5.03718

> <r_i_glide_hbond>
0

> <r_i_glide_ligand_efficiency>
-0.143919

> <r_i_glide_ligand_efficiency_ln>
-1.10577

> <r_i_glide_ligand_efficiency_sa>
-0.47077

> <r_i_glide_lipo>
-2.70846

> <r_i_glide_metal>
0

> <r_i_glide_rewards>
-0.134074

> <s_i_glide_gridfile>
wee1_glide-grid

> <s_m_Source_File>
wee1_decoys_glide_SP.sdf

> <s_m_Source_Path>
/Users/zhangxujun/Desktop

> <s_m_entry_id>
5412

> <s_m_entry_name>
wee1_decoys_glide_SP.5137

> <s_m_subgroup_title>
wee1_decoys_glide_SP

> <s_m_subgroupid>
wee1_decoys_glide_SP


$$$$
