ZINC36061356_5963
                    3D
 Schrodinger Suite 2024-2.
 63 66  0  0  1  0            999 V2000
   -1.7195   51.2996   29.2097 C   0  0  0  0  0  0
   -0.5370   51.7846   28.3828 C   0  0  0  0  0  0
   -0.5602   52.2122   27.0821 C   0  0  0  0  0  0
    0.7879   52.6231   26.3770 C   0  0  1  0  0  0
    0.7044   53.6440   26.0132 H   0  0  0  0  0  0
    1.9053   52.7036   27.3902 N   0  0  0  0  0  0
    3.1554   53.3293   27.2767 C   0  0  0  0  0  0
    3.8853   53.1882   28.4033 C   0  0  0  0  0  0
    3.1242   52.2605   29.6660 S   0  0  0  0  0  0
    1.6719   52.1829   28.6671 C   0  0  0  0  0  0
    0.5913   51.7176   29.1358 N   0  0  0  0  0  0
    3.6753   54.0793   26.1300 C   0  0  0  0  0  0
    4.9779   54.3266   25.8464 C   0  0  0  0  0  0
    6.0526   53.9741   26.4621 O   0  5  0  0  0  0
    5.3161   55.0975   24.7567 N   0  0  0  0  0  0
    6.5181   55.0814   23.9154 C   0  0  0  0  0  0
    6.3600   54.4769   22.5034 C   0  0  1  0  0  0
    7.3564   54.4908   22.0592 H   0  0  0  0  0  0
    5.6362   53.1320   22.4021 C   0  0  0  0  0  0
    5.0911   53.0889   20.9906 C   0  0  0  0  0  0
    5.1012   54.5497   20.5453 C   0  0  0  0  0  0
    5.5388   55.2969   21.6822 O   0  0  0  0  0  0
    1.0876   51.7844   25.1192 C   0  0  0  0  0  0
    0.7000   50.4341   25.0590 C   0  0  0  0  0  0
    0.9066   49.6991   23.8968 C   0  0  0  0  0  0
    1.4724   50.3090   22.7809 C   0  0  0  0  0  0
    1.8097   51.6592   22.8112 C   0  0  0  0  0  0
    1.6148   52.3950   23.9756 C   0  0  0  0  0  0
    1.7501   49.3856   21.3505 Cl  0  0  0  0  0  0
   -1.8417   52.2346   26.3150 C   0  0  0  0  0  0
   -2.9470   52.0964   26.8409 O   0  0  0  0  0  0
   -1.7020   52.3922   24.9686 O   0  0  0  0  0  0
   -2.7309   52.0710   24.0106 C   0  0  0  0  0  0
   -3.1480   50.5823   24.1224 C   0  0  0  0  0  0
   -2.0554   52.2728   22.6426 C   0  0  0  0  0  0
   -3.9613   53.0117   24.1340 C   0  0  0  0  0  0
   -2.2197   50.4976   28.6890 H   0  0  0  0  0  0
   -1.4697   50.9490   30.2146 H   0  0  0  0  0  0
   -2.4536   52.0873   29.2805 H   0  0  0  0  0  0
    4.8718   53.5851   28.5805 H   0  0  0  0  0  0
    2.9419   54.4994   25.4628 H   0  0  0  0  0  0
    4.5591   55.5848   24.3036 H   0  0  0  0  0  0
    6.8550   56.1094   23.8051 H   0  0  0  0  0  0
    7.3355   54.5773   24.4309 H   0  0  0  0  0  0
    6.2840   52.2979   22.6534 H   0  0  0  0  0  0
    4.8186   53.0899   23.1232 H   0  0  0  0  0  0
    5.7086   52.4750   20.3327 H   0  0  0  0  0  0
    4.0901   52.6644   20.9629 H   0  0  0  0  0  0
    5.7938   54.7066   19.7182 H   0  0  0  0  0  0
    4.1184   54.8925   20.2219 H   0  0  0  0  0  0
    0.2647   49.9429   25.9190 H   0  0  0  0  0  0
    0.6456   48.6533   23.8695 H   0  0  0  0  0  0
    2.2072   52.1373   21.9314 H   0  0  0  0  0  0
    1.8547   53.4458   23.9688 H   0  0  0  0  0  0
   -3.6839   50.3722   25.0479 H   0  0  0  0  0  0
   -3.7978   50.2848   23.2990 H   0  0  0  0  0  0
   -2.2740   49.9299   24.1025 H   0  0  0  0  0  0
   -1.6953   53.2962   22.5446 H   0  0  0  0  0  0
   -1.1926   51.6175   22.5194 H   0  0  0  0  0  0
   -2.7355   52.0705   21.8156 H   0  0  0  0  0  0
   -3.7903   53.9714   23.6495 H   0  0  0  0  0  0
   -4.8474   52.5710   23.6809 H   0  0  0  0  0  0
   -4.2505   53.2277   25.1605 H   0  0  0  0  0  0
  1  2  1  0  0  0
  1 37  1  0  0  0
  1 38  1  0  0  0
  1 39  1  0  0  0
  2 11  1  0  0  0
  2  3  2  0  0  0
  3  4  1  0  0  0
  3 30  1  0  0  0
  4  5  1  0  0  0
  4  6  1  0  0  0
  4 23  1  0  0  0
  6 10  1  0  0  0
  6  7  1  0  0  0
  7  8  2  0  0  0
  7 12  1  0  0  0
  8  9  1  0  0  0
  8 40  1  0  0  0
  9 10  1  0  0  0
 10 11  2  0  0  0
 12 13  2  0  0  0
 12 41  1  0  0  0
 13 14  1  0  0  0
 13 15  1  0  0  0
 15 16  1  0  0  0
 15 42  1  0  0  0
 16 17  1  0  0  0
 16 43  1  0  0  0
 16 44  1  0  0  0
 17 18  1  0  0  0
 17 22  1  0  0  0
 17 19  1  0  0  0
 19 20  1  0  0  0
 19 45  1  0  0  0
 19 46  1  0  0  0
 20 21  1  0  0  0
 20 47  1  0  0  0
 20 48  1  0  0  0
 21 22  1  0  0  0
 21 49  1  0  0  0
 21 50  1  0  0  0
 23 28  2  0  0  0
 23 24  1  0  0  0
 24 25  2  0  0  0
 24 51  1  0  0  0
 25 26  1  0  0  0
 25 52  1  0  0  0
 26 27  2  0  0  0
 26 29  1  0  0  0
 27 28  1  0  0  0
 27 53  1  0  0  0
 28 54  1  0  0  0
 30 31  2  0  0  0
 30 32  1  0  0  0
 32 33  1  0  0  0
 33 34  1  0  0  0
 33 35  1  0  0  0
 33 36  1  0  0  0
 34 55  1  0  0  0
 34 56  1  0  0  0
 34 57  1  0  0  0
 35 58  1  0  0  0
 35 59  1  0  0  0
 35 60  1  0  0  0
 36 61  1  0  0  0
 36 62  1  0  0  0
 36 63  1  0  0  0
M  CHG  1  14  -1
M  END
> <i_i_glide_confnum>
46

> <i_i_glide_lignum>
5964

> <i_i_glide_posenum>
397

> <i_i_glide_rotatable_bonds>
8

> <i_m_Source_File_Index>
2326

> <b_m_subgroup_collapsed>
0

> <r_i_docking_score>
-4.91047

> <r_i_glide_ecoul>
-2.85965

> <r_i_glide_eff_state_penalty>
0

> <r_i_glide_einternal>
14.1068

> <r_i_glide_emodel>
-47.8122

> <r_i_glide_energy>
-42.6895

> <r_i_glide_erotb>
0.484594

> <r_i_glide_esite>
-0.0136331

> <r_i_glide_evdw>
-39.8298

> <r_i_glide_gscore>
-4.91047

> <r_i_glide_hbond>
0

> <r_i_glide_ligand_efficiency>
-0.144426

> <r_i_glide_ligand_efficiency_ln>
-1.08486

> <r_i_glide_ligand_efficiency_sa>
-0.467883

> <r_i_glide_lipo>
-2.50707

> <r_i_glide_metal>
0

> <r_i_glide_rewards>
-0.453916

> <s_i_glide_gridfile>
wee1_glide-grid

> <s_m_Source_File>
wee1_decoys_glide_SP.sdf

> <s_m_Source_Path>
/Users/zhangxujun/Desktop

> <s_m_entry_id>
2601

> <s_m_entry_name>
wee1_decoys_glide_SP.2326

> <s_m_subgroup_title>
wee1_decoys_glide_SP

> <s_m_subgroupid>
wee1_decoys_glide_SP


$$$$
