ZINC45254024_6125
                    3D
 Schrodinger Suite 2024-2.
 56 60  0  0  1  0            999 V2000
   -4.5231   51.4458   24.2226 C   0  0  0  0  0  0
   -3.2642   51.8562   25.0131 C   0  0  0  0  0  0
   -2.7143   50.6752   25.8343 C   0  0  0  0  0  0
   -1.3266   50.6867   25.4672 N   0  0  0  0  0  0
   -1.2076   51.4661   24.3209 C   0  0  0  0  0  0
   -2.2108   52.2130   24.0660 N   0  0  0  0  0  0
    0.1690   51.1368   23.7278 C   0  0  1  0  0  0
    0.6104   50.0281   24.5886 N   0  0  0  0  0  0
   -0.3348   49.6967   25.3675 C   0  0  0  0  0  0
   -0.4955   48.4969   26.0812 N   0  0  0  0  0  0
    0.1918   50.5502   22.2812 C   0  0  0  0  0  0
    1.3896   50.0016   21.7899 C   0  0  0  0  0  0
    1.4681   49.4861   20.5003 C   0  0  0  0  0  0
    0.3387   49.4938   19.6809 C   0  0  0  0  0  0
   -0.8546   50.0387   20.1488 C   0  0  0  0  0  0
   -0.9304   50.5629   21.4368 C   0  0  0  0  0  0
    0.3763   49.0094   18.3950 O   0  0  0  0  0  0
    0.6351   47.6149   18.2423 C   0  0  0  0  0  0
   -0.1807   46.8745   18.9977 F   0  0  0  0  0  0
    0.3953   47.2983   16.9709 F   0  0  0  0  0  0
    1.9050   47.3094   18.5079 F   0  0  0  0  0  0
    1.1462   52.3349   23.8976 C   0  0  0  0  0  0
    1.5698   53.0889   22.7922 C   0  0  0  0  0  0
    2.5174   54.0968   22.9351 C   0  0  0  0  0  0
    3.0455   54.3862   24.1896 C   0  0  0  0  0  0
    2.6244   53.6826   25.3215 C   0  0  0  0  0  0
    1.6662   52.6746   25.1589 C   0  0  0  0  0  0
    3.1916   53.9749   26.6667 C   0  0  0  0  0  0
    2.3448   54.1288   27.7739 C   0  0  0  0  0  0
    2.8758   54.3987   29.0343 C   0  0  0  0  0  0
    4.2598   54.4968   29.1602 C   0  0  0  0  0  0
    5.1055   54.3478   28.1127 N   0  0  0  0  0  0
    4.5768   54.0920   26.8881 C   0  0  0  0  0  0
    5.4398   53.9321   25.8573 F   0  0  0  0  0  0
   -3.5579   53.0754   25.9126 C   0  0  0  0  0  0
   -4.3108   50.6580   23.4981 H   0  0  0  0  0  0
   -5.3014   51.0740   24.8898 H   0  0  0  0  0  0
   -4.9450   52.2920   23.6818 H   0  0  0  0  0  0
   -2.8395   50.7878   26.9124 H   0  0  0  0  0  0
   -3.1640   49.7249   25.5395 H   0  0  0  0  0  0
   -0.9227   48.5204   27.0195 H   0  0  0  0  0  0
    0.2804   47.8466   26.1032 H   0  0  0  0  0  0
    2.2708   49.9840   22.4164 H   0  0  0  0  0  0
    2.4074   49.0917   20.1401 H   0  0  0  0  0  0
   -1.7233   50.0569   19.5073 H   0  0  0  0  0  0
   -1.8733   50.9757   21.7599 H   0  0  0  0  0  0
    1.1873   52.8911   21.8016 H   0  0  0  0  0  0
    2.8425   54.6553   22.0693 H   0  0  0  0  0  0
    3.7845   55.1679   24.2814 H   0  0  0  0  0  0
    1.3517   52.1121   26.0263 H   0  0  0  0  0  0
    1.2732   54.0496   27.6566 H   0  0  0  0  0  0
    2.2243   54.5307   29.8851 H   0  0  0  0  0  0
    4.7180   54.7114   30.1120 H   0  0  0  0  0  0
   -4.3430   52.8509   26.6353 H   0  0  0  0  0  0
   -2.6750   53.3781   26.4773 H   0  0  0  0  0  0
   -3.8879   53.9358   25.3289 H   0  0  0  0  0  0
  1  2  1  0  0  0
  1 36  1  0  0  0
  1 37  1  0  0  0
  1 38  1  0  0  0
  2  6  1  0  0  0
  2  3  1  0  0  0
  2 35  1  0  0  0
  3  4  1  0  0  0
  3 39  1  0  0  0
  3 40  1  0  0  0
  4  9  1  0  0  0
  4  5  1  0  0  0
  5  6  2  0  0  0
  5  7  1  0  0  0
  7  8  1  0  0  0
  7 11  1  0  0  0
  7 22  1  0  0  0
  8  9  2  0  0  0
  9 10  1  0  0  0
 10 41  1  0  0  0
 10 42  1  0  0  0
 11 16  2  0  0  0
 11 12  1  0  0  0
 12 13  2  0  0  0
 12 43  1  0  0  0
 13 14  1  0  0  0
 13 44  1  0  0  0
 14 15  2  0  0  0
 14 17  1  0  0  0
 15 16  1  0  0  0
 15 45  1  0  0  0
 16 46  1  0  0  0
 17 18  1  0  0  0
 18 19  1  0  0  0
 18 20  1  0  0  0
 18 21  1  0  0  0
 22 27  2  0  0  0
 22 23  1  0  0  0
 23 24  2  0  0  0
 23 47  1  0  0  0
 24 25  1  0  0  0
 24 48  1  0  0  0
 25 26  2  0  0  0
 25 49  1  0  0  0
 26 27  1  0  0  0
 26 28  1  0  0  0
 27 50  1  0  0  0
 28 33  2  0  0  0
 28 29  1  0  0  0
 29 30  2  0  0  0
 29 51  1  0  0  0
 30 31  1  0  0  0
 30 52  1  0  0  0
 31 32  2  0  0  0
 31 53  1  0  0  0
 32 33  1  0  0  0
 33 34  1  0  0  0
 35 54  1  0  0  0
 35 55  1  0  0  0
 35 56  1  0  0  0
M  END
> <i_i_glide_confnum>
138

> <i_i_glide_lignum>
6126

> <i_i_glide_posenum>
392

> <i_i_glide_rotatable_bonds>
5

> <i_m_Source_File_Index>
2749

> <b_m_subgroup_collapsed>
0

> <r_i_docking_score>
-4.70526

> <r_i_glide_ecoul>
-8.03699

> <r_i_glide_eff_state_penalty>
0

> <r_i_glide_einternal>
2.92158

> <r_i_glide_emodel>
-49.618

> <r_i_glide_energy>
-42.4317

> <r_i_glide_erotb>
0.347419

> <r_i_glide_esite>
-0.205954

> <r_i_glide_evdw>
-34.3947

> <r_i_glide_gscore>
-4.70526

> <r_i_glide_hbond>
-0.380218

> <r_i_glide_ligand_efficiency>
-0.134436

> <r_i_glide_ligand_efficiency_ln>
-1.03291

> <r_i_glide_ligand_efficiency_sa>
-0.439749

> <r_i_glide_lipo>
-2.4433

> <r_i_glide_metal>
0

> <r_i_glide_rewards>
0.902071

> <s_i_glide_gridfile>
wee1_glide-grid

> <s_m_Source_File>
wee1_decoys_glide_SP.sdf

> <s_m_Source_Path>
/Users/zhangxujun/Desktop

> <s_m_entry_id>
3024

> <s_m_entry_name>
wee1_decoys_glide_SP.2749

> <s_m_subgroup_title>
wee1_decoys_glide_SP

> <s_m_subgroupid>
wee1_decoys_glide_SP


$$$$
