ZINC35674443_4846
                    3D
 Schrodinger Suite 2024-2.
 73 76  0  0  1  0            999 V2000
    1.5067   54.7791   23.1275 C   0  0  0  0  0  0
    0.6729   53.8477   23.9601 C   0  0  0  0  0  0
    1.3416   52.5040   23.9192 C   0  0  1  0  0  0
    1.4754   52.2292   22.8719 H   0  0  0  0  0  0
    2.7509   52.6814   24.5951 C   0  0  1  0  0  0
    2.9363   51.6966   24.8804 H   0  0  0  0  0  0
    3.9078   53.2968   23.7107 C   0  0  0  0  0  0
    3.9926   53.0351   22.3279 C   0  0  0  0  0  0
    4.9618   53.6242   21.5008 C   0  0  0  0  0  0
    5.9003   54.4809   22.0805 C   0  0  0  0  0  0
    5.9068   54.6632   23.4546 C   0  0  0  0  0  0
    4.9222   54.1121   24.2739 C   0  0  0  0  0  0
    4.9473   54.4668   25.7513 C   0  0  0  0  0  0
    4.1500   53.4869   26.6023 C   0  0  0  0  0  0
    2.7288   53.3998   25.9937 N   0  3  2  0  0  0
    1.7817   52.7663   27.0539 C   0  0  0  0  0  0
    1.4479   53.6258   28.2797 C   0  0  0  0  0  0
    1.8737   54.9608   28.3641 C   0  0  0  0  0  0
    1.5979   55.7349   29.4826 C   0  0  0  0  0  0
    0.8778   55.1840   30.5309 C   0  0  0  0  0  0
    0.4220   53.8686   30.4652 C   0  0  0  0  0  0
    0.6939   53.0850   29.3390 C   0  0  0  0  0  0
    0.1575   51.6600   29.2880 C   0  0  0  0  0  0
    6.8673   55.1153   21.3383 O   0  0  0  0  0  0
    6.3905   56.1655   20.5040 C   0  0  0  0  0  0
    5.0595   53.3931   20.1394 O   0  0  0  0  0  0
    4.0978   52.5658   19.4912 C   0  0  0  0  0  0
    0.5331   51.3652   24.4054 N   0  0  0  0  0  0
   -0.7307   51.0620   24.0421 C   0  0  0  0  0  0
   -1.4386   51.7685   23.3260 O   0  0  0  0  0  0
   -1.2661   49.7635   24.5727 C   0  0  0  0  0  0
   -2.5349   49.7217   25.1606 C   0  0  0  0  0  0
   -3.0465   48.5170   25.6394 C   0  0  0  0  0  0
   -2.3085   47.3326   25.5034 C   0  0  0  0  0  0
   -1.0655   47.3781   24.8812 C   0  0  0  0  0  0
   -0.5295   48.5820   24.4383 C   0  0  0  0  0  0
   -2.7238   46.0922   25.9483 O   0  0  0  0  0  0
   -3.7679   46.0369   26.9126 C   0  0  0  0  0  0
    1.1034   55.6962   23.2501 H   0  0  0  0  0  0
    2.4580   55.0679   23.5472 H   0  0  0  0  0  0
    1.5952   54.4981   22.0812 H   0  0  0  0  0  0
   -0.3757   53.8720   23.6815 H   0  0  0  0  0  0
    0.7030   54.1719   24.9785 H   0  0  0  0  0  0
    3.2796   52.3638   21.8780 H   0  0  0  0  0  0
    6.6679   55.3018   23.8793 H   0  0  0  0  0  0
    4.5533   55.4746   25.8821 H   0  0  0  0  0  0
    5.9749   54.4992   26.1164 H   0  0  0  0  0  0
    4.1063   53.8581   27.6247 H   0  0  0  0  0  0
    4.5989   52.4992   26.6414 H   0  0  0  0  0  0
    0.8413   52.5420   26.5619 H   0  0  0  0  0  0
    2.2428   51.8212   27.3462 H   0  0  0  0  0  0
    2.4424   55.4203   27.5734 H   0  0  0  0  0  0
    1.9496   56.7562   29.5429 H   0  0  0  0  0  0
    0.7024   55.7804   31.4098 H   0  0  0  0  0  0
   -0.1391   53.4582   31.2945 H   0  0  0  0  0  0
   -0.4803   51.4274   30.1450 H   0  0  0  0  0  0
   -0.4355   51.5023   28.3844 H   0  0  0  0  0  0
    0.9772   50.9436   29.2719 H   0  0  0  0  0  0
    7.2326   56.6126   19.9753 H   0  0  0  0  0  0
    5.6835   55.8118   19.7525 H   0  0  0  0  0  0
    5.9096   56.9478   21.0930 H   0  0  0  0  0  0
    4.3329   52.5017   18.4278 H   0  0  0  0  0  0
    4.1095   51.5496   19.8863 H   0  0  0  0  0  0
    3.0922   52.9805   19.5840 H   0  0  0  0  0  0
    1.0068   50.6731   24.9636 H   0  0  0  0  0  0
   -3.1228   50.6220   25.2689 H   0  0  0  0  0  0
   -4.0152   48.5169   26.1094 H   0  0  0  0  0  0
   -0.4916   46.4712   24.7967 H   0  0  0  0  0  0
    0.4491   48.5791   23.9779 H   0  0  0  0  0  0
   -3.8732   45.0114   27.2682 H   0  0  0  0  0  0
   -4.7259   46.3459   26.4932 H   0  0  0  0  0  0
   -3.5421   46.6589   27.7797 H   0  0  0  0  0  0
    2.3879   54.3408   25.8607 H   0  0  0  0  0  0
  1  2  1  0  0  0
  1 39  1  0  0  0
  1 40  1  0  0  0
  1 41  1  0  0  0
  2  3  1  0  0  0
  2 42  1  0  0  0
  2 43  1  0  0  0
  3  4  1  0  0  0
  3  5  1  0  0  0
  3 28  1  0  0  0
  5  6  1  0  0  0
  5 15  1  0  0  0
  5  7  1  0  0  0
  7 12  2  0  0  0
  7  8  1  0  0  0
  8  9  2  0  0  0
  8 44  1  0  0  0
  9 10  1  0  0  0
  9 26  1  0  0  0
 10 11  2  0  0  0
 10 24  1  0  0  0
 11 12  1  0  0  0
 11 45  1  0  0  0
 12 13  1  0  0  0
 13 14  1  0  0  0
 13 46  1  0  0  0
 13 47  1  0  0  0
 14 15  1  0  0  0
 14 48  1  0  0  0
 14 49  1  0  0  0
 15 16  1  0  0  0
 15 73  1  0  0  0
 16 17  1  0  0  0
 16 50  1  0  0  0
 16 51  1  0  0  0
 17 22  2  0  0  0
 17 18  1  0  0  0
 18 19  2  0  0  0
 18 52  1  0  0  0
 19 20  1  0  0  0
 19 53  1  0  0  0
 20 21  2  0  0  0
 20 54  1  0  0  0
 21 22  1  0  0  0
 21 55  1  0  0  0
 22 23  1  0  0  0
 23 56  1  0  0  0
 23 57  1  0  0  0
 23 58  1  0  0  0
 24 25  1  0  0  0
 25 59  1  0  0  0
 25 60  1  0  0  0
 25 61  1  0  0  0
 26 27  1  0  0  0
 27 62  1  0  0  0
 27 63  1  0  0  0
 27 64  1  0  0  0
 28 29  1  0  0  0
 28 65  1  0  0  0
 29 30  2  0  0  0
 29 31  1  0  0  0
 31 36  2  0  0  0
 31 32  1  0  0  0
 32 33  2  0  0  0
 32 66  1  0  0  0
 33 34  1  0  0  0
 33 67  1  0  0  0
 34 35  2  0  0  0
 34 37  1  0  0  0
 35 36  1  0  0  0
 35 68  1  0  0  0
 36 69  1  0  0  0
 37 38  1  0  0  0
 38 70  1  0  0  0
 38 71  1  0  0  0
 38 72  1  0  0  0
M  CHG  1  15   1
M  END
> <i_i_glide_confnum>
74

> <i_i_glide_lignum>
4847

> <i_i_glide_posenum>
381

> <i_i_glide_rotatable_bonds>
10

> <i_m_Source_File_Index>
2953

> <b_m_subgroup_collapsed>
0

> <r_i_docking_score>
-4.4348

> <r_i_glide_ecoul>
-2.34977

> <r_i_glide_eff_state_penalty>
0

> <r_i_glide_einternal>
13.7782

> <r_i_glide_emodel>
-19.0445

> <r_i_glide_energy>
-18.7692

> <r_i_glide_erotb>
0.509186

> <r_i_glide_esite>
0

> <r_i_glide_evdw>
-16.4194

> <r_i_glide_gscore>
-4.4348

> <r_i_glide_hbond>
-0.0378676

> <r_i_glide_ligand_efficiency>
-0.123189

> <r_i_glide_ligand_efficiency_ln>
-0.967554

> <r_i_glide_ligand_efficiency_sa>
-0.406761

> <r_i_glide_lipo>
-3.60898

> <r_i_glide_metal>
0

> <r_i_glide_rewards>
-0.123706

> <s_i_glide_gridfile>
wee1_glide-grid

> <s_m_Source_File>
wee1_decoys_glide_SP.sdf

> <s_m_Source_Path>
/Users/zhangxujun/Desktop

> <s_m_entry_id>
3228

> <s_m_entry_name>
wee1_decoys_glide_SP.2953

> <s_m_subgroup_title>
wee1_decoys_glide_SP

> <s_m_subgroupid>
wee1_decoys_glide_SP


$$$$
