ZINC40415836_185
                    3D
 Schrodinger Suite 2024-2.
 60 63  0  0  1  0            999 V2000
    5.6501   52.1964   14.9141 C   0  0  0  0  0  0
    7.1199   52.2412   15.3212 C   0  0  0  0  0  0
    8.0719   51.6964   14.4521 C   0  0  0  0  0  0
    9.4220   51.6871   14.7930 C   0  0  0  0  0  0
    9.8338   52.2271   16.0082 C   0  0  0  0  0  0
    8.8983   52.7803   16.8801 C   0  0  0  0  0  0
    7.5315   52.7990   16.5485 C   0  0  0  0  0  0
    6.5417   53.2966   17.4231 N   0  0  0  0  0  0
    6.6825   54.1238   18.4773 C   0  0  0  0  0  0
    7.6975   54.7716   18.7329 O   0  0  0  0  0  0
    5.5897   54.0733   19.2645 N   0  0  0  0  0  0
    5.5030   54.3494   20.6441 C   0  0  0  0  0  0
    4.3363   53.9408   21.2987 C   0  0  0  0  0  0
    4.2544   54.0233   22.6909 C   0  0  0  0  0  0
    5.3463   54.4967   23.4424 C   0  0  0  0  0  0
    6.4434   54.8978   22.7581 N   0  3  0  0  0  0
    6.5434   54.8968   21.4161 C   0  0  0  0  0  0
    5.3070   54.6429   24.8795 N   0  0  0  0  0  0
    6.5535   54.8457   25.6438 C   0  0  0  0  0  0
    6.6719   53.9503   26.8889 C   0  0  0  0  0  0
    5.6776   54.2458   28.0259 C   0  0  0  0  0  0
    4.2890   53.7498   27.8754 N   0  0  0  0  0  0
    3.6887   53.6234   26.5338 C   0  0  0  0  0  0
    3.9986   54.7537   25.5494 C   0  0  0  0  0  0
    3.5317   53.6615   29.0089 C   0  0  0  0  0  0
    3.9259   54.0965   30.0894 O   0  0  0  0  0  0
    2.1578   53.0235   28.9927 C   0  0  0  0  0  0
    1.8810   51.8619   28.2554 C   0  0  0  0  0  0
    0.5975   51.3187   28.2395 C   0  0  0  0  0  0
   -0.4029   51.9134   29.0034 C   0  0  0  0  0  0
   -0.1186   53.0158   29.8018 C   0  0  0  0  0  0
    1.1504   53.5749   29.7926 C   0  0  0  0  0  0
   -2.0124   51.2965   28.9576 Cl  0  0  0  0  0  0
    5.4936   51.6547   13.9815 H   0  0  0  0  0  0
    5.0545   51.7015   15.6829 H   0  0  0  0  0  0
    5.2611   53.2070   14.7966 H   0  0  0  0  0  0
    7.7673   51.2643   13.5099 H   0  0  0  0  0  0
   10.1477   51.2543   14.1186 H   0  0  0  0  0  0
   10.8786   52.2079   16.2817 H   0  0  0  0  0  0
    9.2572   53.1630   17.8234 H   0  0  0  0  0  0
    5.6157   52.9451   17.2334 H   0  0  0  0  0  0
    4.7807   53.6170   18.8690 H   0  0  0  0  0  0
    3.5062   53.5269   20.7423 H   0  0  0  0  0  0
    3.3484   53.6736   23.1615 H   0  0  0  0  0  0
    7.4946   55.2388   21.0350 H   0  0  0  0  0  0
    6.5948   55.9028   25.9097 H   0  0  0  0  0  0
    7.4112   54.6452   25.0021 H   0  0  0  0  0  0
    7.6704   54.1113   27.2951 H   0  0  0  0  0  0
    6.6355   52.8969   26.6193 H   0  0  0  0  0  0
    5.6286   55.3288   28.1313 H   0  0  0  0  0  0
    6.1141   53.8732   28.9546 H   0  0  0  0  0  0
    4.1088   52.7310   26.0819 H   0  0  0  0  0  0
    2.6088   53.4872   26.5496 H   0  0  0  0  0  0
    3.1857   54.8840   24.8383 H   0  0  0  0  0  0
    4.0110   55.6973   26.0861 H   0  0  0  0  0  0
    2.6552   51.3809   27.6817 H   0  0  0  0  0  0
    0.3713   50.4495   27.6389 H   0  0  0  0  0  0
   -0.8903   53.4480   30.4173 H   0  0  0  0  0  0
    1.3372   54.4468   30.4037 H   0  0  0  0  0  0
    7.2322   55.2473   23.2857 H   0  0  0  0  0  0
  1  2  1  0  0  0
  1 34  1  0  0  0
  1 35  1  0  0  0
  1 36  1  0  0  0
  2  7  2  0  0  0
  2  3  1  0  0  0
  3  4  2  0  0  0
  3 37  1  0  0  0
  4  5  1  0  0  0
  4 38  1  0  0  0
  5  6  2  0  0  0
  5 39  1  0  0  0
  6  7  1  0  0  0
  6 40  1  0  0  0
  7  8  1  0  0  0
  8  9  1  0  0  0
  8 41  1  0  0  0
  9 10  2  0  0  0
  9 11  1  0  0  0
 11 12  1  0  0  0
 11 42  1  0  0  0
 12 17  2  0  0  0
 12 13  1  0  0  0
 13 14  2  0  0  0
 13 43  1  0  0  0
 14 15  1  0  0  0
 14 44  1  0  0  0
 15 16  2  0  0  0
 15 18  1  0  0  0
 16 17  1  0  0  0
 16 60  1  0  0  0
 17 45  1  0  0  0
 18 24  1  0  0  0
 18 19  1  0  0  0
 19 20  1  0  0  0
 19 46  1  0  0  0
 19 47  1  0  0  0
 20 21  1  0  0  0
 20 48  1  0  0  0
 20 49  1  0  0  0
 21 22  1  0  0  0
 21 50  1  0  0  0
 21 51  1  0  0  0
 22 23  1  0  0  0
 22 25  1  0  0  0
 23 24  1  0  0  0
 23 52  1  0  0  0
 23 53  1  0  0  0
 24 54  1  0  0  0
 24 55  1  0  0  0
 25 26  2  0  0  0
 25 27  1  0  0  0
 27 32  2  0  0  0
 27 28  1  0  0  0
 28 29  2  0  0  0
 28 56  1  0  0  0
 29 30  1  0  0  0
 29 57  1  0  0  0
 30 31  2  0  0  0
 30 33  1  0  0  0
 31 32  1  0  0  0
 31 58  1  0  0  0
 32 59  1  0  0  0
M  CHG  1  16   1
M  END
> <i_i_glide_confnum>
707

> <i_i_glide_lignum>
186

> <i_i_glide_posenum>
212

> <i_i_glide_rotatable_bonds>
7

> <i_m_Source_File_Index>
804

> <b_m_subgroup_collapsed>
0

> <r_i_docking_score>
-6.73914

> <r_i_glide_ecoul>
-5.46525

> <r_i_glide_eff_state_penalty>
0

> <r_i_glide_einternal>
2.32446

> <r_i_glide_emodel>
-68.6425

> <r_i_glide_energy>
-49.5444

> <r_i_glide_erotb>
0.652859

> <r_i_glide_esite>
-0.0714098

> <r_i_glide_evdw>
-44.0792

> <r_i_glide_gscore>
-6.73914

> <r_i_glide_hbond>
-0.32

> <r_i_glide_ligand_efficiency>
-0.204216

> <r_i_glide_ligand_efficiency_ln>
-1.49875

> <r_i_glide_ligand_efficiency_sa>
-0.655031

> <r_i_glide_lipo>
-2.86265

> <r_i_glide_metal>
0

> <r_i_glide_rewards>
-1.1142

> <s_i_glide_gridfile>
wee1_glide-grid

> <s_m_Source_File>
wee1_decoys_glide_SP.sdf

> <s_m_Source_Path>
/Users/zhangxujun/Desktop

> <s_m_entry_id>
1079

> <s_m_entry_name>
wee1_decoys_glide_SP.804

> <s_m_subgroup_title>
wee1_decoys_glide_SP

> <s_m_subgroupid>
wee1_decoys_glide_SP


$$$$
