ZINC35668297_5646
                    3D
 Schrodinger Suite 2024-2.
 47 48  0  0  1  0            999 V2000
    3.3124   52.7987   30.3551 C   0  0  0  0  0  0
    2.7407   54.0283   29.6639 C   0  0  0  0  0  0
    1.5979   54.6061   30.0769 C   0  0  0  0  0  0
    3.5283   54.5616   28.4724 C   0  0  0  0  0  0
    3.9287   53.4975   27.6166 O   0  0  0  0  0  0
    4.3865   53.8792   26.3769 C   0  0  0  0  0  0
    3.4965   53.9405   25.2957 C   0  0  0  0  0  0
    4.0002   54.2469   24.0216 C   0  0  0  0  0  0
    5.3622   54.4949   23.8162 C   0  0  0  0  0  0
    6.2300   54.4438   24.9063 C   0  0  0  0  0  0
    5.7498   54.1244   26.1761 C   0  0  0  0  0  0
    7.1042   53.9577   27.7568 I   0  0  0  0  0  0
    5.8810   54.8598   22.4807 C   0  0  0  0  0  0
    5.5480   54.3351   21.2674 C   0  0  0  0  0  0
    4.6808   53.0612   21.0830 C   0  0  0  0  0  0
    3.7055   53.1905   20.3142 O   0  0  0  0  0  0
    5.1041   52.0489   21.6816 O   0  5  0  0  0  0
    5.9268   54.7964   20.0323 N   0  0  0  0  0  0
    6.4211   56.0029   19.6824 C   0  0  0  0  0  0
    6.7059   56.8985   20.4792 O   0  0  0  0  0  0
    6.6377   56.2091   18.2016 C   0  0  0  0  0  0
    5.8595   55.5313   17.2474 C   0  0  0  0  0  0
    6.0642   55.7505   15.8879 C   0  0  0  0  0  0
    7.0429   56.6482   15.4727 C   0  0  0  0  0  0
    7.8167   57.3332   16.4053 C   0  0  0  0  0  0
    7.6158   57.1137   17.7648 C   0  0  0  0  0  0
    2.1617   53.6790   25.5500 O   0  0  0  0  0  0
    1.2482   53.6005   24.4603 C   0  0  0  0  0  0
    3.3987   51.9715   29.6490 H   0  0  0  0  0  0
    4.3033   53.0144   30.7563 H   0  0  0  0  0  0
    2.6799   52.4597   31.1789 H   0  0  0  0  0  0
    1.1964   55.4786   29.5806 H   0  0  0  0  0  0
    1.0409   54.2181   30.9174 H   0  0  0  0  0  0
    2.9291   55.2959   27.9291 H   0  0  0  0  0  0
    4.4083   55.0817   28.8537 H   0  0  0  0  0  0
    3.3334   54.3136   23.1757 H   0  0  0  0  0  0
    7.2849   54.6267   24.7584 H   0  0  0  0  0  0
    6.5668   55.6910   22.5152 H   0  0  0  0  0  0
    5.6854   54.1735   19.2743 H   0  0  0  0  0  0
    5.0797   54.8418   17.5392 H   0  0  0  0  0  0
    5.4634   55.2278   15.1577 H   0  0  0  0  0  0
    7.1988   56.8202   14.4170 H   0  0  0  0  0  0
    8.5709   58.0315   16.0741 H   0  0  0  0  0  0
    8.2246   57.6565   18.4740 H   0  0  0  0  0  0
    0.2658   53.3134   24.8338 H   0  0  0  0  0  0
    1.1420   54.5620   23.9556 H   0  0  0  0  0  0
    1.5534   52.8457   23.7325 H   0  0  0  0  0  0
  1  2  1  0  0  0
  1 29  1  0  0  0
  1 30  1  0  0  0
  1 31  1  0  0  0
  2  3  2  0  0  0
  2  4  1  0  0  0
  3 32  1  0  0  0
  3 33  1  0  0  0
  4  5  1  0  0  0
  4 34  1  0  0  0
  4 35  1  0  0  0
  5  6  1  0  0  0
  6 11  2  0  0  0
  6  7  1  0  0  0
  7  8  2  0  0  0
  7 27  1  0  0  0
  8  9  1  0  0  0
  8 36  1  0  0  0
  9 10  2  0  0  0
  9 13  1  0  0  0
 10 11  1  0  0  0
 10 37  1  0  0  0
 11 12  1  0  0  0
 13 14  2  0  0  0
 13 38  1  0  0  0
 14 15  1  0  0  0
 14 18  1  0  0  0
 15 16  2  0  0  0
 15 17  1  0  0  0
 18 19  1  0  0  0
 18 39  1  0  0  0
 19 20  2  0  0  0
 19 21  1  0  0  0
 21 26  2  0  0  0
 21 22  1  0  0  0
 22 23  2  0  0  0
 22 40  1  0  0  0
 23 24  1  0  0  0
 23 41  1  0  0  0
 24 25  2  0  0  0
 24 42  1  0  0  0
 25 26  1  0  0  0
 25 43  1  0  0  0
 26 44  1  0  0  0
 27 28  1  0  0  0
 28 45  1  0  0  0
 28 46  1  0  0  0
 28 47  1  0  0  0
M  CHG  1  17  -1
M  END
> <i_i_glide_confnum>
24

> <i_i_glide_lignum>
5647

> <i_i_glide_posenum>
342

> <i_i_glide_rotatable_bonds>
9

> <i_m_Source_File_Index>
889

> <b_m_subgroup_collapsed>
0

> <r_i_docking_score>
-5.50849

> <r_i_glide_ecoul>
-4.20832

> <r_i_glide_eff_state_penalty>
0

> <r_i_glide_einternal>
1.64875

> <r_i_glide_emodel>
-58.751

> <r_i_glide_energy>
-42.9045

> <r_i_glide_erotb>
0.588192

> <r_i_glide_esite>
0

> <r_i_glide_evdw>
-38.6961

> <r_i_glide_gscore>
-5.50849

> <r_i_glide_hbond>
-0.32

> <r_i_glide_ligand_efficiency>
-0.196732

> <r_i_glide_ligand_efficiency_ln>
-1.27152

> <r_i_glide_ligand_efficiency_sa>
-0.597393

> <r_i_glide_lipo>
-2.86968

> <r_i_glide_metal>
0

> <r_i_glide_rewards>
-0.340948

> <s_i_glide_gridfile>
wee1_glide-grid

> <s_m_Source_File>
wee1_decoys_glide_SP.sdf

> <s_m_Source_Path>
/Users/zhangxujun/Desktop

> <s_m_entry_id>
1164

> <s_m_entry_name>
wee1_decoys_glide_SP.889

> <s_m_subgroup_title>
wee1_decoys_glide_SP

> <s_m_subgroupid>
wee1_decoys_glide_SP


$$$$
