ZINC66097164_2891
                    3D
 Schrodinger Suite 2024-2.
 71 74  0  0  1  0            999 V2000
   -3.8359   46.8041   27.9286 C   0  0  0  0  0  0
   -4.4371   47.2929   26.5984 C   0  0  0  0  0  0
   -4.3536   46.3195   25.4891 N   0  0  0  0  0  0
   -5.1890   45.1823   25.5722 C   0  0  0  0  0  0
   -4.8976   44.1568   26.4815 C   0  0  0  0  0  0
   -5.7106   43.0286   26.5513 C   0  0  0  0  0  0
   -6.8235   42.9328   25.7200 C   0  0  0  0  0  0
   -7.1345   43.9538   24.8223 C   0  0  0  0  0  0
   -6.3191   45.0801   24.7483 C   0  0  0  0  0  0
   -3.5522   46.4922   24.3882 C   0  0  0  0  0  0
   -3.5364   45.6971   23.4415 O   0  0  0  0  0  0
   -2.6391   47.6938   24.2938 C   0  0  0  0  0  0
   -1.6824   47.9581   25.2814 C   0  0  0  0  0  0
   -0.8425   49.0629   25.1678 C   0  0  0  0  0  0
   -0.9340   49.9128   24.0618 C   0  0  0  0  0  0
   -1.8713   49.6336   23.0554 C   0  0  0  0  0  0
   -2.7099   48.5274   23.1713 C   0  0  0  0  0  0
   -0.0620   51.0203   24.0626 N   0  0  0  0  0  0
    0.1037   52.0071   23.1533 C   0  0  0  0  0  0
   -0.5067   52.0955   22.0856 O   0  0  0  0  0  0
    1.1258   53.0940   23.5394 C   0  0  0  0  0  0
    2.0892   53.3233   22.4824 N   0  0  0  0  0  0
    3.3944   53.8121   22.6546 C   0  0  0  0  0  0
    4.1885   54.0296   21.5270 C   0  0  0  0  0  0
    5.5046   54.4739   21.6616 C   0  0  0  0  0  0
    6.0526   54.6818   22.9291 C   0  0  0  0  0  0
    5.2657   54.4965   24.0744 C   0  0  0  0  0  0
    3.9353   54.0738   23.9174 C   0  0  0  0  0  0
    5.8197   54.7964   25.4461 C   0  0  0  0  0  0
    6.7046   55.6365   25.6213 O   0  0  0  0  0  0
    5.2559   54.0967   26.4443 N   0  0  0  0  0  0
    5.5095   54.2416   27.8693 C   0  0  2  0  0  0
    5.6658   55.2969   28.0943 H   0  0  0  0  0  0
    6.8243   53.5363   28.2436 C   0  0  0  0  0  0
    4.2530   53.8489   28.6649 C   0  0  0  0  0  0
    4.2326   52.7855   29.5780 C   0  0  0  0  0  0
    3.0734   52.4956   30.2956 C   0  0  0  0  0  0
    1.9191   53.2444   30.0826 C   0  0  0  0  0  0
    1.9175   54.2930   29.1683 C   0  0  0  0  0  0
    3.0806   54.5920   28.4649 C   0  0  0  0  0  0
   -3.7026   47.6359   28.6214 H   0  0  0  0  0  0
   -4.4896   46.0896   28.4265 H   0  0  0  0  0  0
   -2.8610   46.3328   27.7947 H   0  0  0  0  0  0
   -4.0149   48.2624   26.3342 H   0  0  0  0  0  0
   -5.4940   47.4995   26.7624 H   0  0  0  0  0  0
   -4.0499   44.2294   27.1413 H   0  0  0  0  0  0
   -5.4740   42.2364   27.2489 H   0  0  0  0  0  0
   -7.4573   42.0601   25.7788 H   0  0  0  0  0  0
   -8.0048   43.8700   24.1856 H   0  0  0  0  0  0
   -6.5599   45.8700   24.0512 H   0  0  0  0  0  0
   -1.5769   47.3190   26.1497 H   0  0  0  0  0  0
   -0.1265   49.2467   25.9574 H   0  0  0  0  0  0
   -1.9765   50.2534   22.1795 H   0  0  0  0  0  0
   -3.4235   48.3288   22.3834 H   0  0  0  0  0  0
    0.5241   51.0738   24.8811 H   0  0  0  0  0  0
    0.5342   53.9919   23.7221 H   0  0  0  0  0  0
    1.5649   52.8350   24.5035 H   0  0  0  0  0  0
    1.7336   53.3675   21.5334 H   0  0  0  0  0  0
    3.7892   53.8530   20.5392 H   0  0  0  0  0  0
    6.1089   54.6338   20.7810 H   0  0  0  0  0  0
    7.0777   55.0159   23.0151 H   0  0  0  0  0  0
    3.3183   53.9512   24.7919 H   0  0  0  0  0  0
    4.6786   53.3097   26.1887 H   0  0  0  0  0  0
    7.0971   53.7046   29.2815 H   0  0  0  0  0  0
    6.7727   52.4661   28.0617 H   0  0  0  0  0  0
    7.6477   53.9204   27.6453 H   0  0  0  0  0  0
    5.1045   52.1754   29.7434 H   0  0  0  0  0  0
    3.0678   51.6974   31.0216 H   0  0  0  0  0  0
    1.0195   53.0143   30.6361 H   0  0  0  0  0  0
    1.0210   54.8718   29.0066 H   0  0  0  0  0  0
    3.0699   55.4031   27.7550 H   0  0  0  0  0  0
  1  2  1  0  0  0
  1 41  1  0  0  0
  1 42  1  0  0  0
  1 43  1  0  0  0
  2  3  1  0  0  0
  2 44  1  0  0  0
  2 45  1  0  0  0
  3  4  1  0  0  0
  3 10  1  0  0  0
  4  9  2  0  0  0
  4  5  1  0  0  0
  5  6  2  0  0  0
  5 46  1  0  0  0
  6  7  1  0  0  0
  6 47  1  0  0  0
  7  8  2  0  0  0
  7 48  1  0  0  0
  8  9  1  0  0  0
  8 49  1  0  0  0
  9 50  1  0  0  0
 10 11  2  0  0  0
 10 12  1  0  0  0
 12 17  2  0  0  0
 12 13  1  0  0  0
 13 14  2  0  0  0
 13 51  1  0  0  0
 14 15  1  0  0  0
 14 52  1  0  0  0
 15 16  2  0  0  0
 15 18  1  0  0  0
 16 17  1  0  0  0
 16 53  1  0  0  0
 17 54  1  0  0  0
 18 19  1  0  0  0
 18 55  1  0  0  0
 19 20  2  0  0  0
 19 21  1  0  0  0
 21 22  1  0  0  0
 21 56  1  0  0  0
 21 57  1  0  0  0
 22 23  1  0  0  0
 22 58  1  0  0  0
 23 28  2  0  0  0
 23 24  1  0  0  0
 24 25  2  0  0  0
 24 59  1  0  0  0
 25 26  1  0  0  0
 25 60  1  0  0  0
 26 27  2  0  0  0
 26 61  1  0  0  0
 27 28  1  0  0  0
 27 29  1  0  0  0
 28 62  1  0  0  0
 29 30  2  0  0  0
 29 31  1  0  0  0
 31 32  1  0  0  0
 31 63  1  0  0  0
 32 33  1  0  0  0
 32 34  1  0  0  0
 32 35  1  0  0  0
 34 64  1  0  0  0
 34 65  1  0  0  0
 34 66  1  0  0  0
 35 40  2  0  0  0
 35 36  1  0  0  0
 36 37  2  0  0  0
 36 67  1  0  0  0
 37 38  1  0  0  0
 37 68  1  0  0  0
 38 39  2  0  0  0
 38 69  1  0  0  0
 39 40  1  0  0  0
 39 70  1  0  0  0
 40 71  1  0  0  0
M  END
> <i_i_glide_confnum>
199

> <i_i_glide_lignum>
2892

> <i_i_glide_posenum>
358

> <i_i_glide_rotatable_bonds>
13

> <i_m_Source_File_Index>
1868

> <b_m_subgroup_collapsed>
0

> <r_i_docking_score>
-5.66951

> <r_i_glide_ecoul>
-9.43521

> <r_i_glide_eff_state_penalty>
0

> <r_i_glide_einternal>
7.80682

> <r_i_glide_emodel>
-77.1919

> <r_i_glide_energy>
-62.4314

> <r_i_glide_erotb>
0.834084

> <r_i_glide_esite>
-0.0908772

> <r_i_glide_evdw>
-52.9962

> <r_i_glide_gscore>
-5.66951

> <r_i_glide_hbond>
-0.361113

> <r_i_glide_ligand_efficiency>
-0.145372

> <r_i_glide_ligand_efficiency_ln>
-1.2157

> <r_i_glide_ligand_efficiency_sa>
-0.492987

> <r_i_glide_lipo>
-2.99082

> <r_i_glide_metal>
0

> <r_i_glide_rewards>
1.00432

> <s_i_glide_gridfile>
wee1_glide-grid

> <s_m_Source_File>
wee1_decoys_glide_SP.sdf

> <s_m_Source_Path>
/Users/zhangxujun/Desktop

> <s_m_entry_id>
2143

> <s_m_entry_name>
wee1_decoys_glide_SP.1868

> <s_m_subgroup_title>
wee1_decoys_glide_SP

> <s_m_subgroupid>
wee1_decoys_glide_SP


$$$$
