ZINC09631028_1006
                    3D
 Schrodinger Suite 2024-2.
 52 56  0  0  1  0            999 V2000
    1.0209   53.4900   29.8981 C   0  0  0  0  0  0
    1.8109   54.5265   29.4068 C   0  0  0  0  0  0
    2.2436   54.5004   28.0829 C   0  0  0  0  0  0
    1.8731   53.4421   27.2390 C   0  0  0  0  0  0
    1.0842   52.3980   27.7511 C   0  0  0  0  0  0
    0.6612   52.4247   29.0777 C   0  0  0  0  0  0
    2.2816   53.4438   25.8771 N   0  0  0  0  0  0
    3.3486   54.0904   25.3001 C   0  0  0  0  0  0
    3.3503   53.7813   23.9456 C   0  0  0  0  0  0
    2.2264   52.9369   23.8085 C   0  0  0  0  0  0
    1.5960   52.7589   24.9498 N   0  0  0  0  0  0
    1.7337   52.2799   22.6012 C   0  0  0  0  0  0
    0.4087   52.0393   22.2355 C   0  0  0  0  0  0
    0.2774   51.3692   21.0143 C   0  0  0  0  0  0
    1.5038   51.0740   20.4355 C   0  0  0  0  0  0
    2.8252   51.6127   21.4135 S   0  0  0  0  0  0
    4.2557   54.2412   22.9012 C   0  0  0  0  0  0
    5.5407   54.6702   23.0032 C   0  0  0  0  0  0
    6.2068   54.7461   24.2692 C   0  0  0  0  0  0
    6.7043   54.8433   25.3117 N   0  0  0  0  0  0
    6.3054   55.1198   21.8399 C   0  0  0  0  0  0
    7.3715   55.6987   22.0690 O   0  0  0  0  0  0
    5.8447   54.8873   20.6189 N   0  5  0  0  0  0
    6.2916   55.6218   19.5291 C   0  0  0  0  0  0
    6.7040   56.9684   19.6003 C   0  0  0  0  0  0
    7.1494   57.6698   18.4869 C   0  0  0  0  0  0
    7.1441   57.0587   17.2299 C   0  0  0  0  0  0
    6.7237   55.7420   17.1114 C   0  0  0  0  0  0
    6.2862   55.0305   18.2396 C   0  0  0  0  0  0
    5.8744   53.6308   18.0273 N   0  3  0  0  0  0
    4.7446   53.2967   18.3683 O   0  0  0  0  0  0
    6.6855   52.8963   17.4728 O   0  5  0  0  0  0
    7.6103   57.6944   16.0980 O   0  0  0  0  0  0
    7.6813   59.1207   16.2234 C   0  0  0  0  0  0
    8.3043   59.5138   17.5857 C   0  0  0  0  0  0
    7.5277   58.9832   18.6659 O   0  0  0  0  0  0
    0.6814   53.5091   30.9245 H   0  0  0  0  0  0
    2.0804   55.3539   30.0477 H   0  0  0  0  0  0
    2.8469   55.3181   27.7186 H   0  0  0  0  0  0
    0.7874   51.5639   27.1261 H   0  0  0  0  0  0
    0.0476   51.6224   29.4649 H   0  0  0  0  0  0
    4.0133   54.6986   25.8936 H   0  0  0  0  0  0
   -0.4323   52.3416   22.8418 H   0  0  0  0  0  0
   -0.6720   51.1072   20.5713 H   0  0  0  0  0  0
    1.7008   50.5677   19.5021 H   0  0  0  0  0  0
    3.7832   54.2057   21.9288 H   0  0  0  0  0  0
    6.6780   57.4934   20.5409 H   0  0  0  0  0  0
    6.7368   55.2701   16.1418 H   0  0  0  0  0  0
    6.6754   59.5412   16.1573 H   0  0  0  0  0  0
    8.2650   59.5302   15.3984 H   0  0  0  0  0  0
    8.3492   60.5981   17.6816 H   0  0  0  0  0  0
    9.3217   59.1236   17.6467 H   0  0  0  0  0  0
  1  6  2  0  0  0
  1  2  1  0  0  0
  1 37  1  0  0  0
  2  3  2  0  0  0
  2 38  1  0  0  0
  3  4  1  0  0  0
  3 39  1  0  0  0
  4  5  2  0  0  0
  4  7  1  0  0  0
  5  6  1  0  0  0
  5 40  1  0  0  0
  6 41  1  0  0  0
  7 11  1  0  0  0
  7  8  1  0  0  0
  8  9  2  0  0  0
  8 42  1  0  0  0
  9 10  1  0  0  0
  9 17  1  0  0  0
 10 11  2  0  0  0
 10 12  1  0  0  0
 12 16  1  0  0  0
 12 13  2  0  0  0
 13 14  1  0  0  0
 13 43  1  0  0  0
 14 15  2  0  0  0
 14 44  1  0  0  0
 15 16  1  0  0  0
 15 45  1  0  0  0
 17 18  2  0  0  0
 17 46  1  0  0  0
 18 19  1  0  0  0
 18 21  1  0  0  0
 19 20  3  0  0  0
 21 22  2  0  0  0
 21 23  1  0  0  0
 23 24  1  0  0  0
 24 29  2  0  0  0
 24 25  1  0  0  0
 25 26  2  0  0  0
 25 47  1  0  0  0
 26 36  1  0  0  0
 26 27  1  0  0  0
 27 28  2  0  0  0
 27 33  1  0  0  0
 28 29  1  0  0  0
 28 48  1  0  0  0
 29 30  1  0  0  0
 30 31  2  0  0  0
 30 32  1  0  0  0
 33 34  1  0  0  0
 34 35  1  0  0  0
 34 49  1  0  0  0
 34 50  1  0  0  0
 35 36  1  0  0  0
 35 51  1  0  0  0
 35 52  1  0  0  0
M  CHG  3  23  -1  30   1  32  -1
M  END
> <i_i_glide_confnum>
211

> <i_i_glide_lignum>
1007

> <i_i_glide_posenum>
176

> <i_i_glide_rotatable_bonds>
8

> <i_m_Source_File_Index>
314

> <b_m_subgroup_collapsed>
0

> <r_i_docking_score>
-5.0102

> <r_i_glide_ecoul>
2.30757

> <r_i_glide_eff_state_penalty>
0

> <r_i_glide_einternal>
4.49939

> <r_i_glide_emodel>
-57.5944

> <r_i_glide_energy>
-43.8644

> <r_i_glide_erotb>
0.574843

> <r_i_glide_esite>
-0.191343

> <r_i_glide_evdw>
-46.1719

> <r_i_glide_gscore>
-5.0102

> <r_i_glide_hbond>
-0.106975

> <r_i_glide_ligand_efficiency>
-0.139172

> <r_i_glide_ligand_efficiency_ln>
-1.09309

> <r_i_glide_ligand_efficiency_sa>
-0.459536

> <r_i_glide_lipo>
-2.31312

> <r_i_glide_metal>
0

> <r_i_glide_rewards>
-1.01114

> <s_i_glide_gridfile>
wee1_glide-grid

> <s_m_Source_File>
wee1_decoys_glide_SP.sdf

> <s_m_Source_Path>
/Users/zhangxujun/Desktop

> <s_m_entry_id>
589

> <s_m_entry_name>
wee1_decoys_glide_SP.314

> <s_m_subgroup_title>
wee1_decoys_glide_SP

> <s_m_subgroupid>
wee1_decoys_glide_SP


$$$$
