ZINC33033385_319
                    3D
 Schrodinger Suite 2024-2.
 79 81  0  0  1  0            999 V2000
    6.5977   53.6980   26.2553 C   0  0  0  0  0  0
    5.3813   53.6232   27.1982 C   0  0  0  0  0  0
    5.8141   54.0716   28.6049 C   0  0  0  0  0  0
    4.2003   54.4437   26.6111 C   0  0  0  0  0  0
    2.8529   54.1954   27.1829 N   0  0  0  0  0  0
    2.7181   54.5846   28.6075 C   0  0  0  0  0  0
    1.3770   55.2204   29.0765 C   0  0  0  0  0  0
    0.6508   54.3323   30.1089 C   0  0  0  0  0  0
    1.6077   56.6258   29.6478 C   0  0  0  0  0  0
    1.9192   53.3816   26.6054 C   0  0  0  0  0  0
    1.0455   52.8328   27.2814 O   0  0  0  0  0  0
    1.9026   53.1176   25.1079 C   0  0  0  0  0  0
    2.3298   54.0279   24.1361 C   0  0  0  0  0  0
    2.3480   53.6632   22.7908 C   0  0  0  0  0  0
    1.9210   52.3963   22.3491 C   0  0  0  0  0  0
    1.4048   51.5044   23.3264 C   0  0  0  0  0  0
    1.3815   51.9039   24.6639 C   0  0  0  0  0  0
    0.8993   50.2358   22.9907 N   0  0  0  0  0  0
   -0.0649   49.1913   24.0611 S   0  0  0  0  0  0
   -0.5236   48.0966   23.2051 O   0  0  0  0  0  0
    0.7045   48.9270   25.2806 O   0  0  0  0  0  0
   -1.5026   50.1562   24.5025 C   0  0  0  0  0  0
   -1.7257   50.5006   25.8374 C   0  0  0  0  0  0
   -2.8231   51.2876   26.1720 C   0  0  0  0  0  0
   -3.7097   51.7219   25.1787 C   0  0  0  0  0  0
   -3.4785   51.3652   23.8457 C   0  0  0  0  0  0
   -2.3790   50.5820   23.5057 C   0  0  0  0  0  0
   -4.9178   52.5935   25.5310 C   0  0  0  0  0  0
   -5.7062   52.0684   26.7497 C   0  0  0  0  0  0
   -4.5114   54.0676   25.7004 C   0  0  0  0  0  0
    2.0669   52.1069   20.9802 N   0  0  0  0  0  0
    3.4034   52.3017   20.3766 C   0  0  0  0  0  0
    3.4098   52.5076   18.8495 C   0  0  0  0  0  0
    2.7045   51.3316   18.1707 N   0  3  0  0  0  0
    1.2823   51.1754   18.7230 C   0  0  0  0  0  0
    1.3085   51.0608   20.2632 C   0  0  0  0  0  0
    6.9488   54.7232   26.1332 H   0  0  0  0  0  0
    6.3615   53.3041   25.2662 H   0  0  0  0  0  0
    7.4268   53.1065   26.6439 H   0  0  0  0  0  0
    5.0831   52.5745   27.2512 H   0  0  0  0  0  0
    5.9054   55.1556   28.6705 H   0  0  0  0  0  0
    5.1046   53.7455   29.3617 H   0  0  0  0  0  0
    6.7795   53.6478   28.8815 H   0  0  0  0  0  0
    4.4263   55.5055   26.6986 H   0  0  0  0  0  0
    4.2218   54.2457   25.5462 H   0  0  0  0  0  0
    2.9308   53.6987   29.2071 H   0  0  0  0  0  0
    3.5150   55.2895   28.8421 H   0  0  0  0  0  0
    0.7047   55.3377   28.2251 H   0  0  0  0  0  0
    1.2725   54.1437   30.9826 H   0  0  0  0  0  0
   -0.2671   54.7973   30.4655 H   0  0  0  0  0  0
    0.3797   53.3630   29.6938 H   0  0  0  0  0  0
    2.3045   56.6170   30.4816 H   0  0  0  0  0  0
    1.9859   57.2967   28.8802 H   0  0  0  0  0  0
    0.6948   57.0564   30.0413 H   0  0  0  0  0  0
    2.6626   55.0200   24.4045 H   0  0  0  0  0  0
    2.6991   54.3954   22.0773 H   0  0  0  0  0  0
    1.0067   51.2324   25.4176 H   0  0  0  0  0  0
    0.7966   50.0528   22.0060 H   0  0  0  0  0  0
   -1.0592   50.1617   26.6204 H   0  0  0  0  0  0
   -2.9762   51.5533   27.2077 H   0  0  0  0  0  0
   -4.1536   51.6948   23.0715 H   0  0  0  0  0  0
   -2.2051   50.3116   22.4740 H   0  0  0  0  0  0
   -5.6142   52.5466   24.6911 H   0  0  0  0  0  0
   -5.9876   51.0236   26.6167 H   0  0  0  0  0  0
   -5.1338   52.1377   27.6747 H   0  0  0  0  0  0
   -6.6261   52.6362   26.8922 H   0  0  0  0  0  0
   -4.0957   54.4716   24.7758 H   0  0  0  0  0  0
   -5.3704   54.6798   25.9696 H   0  0  0  0  0  0
   -3.7618   54.1907   26.4814 H   0  0  0  0  0  0
    3.9659   53.1032   20.8535 H   0  0  0  0  0  0
    3.9488   51.3803   20.5851 H   0  0  0  0  0  0
    4.4212   52.5064   18.4386 H   0  0  0  0  0  0
    2.8951   53.4201   18.5454 H   0  0  0  0  0  0
    3.2689   50.4967   18.3095 H   0  0  0  0  0  0
    0.8811   50.2805   18.2449 H   0  0  0  0  0  0
    0.7234   52.0486   18.3823 H   0  0  0  0  0  0
    1.8206   50.1249   20.4966 H   0  0  0  0  0  0
    0.2820   51.0128   20.6271 H   0  0  0  0  0  0
    2.6912   51.4660   17.1683 H   0  0  0  0  0  0
  1  2  1  0  0  0
  1 37  1  0  0  0
  1 38  1  0  0  0
  1 39  1  0  0  0
  2  3  1  0  0  0
  2  4  1  0  0  0
  2 40  1  0  0  0
  3 41  1  0  0  0
  3 42  1  0  0  0
  3 43  1  0  0  0
  4  5  1  0  0  0
  4 44  1  0  0  0
  4 45  1  0  0  0
  5  6  1  0  0  0
  5 10  1  0  0  0
  6  7  1  0  0  0
  6 46  1  0  0  0
  6 47  1  0  0  0
  7  8  1  0  0  0
  7  9  1  0  0  0
  7 48  1  0  0  0
  8 49  1  0  0  0
  8 50  1  0  0  0
  8 51  1  0  0  0
  9 52  1  0  0  0
  9 53  1  0  0  0
  9 54  1  0  0  0
 10 11  2  0  0  0
 10 12  1  0  0  0
 12 17  2  0  0  0
 12 13  1  0  0  0
 13 14  2  0  0  0
 13 55  1  0  0  0
 14 15  1  0  0  0
 14 56  1  0  0  0
 15 16  2  0  0  0
 15 31  1  0  0  0
 16 17  1  0  0  0
 16 18  1  0  0  0
 17 57  1  0  0  0
 18 19  1  0  0  0
 18 58  1  0  0  0
 19 20  2  0  0  0
 19 21  2  0  0  0
 19 22  1  0  0  0
 22 27  2  0  0  0
 22 23  1  0  0  0
 23 24  2  0  0  0
 23 59  1  0  0  0
 24 25  1  0  0  0
 24 60  1  0  0  0
 25 26  2  0  0  0
 25 28  1  0  0  0
 26 27  1  0  0  0
 26 61  1  0  0  0
 27 62  1  0  0  0
 28 29  1  0  0  0
 28 30  1  0  0  0
 28 63  1  0  0  0
 29 64  1  0  0  0
 29 65  1  0  0  0
 29 66  1  0  0  0
 30 67  1  0  0  0
 30 68  1  0  0  0
 30 69  1  0  0  0
 31 36  1  0  0  0
 31 32  1  0  0  0
 32 33  1  0  0  0
 32 70  1  0  0  0
 32 71  1  0  0  0
 33 34  1  0  0  0
 33 72  1  0  0  0
 33 73  1  0  0  0
 34 35  1  0  0  0
 34 74  1  0  0  0
 34 79  1  0  0  0
 35 36  1  0  0  0
 35 75  1  0  0  0
 35 76  1  0  0  0
 36 77  1  0  0  0
 36 78  1  0  0  0
M  CHG  1  34   1
M  END
> <i_i_glide_confnum>
42

> <i_i_glide_lignum>
320

> <i_i_glide_posenum>
59

> <i_i_glide_rotatable_bonds>
11

> <i_m_Source_File_Index>
1038

> <b_m_subgroup_collapsed>
0

> <r_i_docking_score>
-4.38769

> <r_i_glide_ecoul>
-0.0583482

> <r_i_glide_eff_state_penalty>
0

> <r_i_glide_einternal>
10.5522

> <r_i_glide_emodel>
-50.1549

> <r_i_glide_energy>
-45.0635

> <r_i_glide_erotb>
0.61722

> <r_i_glide_esite>
-0.181146

> <r_i_glide_evdw>
-45.0052

> <r_i_glide_gscore>
-4.38769

> <r_i_glide_hbond>
-0.126152

> <r_i_glide_ligand_efficiency>
-0.12188

> <r_i_glide_ligand_efficiency_ln>
-0.957275

> <r_i_glide_ligand_efficiency_sa>
-0.40244

> <r_i_glide_lipo>
-3.2501

> <r_i_glide_metal>
0

> <r_i_glide_rewards>
0.811499

> <s_i_glide_gridfile>
wee1_glide-grid

> <s_m_Source_File>
wee1_decoys_glide_SP.sdf

> <s_m_Source_Path>
/Users/zhangxujun/Desktop

> <s_m_entry_id>
1313

> <s_m_entry_name>
wee1_decoys_glide_SP.1038

> <s_m_subgroup_title>
wee1_decoys_glide_SP

> <s_m_subgroupid>
wee1_decoys_glide_SP


$$$$
