ZINC40122897_289
                    3D
 Schrodinger Suite 2024-2.
 55 59  0  0  1  0            999 V2000
    2.2073   52.6638   28.7079 C   0  0  0  0  0  0
    1.2705   52.5982   29.7382 C   0  0  0  0  0  0
    0.8179   53.7698   30.3413 C   0  0  0  0  0  0
    1.2950   55.0101   29.9278 C   0  0  0  0  0  0
    2.2234   55.0797   28.8940 C   0  0  0  0  0  0
    2.6690   53.9087   28.2732 C   0  0  0  0  0  0
    3.6446   54.0399   27.1592 C   0  0  0  0  0  0
    4.9386   54.4965   27.3539 C   0  0  0  0  0  0
    5.8709   54.7442   25.9016 S   0  0  0  0  0  0
    4.5053   54.1997   24.9508 C   0  0  0  0  0  0
    3.3987   53.7863   25.7616 C   0  0  0  0  0  0
    2.3081   53.2241   25.0421 C   0  0  0  0  0  0
    2.3005   53.2320   23.6807 N   0  0  0  0  0  0
    3.3945   53.7092   23.0456 C   0  0  0  0  0  0
    4.5352   54.1632   23.6158 N   0  0  0  0  0  0
    1.2702   52.5601   25.7293 N   0  0  0  0  0  0
    0.2648   51.6890   25.1074 C   0  0  2  0  0  0
   -0.5485   51.0155   26.2312 C   0  0  0  0  0  0
   -1.6980   50.1770   25.6337 C   0  0  0  0  0  0
   -1.1032   49.1026   24.6764 N   0  3  2  0  0  0
   -0.1987   49.7349   23.5857 C   0  0  0  0  0  0
    0.9032   50.5521   24.2666 C   0  0  0  0  0  0
   -2.2165   48.2720   23.9699 C   0  0  0  0  0  0
   -2.6524   47.0222   24.7504 C   0  0  0  0  0  0
   -3.1590   46.0967   24.1188 O   0  0  0  0  0  0
   -2.4918   46.9768   26.0816 N   0  0  0  0  0  0
   -2.8625   45.8573   26.9379 C   0  0  0  0  0  0
   -3.6511   46.1696   28.1862 C   0  0  0  0  0  0
   -4.3107   45.4321   27.0416 C   0  0  0  0  0  0
   -0.0856   53.7059   31.3430 F   0  0  0  0  0  0
    2.5646   51.7569   28.2403 H   0  0  0  0  0  0
    0.8877   51.6475   30.0735 H   0  0  0  0  0  0
    0.9422   55.9121   30.4065 H   0  0  0  0  0  0
    2.5850   56.0440   28.5670 H   0  0  0  0  0  0
    5.3920   54.7513   28.3026 H   0  0  0  0  0  0
    3.3644   53.7009   21.9646 H   0  0  0  0  0  0
    1.0333   52.9594   26.6277 H   0  0  0  0  0  0
   -0.3875   52.3139   24.4935 H   0  0  0  0  0  0
   -0.9672   51.7647   26.9054 H   0  0  0  0  0  0
    0.0835   50.3681   26.8441 H   0  0  0  0  0  0
   -2.4029   50.7857   25.0645 H   0  0  0  0  0  0
   -2.2253   49.6509   26.4317 H   0  0  0  0  0  0
    0.2512   48.9107   23.0282 H   0  0  0  0  0  0
   -0.8258   50.3366   22.9245 H   0  0  0  0  0  0
    1.5039   49.8812   24.8810 H   0  0  0  0  0  0
    1.5647   50.9122   23.4837 H   0  0  0  0  0  0
   -1.8006   47.9248   23.0225 H   0  0  0  0  0  0
   -3.0528   48.9334   23.7410 H   0  0  0  0  0  0
   -1.9728   47.6974   26.5750 H   0  0  0  0  0  0
   -2.0985   45.0832   27.0020 H   0  0  0  0  0  0
   -3.9054   47.2126   28.3825 H   0  0  0  0  0  0
   -3.3663   45.6475   29.0992 H   0  0  0  0  0  0
   -4.5183   44.3655   27.1352 H   0  0  0  0  0  0
   -5.0541   45.9483   26.4333 H   0  0  0  0  0  0
   -0.5093   48.4850   25.2189 H   0  0  0  0  0  0
  1  6  2  0  0  0
  1  2  1  0  0  0
  1 31  1  0  0  0
  2  3  2  0  0  0
  2 32  1  0  0  0
  3  4  1  0  0  0
  3 30  1  0  0  0
  4  5  2  0  0  0
  4 33  1  0  0  0
  5  6  1  0  0  0
  5 34  1  0  0  0
  6  7  1  0  0  0
  7 11  1  0  0  0
  7  8  2  0  0  0
  8  9  1  0  0  0
  8 35  1  0  0  0
  9 10  1  0  0  0
 10 15  2  0  0  0
 10 11  1  0  0  0
 11 12  2  0  0  0
 12 13  1  0  0  0
 12 16  1  0  0  0
 13 14  2  0  0  0
 14 15  1  0  0  0
 14 36  1  0  0  0
 16 17  1  0  0  0
 16 37  1  0  0  0
 17 22  1  0  0  0
 17 18  1  0  0  0
 17 38  1  0  0  0
 18 19  1  0  0  0
 18 39  1  0  0  0
 18 40  1  0  0  0
 19 20  1  0  0  0
 19 41  1  0  0  0
 19 42  1  0  0  0
 20 21  1  0  0  0
 20 23  1  0  0  0
 20 55  1  0  0  0
 21 22  1  0  0  0
 21 43  1  0  0  0
 21 44  1  0  0  0
 22 45  1  0  0  0
 22 46  1  0  0  0
 23 24  1  0  0  0
 23 47  1  0  0  0
 23 48  1  0  0  0
 24 25  2  0  0  0
 24 26  1  0  0  0
 26 27  1  0  0  0
 26 49  1  0  0  0
 27 29  1  0  0  0
 27 28  1  0  0  0
 27 50  1  0  0  0
 28 29  1  0  0  0
 28 51  1  0  0  0
 28 52  1  0  0  0
 29 53  1  0  0  0
 29 54  1  0  0  0
M  CHG  1  20   1
M  END
> <i_i_glide_confnum>
78

> <i_i_glide_lignum>
290

> <i_i_glide_posenum>
92

> <i_i_glide_rotatable_bonds>
7

> <i_m_Source_File_Index>
977

> <b_m_subgroup_collapsed>
0

> <r_i_docking_score>
-6.43067

> <r_i_glide_ecoul>
-5.8597

> <r_i_glide_eff_state_penalty>
0

> <r_i_glide_einternal>
9.96152

> <r_i_glide_emodel>
-63.2005

> <r_i_glide_energy>
-48.7753

> <r_i_glide_erotb>
0.654549

> <r_i_glide_esite>
-0.231787

> <r_i_glide_evdw>
-42.9156

> <r_i_glide_gscore>
-6.43067

> <r_i_glide_hbond>
-0.164

> <r_i_glide_ligand_efficiency>
-0.214356

> <r_i_glide_ligand_efficiency_ln>
-1.46112

> <r_i_glide_ligand_efficiency_sa>
-0.666053

> <r_i_glide_lipo>
-2.79753

> <r_i_glide_metal>
0

> <r_i_glide_rewards>
-0.867171

> <s_i_glide_gridfile>
wee1_glide-grid

> <s_m_Source_File>
wee1_decoys_glide_SP.sdf

> <s_m_Source_Path>
/Users/zhangxujun/Desktop

> <s_m_entry_id>
1252

> <s_m_entry_name>
wee1_decoys_glide_SP.977

> <s_m_subgroup_title>
wee1_decoys_glide_SP

> <s_m_subgroupid>
wee1_decoys_glide_SP


$$$$
