ZINC14957950_4273
                    3D
 Schrodinger Suite 2024-2.
 60 61  0  0  1  0            999 V2000
    5.0079   56.0773   17.4592 C   0  0  0  0  0  0
    5.1784   55.2313   18.7301 C   0  0  0  0  0  0
    4.6203   53.9318   18.8345 C   0  0  0  0  0  0
    4.7761   53.2120   20.0400 C   0  0  0  0  0  0
    5.4190   53.7903   21.1503 C   0  0  0  0  0  0
    5.9994   55.0565   21.0162 C   0  0  0  0  0  0
    5.9041   55.7615   19.8129 C   0  0  0  0  0  0
    6.7044   57.2964   19.6818 Cl  0  0  0  0  0  0
    6.7045   55.5974   22.0667 O   0  0  0  0  0  0
    5.6485   52.9854   22.4431 C   0  0  0  0  0  0
    4.8406   53.4186   23.6559 C   0  0  0  0  0  0
    5.3026   53.6967   24.9003 C   0  0  0  0  0  0
    6.7826   53.6991   25.2982 C   0  0  0  0  0  0
    4.3327   54.0266   26.0347 C   0  0  1  0  0  0
    3.3316   54.1234   25.6312 H   0  0  0  0  0  0
    4.3857   53.1387   27.3196 C   0  0  0  0  0  0
    3.1405   53.0329   28.2887 C   0  0  1  0  0  0
    2.6539   54.4636   28.7284 C   0  0  1  0  0  0
    2.3648   55.0005   27.8235 H   0  0  0  0  0  0
    1.3839   54.4302   29.6161 C   0  0  0  0  0  0
    0.2141   53.6944   28.9594 C   0  0  0  0  0  0
    0.6422   52.2904   28.5322 C   0  0  0  0  0  0
    0.0191   51.2967   28.8812 O   0  0  0  0  0  0
    1.9253   52.2159   27.6665 C   0  0  1  0  0  0
    2.2153   51.1646   27.6817 H   0  0  0  0  0  0
    1.4990   52.5035   26.2067 C   0  0  0  0  0  0
    3.7216   55.2612   29.4921 C   0  0  0  0  0  0
    3.5737   52.2237   29.5537 C   0  0  0  0  0  0
    4.6804   55.2967   26.4347 O   0  0  0  0  0  0
    4.3593   51.9012   20.1344 O   0  0  0  0  0  0
    3.8718   53.2732   17.7010 C   0  0  0  0  0  0
    3.6718   53.7385   16.5804 O   0  0  0  0  0  0
    5.3650   57.1019   17.5304 H   0  0  0  0  0  0
    5.5162   55.6042   16.6190 H   0  0  0  0  0  0
    3.9505   56.1599   17.2076 H   0  0  0  0  0  0
    6.6006   55.0927   22.8771 H   0  0  0  0  0  0
    5.4575   51.9254   22.2862 H   0  0  0  0  0  0
    6.7044   53.0202   22.6695 H   0  0  0  0  0  0
    3.7747   53.4582   23.4791 H   0  0  0  0  0  0
    6.9432   53.1269   26.2112 H   0  0  0  0  0  0
    7.4610   53.2967   24.5522 H   0  0  0  0  0  0
    7.1045   54.7220   25.4920 H   0  0  0  0  0  0
    4.6911   52.1452   27.0451 H   0  0  0  0  0  0
    5.2571   53.4400   27.9042 H   0  0  0  0  0  0
    1.0779   55.4500   29.8568 H   0  0  0  0  0  0
    1.5945   53.9826   30.5879 H   0  0  0  0  0  0
   -0.1369   54.2307   28.0817 H   0  0  0  0  0  0
   -0.6198   53.6063   29.6559 H   0  0  0  0  0  0
    0.6497   51.8860   25.9068 H   0  0  0  0  0  0
    1.2090   53.5439   26.0565 H   0  0  0  0  0  0
    2.2890   52.2559   25.4990 H   0  0  0  0  0  0
    3.9126   54.8251   30.4716 H   0  0  0  0  0  0
    4.6851   55.2967   28.9908 H   0  0  0  0  0  0
    3.3739   56.2814   29.6580 H   0  0  0  0  0  0
    2.7879   52.1139   30.3000 H   0  0  0  0  0  0
    3.8856   51.2188   29.2819 H   0  0  0  0  0  0
    4.4315   52.6701   30.0547 H   0  0  0  0  0  0
    4.2769   55.4567   27.2908 H   0  0  0  0  0  0
    4.5338   51.3946   19.3235 H   0  0  0  0  0  0
    3.4773   52.2825   17.9248 H   0  0  0  0  0  0
  1  2  1  0  0  0
  1 33  1  0  0  0
  1 34  1  0  0  0
  1 35  1  0  0  0
  2  7  2  0  0  0
  2  3  1  0  0  0
  3  4  2  0  0  0
  3 31  1  0  0  0
  4  5  1  0  0  0
  4 30  1  0  0  0
  5  6  2  0  0  0
  5 10  1  0  0  0
  6  7  1  0  0  0
  6  9  1  0  0  0
  7  8  1  0  0  0
  9 36  1  0  0  0
 10 11  1  0  0  0
 10 37  1  0  0  0
 10 38  1  0  0  0
 11 12  2  0  0  0
 11 39  1  0  0  0
 12 13  1  0  0  0
 12 14  1  0  0  0
 13 40  1  0  0  0
 13 41  1  0  0  0
 13 42  1  0  0  0
 14 15  1  0  0  0
 14 16  1  0  0  0
 14 29  1  0  0  0
 16 17  1  0  0  0
 16 43  1  0  0  0
 16 44  1  0  0  0
 17 24  1  0  0  0
 17 18  1  0  0  0
 17 28  1  0  0  0
 18 19  1  0  0  0
 18 20  1  0  0  0
 18 27  1  0  0  0
 20 21  1  0  0  0
 20 45  1  0  0  0
 20 46  1  0  0  0
 21 22  1  0  0  0
 21 47  1  0  0  0
 21 48  1  0  0  0
 22 23  2  0  0  0
 22 24  1  0  0  0
 24 25  1  0  0  0
 24 26  1  0  0  0
 26 49  1  0  0  0
 26 50  1  0  0  0
 26 51  1  0  0  0
 27 52  1  0  0  0
 27 53  1  0  0  0
 27 54  1  0  0  0
 28 55  1  0  0  0
 28 56  1  0  0  0
 28 57  1  0  0  0
 29 58  1  0  0  0
 30 59  1  0  0  0
 31 32  2  0  0  0
 31 60  1  0  0  0
M  END
> <i_i_glide_confnum>
147

> <i_i_glide_lignum>
4274

> <i_i_glide_posenum>
237

> <i_i_glide_rotatable_bonds>
9

> <i_m_Source_File_Index>
2952

> <b_m_subgroup_collapsed>
0

> <r_i_docking_score>
-4.97857

> <r_i_glide_ecoul>
-3.92387

> <r_i_glide_eff_state_penalty>
0

> <r_i_glide_einternal>
11.4624

> <r_i_glide_emodel>
-36.6766

> <r_i_glide_energy>
-28.6905

> <r_i_glide_erotb>
0.553862

> <r_i_glide_esite>
-0.0467014

> <r_i_glide_evdw>
-24.7667

> <r_i_glide_gscore>
-4.97857

> <r_i_glide_hbond>
-0.16

> <r_i_glide_ligand_efficiency>
-0.171675

> <r_i_glide_ligand_efficiency_ln>
-1.13997

> <r_i_glide_ligand_efficiency_sa>
-0.527439

> <r_i_glide_lipo>
-2.79049

> <r_i_glide_metal>
0

> <r_i_glide_rewards>
-0.708323

> <s_i_glide_gridfile>
wee1_glide-grid

> <s_m_Source_File>
wee1_decoys_glide_SP.sdf

> <s_m_Source_Path>
/Users/zhangxujun/Desktop

> <s_m_entry_id>
3227

> <s_m_entry_name>
wee1_decoys_glide_SP.2952

> <s_m_subgroup_title>
wee1_decoys_glide_SP

> <s_m_subgroupid>
wee1_decoys_glide_SP


$$$$
