ZINC43741657_4087
                    3D
 Schrodinger Suite 2024-2.
 76 80  0  0  1  0            999 V2000
    1.7491   52.4713   31.3565 C   0  0  0  0  0  0
    3.0018   52.4967   30.4865 C   0  0  0  0  0  0
    3.9045   51.6968   30.7180 O   0  0  0  0  0  0
    3.0950   53.5699   29.3649 C   0  0  1  0  0  0
    2.9598   54.5329   29.8578 H   0  0  0  0  0  0
    4.4742   53.6124   28.6601 C   0  0  0  0  0  0
    4.1908   53.8349   27.1707 C   0  0  0  0  0  0
    2.6975   54.1953   27.0470 C   0  0  2  0  0  0
    2.6340   55.2600   27.2817 H   0  0  0  0  0  0
    2.0162   53.4425   28.2399 C   0  0  1  0  0  0
    1.7529   51.9625   27.8406 C   0  0  0  0  0  0
    0.9330   51.8330   26.5635 C   0  0  0  0  0  0
    1.6655   52.4837   25.3635 C   0  0  2  0  0  0
    2.6686   52.0967   25.2818 H   0  0  0  0  0  0
    2.0281   53.9521   25.6375 C   0  0  2  0  0  0
    1.1044   54.4967   25.5865 H   0  0  0  0  0  0
    2.9226   54.4116   24.4672 C   0  0  0  0  0  0
    2.2242   54.2821   23.1026 C   0  0  0  0  0  0
    1.7808   52.8389   22.8679 C   0  0  0  0  0  0
    2.0774   52.1738   21.7307 C   0  0  0  0  0  0
    1.5872   50.8673   21.3472 C   0  0  0  0  0  0
    1.8660   50.2237   20.2840 N   0  0  0  0  0  0
    2.8785   50.8564   19.5422 O   0  0  0  0  0  0
    2.3934   51.2380   18.2574 C   0  0  0  0  0  0
    3.0111   52.5880   17.8841 C   0  0  0  0  0  0
    3.8036   53.1631   18.6362 O   0  0  0  0  0  0
    2.6219   53.1113   16.7074 N   0  0  0  0  0  0
    3.0975   54.3937   16.1950 C   0  0  0  0  0  0
    2.5826   55.5957   17.0185 C   0  0  0  0  0  0
    3.4254   56.8341   16.8442 C   0  0  0  0  0  0
    3.1044   58.1369   16.4728 C   0  0  0  0  0  0
    4.2560   58.8967   16.5589 N   0  0  0  0  0  0
    4.3044   59.9182   16.4457 H   0  0  0  0  0  0
    5.3004   58.0969   16.9529 C   0  0  0  0  0  0
    4.7829   56.8368   17.1408 N   0  3  0  0  0  0
    0.5779   50.2331   22.3002 C   0  0  0  0  0  0
    0.8283   50.6746   23.7555 C   0  0  0  0  0  0
    0.9291   52.2171   23.9969 C   0  0  1  0  0  0
   -0.4929   52.8391   23.9332 C   0  0  0  0  0  0
    0.6994   54.1422   28.6657 C   0  0  0  0  0  0
    1.3792   53.4760   31.5531 H   0  0  0  0  0  0
    1.9540   51.9820   32.3091 H   0  0  0  0  0  0
    0.9574   51.9090   30.8630 H   0  0  0  0  0  0
    5.0731   54.4320   29.0610 H   0  0  0  0  0  0
    5.0708   52.7061   28.7816 H   0  0  0  0  0  0
    4.8422   54.5800   26.7117 H   0  0  0  0  0  0
    4.3887   52.8967   26.6574 H   0  0  0  0  0  0
    2.7026   51.4531   27.6843 H   0  0  0  0  0  0
    1.2557   51.4149   28.6417 H   0  0  0  0  0  0
   -0.0736   52.2316   26.6808 H   0  0  0  0  0  0
    0.7784   50.7687   26.3912 H   0  0  0  0  0  0
    3.1938   55.4392   24.6502 H   0  0  0  0  0  0
    3.8739   53.8768   24.4581 H   0  0  0  0  0  0
    2.8901   54.6261   22.3094 H   0  0  0  0  0  0
    1.3507   54.9280   23.0594 H   0  0  0  0  0  0
    2.6642   52.7263   21.0113 H   0  0  0  0  0  0
    2.7044   50.4967   17.5276 H   0  0  0  0  0  0
    1.3060   51.3354   18.2124 H   0  0  0  0  0  0
    2.0010   52.5765   16.1184 H   0  0  0  0  0  0
    4.1896   54.3555   16.2016 H   0  0  0  0  0  0
    2.8168   54.5045   15.1465 H   0  0  0  0  0  0
    1.5417   55.7898   16.7580 H   0  0  0  0  0  0
    2.5705   55.3527   18.0815 H   0  0  0  0  0  0
    2.1633   58.5981   16.2058 H   0  0  0  0  0  0
    6.3148   58.4218   17.1450 H   0  0  0  0  0  0
   -0.4322   50.4868   21.9783 H   0  0  0  0  0  0
    0.6573   49.1451   22.2538 H   0  0  0  0  0  0
    1.7549   50.1964   24.0817 H   0  0  0  0  0  0
    0.0456   50.2412   24.3793 H   0  0  0  0  0  0
   -1.1565   52.4133   24.6854 H   0  0  0  0  0  0
   -0.4882   53.9175   24.0817 H   0  0  0  0  0  0
   -0.9627   52.6568   22.9662 H   0  0  0  0  0  0
   -0.0540   54.0968   27.8862 H   0  0  0  0  0  0
    0.2448   53.6749   29.5366 H   0  0  0  0  0  0
    0.8590   55.1939   28.9065 H   0  0  0  0  0  0
    5.3000   56.0336   17.4751 H   0  0  0  0  0  0
  1  2  1  0  0  0
  1 41  1  0  0  0
  1 42  1  0  0  0
  1 43  1  0  0  0
  2  3  2  0  0  0
  2  4  1  0  0  0
  4  5  1  0  0  0
  4 10  1  0  0  0
  4  6  1  0  0  0
  6  7  1  0  0  0
  6 44  1  0  0  0
  6 45  1  0  0  0
  7  8  1  0  0  0
  7 46  1  0  0  0
  7 47  1  0  0  0
  8  9  1  0  0  0
  8 15  1  0  0  0
  8 10  1  0  0  0
 10 11  1  0  0  0
 10 40  1  0  0  0
 11 12  1  0  0  0
 11 48  1  0  0  0
 11 49  1  0  0  0
 12 13  1  0  0  0
 12 50  1  0  0  0
 12 51  1  0  0  0
 13 14  1  0  0  0
 13 38  1  0  0  0
 13 15  1  0  0  0
 15 16  1  0  0  0
 15 17  1  0  0  0
 17 18  1  0  0  0
 17 52  1  0  0  0
 17 53  1  0  0  0
 18 19  1  0  0  0
 18 54  1  0  0  0
 18 55  1  0  0  0
 19 38  1  0  0  0
 19 20  2  0  0  0
 20 21  1  0  0  0
 20 56  1  0  0  0
 21 22  2  0  0  0
 21 36  1  0  0  0
 22 23  1  0  0  0
 23 24  1  0  0  0
 24 25  1  0  0  0
 24 57  1  0  0  0
 24 58  1  0  0  0
 25 26  2  0  0  0
 25 27  1  0  0  0
 27 28  1  0  0  0
 27 59  1  0  0  0
 28 29  1  0  0  0
 28 60  1  0  0  0
 28 61  1  0  0  0
 29 30  1  0  0  0
 29 62  1  0  0  0
 29 63  1  0  0  0
 30 35  1  0  0  0
 30 31  2  0  0  0
 31 32  1  0  0  0
 31 64  1  0  0  0
 32 33  1  0  0  0
 32 34  1  0  0  0
 34 35  2  0  0  0
 34 65  1  0  0  0
 35 76  1  0  0  0
 36 37  1  0  0  0
 36 66  1  0  0  0
 36 67  1  0  0  0
 37 38  1  0  0  0
 37 68  1  0  0  0
 37 69  1  0  0  0
 38 39  1  0  0  0
 39 70  1  0  0  0
 39 71  1  0  0  0
 39 72  1  0  0  0
 40 73  1  0  0  0
 40 74  1  0  0  0
 40 75  1  0  0  0
M  CHG  1  35   1
M  END
> <i_i_glide_confnum>
47

> <i_i_glide_lignum>
4088

> <i_i_glide_posenum>
95

> <i_i_glide_rotatable_bonds>
8

> <i_m_Source_File_Index>
5885

> <b_m_subgroup_collapsed>
0

> <r_i_docking_score>
-4.09961

> <r_i_glide_ecoul>
-8.42198

> <r_i_glide_eff_state_penalty>
0

> <r_i_glide_einternal>
7.48926

> <r_i_glide_emodel>
-42.8565

> <r_i_glide_energy>
-40.9356

> <r_i_glide_erotb>
0.524715

> <r_i_glide_esite>
-0.323547

> <r_i_glide_evdw>
-32.5136

> <r_i_glide_gscore>
-4.09961

> <r_i_glide_hbond>
-0.52

> <r_i_glide_ligand_efficiency>
-0.117132

> <r_i_glide_ligand_efficiency_ln>
-0.899954

> <r_i_glide_ligand_efficiency_sa>
-0.383145

> <r_i_glide_lipo>
-2.67232

> <r_i_glide_metal>
0

> <r_i_glide_rewards>
1.78052

> <s_i_glide_gridfile>
wee1_glide-grid

> <s_m_Source_File>
wee1_decoys_glide_SP.sdf

> <s_m_Source_Path>
/Users/zhangxujun/Desktop

> <s_m_entry_id>
6160

> <s_m_entry_name>
wee1_decoys_glide_SP.5885

> <s_m_subgroup_title>
wee1_decoys_glide_SP

> <s_m_subgroupid>
wee1_decoys_glide_SP


$$$$
