ZINC59474834_5318
                    3D
 Schrodinger Suite 2024-2.
 50 53  0  0  1  0            999 V2000
    6.6258   54.2721   24.2589 C   0  0  0  0  0  0
    6.6054   54.3976   25.6500 C   0  0  0  0  0  0
    5.3727   54.3289   26.3019 C   0  0  0  0  0  0
    4.1855   54.1799   25.5489 C   0  0  0  0  0  0
    4.2156   54.0963   24.1517 C   0  0  0  0  0  0
    5.4558   54.1024   23.5047 C   0  0  0  0  0  0
    5.4945   53.9282   22.1216 N   0  0  0  0  0  0
    5.8082   54.8961   21.3575 C   0  0  0  0  0  0
    5.8186   54.8405   19.8837 C   0  0  0  0  0  0
    6.1606   56.0175   19.1987 C   0  0  0  0  0  0
    6.2007   56.0601   17.8068 C   0  0  0  0  0  0
    5.9068   54.9198   17.0664 C   0  0  0  0  0  0
    5.5631   53.7396   17.7217 C   0  0  0  0  0  0
    5.5072   53.6948   19.1153 C   0  0  0  0  0  0
    5.1518   52.4977   19.6815 O   0  0  0  0  0  0
    6.6608   57.6808   16.9238 Br  0  0  0  0  0  0
    2.8310   54.0954   26.6534 S   0  0  0  0  0  0
    3.9553   54.2693   27.9882 C   0  0  0  0  0  0
    5.2067   54.3841   27.6472 N   0  0  0  0  0  0
    3.4658   54.2775   29.6815 S   0  0  0  0  0  0
    1.6486   54.1000   29.6083 C   0  0  0  0  0  0
    1.1808   52.6739   29.3059 C   0  0  0  0  0  0
    1.8422   51.7046   29.6820 O   0  0  0  0  0  0
    0.0531   52.5626   28.5850 N   0  0  0  0  0  0
   -0.4732   51.2964   28.0700 C   0  0  0  0  0  0
    0.3382   50.7395   26.8770 C   0  0  1  0  0  0
    1.3264   50.4412   27.2353 H   0  0  0  0  0  0
   -0.3545   49.6713   26.0373 C   0  0  0  0  0  0
    0.2693   49.8108   24.6661 C   0  0  0  0  0  0
    0.7729   51.2546   24.6255 C   0  0  0  0  0  0
    0.4845   51.7885   25.9160 O   0  0  0  0  0  0
    7.5716   54.2729   23.7420 H   0  0  0  0  0  0
    7.5097   54.4954   26.2227 H   0  0  0  0  0  0
    3.3064   53.9668   23.5824 H   0  0  0  0  0  0
    6.0888   55.8606   21.7725 H   0  0  0  0  0  0
    6.3934   56.9242   19.7380 H   0  0  0  0  0  0
    5.9413   54.9507   15.9876 H   0  0  0  0  0  0
    5.3334   52.8564   17.1417 H   0  0  0  0  0  0
    5.1046   51.7751   19.0309 H   0  0  0  0  0  0
    1.2322   54.8219   28.9055 H   0  0  0  0  0  0
    1.2476   54.3628   30.5869 H   0  0  0  0  0  0
   -0.4231   53.3988   28.2857 H   0  0  0  0  0  0
   -1.5165   51.4298   27.7847 H   0  0  0  0  0  0
   -0.4918   50.5606   28.8727 H   0  0  0  0  0  0
   -1.4300   49.8544   26.0017 H   0  0  0  0  0  0
   -0.2512   48.6800   26.4810 H   0  0  0  0  0  0
   -0.4464   49.5986   23.8699 H   0  0  0  0  0  0
    1.1044   49.1160   24.5573 H   0  0  0  0  0  0
    0.2611   51.8424   23.8617 H   0  0  0  0  0  0
    1.8462   51.2986   24.4333 H   0  0  0  0  0  0
  1  6  2  0  0  0
  1  2  1  0  0  0
  1 32  1  0  0  0
  2  3  2  0  0  0
  2 33  1  0  0  0
  3 19  1  0  0  0
  3  4  1  0  0  0
  4  5  2  0  0  0
  4 17  1  0  0  0
  5  6  1  0  0  0
  5 34  1  0  0  0
  6  7  1  0  0  0
  7  8  2  0  0  0
  8  9  1  0  0  0
  8 35  1  0  0  0
  9 14  2  0  0  0
  9 10  1  0  0  0
 10 11  2  0  0  0
 10 36  1  0  0  0
 11 12  1  0  0  0
 11 16  1  0  0  0
 12 13  2  0  0  0
 12 37  1  0  0  0
 13 14  1  0  0  0
 13 38  1  0  0  0
 14 15  1  0  0  0
 15 39  1  0  0  0
 17 18  1  0  0  0
 18 19  2  0  0  0
 18 20  1  0  0  0
 20 21  1  0  0  0
 21 22  1  0  0  0
 21 40  1  0  0  0
 21 41  1  0  0  0
 22 23  2  0  0  0
 22 24  1  0  0  0
 24 25  1  0  0  0
 24 42  1  0  0  0
 25 26  1  0  0  0
 25 43  1  0  0  0
 25 44  1  0  0  0
 26 27  1  0  0  0
 26 31  1  0  0  0
 26 28  1  0  0  0
 28 29  1  0  0  0
 28 45  1  0  0  0
 28 46  1  0  0  0
 29 30  1  0  0  0
 29 47  1  0  0  0
 29 48  1  0  0  0
 30 31  1  0  0  0
 30 49  1  0  0  0
 30 50  1  0  0  0
M  END
> <i_i_glide_confnum>
32

> <i_i_glide_lignum>
5319

> <i_i_glide_posenum>
383

> <i_i_glide_rotatable_bonds>
9

> <i_m_Source_File_Index>
4275

> <b_m_subgroup_collapsed>
0

> <r_i_docking_score>
-6.13575

> <r_i_glide_ecoul>
-7.23416

> <r_i_glide_eff_state_penalty>
0

> <r_i_glide_einternal>
1.9107

> <r_i_glide_emodel>
-71.5865

> <r_i_glide_energy>
-51.5047

> <r_i_glide_erotb>
0.558408

> <r_i_glide_esite>
0

> <r_i_glide_evdw>
-44.2705

> <r_i_glide_gscore>
-6.13575

> <r_i_glide_hbond>
-0.308793

> <r_i_glide_ligand_efficiency>
-0.204525

> <r_i_glide_ligand_efficiency_ln>
-1.39411

> <r_i_glide_ligand_efficiency_sa>
-0.635506

> <r_i_glide_lipo>
-2.48065

> <r_i_glide_metal>
0

> <r_i_glide_rewards>
-0.606059

> <s_i_glide_gridfile>
wee1_glide-grid

> <s_m_Source_File>
wee1_decoys_glide_SP.sdf

> <s_m_Source_Path>
/Users/zhangxujun/Desktop

> <s_m_entry_id>
4550

> <s_m_entry_name>
wee1_decoys_glide_SP.4275

> <s_m_subgroup_title>
wee1_decoys_glide_SP

> <s_m_subgroupid>
wee1_decoys_glide_SP


$$$$
