ZINC15958442_1219
                    3D
 Schrodinger Suite 2024-2.
 74 77  0  0  1  0            999 V2000
    4.8718   54.7591   25.9653 C   0  0  0  0  0  0
    3.7491   54.1819   25.1234 C   0  0  0  0  0  0
    3.7419   54.3549   23.7394 C   0  0  0  0  0  0
    2.7055   53.8338   22.9703 C   0  0  0  0  0  0
    1.6713   53.1123   23.5712 C   0  0  0  0  0  0
    1.6688   52.9258   24.9670 C   0  0  0  0  0  0
    2.7092   53.4816   25.7329 C   0  0  0  0  0  0
    0.6432   52.1360   25.5170 N   0  0  0  0  0  0
    0.2768   51.9401   26.8028 C   0  0  0  0  0  0
    0.7538   52.5448   27.7618 O   0  0  0  0  0  0
   -0.8276   50.9081   27.1002 C   0  0  0  0  0  0
   -0.2612   48.9526   25.5921 C   0  0  0  0  0  0
   -0.6845   48.1763   24.3407 C   0  0  0  0  0  0
   -2.0889   47.5527   24.4610 C   0  0  2  0  0  0
   -2.4965   46.7878   23.1710 C   0  0  0  0  0  0
   -3.9516   46.2664   23.1803 C   0  0  0  0  0  0
   -4.9604   47.3817   23.5134 C   0  0  0  0  0  0
   -4.5725   48.1182   24.8109 C   0  0  0  0  0  0
   -3.1285   48.6925   24.7388 C   0  0  1  0  0  0
   -3.1001   49.3545   23.8708 H   0  0  0  0  0  0
   -2.7551   49.5554   25.9870 C   0  0  2  0  0  0
   -2.7839   48.9336   26.8816 H   0  0  0  0  0  0
   -3.7130   50.7349   26.2107 C   0  0  0  0  0  0
   -4.5969   50.7323   27.2910 C   0  0  0  0  0  0
   -5.4980   51.7919   27.4925 C   0  0  0  0  0  0
   -5.4930   52.8740   26.5992 C   0  0  0  0  0  0
   -4.5870   52.9006   25.5247 C   0  0  0  0  0  0
   -3.7141   51.8212   25.3368 C   0  0  0  0  0  0
   -4.6105   53.9993   24.6906 O   0  0  0  0  0  0
   -3.6057   54.1451   23.6983 C   0  0  0  0  0  0
   -6.4358   53.8718   26.7600 O   0  0  0  0  0  0
   -5.9735   55.1812   27.0803 C   0  0  0  0  0  0
   -6.3957   51.8423   28.5457 O   0  0  0  0  0  0
   -6.4276   50.7776   29.4922 C   0  0  0  0  0  0
   -2.1158   46.6374   25.5499 O   0  0  0  0  0  0
    0.5700   52.5439   22.6826 C   0  0  0  0  0  0
    4.4935   55.0927   26.9340 H   0  0  0  0  0  0
    5.6424   54.0069   26.1394 H   0  0  0  0  0  0
    5.3206   55.6301   25.4877 H   0  0  0  0  0  0
    4.5404   54.8964   23.2542 H   0  0  0  0  0  0
    2.7158   53.9849   21.9007 H   0  0  0  0  0  0
    2.7607   53.3414   26.8000 H   0  0  0  0  0  0
    0.1083   51.6526   24.8170 H   0  0  0  0  0  0
   -0.4957   50.1903   27.8488 H   0  0  0  0  0  0
   -1.6806   51.4338   27.5250 H   0  0  0  0  0  0
    0.7125   49.4123   25.4171 H   0  0  0  0  0  0
   -0.2031   48.3274   26.4810 H   0  0  0  0  0  0
   -0.6568   48.8413   23.4751 H   0  0  0  0  0  0
    0.0470   47.4073   24.0949 H   0  0  0  0  0  0
   -2.3792   47.4581   22.3189 H   0  0  0  0  0  0
   -1.7833   45.9893   22.9630 H   0  0  0  0  0  0
   -4.0521   45.4687   23.9149 H   0  0  0  0  0  0
   -4.1974   45.8213   22.2144 H   0  0  0  0  0  0
   -5.9625   46.9612   23.6132 H   0  0  0  0  0  0
   -5.0103   48.0935   22.6875 H   0  0  0  0  0  0
   -4.6782   47.4650   25.6794 H   0  0  0  0  0  0
   -5.2916   48.9210   24.9850 H   0  0  0  0  0  0
   -4.5787   49.8923   27.9671 H   0  0  0  0  0  0
   -3.0313   51.8092   24.5032 H   0  0  0  0  0  0
   -3.7341   55.1373   23.2817 H   0  0  0  0  0  0
   -2.5873   54.0949   24.0818 H   0  0  0  0  0  0
   -3.6936   53.4002   22.9126 H   0  0  0  0  0  0
   -6.7853   55.8844   26.9014 H   0  0  0  0  0  0
   -5.6959   55.2929   28.1255 H   0  0  0  0  0  0
   -5.1249   55.5076   26.4821 H   0  0  0  0  0  0
   -7.1779   50.9904   30.2510 H   0  0  0  0  0  0
   -6.6973   49.8323   29.0179 H   0  0  0  0  0  0
   -5.4693   50.6632   30.0030 H   0  0  0  0  0  0
   -1.8310   47.0887   26.3525 H   0  0  0  0  0  0
   -0.4055   52.8907   23.0281 H   0  0  0  0  0  0
    0.6791   52.8490   21.6407 H   0  0  0  0  0  0
    0.5724   51.4553   22.7213 H   0  0  0  0  0  0
   -1.2896   50.0871   25.8525 N   0  3  1  0  0  0
   -1.3061   50.6680   25.0280 H   0  0  0  0  0  0
  1  2  1  0  0  0
  1 37  1  0  0  0
  1 38  1  0  0  0
  1 39  1  0  0  0
  2  7  2  0  0  0
  2  3  1  0  0  0
  3  4  2  0  0  0
  3 40  1  0  0  0
  4  5  1  0  0  0
  4 41  1  0  0  0
  5  6  2  0  0  0
  5 36  1  0  0  0
  6  7  1  0  0  0
  6  8  1  0  0  0
  7 42  1  0  0  0
  8  9  1  0  0  0
  8 43  1  0  0  0
  9 10  2  0  0  0
  9 11  1  0  0  0
 11 44  1  0  0  0
 11 45  1  0  0  0
 11 73  1  0  0  0
 12 13  1  0  0  0
 12 46  1  0  0  0
 12 47  1  0  0  0
 12 73  1  0  0  0
 13 14  1  0  0  0
 13 48  1  0  0  0
 13 49  1  0  0  0
 14 19  1  0  0  0
 14 15  1  0  0  0
 14 35  1  0  0  0
 15 16  1  0  0  0
 15 50  1  0  0  0
 15 51  1  0  0  0
 16 17  1  0  0  0
 16 52  1  0  0  0
 16 53  1  0  0  0
 17 18  1  0  0  0
 17 54  1  0  0  0
 17 55  1  0  0  0
 18 19  1  0  0  0
 18 56  1  0  0  0
 18 57  1  0  0  0
 19 20  1  0  0  0
 19 21  1  0  0  0
 21 22  1  0  0  0
 21 23  1  0  0  0
 21 73  1  0  0  0
 23 28  2  0  0  0
 23 24  1  0  0  0
 24 25  2  0  0  0
 24 58  1  0  0  0
 25 26  1  0  0  0
 25 33  1  0  0  0
 26 27  2  0  0  0
 26 31  1  0  0  0
 27 28  1  0  0  0
 27 29  1  0  0  0
 28 59  1  0  0  0
 29 30  1  0  0  0
 30 60  1  0  0  0
 30 61  1  0  0  0
 30 62  1  0  0  0
 31 32  1  0  0  0
 32 63  1  0  0  0
 32 64  1  0  0  0
 32 65  1  0  0  0
 33 34  1  0  0  0
 34 66  1  0  0  0
 34 67  1  0  0  0
 34 68  1  0  0  0
 35 69  1  0  0  0
 36 70  1  0  0  0
 36 71  1  0  0  0
 36 72  1  0  0  0
 73 74  1  0  0  0
M  CHG  1  73   1
M  END
> <i_i_glide_confnum>
29

> <i_i_glide_lignum>
1220

> <i_i_glide_posenum>
215

> <i_i_glide_rotatable_bonds>
9

> <i_m_Source_File_Index>
5299

> <b_m_subgroup_collapsed>
0

> <r_i_docking_score>
-3.99258

> <r_i_glide_ecoul>
-5.11485

> <r_i_glide_eff_state_penalty>
0

> <r_i_glide_einternal>
7.78505

> <r_i_glide_emodel>
-44.3505

> <r_i_glide_energy>
-36.2397

> <r_i_glide_erotb>
0.434012

> <r_i_glide_esite>
-0.0812335

> <r_i_glide_evdw>
-31.1248

> <r_i_glide_gscore>
-3.99258

> <r_i_glide_hbond>
-0.020492

> <r_i_glide_ligand_efficiency>
-0.114074

> <r_i_glide_ligand_efficiency_ln>
-0.876459

> <r_i_glide_ligand_efficiency_sa>
-0.373142

> <r_i_glide_lipo>
-1.84711

> <r_i_glide_metal>
0

> <r_i_glide_rewards>
-0.154282

> <s_i_glide_gridfile>
wee1_glide-grid

> <s_m_Source_File>
wee1_decoys_glide_SP.sdf

> <s_m_Source_Path>
/Users/zhangxujun/Desktop

> <s_m_entry_id>
5574

> <s_m_entry_name>
wee1_decoys_glide_SP.5299

> <s_m_subgroup_title>
wee1_decoys_glide_SP

> <s_m_subgroupid>
wee1_decoys_glide_SP


$$$$
