ZINC00685870_52
                    3D
 Schrodinger Suite 2024-2.
 51 53  0  0  1  0            999 V2000
    2.1094   52.0604   14.8683 C   0  0  0  0  0  0
    2.5368   52.3593   16.2938 C   0  0  0  0  0  0
    3.5360   53.2970   16.5485 C   0  0  0  0  0  0
    3.9358   53.5616   17.8574 C   0  0  0  0  0  0
    3.3324   52.8963   18.9389 C   0  0  0  0  0  0
    2.3148   51.9562   18.6799 C   0  0  0  0  0  0
    1.9270   51.6986   17.3608 C   0  0  0  0  0  0
    1.6201   51.1962   19.8053 C   0  0  0  0  0  0
    3.6865   53.1149   20.2858 N   0  0  0  0  0  0
    4.4758   54.0606   20.8425 C   0  0  0  0  0  0
    5.1297   54.8976   20.2242 O   0  0  0  0  0  0
    4.4851   54.0441   22.2901 C   0  0  0  0  0  0
    5.5332   54.3926   23.1639 C   0  0  0  0  0  0
    5.1407   54.3378   24.5418 C   0  0  0  0  0  0
    3.7890   53.9350   24.6705 C   0  0  0  0  0  0
    3.0139   53.6977   23.1344 S   0  0  0  0  0  0
    3.1037   53.7565   25.8758 N   0  0  0  0  0  0
    1.8552   53.2966   26.0961 C   0  0  0  0  0  0
    1.0705   52.9164   25.2281 O   0  0  0  0  0  0
    1.4415   53.2728   27.5468 C   0  0  0  0  0  0
    1.5809   54.4244   28.3415 C   0  0  0  0  0  0
    1.1787   54.4066   29.6777 C   0  0  0  0  0  0
    0.6517   53.2256   30.1967 C   0  0  0  0  0  0
    0.5214   52.0969   29.4585 N   0  0  0  0  0  0
    0.9079   52.1180   28.1552 C   0  0  0  0  0  0
    0.7027   50.6361   27.2816 Cl  0  0  0  0  0  0
    6.0443   54.6793   25.6647 C   0  0  0  0  0  0
    7.1039   55.2954   25.5339 O   0  0  0  0  0  0
    5.5711   54.2583   26.8591 O   0  0  0  0  0  0
    6.2407   54.6071   28.0567 C   0  0  0  0  0  0
    6.9419   54.7465   22.6941 C   0  0  0  0  0  0
    2.3654   52.8768   14.1913 H   0  0  0  0  0  0
    1.0278   51.9279   14.8144 H   0  0  0  0  0  0
    2.5828   51.1423   14.5181 H   0  0  0  0  0  0
    4.0226   53.8135   15.7342 H   0  0  0  0  0  0
    4.7300   54.2772   17.9960 H   0  0  0  0  0  0
    1.1602   50.9649   17.1588 H   0  0  0  0  0  0
    2.3482   50.6053   20.3650 H   0  0  0  0  0  0
    1.1520   51.8963   20.4979 H   0  0  0  0  0  0
    0.8469   50.5194   19.4348 H   0  0  0  0  0  0
    3.2152   52.5032   20.9316 H   0  0  0  0  0  0
    3.6668   53.9329   26.6958 H   0  0  0  0  0  0
    1.9819   55.3400   27.9282 H   0  0  0  0  0  0
    1.2617   55.2927   30.2905 H   0  0  0  0  0  0
    0.3163   53.1655   31.2236 H   0  0  0  0  0  0
    5.6780   54.2616   28.9239 H   0  0  0  0  0  0
    7.2434   54.1794   28.0937 H   0  0  0  0  0  0
    6.3157   55.6937   28.0951 H   0  0  0  0  0  0
    7.2187   55.7603   22.9834 H   0  0  0  0  0  0
    7.6723   54.0961   23.1755 H   0  0  0  0  0  0
    7.1195   54.6602   21.6254 H   0  0  0  0  0  0
  1  2  1  0  0  0
  1 32  1  0  0  0
  1 33  1  0  0  0
  1 34  1  0  0  0
  2  7  2  0  0  0
  2  3  1  0  0  0
  3  4  2  0  0  0
  3 35  1  0  0  0
  4  5  1  0  0  0
  4 36  1  0  0  0
  5  6  2  0  0  0
  5  9  1  0  0  0
  6  7  1  0  0  0
  6  8  1  0  0  0
  7 37  1  0  0  0
  8 38  1  0  0  0
  8 39  1  0  0  0
  8 40  1  0  0  0
  9 10  1  0  0  0
  9 41  1  0  0  0
 10 11  2  0  0  0
 10 12  1  0  0  0
 12 16  1  0  0  0
 12 13  2  0  0  0
 13 14  1  0  0  0
 13 31  1  0  0  0
 14 15  2  0  0  0
 14 27  1  0  0  0
 15 16  1  0  0  0
 15 17  1  0  0  0
 17 18  1  0  0  0
 17 42  1  0  0  0
 18 19  2  0  0  0
 18 20  1  0  0  0
 20 25  2  0  0  0
 20 21  1  0  0  0
 21 22  2  0  0  0
 21 43  1  0  0  0
 22 23  1  0  0  0
 22 44  1  0  0  0
 23 24  2  0  0  0
 23 45  1  0  0  0
 24 25  1  0  0  0
 25 26  1  0  0  0
 27 28  2  0  0  0
 27 29  1  0  0  0
 29 30  1  0  0  0
 30 46  1  0  0  0
 30 47  1  0  0  0
 30 48  1  0  0  0
 31 49  1  0  0  0
 31 50  1  0  0  0
 31 51  1  0  0  0
M  END
> <i_i_glide_confnum>
124

> <i_i_glide_lignum>
53

> <i_i_glide_posenum>
391

> <i_i_glide_rotatable_bonds>
8

> <i_m_Source_File_Index>
3631

> <b_m_subgroup_collapsed>
0

> <r_i_docking_score>
-6.06059

> <r_i_glide_ecoul>
-2.34297

> <r_i_glide_eff_state_penalty>
0

> <r_i_glide_einternal>
2.07307

> <r_i_glide_emodel>
-67.1754

> <r_i_glide_energy>
-48.6428

> <r_i_glide_erotb>
0.67125

> <r_i_glide_esite>
0

> <r_i_glide_evdw>
-46.2998

> <r_i_glide_gscore>
-6.06059

> <r_i_glide_hbond>
-0.32

> <r_i_glide_ligand_efficiency>
-0.195503

> <r_i_glide_ligand_efficiency_ln>
-1.36685

> <r_i_glide_ligand_efficiency_sa>
-0.614149

> <r_i_glide_lipo>
-2.18068

> <r_i_glide_metal>
0

> <r_i_glide_rewards>
-1.56472

> <s_i_glide_gridfile>
wee1_glide-grid

> <s_m_Source_File>
wee1_decoys_glide_SP.sdf

> <s_m_Source_Path>
/Users/zhangxujun/Desktop

> <s_m_entry_id>
3906

> <s_m_entry_name>
wee1_decoys_glide_SP.3631

> <s_m_subgroup_title>
wee1_decoys_glide_SP

> <s_m_subgroupid>
wee1_decoys_glide_SP


$$$$
