ZINC08895625_4009
                    3D
 Schrodinger Suite 2024-2.
 57 61  0  0  1  0            999 V2000
   -0.0308   52.3599   24.5668 C   0  0  0  0  0  0
    0.2042   52.8321   23.2815 C   0  0  0  0  0  0
    1.4551   53.3441   22.9428 C   0  0  0  0  0  0
    2.4963   53.3887   23.8840 C   0  0  0  0  0  0
    2.2404   52.8726   25.1595 C   0  0  0  0  0  0
    0.9888   52.3744   25.5089 C   0  0  0  0  0  0
    3.8634   53.9260   23.5067 C   0  0  0  0  0  0
    4.9334   54.3243   24.3519 C   0  0  0  0  0  0
    6.3080   54.7708   23.3666 S   0  0  0  0  0  0
    5.3367   54.4967   21.9574 C   0  0  0  0  0  0
    4.1408   54.0442   22.2140 N   0  0  0  0  0  0
    5.7314   54.7424   20.6505 N   0  0  0  0  0  0
    6.8814   55.2968   20.2044 C   0  0  0  0  0  0
    7.7543   55.7684   20.9338 O   0  0  0  0  0  0
    7.0605   55.4050   18.6702 C   0  0  1  0  0  0
    6.9562   56.4686   18.4494 H   0  0  0  0  0  0
    8.4373   54.8855   18.2011 C   0  0  0  0  0  0
    8.1584   54.1601   16.8967 C   0  0  0  0  0  0
    6.7946   53.5199   17.1249 C   0  0  0  0  0  0
    6.0817   54.5686   17.9006 N   0  0  0  0  0  0
    4.6688   55.3687   17.1957 S   0  0  0  0  0  0
    4.9454   55.6166   15.7769 O   0  0  0  0  0  0
    4.3022   56.4785   18.0817 O   0  0  0  0  0  0
    3.3025   54.2140   17.2695 C   0  0  0  0  0  0
    3.4703   52.8971   17.7123 C   0  0  0  0  0  0
    2.3731   52.0423   17.7605 C   0  0  0  0  0  0
    1.1163   52.5038   17.3744 C   0  0  0  0  0  0
    0.9463   53.8132   16.9328 C   0  0  0  0  0  0
    2.0418   54.6712   16.8814 C   0  0  0  0  0  0
    0.0492   51.6755   17.4290 F   0  0  0  0  0  0
    5.0827   54.4284   25.8358 C   0  0  0  0  0  0
    4.0215   54.8962   26.6136 C   0  0  0  0  0  0
    4.1109   54.8963   28.0012 C   0  0  0  0  0  0
    5.2956   54.4965   28.6080 C   0  0  0  0  0  0
    6.3823   54.0789   27.8456 C   0  0  0  0  0  0
    6.2727   54.0377   26.4603 C   0  0  0  0  0  0
   -1.0009   51.9599   24.8257 H   0  0  0  0  0  0
   -0.5829   52.7966   22.5448 H   0  0  0  0  0  0
    1.6051   53.6969   21.9321 H   0  0  0  0  0  0
    3.0254   52.7853   25.8904 H   0  0  0  0  0  0
    0.8205   51.9763   26.4991 H   0  0  0  0  0  0
    5.0568   54.4984   19.9394 H   0  0  0  0  0  0
    8.8961   54.2001   18.9176 H   0  0  0  0  0  0
    9.1464   55.7008   18.0500 H   0  0  0  0  0  0
    8.9239   53.4233   16.6514 H   0  0  0  0  0  0
    8.1043   54.8650   16.0648 H   0  0  0  0  0  0
    6.9265   52.6373   17.7541 H   0  0  0  0  0  0
    6.2433   53.1582   16.2555 H   0  0  0  0  0  0
    4.4335   52.5128   18.0168 H   0  0  0  0  0  0
    2.5066   51.0199   18.0896 H   0  0  0  0  0  0
   -0.0323   54.1605   16.6369 H   0  0  0  0  0  0
    1.9139   55.6911   16.5450 H   0  0  0  0  0  0
    3.1057   55.2225   26.1456 H   0  0  0  0  0  0
    3.2761   55.2305   28.5993 H   0  0  0  0  0  0
    5.3756   54.5206   29.6821 H   0  0  0  0  0  0
    7.2988   53.7712   28.3302 H   0  0  0  0  0  0
    7.1033   53.6724   25.8752 H   0  0  0  0  0  0
  1  6  2  0  0  0
  1  2  1  0  0  0
  1 37  1  0  0  0
  2  3  2  0  0  0
  2 38  1  0  0  0
  3  4  1  0  0  0
  3 39  1  0  0  0
  4  5  2  0  0  0
  4  7  1  0  0  0
  5  6  1  0  0  0
  5 40  1  0  0  0
  6 41  1  0  0  0
  7 11  1  0  0  0
  7  8  2  0  0  0
  8  9  1  0  0  0
  8 31  1  0  0  0
  9 10  1  0  0  0
 10 11  2  0  0  0
 10 12  1  0  0  0
 12 13  1  0  0  0
 12 42  1  0  0  0
 13 14  2  0  0  0
 13 15  1  0  0  0
 15 16  1  0  0  0
 15 20  1  0  0  0
 15 17  1  0  0  0
 17 18  1  0  0  0
 17 43  1  0  0  0
 17 44  1  0  0  0
 18 19  1  0  0  0
 18 45  1  0  0  0
 18 46  1  0  0  0
 19 20  1  0  0  0
 19 47  1  0  0  0
 19 48  1  0  0  0
 20 21  1  0  0  0
 21 22  2  0  0  0
 21 23  2  0  0  0
 21 24  1  0  0  0
 24 29  2  0  0  0
 24 25  1  0  0  0
 25 26  2  0  0  0
 25 49  1  0  0  0
 26 27  1  0  0  0
 26 50  1  0  0  0
 27 28  2  0  0  0
 27 30  1  0  0  0
 28 29  1  0  0  0
 28 51  1  0  0  0
 29 52  1  0  0  0
 31 36  2  0  0  0
 31 32  1  0  0  0
 32 33  2  0  0  0
 32 53  1  0  0  0
 33 34  1  0  0  0
 33 54  1  0  0  0
 34 35  2  0  0  0
 34 55  1  0  0  0
 35 36  1  0  0  0
 35 56  1  0  0  0
 36 57  1  0  0  0
M  END
> <i_i_glide_confnum>
188

> <i_i_glide_lignum>
4010

> <i_i_glide_posenum>
220

> <i_i_glide_rotatable_bonds>
7

> <i_m_Source_File_Index>
416

> <b_m_subgroup_collapsed>
0

> <r_i_docking_score>
-2.98307

> <r_i_glide_ecoul>
-2.52117

> <r_i_glide_eff_state_penalty>
0

> <r_i_glide_einternal>
7.95205

> <r_i_glide_emodel>
-43.2821

> <r_i_glide_energy>
-46.2124

> <r_i_glide_erotb>
0.556061

> <r_i_glide_esite>
-0.0149079

> <r_i_glide_evdw>
-43.6912

> <r_i_glide_gscore>
-2.98307

> <r_i_glide_hbond>
0

> <r_i_glide_ligand_efficiency>
-0.0852306

> <r_i_glide_ligand_efficiency_ln>
-0.65485

> <r_i_glide_ligand_efficiency_sa>
-0.278795

> <r_i_glide_lipo>
-3.55171

> <r_i_glide_metal>
0

> <r_i_glide_rewards>
2.59023

> <s_i_glide_gridfile>
wee1_glide-grid

> <s_m_Source_File>
wee1_decoys_glide_SP.sdf

> <s_m_Source_Path>
/Users/zhangxujun/Desktop

> <s_m_entry_id>
691

> <s_m_entry_name>
wee1_decoys_glide_SP.416

> <s_m_subgroup_title>
wee1_decoys_glide_SP

> <s_m_subgroupid>
wee1_decoys_glide_SP


$$$$
