ZINC27520998_5992
                    3D
 Schrodinger Suite 2024-2.
 53 55  0  0  1  0            999 V2000
    4.1503   53.1449   29.5205 C   0  0  0  0  0  0
    4.6465   53.5893   28.1575 C   0  0  0  0  0  0
    3.7564   53.6969   27.0888 C   0  0  0  0  0  0
    4.2164   54.0968   25.8376 C   0  0  0  0  0  0
    5.5707   54.3947   25.6454 C   0  0  0  0  0  0
    6.4558   54.2935   26.7254 C   0  0  0  0  0  0
    5.9970   53.8878   27.9756 C   0  0  0  0  0  0
    6.0621   54.8939   24.3138 C   0  0  0  0  0  0
    6.7044   55.9384   24.2780 O   0  0  0  0  0  0
    5.7508   54.1262   23.2406 N   0  0  0  0  0  0
    5.7123   54.4585   21.8935 C   0  0  0  0  0  0
    4.7546   53.8956   21.1044 C   0  0  0  0  0  0
    3.6979   52.9610   21.5276 C   0  0  0  0  0  0
    2.7629   53.3116   22.5044 C   0  0  0  0  0  0
    1.8163   52.3809   22.9267 C   0  0  0  0  0  0
    1.7995   51.1072   22.3601 C   0  0  0  0  0  0
    2.7028   50.7663   21.3557 C   0  0  0  0  0  0
    3.6475   51.6969   20.9335 C   0  0  0  0  0  0
    0.5356   49.8189   22.9638 Br  0  0  0  0  0  0
    6.7473   55.2966   21.2639 C   0  0  0  0  0  0
    7.9021   55.3033   21.6817 O   0  0  0  0  0  0
    6.3722   55.9995   20.1675 N   0  0  0  0  0  0
    7.1863   56.7344   19.2841 C   0  0  0  0  0  0
    6.5591   57.7273   18.5359 C   0  0  0  0  0  0
    7.2905   58.5140   17.6534 C   0  0  0  0  0  0
    8.6692   58.3093   17.4926 C   0  0  0  0  0  0
    9.2912   57.2853   18.2202 C   0  0  0  0  0  0
    8.5567   56.4968   19.1010 C   0  0  0  0  0  0
    9.4910   59.1630   16.5725 C   0  0  0  0  0  0
   10.7185   59.0729   16.4806 O   0  0  0  0  0  0
    8.7501   60.0346   15.8447 O   0  0  0  0  0  0
    9.3614   60.9160   14.9135 C   0  0  0  0  0  0
    3.0909   52.8799   29.5086 H   0  0  0  0  0  0
    4.7089   52.2713   29.8570 H   0  0  0  0  0  0
    4.3054   53.9392   30.2513 H   0  0  0  0  0  0
    2.7085   53.4707   27.2235 H   0  0  0  0  0  0
    3.5039   54.1941   25.0342 H   0  0  0  0  0  0
    7.5031   54.5241   26.6049 H   0  0  0  0  0  0
    6.6915   53.8142   28.8008 H   0  0  0  0  0  0
    5.1963   53.3161   23.4723 H   0  0  0  0  0  0
    4.7243   54.1021   20.0424 H   0  0  0  0  0  0
    2.7706   54.3035   22.9323 H   0  0  0  0  0  0
    1.1020   52.6416   23.6934 H   0  0  0  0  0  0
    2.6787   49.7814   20.9122 H   0  0  0  0  0  0
    4.3494   51.4219   20.1568 H   0  0  0  0  0  0
    5.3815   56.0746   19.9965 H   0  0  0  0  0  0
    5.5043   57.9164   18.6432 H   0  0  0  0  0  0
    6.7662   59.2960   17.1174 H   0  0  0  0  0  0
   10.3502   57.0881   18.1190 H   0  0  0  0  0  0
    9.0759   55.7130   19.6320 H   0  0  0  0  0  0
    8.6008   61.5364   14.4395 H   0  0  0  0  0  0
   10.0774   61.5751   15.4066 H   0  0  0  0  0  0
    9.8834   60.3616   14.1327 H   0  0  0  0  0  0
  1  2  1  0  0  0
  1 33  1  0  0  0
  1 34  1  0  0  0
  1 35  1  0  0  0
  2  7  2  0  0  0
  2  3  1  0  0  0
  3  4  2  0  0  0
  3 36  1  0  0  0
  4  5  1  0  0  0
  4 37  1  0  0  0
  5  6  2  0  0  0
  5  8  1  0  0  0
  6  7  1  0  0  0
  6 38  1  0  0  0
  7 39  1  0  0  0
  8  9  2  0  0  0
  8 10  1  0  0  0
 10 11  1  0  0  0
 10 40  1  0  0  0
 11 12  2  0  0  0
 11 20  1  0  0  0
 12 13  1  0  0  0
 12 41  1  0  0  0
 13 18  2  0  0  0
 13 14  1  0  0  0
 14 15  2  0  0  0
 14 42  1  0  0  0
 15 16  1  0  0  0
 15 43  1  0  0  0
 16 17  2  0  0  0
 16 19  1  0  0  0
 17 18  1  0  0  0
 17 44  1  0  0  0
 18 45  1  0  0  0
 20 21  2  0  0  0
 20 22  1  0  0  0
 22 23  1  0  0  0
 22 46  1  0  0  0
 23 28  2  0  0  0
 23 24  1  0  0  0
 24 25  2  0  0  0
 24 47  1  0  0  0
 25 26  1  0  0  0
 25 48  1  0  0  0
 26 27  2  0  0  0
 26 29  1  0  0  0
 27 28  1  0  0  0
 27 49  1  0  0  0
 28 50  1  0  0  0
 29 30  2  0  0  0
 29 31  1  0  0  0
 31 32  1  0  0  0
 32 51  1  0  0  0
 32 52  1  0  0  0
 32 53  1  0  0  0
M  END
> <i_i_glide_confnum>
41

> <i_i_glide_lignum>
5993

> <i_i_glide_posenum>
291

> <i_i_glide_rotatable_bonds>
9

> <i_m_Source_File_Index>
5929

> <b_m_subgroup_collapsed>
0

> <r_i_docking_score>
-5.14712

> <r_i_glide_ecoul>
-0.185354

> <r_i_glide_eff_state_penalty>
0

> <r_i_glide_einternal>
10.5965

> <r_i_glide_emodel>
-57.1291

> <r_i_glide_energy>
-47.0746

> <r_i_glide_erotb>
0.585867

> <r_i_glide_esite>
-0.00374412

> <r_i_glide_evdw>
-46.8893

> <r_i_glide_gscore>
-5.14712

> <r_i_glide_hbond>
0

> <r_i_glide_ligand_efficiency>
-0.160847

> <r_i_glide_ligand_efficiency_ln>
-1.15258

> <r_i_glide_ligand_efficiency_sa>
-0.510659

> <r_i_glide_lipo>
-2.6114

> <r_i_glide_metal>
0

> <r_i_glide_rewards>
-0.74557

> <s_i_glide_gridfile>
wee1_glide-grid

> <s_m_Source_File>
wee1_decoys_glide_SP.sdf

> <s_m_Source_Path>
/Users/zhangxujun/Desktop

> <s_m_entry_id>
6204

> <s_m_entry_name>
wee1_decoys_glide_SP.5929

> <s_m_subgroup_title>
wee1_decoys_glide_SP

> <s_m_subgroupid>
wee1_decoys_glide_SP


$$$$
