ZINC22861037_5420
                    3D
 Schrodinger Suite 2024-2.
 65 68  0  0  1  0            999 V2000
    2.6126   54.9534   29.6868 C   0  0  0  0  0  0
    2.1397   53.8796   28.6742 C   0  0  0  0  0  0
    2.4743   52.4745   29.2374 C   0  0  0  0  0  0
    0.5984   53.9999   28.5745 C   0  0  0  0  0  0
    2.8171   54.1533   27.2773 C   0  0  1  0  0  0
    2.7052   55.2245   27.1095 H   0  0  0  0  0  0
    4.3399   53.8480   27.2417 C   0  0  0  0  0  0
    5.0339   54.4295   25.9906 C   0  0  0  0  0  0
    4.2201   54.0969   24.7378 C   0  0  0  0  0  0
    2.8881   53.6656   24.8142 C   0  0  0  0  0  0
    2.1912   53.3860   23.2522 S   0  0  0  0  0  0
    3.7123   53.7321   22.4930 C   0  0  0  0  0  0
    4.6958   54.1026   23.4109 C   0  0  0  0  0  0
    6.0430   54.4963   23.0242 C   0  0  0  0  0  0
    7.1042   54.8208   22.7070 N   0  0  0  0  0  0
    3.8346   53.7714   21.1135 N   0  0  0  0  0  0
    3.7468   52.7350   20.2176 C   0  0  0  0  0  0
    3.1045   51.2258   20.5172 S   0  0  0  0  0  0
    4.3087   52.9315   18.9829 N   0  0  0  0  0  0
    4.7459   54.0839   18.4024 C   0  0  0  0  0  0
    4.5967   55.2111   18.8824 O   0  0  0  0  0  0
    5.4509   53.9321   17.0783 C   0  0  0  0  0  0
    6.5286   53.0367   17.0169 C   0  0  0  0  0  0
    7.3007   52.8800   15.8617 C   0  0  0  0  0  0
    6.9889   53.6638   14.7462 C   0  0  0  0  0  0
    5.9420   54.5801   14.7971 C   0  0  0  0  0  0
    5.1583   54.7339   15.9454 C   0  0  0  0  0  0
    4.1517   55.6934   15.8598 N   0  0  0  0  0  0
    4.4335   57.0734   16.2918 C   0  0  0  0  0  0
    3.3917   58.0937   15.7815 C   0  0  0  0  0  0
    2.0669   57.6771   16.0930 O   0  0  0  0  0  0
    1.7570   56.3808   15.5969 C   0  0  0  0  0  0
    2.7515   55.3428   16.1529 C   0  0  0  0  0  0
    8.4301   51.9179   15.8287 N   0  3  0  0  0  0
    8.7047   51.3012   16.8527 O   0  0  0  0  0  0
    9.0485   51.7814   14.7782 O   0  5  0  0  0  0
    2.1354   53.3932   26.1048 C   0  0  0  0  0  0
    1.9959   54.9358   30.5833 H   0  0  0  0  0  0
    2.5314   55.9632   29.2795 H   0  0  0  0  0  0
    3.6474   54.8090   29.9915 H   0  0  0  0  0  0
    2.1822   51.6811   28.5508 H   0  0  0  0  0  0
    3.5387   52.3543   29.4408 H   0  0  0  0  0  0
    1.9544   52.2889   30.1784 H   0  0  0  0  0  0
    0.1570   53.1772   28.0077 H   0  0  0  0  0  0
    0.1205   53.9845   29.5575 H   0  0  0  0  0  0
    0.3050   54.9280   28.0848 H   0  0  0  0  0  0
    4.8284   54.2977   28.1063 H   0  0  0  0  0  0
    4.5298   52.7807   27.3511 H   0  0  0  0  0  0
    5.1301   55.5126   26.0824 H   0  0  0  0  0  0
    6.0495   54.0369   25.9205 H   0  0  0  0  0  0
    4.2227   54.6284   20.7413 H   0  0  0  0  0  0
    4.4605   52.0778   18.4548 H   0  0  0  0  0  0
    6.7853   52.4672   17.8959 H   0  0  0  0  0  0
    7.5619   53.5763   13.8325 H   0  0  0  0  0  0
    5.7356   55.1835   13.9251 H   0  0  0  0  0  0
    4.5019   57.1368   17.3779 H   0  0  0  0  0  0
    5.4124   57.3689   15.9082 H   0  0  0  0  0  0
    3.4999   58.2091   14.6999 H   0  0  0  0  0  0
    3.5695   59.0750   16.2262 H   0  0  0  0  0  0
    1.7959   56.3777   14.5051 H   0  0  0  0  0  0
    0.7366   56.1234   15.8872 H   0  0  0  0  0  0
    2.5310   54.3737   15.7001 H   0  0  0  0  0  0
    2.5904   55.2290   17.2263 H   0  0  0  0  0  0
    2.1272   52.3211   26.3014 H   0  0  0  0  0  0
    1.1022   53.6964   25.9774 H   0  0  0  0  0  0
  1  2  1  0  0  0
  1 38  1  0  0  0
  1 39  1  0  0  0
  1 40  1  0  0  0
  2  3  1  0  0  0
  2  4  1  0  0  0
  2  5  1  0  0  0
  3 41  1  0  0  0
  3 42  1  0  0  0
  3 43  1  0  0  0
  4 44  1  0  0  0
  4 45  1  0  0  0
  4 46  1  0  0  0
  5  6  1  0  0  0
  5 37  1  0  0  0
  5  7  1  0  0  0
  7  8  1  0  0  0
  7 47  1  0  0  0
  7 48  1  0  0  0
  8  9  1  0  0  0
  8 49  1  0  0  0
  8 50  1  0  0  0
  9 13  1  0  0  0
  9 10  2  0  0  0
 10 11  1  0  0  0
 10 37  1  0  0  0
 11 12  1  0  0  0
 12 13  2  0  0  0
 12 16  1  0  0  0
 13 14  1  0  0  0
 14 15  3  0  0  0
 16 17  1  0  0  0
 16 51  1  0  0  0
 17 18  2  0  0  0
 17 19  1  0  0  0
 19 20  1  0  0  0
 19 52  1  0  0  0
 20 21  2  0  0  0
 20 22  1  0  0  0
 22 27  2  0  0  0
 22 23  1  0  0  0
 23 24  2  0  0  0
 23 53  1  0  0  0
 24 25  1  0  0  0
 24 34  1  0  0  0
 25 26  2  0  0  0
 25 54  1  0  0  0
 26 27  1  0  0  0
 26 55  1  0  0  0
 27 28  1  0  0  0
 28 33  1  0  0  0
 28 29  1  0  0  0
 29 30  1  0  0  0
 29 56  1  0  0  0
 29 57  1  0  0  0
 30 31  1  0  0  0
 30 58  1  0  0  0
 30 59  1  0  0  0
 31 32  1  0  0  0
 32 33  1  0  0  0
 32 60  1  0  0  0
 32 61  1  0  0  0
 33 62  1  0  0  0
 33 63  1  0  0  0
 34 35  2  0  0  0
 34 36  1  0  0  0
 37 64  1  0  0  0
 37 65  1  0  0  0
M  CHG  2  34   1  36  -1
M  END
> <i_i_glide_confnum>
19

> <i_i_glide_lignum>
5421

> <i_i_glide_posenum>
280

> <i_i_glide_rotatable_bonds>
9

> <i_m_Source_File_Index>
3653

> <b_m_subgroup_collapsed>
0

> <r_i_docking_score>
-4.94612

> <r_i_glide_ecoul>
-0.130414

> <r_i_glide_eff_state_penalty>
0

> <r_i_glide_einternal>
13.5178

> <r_i_glide_emodel>
-50.6205

> <r_i_glide_energy>
-42.6285

> <r_i_glide_erotb>
0.443851

> <r_i_glide_esite>
-0.123894

> <r_i_glide_evdw>
-42.4981

> <r_i_glide_gscore>
-4.94612

> <r_i_glide_hbond>
-0.16

> <r_i_glide_ligand_efficiency>
-0.137392

> <r_i_glide_ligand_efficiency_ln>
-1.07911

> <r_i_glide_ligand_efficiency_sa>
-0.453659

> <r_i_glide_lipo>
-2.43566

> <r_i_glide_metal>
0

> <r_i_glide_rewards>
-0.525949

> <s_i_glide_gridfile>
wee1_glide-grid

> <s_m_Source_File>
wee1_decoys_glide_SP.sdf

> <s_m_Source_Path>
/Users/zhangxujun/Desktop

> <s_m_entry_id>
3928

> <s_m_entry_name>
wee1_decoys_glide_SP.3653

> <s_m_subgroup_title>
wee1_decoys_glide_SP

> <s_m_subgroupid>
wee1_decoys_glide_SP


$$$$
