ZINC39665888_1285
                    3D
 Schrodinger Suite 2024-2.
 69 72  0  0  1  0            999 V2000
    4.6522   53.8593   28.9218 C   0  0  0  0  0  0
    5.0179   54.1075   27.4711 C   0  0  0  0  0  0
    6.3605   54.1904   27.1092 C   0  0  0  0  0  0
    6.7043   54.4185   25.7811 C   0  0  0  0  0  0
    5.7228   54.5460   24.7966 C   0  0  0  0  0  0
    4.3739   54.5035   25.1791 C   0  0  0  0  0  0
    4.0222   54.2705   26.5072 C   0  0  0  0  0  0
    6.1481   54.8471   23.3740 C   0  0  0  0  0  0
    7.0233   55.6953   23.1937 O   0  0  0  0  0  0
    5.5397   54.2330   22.3250 N   0  0  0  0  0  0
    4.5455   53.1608   22.3668 C   0  0  0  0  0  0
    3.6866   53.4779   21.1333 C   0  0  1  0  0  0
    3.0183   54.3005   21.3839 H   0  0  0  0  0  0
    4.7283   53.9370   20.0715 C   0  0  0  0  0  0
    5.7099   54.7438   20.9556 C   0  0  0  0  0  0
    5.4512   52.7423   19.3840 C   0  0  0  0  0  0
    6.5724   53.1822   18.4173 C   0  0  0  0  0  0
    5.9628   54.1212   17.3540 N   0  3  0  0  0  0
    5.1635   55.3027   17.9471 C   0  0  0  0  0  0
    4.0945   54.7233   18.8932 C   0  0  0  0  0  0
    2.8596   52.2336   20.7327 C   0  0  0  0  0  0
    3.2144   51.0951   21.0459 O   0  0  0  0  0  0
    1.7378   52.4964   20.0422 N   0  0  0  0  0  0
    0.8367   51.5007   19.4620 C   0  0  0  0  0  0
   -0.6410   51.6503   19.9091 C   0  0  1  0  0  0
   -1.0398   52.4694   19.3104 H   0  0  0  0  0  0
   -1.4936   50.4135   19.5689 C   0  0  0  0  0  0
   -0.8905   52.0804   21.2580 O   0  0  0  0  0  0
   -0.5820   51.3225   22.3745 C   0  0  0  0  0  0
    0.3722   50.2960   22.4122 C   0  0  0  0  0  0
    0.6441   49.6274   23.5979 C   0  0  0  0  0  0
   -0.0866   49.9215   24.7458 C   0  0  0  0  0  0
   -1.0385   50.9425   24.7257 C   0  0  0  0  0  0
   -1.2674   51.6502   23.5468 C   0  0  0  0  0  0
    0.1719   49.1366   26.0166 C   0  0  0  0  0  0
    5.0933   52.9210   29.2615 H   0  0  0  0  0  0
    5.0504   54.6574   29.5484 H   0  0  0  0  0  0
    3.5739   53.8019   29.0730 H   0  0  0  0  0  0
    7.1338   54.0865   27.8573 H   0  0  0  0  0  0
    7.7429   54.4965   25.5055 H   0  0  0  0  0  0
    3.5844   54.6827   24.4657 H   0  0  0  0  0  0
    2.9777   54.2280   26.7825 H   0  0  0  0  0  0
    3.9225   53.0523   23.2510 H   0  0  0  0  0  0
    5.0933   52.2318   22.1973 H   0  0  0  0  0  0
    6.7323   54.7852   20.5879 H   0  0  0  0  0  0
    5.3442   55.7698   20.9734 H   0  0  0  0  0  0
    5.8969   52.0868   20.1293 H   0  0  0  0  0  0
    4.7288   52.1060   18.8705 H   0  0  0  0  0  0
    7.3923   53.7277   18.8812 H   0  0  0  0  0  0
    6.9846   52.3327   17.8670 H   0  0  0  0  0  0
    6.6903   54.4645   16.7412 H   0  0  0  0  0  0
    5.8811   55.9547   18.4473 H   0  0  0  0  0  0
    4.7244   55.8368   17.1029 H   0  0  0  0  0  0
    3.3730   54.1118   18.3475 H   0  0  0  0  0  0
    3.5102   55.5581   19.2726 H   0  0  0  0  0  0
    1.5031   53.4728   19.8860 H   0  0  0  0  0  0
    1.2022   50.4827   19.6004 H   0  0  0  0  0  0
    0.8841   51.6221   18.3778 H   0  0  0  0  0  0
   -1.3856   50.1310   18.5217 H   0  0  0  0  0  0
   -1.2170   49.5517   20.1754 H   0  0  0  0  0  0
   -2.5521   50.6085   19.7453 H   0  0  0  0  0  0
    0.9442   50.0028   21.5548 H   0  0  0  0  0  0
    1.4256   48.8839   23.6160 H   0  0  0  0  0  0
   -1.5968   51.1858   25.6182 H   0  0  0  0  0  0
   -1.9997   52.4428   23.5350 H   0  0  0  0  0  0
   -0.0318   49.7441   26.8949 H   0  0  0  0  0  0
    1.2140   48.8159   26.0864 H   0  0  0  0  0  0
   -0.4682   48.2539   26.0666 H   0  0  0  0  0  0
    5.3408   53.5690   16.7785 H   0  0  0  0  0  0
  1  2  1  0  0  0
  1 36  1  0  0  0
  1 37  1  0  0  0
  1 38  1  0  0  0
  2  7  2  0  0  0
  2  3  1  0  0  0
  3  4  2  0  0  0
  3 39  1  0  0  0
  4  5  1  0  0  0
  4 40  1  0  0  0
  5  6  2  0  0  0
  5  8  1  0  0  0
  6  7  1  0  0  0
  6 41  1  0  0  0
  7 42  1  0  0  0
  8  9  2  0  0  0
  8 10  1  0  0  0
 10 15  1  0  0  0
 10 11  1  0  0  0
 11 12  1  0  0  0
 11 43  1  0  0  0
 11 44  1  0  0  0
 12 13  1  0  0  0
 12 14  1  0  0  0
 12 21  1  0  0  0
 14 20  1  0  0  0
 14 15  1  0  0  0
 14 16  1  0  0  0
 15 45  1  0  0  0
 15 46  1  0  0  0
 16 17  1  0  0  0
 16 47  1  0  0  0
 16 48  1  0  0  0
 17 18  1  0  0  0
 17 49  1  0  0  0
 17 50  1  0  0  0
 18 19  1  0  0  0
 18 51  1  0  0  0
 18 69  1  0  0  0
 19 20  1  0  0  0
 19 52  1  0  0  0
 19 53  1  0  0  0
 20 54  1  0  0  0
 20 55  1  0  0  0
 21 22  2  0  0  0
 21 23  1  0  0  0
 23 24  1  0  0  0
 23 56  1  0  0  0
 24 25  1  0  0  0
 24 57  1  0  0  0
 24 58  1  0  0  0
 25 26  1  0  0  0
 25 27  1  0  0  0
 25 28  1  0  0  0
 27 59  1  0  0  0
 27 60  1  0  0  0
 27 61  1  0  0  0
 28 29  1  0  0  0
 29 34  2  0  0  0
 29 30  1  0  0  0
 30 31  2  0  0  0
 30 62  1  0  0  0
 31 32  1  0  0  0
 31 63  1  0  0  0
 32 33  2  0  0  0
 32 35  1  0  0  0
 33 34  1  0  0  0
 33 64  1  0  0  0
 34 65  1  0  0  0
 35 66  1  0  0  0
 35 67  1  0  0  0
 35 68  1  0  0  0
M  CHG  1  18   1
M  END
> <i_i_glide_confnum>
211

> <i_i_glide_lignum>
1286

> <i_i_glide_posenum>
179

> <i_i_glide_rotatable_bonds>
8

> <i_m_Source_File_Index>
3431

> <b_m_subgroup_collapsed>
0

> <r_i_docking_score>
-5.84919

> <r_i_glide_ecoul>
-6.32994

> <r_i_glide_eff_state_penalty>
0

> <r_i_glide_einternal>
8.43807

> <r_i_glide_emodel>
-58.2805

> <r_i_glide_energy>
-44.2268

> <r_i_glide_erotb>
0.790025

> <r_i_glide_esite>
-0.0677019

> <r_i_glide_evdw>
-37.8969

> <r_i_glide_gscore>
-5.84919

> <r_i_glide_hbond>
-0.32

> <r_i_glide_ligand_efficiency>
-0.177248

> <r_i_glide_ligand_efficiency_ln>
-1.30083

> <r_i_glide_ligand_efficiency_sa>
-0.568529

> <r_i_glide_lipo>
-2.40086

> <r_i_glide_metal>
0

> <r_i_glide_rewards>
-1.00631

> <s_i_glide_gridfile>
wee1_glide-grid

> <s_m_Source_File>
wee1_decoys_glide_SP.sdf

> <s_m_Source_Path>
/Users/zhangxujun/Desktop

> <s_m_entry_id>
3706

> <s_m_entry_name>
wee1_decoys_glide_SP.3431

> <s_m_subgroup_title>
wee1_decoys_glide_SP

> <s_m_subgroupid>
wee1_decoys_glide_SP


$$$$
