ZINC41098405_1543
                    3D
 Schrodinger Suite 2024-2.
 56 58  0  0  1  0            999 V2000
    2.3052   49.6116   22.4318 C   0  0  0  0  0  0
    1.8555   50.9188   21.7361 C   0  0  0  0  0  0
    1.1688   50.5312   20.4018 C   0  0  0  0  0  0
    0.7941   51.5845   22.6486 C   0  0  0  0  0  0
    3.0739   51.8943   21.5050 C   0  0  1  0  0  0
    4.2676   51.3026   20.7087 C   0  0  0  0  0  0
    5.4028   52.3002   20.4157 C   0  0  0  0  0  0
    4.8807   53.5254   19.6496 C   0  0  1  0  0  0
    3.9036   54.2024   20.6162 C   0  0  0  0  0  0
    2.7020   53.2964   20.9687 C   0  0  0  0  0  0
    6.0019   54.4969   19.3065 C   0  0  0  0  0  0
    6.7847   55.0211   20.1031 O   0  0  0  0  0  0
    5.9522   54.6508   17.9637 N   0  0  0  0  0  0
    4.9541   53.9574   17.3606 C   0  0  0  0  0  0
    4.5253   54.0974   16.2170 O   0  0  0  0  0  0
    4.3815   53.2401   18.3309 N   0  0  0  0  0  0
    6.9934   55.3669   17.1944 C   0  0  0  0  0  0
    8.3027   54.5628   17.0719 C   0  0  0  0  0  0
    8.4030   53.4119   17.4995 O   0  0  0  0  0  0
    9.3189   55.2129   16.4855 N   0  0  0  0  0  0
   10.6678   54.6714   16.3468 C   0  0  1  0  0  0
   10.6676   53.6294   16.0099 H   0  0  0  0  0  0
   11.4548   55.4876   15.2964 C   0  0  0  0  0  0
   12.9386   55.1043   15.3819 C   0  0  0  0  0  0
   13.2576   54.8890   17.2149 S   0  0  0  0  0  0
   13.9108   53.5950   17.4289 O   0  0  0  0  0  0
   13.8332   56.1180   17.7689 O   0  0  0  0  0  0
   11.4429   54.7866   17.6715 C   0  0  0  0  0  0
    1.4625   48.9434   22.6145 H   0  0  0  0  0  0
    2.7594   49.8052   23.4020 H   0  0  0  0  0  0
    3.0182   49.0470   21.8314 H   0  0  0  0  0  0
    0.7769   51.3977   19.8691 H   0  0  0  0  0  0
    1.8474   50.0106   19.7254 H   0  0  0  0  0  0
    0.3242   49.8612   20.5700 H   0  0  0  0  0  0
    0.3070   52.4297   22.1612 H   0  0  0  0  0  0
    0.0020   50.8857   22.9225 H   0  0  0  0  0  0
    1.2372   51.9505   23.5757 H   0  0  0  0  0  0
    3.5047   52.1155   22.4816 H   0  0  0  0  0  0
    4.6923   50.4967   21.2755 H   0  0  0  0  0  0
    3.9042   50.8880   19.7682 H   0  0  0  0  0  0
    5.9044   52.5854   21.3419 H   0  0  0  0  0  0
    6.1252   51.7723   19.7891 H   0  0  0  0  0  0
    3.5044   55.0496   20.0712 H   0  0  0  0  0  0
    4.3928   54.6296   21.4942 H   0  0  0  0  0  0
    2.1199   53.1674   20.0565 H   0  0  0  0  0  0
    2.0487   53.7999   21.6819 H   0  0  0  0  0  0
    3.8696   52.3876   18.1473 H   0  0  0  0  0  0
    6.6301   55.6200   16.1978 H   0  0  0  0  0  0
    7.2164   56.3123   17.6900 H   0  0  0  0  0  0
    9.1572   56.1358   16.1117 H   0  0  0  0  0  0
   11.0559   55.3216   14.2941 H   0  0  0  0  0  0
   11.3350   56.5574   15.4831 H   0  0  0  0  0  0
   13.0616   54.1227   14.9239 H   0  0  0  0  0  0
   13.6723   55.7746   14.9384 H   0  0  0  0  0  0
   11.2463   55.7819   18.0710 H   0  0  0  0  0  0
   11.2153   54.0965   18.4797 H   0  0  0  0  0  0
  1  2  1  0  0  0
  1 29  1  0  0  0
  1 30  1  0  0  0
  1 31  1  0  0  0
  2  3  1  0  0  0
  2  4  1  0  0  0
  2  5  1  0  0  0
  3 32  1  0  0  0
  3 33  1  0  0  0
  3 34  1  0  0  0
  4 35  1  0  0  0
  4 36  1  0  0  0
  4 37  1  0  0  0
  5 10  1  0  0  0
  5  6  1  0  0  0
  5 38  1  0  0  0
  6  7  1  0  0  0
  6 39  1  0  0  0
  6 40  1  0  0  0
  7  8  1  0  0  0
  7 41  1  0  0  0
  7 42  1  0  0  0
  8 16  1  0  0  0
  8  9  1  0  0  0
  8 11  1  0  0  0
  9 10  1  0  0  0
  9 43  1  0  0  0
  9 44  1  0  0  0
 10 45  1  0  0  0
 10 46  1  0  0  0
 11 12  2  0  0  0
 11 13  1  0  0  0
 13 14  1  0  0  0
 13 17  1  0  0  0
 14 15  2  0  0  0
 14 16  1  0  0  0
 16 47  1  0  0  0
 17 18  1  0  0  0
 17 48  1  0  0  0
 17 49  1  0  0  0
 18 19  2  0  0  0
 18 20  1  0  0  0
 20 21  1  0  0  0
 20 50  1  0  0  0
 21 22  1  0  0  0
 21 28  1  0  0  0
 21 23  1  0  0  0
 23 24  1  0  0  0
 23 51  1  0  0  0
 23 52  1  0  0  0
 24 25  1  0  0  0
 24 53  1  0  0  0
 24 54  1  0  0  0
 25 26  2  0  0  0
 25 27  2  0  0  0
 25 28  1  0  0  0
 28 55  1  0  0  0
 28 56  1  0  0  0
M  END
> <i_i_glide_confnum>
2

> <i_i_glide_lignum>
1544

> <i_i_glide_posenum>
286

> <i_i_glide_rotatable_bonds>
5

> <i_m_Source_File_Index>
5509

> <b_m_subgroup_collapsed>
0

> <r_i_docking_score>
-1.93595

> <r_i_glide_ecoul>
-2.30211

> <r_i_glide_eff_state_penalty>
0

> <r_i_glide_einternal>
4.29018

> <r_i_glide_emodel>
-20.4226

> <r_i_glide_energy>
-18.4727

> <r_i_glide_erotb>
0.368318

> <r_i_glide_esite>
-0.118313

> <r_i_glide_evdw>
-16.1706

> <r_i_glide_gscore>
-1.93595

> <r_i_glide_hbond>
0

> <r_i_glide_ligand_efficiency>
-0.0717018

> <r_i_glide_ligand_efficiency_ln>
-0.450657

> <r_i_glide_ligand_efficiency_sa>
-0.215105

> <r_i_glide_lipo>
-0.292232

> <r_i_glide_metal>
0

> <r_i_glide_rewards>
-0.739877

> <s_i_glide_gridfile>
wee1_glide-grid

> <s_m_Source_File>
wee1_decoys_glide_SP.sdf

> <s_m_Source_Path>
/Users/zhangxujun/Desktop

> <s_m_entry_id>
5784

> <s_m_entry_name>
wee1_decoys_glide_SP.5509

> <s_m_subgroup_title>
wee1_decoys_glide_SP

> <s_m_subgroupid>
wee1_decoys_glide_SP


$$$$
