ZINC16568918_5985
                    3D
 Schrodinger Suite 2024-2.
 57 60  0  0  1  0            999 V2000
    6.0163   56.7356   15.4354 C   0  0  0  0  0  0
    5.4546   55.8659   16.5443 C   0  0  0  0  0  0
    6.2944   55.0053   17.2544 C   0  0  0  0  0  0
    5.7753   54.2152   18.2757 C   0  0  0  0  0  0
    4.4132   54.2843   18.5831 C   0  0  0  0  0  0
    3.5672   55.1264   17.8555 C   0  0  0  0  0  0
    4.0916   55.9206   16.8396 C   0  0  0  0  0  0
    3.9044   53.5113   19.6487 N   0  0  0  0  0  0
    2.9711   52.4894   19.6072 C   0  0  0  0  0  0
    2.8228   51.9478   20.7920 N   0  0  0  0  0  0
    3.7071   52.5826   21.6485 N   0  0  0  0  0  0
    4.3257   53.5152   20.9666 C   0  0  0  0  0  0
    5.5074   54.6477   21.6448 S   0  0  0  0  0  0
    6.1474   53.6966   23.0572 C   0  0  0  0  0  0
    5.5685   54.0968   24.4145 C   0  0  0  0  0  0
    4.1879   54.0968   24.6429 C   0  0  0  0  0  0
    3.6934   54.2898   25.9310 C   0  0  0  0  0  0
    4.5753   54.4967   26.9879 C   0  0  0  0  0  0
    5.9479   54.5496   26.7630 C   0  0  0  0  0  0
    6.4410   54.3547   25.4755 C   0  0  0  0  0  0
    4.0951   54.6579   28.2416 F   0  0  0  0  0  0
    2.2179   52.0433   18.3571 C   0  0  2  0  0  0
    2.7562   52.4299   17.4919 H   0  0  0  0  0  0
    0.7853   52.6172   18.2901 C   0  0  0  0  0  0
    2.3042   50.5913   18.1525 N   0  0  0  0  0  0
    1.5489   49.6182   18.6851 C   0  0  0  0  0  0
    0.6786   49.7976   19.5376 O   0  0  0  0  0  0
    1.8358   48.4511   18.0818 N   0  0  0  0  0  0
    1.1642   47.2220   18.1812 C   0  0  0  0  0  0
    1.3555   46.3261   17.1251 C   0  0  0  0  0  0
    0.7121   45.0886   17.1240 C   0  0  0  0  0  0
   -0.1120   44.7292   18.1897 C   0  0  0  0  0  0
   -0.2961   45.6071   19.2582 C   0  0  0  0  0  0
    0.3362   46.8519   19.2550 C   0  0  0  0  0  0
   -1.2976   45.1462   20.5857 Cl  0  0  0  0  0  0
    6.9804   56.3690   15.0837 H   0  0  0  0  0  0
    5.3439   56.7407   14.5766 H   0  0  0  0  0  0
    6.1266   57.7654   15.7761 H   0  0  0  0  0  0
    7.3495   54.9517   17.0254 H   0  0  0  0  0  0
    6.4322   53.5556   18.8260 H   0  0  0  0  0  0
    2.5133   55.1871   18.0815 H   0  0  0  0  0  0
    3.4398   56.5850   16.2905 H   0  0  0  0  0  0
    6.0009   52.6305   22.8828 H   0  0  0  0  0  0
    7.2296   53.8357   23.0586 H   0  0  0  0  0  0
    3.4921   53.9053   23.8421 H   0  0  0  0  0  0
    2.6302   54.2575   26.1140 H   0  0  0  0  0  0
    6.6235   54.7215   27.5899 H   0  0  0  0  0  0
    7.5043   54.3601   25.3092 H   0  0  0  0  0  0
    0.7905   53.7039   18.2201 H   0  0  0  0  0  0
    0.2470   52.2366   17.4217 H   0  0  0  0  0  0
    0.2101   52.3554   19.1784 H   0  0  0  0  0  0
    3.0498   50.2841   17.5313 H   0  0  0  0  0  0
    2.5809   48.4936   17.3944 H   0  0  0  0  0  0
    1.9973   46.5901   16.2953 H   0  0  0  0  0  0
    0.8566   44.4076   16.2980 H   0  0  0  0  0  0
   -0.6049   43.7687   18.1862 H   0  0  0  0  0  0
    0.1816   47.5112   20.0956 H   0  0  0  0  0  0
  1  2  1  0  0  0
  1 36  1  0  0  0
  1 37  1  0  0  0
  1 38  1  0  0  0
  2  7  2  0  0  0
  2  3  1  0  0  0
  3  4  2  0  0  0
  3 39  1  0  0  0
  4  5  1  0  0  0
  4 40  1  0  0  0
  5  6  2  0  0  0
  5  8  1  0  0  0
  6  7  1  0  0  0
  6 41  1  0  0  0
  7 42  1  0  0  0
  8 12  1  0  0  0
  8  9  1  0  0  0
  9 10  2  0  0  0
  9 22  1  0  0  0
 10 11  1  0  0  0
 11 12  2  0  0  0
 12 13  1  0  0  0
 13 14  1  0  0  0
 14 15  1  0  0  0
 14 43  1  0  0  0
 14 44  1  0  0  0
 15 20  2  0  0  0
 15 16  1  0  0  0
 16 17  2  0  0  0
 16 45  1  0  0  0
 17 18  1  0  0  0
 17 46  1  0  0  0
 18 19  2  0  0  0
 18 21  1  0  0  0
 19 20  1  0  0  0
 19 47  1  0  0  0
 20 48  1  0  0  0
 22 23  1  0  0  0
 22 24  1  0  0  0
 22 25  1  0  0  0
 24 49  1  0  0  0
 24 50  1  0  0  0
 24 51  1  0  0  0
 25 26  1  0  0  0
 25 52  1  0  0  0
 26 27  2  0  0  0
 26 28  1  0  0  0
 28 29  1  0  0  0
 28 53  1  0  0  0
 29 34  2  0  0  0
 29 30  1  0  0  0
 30 31  2  0  0  0
 30 54  1  0  0  0
 31 32  1  0  0  0
 31 55  1  0  0  0
 32 33  2  0  0  0
 32 56  1  0  0  0
 33 34  1  0  0  0
 33 35  1  0  0  0
 34 57  1  0  0  0
M  END
> <i_i_glide_confnum>
86

> <i_i_glide_lignum>
5986

> <i_i_glide_posenum>
242

> <i_i_glide_rotatable_bonds>
9

> <i_m_Source_File_Index>
2771

> <b_m_subgroup_collapsed>
0

> <r_i_docking_score>
-5.52434

> <r_i_glide_ecoul>
-6.16928

> <r_i_glide_eff_state_penalty>
0

> <r_i_glide_einternal>
4.10573

> <r_i_glide_emodel>
-58.5125

> <r_i_glide_energy>
-43.5916

> <r_i_glide_erotb>
0.663022

> <r_i_glide_esite>
-0.315266

> <r_i_glide_evdw>
-37.4223

> <r_i_glide_gscore>
-5.52434

> <r_i_glide_hbond>
-0.312179

> <r_i_glide_ligand_efficiency>
-0.16248

> <r_i_glide_ligand_efficiency_ln>
-1.22048

> <r_i_glide_ligand_efficiency_sa>
-0.526374

> <r_i_glide_lipo>
-2.19951

> <r_i_glide_metal>
0

> <r_i_glide_rewards>
-0.563894

> <s_i_glide_gridfile>
wee1_glide-grid

> <s_m_Source_File>
wee1_decoys_glide_SP.sdf

> <s_m_Source_Path>
/Users/zhangxujun/Desktop

> <s_m_entry_id>
3046

> <s_m_entry_name>
wee1_decoys_glide_SP.2771

> <s_m_subgroup_title>
wee1_decoys_glide_SP

> <s_m_subgroupid>
wee1_decoys_glide_SP


$$$$
