ZINC09410762_4316
                    3D
 Schrodinger Suite 2024-2.
 47 51  0  0  1  0            999 V2000
    0.3772   50.9193   21.2053 C   0  0  0  0  0  0
    1.4057   51.8512   21.3619 C   0  0  0  0  0  0
    2.5598   51.5763   20.6205 C   0  0  0  0  0  0
    2.3046   50.1279   19.6813 S   0  0  0  0  0  0
    0.7126   49.9118   20.3210 C   0  0  0  0  0  0
    3.8673   52.3451   20.5341 C   0  0  1  0  0  0
    4.6842   51.6259   20.4482 H   0  0  0  0  0  0
    3.9166   53.2957   19.3202 C   0  0  0  0  0  0
    5.2767   54.0278   19.1934 C   0  0  2  0  0  0
    6.0200   53.2837   18.9013 H   0  0  0  0  0  0
    5.6543   54.4948   20.5421 N   0  0  0  0  0  0
    5.1772   53.9887   21.7442 C   0  0  0  0  0  0
    5.9040   54.6216   22.7551 C   0  0  0  0  0  0
    6.8706   55.3480   22.0482 C   0  0  0  0  0  0
    6.7127   55.2967   20.7483 N   0  0  0  0  0  0
    5.7820   54.5194   24.1922 C   0  0  0  0  0  0
    6.7044   54.8614   24.9295 O   0  0  0  0  0  0
    4.5628   54.0969   24.5807 N   0  0  0  0  0  0
    4.0445   53.8851   25.8525 C   0  0  0  0  0  0
    4.5960   53.7208   27.1478 C   0  0  0  0  0  0
    3.5780   53.5253   28.0949 C   0  0  0  0  0  0
    2.3143   53.4821   27.5586 C   0  0  0  0  0  0
    2.3101   53.6967   25.8503 S   0  0  0  0  0  0
    1.2454   53.2320   28.5872 C   0  0  0  0  0  0
    2.0929   52.7871   29.7912 C   0  0  0  0  0  0
    3.5041   53.3675   29.5944 C   0  0  0  0  0  0
    5.9949   53.7106   27.5438 C   0  0  0  0  0  0
    7.1044   53.6966   27.8651 N   0  0  0  0  0  0
    4.1077   53.1089   21.7596 N   0  0  0  0  0  0
    5.2819   55.1229   18.0971 C   0  0  0  0  0  0
    4.8602   54.6328   16.9310 F   0  0  0  0  0  0
    4.4714   56.1339   18.4097 F   0  0  0  0  0  0
    6.4990   55.6245   17.8897 F   0  0  0  0  0  0
   -0.5729   50.9816   21.7147 H   0  0  0  0  0  0
    1.3194   52.7149   22.0050 H   0  0  0  0  0  0
    0.1126   49.0694   20.0108 H   0  0  0  0  0  0
    3.1046   54.0220   19.3721 H   0  0  0  0  0  0
    3.7260   52.7336   18.4034 H   0  0  0  0  0  0
    7.6608   55.9420   22.4818 H   0  0  0  0  0  0
    3.8928   54.0235   23.8304 H   0  0  0  0  0  0
    0.5452   52.4465   28.2994 H   0  0  0  0  0  0
    0.6673   54.1309   28.8056 H   0  0  0  0  0  0
    2.1521   51.6974   29.7974 H   0  0  0  0  0  0
    1.6472   53.0797   30.7429 H   0  0  0  0  0  0
    3.5919   54.3380   30.0830 H   0  0  0  0  0  0
    4.2761   52.7172   30.0075 H   0  0  0  0  0  0
    4.0008   52.5025   22.5590 H   0  0  0  0  0  0
  1  5  2  0  0  0
  1  2  1  0  0  0
  1 34  1  0  0  0
  2  3  2  0  0  0
  2 35  1  0  0  0
  3  4  1  0  0  0
  3  6  1  0  0  0
  4  5  1  0  0  0
  5 36  1  0  0  0
  6  7  1  0  0  0
  6 29  1  0  0  0
  6  8  1  0  0  0
  8  9  1  0  0  0
  8 37  1  0  0  0
  8 38  1  0  0  0
  9 10  1  0  0  0
  9 11  1  0  0  0
  9 30  1  0  0  0
 11 15  1  0  0  0
 11 12  1  0  0  0
 12 13  2  0  0  0
 12 29  1  0  0  0
 13 14  1  0  0  0
 13 16  1  0  0  0
 14 15  2  0  0  0
 14 39  1  0  0  0
 16 17  2  0  0  0
 16 18  1  0  0  0
 18 19  1  0  0  0
 18 40  1  0  0  0
 19 23  1  0  0  0
 19 20  2  0  0  0
 20 21  1  0  0  0
 20 27  1  0  0  0
 21 26  1  0  0  0
 21 22  2  0  0  0
 22 23  1  0  0  0
 22 24  1  0  0  0
 24 25  1  0  0  0
 24 41  1  0  0  0
 24 42  1  0  0  0
 25 26  1  0  0  0
 25 43  1  0  0  0
 25 44  1  0  0  0
 26 45  1  0  0  0
 26 46  1  0  0  0
 27 28  3  0  0  0
 29 47  1  0  0  0
 30 31  1  0  0  0
 30 32  1  0  0  0
 30 33  1  0  0  0
M  END
> <i_i_glide_confnum>
18

> <i_i_glide_lignum>
4317

> <i_i_glide_posenum>
243

> <i_i_glide_rotatable_bonds>
6

> <i_m_Source_File_Index>
1850

> <b_m_subgroup_collapsed>
0

> <r_i_docking_score>
-5.70013

> <r_i_glide_ecoul>
-1.3801

> <r_i_glide_eff_state_penalty>
0

> <r_i_glide_einternal>
10.2751

> <r_i_glide_emodel>
-63.3636

> <r_i_glide_energy>
-50.8822

> <r_i_glide_erotb>
0.375215

> <r_i_glide_esite>
-0.0044145

> <r_i_glide_evdw>
-49.5021

> <r_i_glide_gscore>
-5.70013

> <r_i_glide_hbond>
-0.0218667

> <r_i_glide_ligand_efficiency>
-0.183875

> <r_i_glide_ligand_efficiency_ln>
-1.28555

> <r_i_glide_ligand_efficiency_sa>
-0.577622

> <r_i_glide_lipo>
-1.96612

> <r_i_glide_metal>
0

> <r_i_glide_rewards>
-1.40082

> <s_i_glide_gridfile>
wee1_glide-grid

> <s_m_Source_File>
wee1_decoys_glide_SP.sdf

> <s_m_Source_Path>
/Users/zhangxujun/Desktop

> <s_m_entry_id>
2125

> <s_m_entry_name>
wee1_decoys_glide_SP.1850

> <s_m_subgroup_title>
wee1_decoys_glide_SP

> <s_m_subgroupid>
wee1_decoys_glide_SP


$$$$
