ZINC20830354_2714
                    3D
 Schrodinger Suite 2024-2.
 39 42  0  0  1  0            999 V2000
    5.6284   57.7681   16.7920 C   0  0  0  0  0  0
    5.6276   56.8196   15.7711 C   0  0  0  0  0  0
    5.9113   55.4844   16.0603 C   0  0  0  0  0  0
    6.1929   55.0911   17.3705 C   0  0  0  0  0  0
    6.1753   56.0389   18.4054 C   0  0  0  0  0  0
    5.9042   57.3780   18.1018 C   0  0  0  0  0  0
    6.4531   55.6812   19.8246 C   0  0  0  0  0  0
    7.5043   56.0964   20.4825 N   0  0  0  0  0  0
    7.4076   55.6004   21.7739 N   0  0  0  0  0  0
    6.3046   54.8971   21.8492 C   0  0  0  0  0  0
    5.6579   54.8959   20.6311 N   0  0  0  0  0  0
    4.4809   54.2469   20.2882 N   0  0  0  0  0  0
    5.7709   54.0148   23.2821 S   0  0  0  0  0  0
    6.3660   55.1190   24.6017 C   0  0  0  0  0  0
    6.0690   54.5685   25.9776 C   0  0  0  0  0  0
    6.9124   54.1310   26.8785 N   0  0  0  0  0  0
    6.1402   53.6963   27.9513 N   0  0  0  0  0  0
    4.8897   53.9059   27.6114 C   0  0  0  0  0  0
    4.7775   54.4696   26.3787 O   0  0  0  0  0  0
    3.6523   53.5898   28.3849 C   0  0  0  0  0  0
    2.4031   53.9794   27.8880 C   0  0  0  0  0  0
    1.2439   53.6955   28.6047 C   0  0  0  0  0  0
    1.3305   53.0170   29.8165 C   0  0  0  0  0  0
    2.5668   52.6178   30.3187 C   0  0  0  0  0  0
    3.7280   52.8999   29.6013 C   0  0  0  0  0  0
    0.2051   52.7498   30.5147 F   0  0  0  0  0  0
    6.6307   53.2648   17.7043 Br  0  0  0  0  0  0
    5.4134   58.8064   16.5735 H   0  0  0  0  0  0
    5.4137   57.1203   14.7562 H   0  0  0  0  0  0
    5.9234   54.7532   15.2659 H   0  0  0  0  0  0
    5.9040   58.1251   18.8811 H   0  0  0  0  0  0
    4.5565   53.2371   20.2854 H   0  0  0  0  0  0
    3.6604   54.6129   20.7555 H   0  0  0  0  0  0
    5.9055   56.0986   24.4815 H   0  0  0  0  0  0
    7.4404   55.2616   24.4772 H   0  0  0  0  0  0
    2.3266   54.4988   26.9444 H   0  0  0  0  0  0
    0.2795   53.9949   28.2220 H   0  0  0  0  0  0
    2.6181   52.0977   31.2644 H   0  0  0  0  0  0
    4.6850   52.5808   29.9906 H   0  0  0  0  0  0
  1  6  2  0  0  0
  1  2  1  0  0  0
  1 28  1  0  0  0
  2  3  2  0  0  0
  2 29  1  0  0  0
  3  4  1  0  0  0
  3 30  1  0  0  0
  4  5  2  0  0  0
  4 27  1  0  0  0
  5  6  1  0  0  0
  5  7  1  0  0  0
  6 31  1  0  0  0
  7 11  1  0  0  0
  7  8  2  0  0  0
  8  9  1  0  0  0
  9 10  2  0  0  0
 10 11  1  0  0  0
 10 13  1  0  0  0
 11 12  1  0  0  0
 12 32  1  0  0  0
 12 33  1  0  0  0
 13 14  1  0  0  0
 14 15  1  0  0  0
 14 34  1  0  0  0
 14 35  1  0  0  0
 15 19  1  0  0  0
 15 16  2  0  0  0
 16 17  1  0  0  0
 17 18  2  0  0  0
 18 19  1  0  0  0
 18 20  1  0  0  0
 20 25  2  0  0  0
 20 21  1  0  0  0
 21 22  2  0  0  0
 21 36  1  0  0  0
 22 23  1  0  0  0
 22 37  1  0  0  0
 23 24  2  0  0  0
 23 26  1  0  0  0
 24 25  1  0  0  0
 24 38  1  0  0  0
 25 39  1  0  0  0
M  END
> <i_i_glide_confnum>
62

> <i_i_glide_lignum>
2715

> <i_i_glide_posenum>
145

> <i_i_glide_rotatable_bonds>
5

> <i_m_Source_File_Index>
296

> <b_m_subgroup_collapsed>
0

> <r_i_docking_score>
-5.30445

> <r_i_glide_ecoul>
-0.661231

> <r_i_glide_eff_state_penalty>
0

> <r_i_glide_einternal>
1.66725

> <r_i_glide_emodel>
-61.6362

> <r_i_glide_energy>
-46.2785

> <r_i_glide_erotb>
0.500424

> <r_i_glide_esite>
-0.0357028

> <r_i_glide_evdw>
-45.6173

> <r_i_glide_gscore>
-5.30445

> <r_i_glide_hbond>
-0.0045488

> <r_i_glide_ligand_efficiency>
-0.196461

> <r_i_glide_ligand_efficiency_ln>
-1.23479

> <r_i_glide_ligand_efficiency_sa>
-0.589384

> <r_i_glide_lipo>
-2.29302

> <r_i_glide_metal>
0

> <r_i_glide_rewards>
-1.09156

> <s_i_glide_gridfile>
wee1_glide-grid

> <s_m_Source_File>
wee1_decoys_glide_SP.sdf

> <s_m_Source_Path>
/Users/zhangxujun/Desktop

> <s_m_entry_id>
571

> <s_m_entry_name>
wee1_decoys_glide_SP.296

> <s_m_subgroup_title>
wee1_decoys_glide_SP

> <s_m_subgroupid>
wee1_decoys_glide_SP


$$$$
