ZINC12470086_3710
                    3D
 Schrodinger Suite 2024-2.
 56 60  0  0  1  0            999 V2000
    6.7634   54.2746   27.6983 C   0  0  0  0  0  0
    5.2801   53.9743   27.5754 C   0  0  0  0  0  0
    4.5666   53.5882   28.7106 C   0  0  0  0  0  0
    3.1989   53.2471   28.6467 C   0  0  0  0  0  0
    2.4960   52.8462   29.8068 C   0  0  0  0  0  0
    1.1547   52.4944   29.7314 C   0  0  0  0  0  0
    0.4758   52.5040   28.5188 C   0  0  0  0  0  0
    1.1453   52.9151   27.3570 C   0  0  0  0  0  0
    2.5186   53.2994   27.3920 C   0  0  0  0  0  0
    3.2234   53.7041   26.2898 N   0  0  0  0  0  0
    4.5900   54.0557   26.3531 C   0  0  0  0  0  0
    5.0263   54.4227   25.1292 N   0  0  0  0  0  0
    3.9507   54.3061   24.2773 N   0  0  0  0  0  0
    2.8930   53.8829   24.9368 C   0  0  0  0  0  0
    1.3451   53.6956   24.1006 S   0  0  0  0  0  0
    1.2292   51.8763   24.1003 C   0  0  0  0  0  0
    1.5250   51.2234   22.7451 C   0  0  0  0  0  0
    2.4862   51.6123   22.0833 O   0  0  0  0  0  0
    0.6766   50.2336   22.3880 N   0  0  0  0  0  0
    0.6679   49.4436   21.2346 C   0  0  0  0  0  0
   -0.3200   48.4944   20.8795 C   0  0  0  0  0  0
    0.0368   47.7799   19.7005 C   0  0  0  0  0  0
    1.2446   48.2254   19.1446 C   0  0  0  0  0  0
    1.9518   49.5050   20.0549 S   0  0  0  0  0  0
    1.8689   47.7238   17.8486 C   0  0  0  0  0  0
    1.1534   46.4369   17.3885 C   0  0  0  0  0  0
   -0.3728   46.5372   17.5306 C   0  0  0  0  0  0
   -0.7986   46.6953   19.0059 C   0  0  0  0  0  0
   -1.4991   48.1736   21.6712 C   0  0  0  0  0  0
   -1.9505   47.0333   21.7540 O   0  0  0  0  0  0
   -2.0712   49.1928   22.3152 N   0  0  0  0  0  0
   -0.8411   52.0915   28.5564 O   0  0  0  0  0  0
   -1.5381   51.8637   27.3351 C   0  0  0  0  0  0
    7.1457   54.0931   28.7035 H   0  0  0  0  0  0
    7.3259   53.6463   27.0081 H   0  0  0  0  0  0
    6.9577   55.3125   27.4314 H   0  0  0  0  0  0
    5.0649   53.5342   29.6707 H   0  0  0  0  0  0
    3.0094   52.8030   30.7550 H   0  0  0  0  0  0
    0.6330   52.1831   30.6259 H   0  0  0  0  0  0
    0.5974   52.9435   26.4385 H   0  0  0  0  0  0
    0.2204   51.6202   24.4245 H   0  0  0  0  0  0
    1.9044   51.4569   24.8402 H   0  0  0  0  0  0
   -0.0626   50.0199   23.0406 H   0  0  0  0  0  0
    2.9366   47.5372   17.9715 H   0  0  0  0  0  0
    1.7719   48.4873   17.0758 H   0  0  0  0  0  0
    1.5041   45.5906   17.9772 H   0  0  0  0  0  0
    1.4242   46.2187   16.3543 H   0  0  0  0  0  0
   -0.8472   45.6516   17.1047 H   0  0  0  0  0  0
   -0.7371   47.3839   16.9441 H   0  0  0  0  0  0
   -1.8637   46.9251   19.0492 H   0  0  0  0  0  0
   -0.6735   45.7483   19.5326 H   0  0  0  0  0  0
   -1.8145   50.1428   22.0984 H   0  0  0  0  0  0
   -2.8740   49.0076   22.8973 H   0  0  0  0  0  0
   -2.5272   51.4659   27.5584 H   0  0  0  0  0  0
   -1.6712   52.7876   26.7686 H   0  0  0  0  0  0
   -1.0257   51.1278   26.7125 H   0  0  0  0  0  0
  1  2  1  0  0  0
  1 34  1  0  0  0
  1 35  1  0  0  0
  1 36  1  0  0  0
  2 11  1  0  0  0
  2  3  2  0  0  0
  3  4  1  0  0  0
  3 37  1  0  0  0
  4  9  2  0  0  0
  4  5  1  0  0  0
  5  6  2  0  0  0
  5 38  1  0  0  0
  6  7  1  0  0  0
  6 39  1  0  0  0
  7  8  2  0  0  0
  7 32  1  0  0  0
  8  9  1  0  0  0
  8 40  1  0  0  0
  9 10  1  0  0  0
 10 14  1  0  0  0
 10 11  1  0  0  0
 11 12  2  0  0  0
 12 13  1  0  0  0
 13 14  2  0  0  0
 14 15  1  0  0  0
 15 16  1  0  0  0
 16 17  1  0  0  0
 16 41  1  0  0  0
 16 42  1  0  0  0
 17 18  2  0  0  0
 17 19  1  0  0  0
 19 20  1  0  0  0
 19 43  1  0  0  0
 20 24  1  0  0  0
 20 21  2  0  0  0
 21 22  1  0  0  0
 21 29  1  0  0  0
 22 28  1  0  0  0
 22 23  2  0  0  0
 23 24  1  0  0  0
 23 25  1  0  0  0
 25 26  1  0  0  0
 25 44  1  0  0  0
 25 45  1  0  0  0
 26 27  1  0  0  0
 26 46  1  0  0  0
 26 47  1  0  0  0
 27 28  1  0  0  0
 27 48  1  0  0  0
 27 49  1  0  0  0
 28 50  1  0  0  0
 28 51  1  0  0  0
 29 30  2  0  0  0
 29 31  1  0  0  0
 31 52  1  0  0  0
 31 53  1  0  0  0
 32 33  1  0  0  0
 33 54  1  0  0  0
 33 55  1  0  0  0
 33 56  1  0  0  0
M  END
> <i_i_glide_confnum>
23

> <i_i_glide_lignum>
3711

> <i_i_glide_posenum>
203

> <i_i_glide_rotatable_bonds>
7

> <i_m_Source_File_Index>
5397

> <b_m_subgroup_collapsed>
0

> <r_i_docking_score>
-5.2359

> <r_i_glide_ecoul>
0.0531666

> <r_i_glide_eff_state_penalty>
0

> <r_i_glide_einternal>
4.98758

> <r_i_glide_emodel>
-60.0233

> <r_i_glide_energy>
-45.3788

> <r_i_glide_erotb>
0.437359

> <r_i_glide_esite>
0

> <r_i_glide_evdw>
-45.432

> <r_i_glide_gscore>
-5.2359

> <r_i_glide_hbond>
0

> <r_i_glide_ligand_efficiency>
-0.158664

> <r_i_glide_ligand_efficiency_ln>
-1.16444

> <r_i_glide_ligand_efficiency_sa>
-0.508919

> <r_i_glide_lipo>
-2.15665

> <r_i_glide_metal>
0

> <r_i_glide_rewards>
-1.25298

> <s_i_glide_gridfile>
wee1_glide-grid

> <s_m_Source_File>
wee1_decoys_glide_SP.sdf

> <s_m_Source_Path>
/Users/zhangxujun/Desktop

> <s_m_entry_id>
5672

> <s_m_entry_name>
wee1_decoys_glide_SP.5397

> <s_m_subgroup_title>
wee1_decoys_glide_SP

> <s_m_subgroupid>
wee1_decoys_glide_SP


$$$$
