ZINC02275208_2566
                    3D
 Schrodinger Suite 2024-2.
 53 55  0  0  1  0            999 V2000
    7.1137   53.6968   23.3203 C   0  0  0  0  0  0
    5.7894   53.2065   22.7071 C   0  0  0  0  0  0
    4.4878   53.9873   23.0724 C   0  0  2  0  0  0
    4.5267   54.9165   22.5139 H   0  0  0  0  0  0
    4.3645   54.3690   24.5737 C   0  0  0  0  0  0
    3.2818   54.0299   25.3067 C   0  0  0  0  0  0
    2.2442   53.3195   24.7575 N   0  0  0  0  0  0
    2.1679   52.9763   23.4261 C   0  0  0  0  0  0
    3.2042   53.2468   22.5813 C   0  0  0  0  0  0
    3.1042   52.8956   21.1450 C   0  0  0  0  0  0
    3.8685   53.3595   20.3010 O   0  0  0  0  0  0
    1.8652   52.0982   20.6976 C   0  0  0  0  0  0
    1.2071   51.2418   21.8149 C   0  0  0  0  0  0
    0.9226   52.1800   23.0239 C   0  0  0  0  0  0
   -0.1434   50.7296   21.2755 C   0  0  0  0  0  0
    2.1475   50.0770   22.2217 C   0  0  0  0  0  0
    2.9589   54.4980   26.9987 S   0  0  0  0  0  0
    2.9911   52.9161   27.8865 C   0  0  2  0  0  0
    3.2722   52.1471   27.1792 H   0  0  0  0  0  0
    1.5917   52.5448   28.3986 C   0  0  0  0  0  0
    0.7958   51.7011   27.6159 C   0  0  0  0  0  0
   -0.4534   51.2966   28.0683 C   0  0  0  0  0  0
   -0.8958   51.7019   29.3219 C   0  0  0  0  0  0
   -0.1378   52.5793   30.0929 C   0  0  0  0  0  0
    1.0907   53.0263   29.6166 C   0  0  0  0  0  0
    4.1321   52.8967   28.9272 C   0  0  0  0  0  0
    3.9365   52.6091   30.1059 O   0  0  0  0  0  0
    5.3589   53.1829   28.4821 N   0  0  0  0  0  0
    5.4108   55.1286   25.1920 C   0  0  0  0  0  0
    6.2960   55.6966   25.6816 N   0  0  0  0  0  0
    7.9766   53.2038   22.8817 H   0  0  0  0  0  0
    7.2505   54.7690   23.1725 H   0  0  0  0  0  0
    7.1699   53.4738   24.3845 H   0  0  0  0  0  0
    5.6760   52.1392   22.8817 H   0  0  0  0  0  0
    5.9044   53.2770   21.6286 H   0  0  0  0  0  0
    1.4376   53.1442   25.3383 H   0  0  0  0  0  0
    1.1522   52.8603   20.3812 H   0  0  0  0  0  0
    2.1175   51.5157   19.8101 H   0  0  0  0  0  0
    0.1229   52.8963   22.8343 H   0  0  0  0  0  0
    0.6076   51.5303   23.8437 H   0  0  0  0  0  0
   -0.6756   50.1486   22.0295 H   0  0  0  0  0  0
   -0.7987   51.5450   20.9672 H   0  0  0  0  0  0
   -0.0031   50.0805   20.4101 H   0  0  0  0  0  0
    1.6963   49.4526   22.9956 H   0  0  0  0  0  0
    2.3610   49.4272   21.3712 H   0  0  0  0  0  0
    3.1041   50.4198   22.6055 H   0  0  0  0  0  0
    1.1462   51.3316   26.6645 H   0  0  0  0  0  0
   -1.0527   50.6128   27.4822 H   0  0  0  0  0  0
   -1.8361   51.3237   29.6984 H   0  0  0  0  0  0
   -0.4970   52.8918   31.0641 H   0  0  0  0  0  0
    1.6674   53.7103   30.2210 H   0  0  0  0  0  0
    5.5137   53.4249   27.5144 H   0  0  0  0  0  0
    6.1312   53.1834   29.1305 H   0  0  0  0  0  0
  1  2  1  0  0  0
  1 31  1  0  0  0
  1 32  1  0  0  0
  1 33  1  0  0  0
  2  3  1  0  0  0
  2 34  1  0  0  0
  2 35  1  0  0  0
  3  4  1  0  0  0
  3  9  1  0  0  0
  3  5  1  0  0  0
  5  6  2  0  0  0
  5 29  1  0  0  0
  6  7  1  0  0  0
  6 17  1  0  0  0
  7  8  1  0  0  0
  7 36  1  0  0  0
  8 14  1  0  0  0
  8  9  2  0  0  0
  9 10  1  0  0  0
 10 11  2  0  0  0
 10 12  1  0  0  0
 12 13  1  0  0  0
 12 37  1  0  0  0
 12 38  1  0  0  0
 13 14  1  0  0  0
 13 15  1  0  0  0
 13 16  1  0  0  0
 14 39  1  0  0  0
 14 40  1  0  0  0
 15 41  1  0  0  0
 15 42  1  0  0  0
 15 43  1  0  0  0
 16 44  1  0  0  0
 16 45  1  0  0  0
 16 46  1  0  0  0
 17 18  1  0  0  0
 18 19  1  0  0  0
 18 20  1  0  0  0
 18 26  1  0  0  0
 20 25  2  0  0  0
 20 21  1  0  0  0
 21 22  2  0  0  0
 21 47  1  0  0  0
 22 23  1  0  0  0
 22 48  1  0  0  0
 23 24  2  0  0  0
 23 49  1  0  0  0
 24 25  1  0  0  0
 24 50  1  0  0  0
 25 51  1  0  0  0
 26 27  2  0  0  0
 26 28  1  0  0  0
 28 52  1  0  0  0
 28 53  1  0  0  0
 29 30  3  0  0  0
M  END
> <i_i_glide_confnum>
26

> <i_i_glide_lignum>
2567

> <i_i_glide_posenum>
340

> <i_i_glide_rotatable_bonds>
6

> <i_m_Source_File_Index>
1914

> <b_m_subgroup_collapsed>
0

> <r_i_docking_score>
-5.96344

> <r_i_glide_ecoul>
-4.26917

> <r_i_glide_eff_state_penalty>
0

> <r_i_glide_einternal>
15.3303

> <r_i_glide_emodel>
-50.0987

> <r_i_glide_energy>
-43.3071

> <r_i_glide_erotb>
0.375025

> <r_i_glide_esite>
0

> <r_i_glide_evdw>
-39.0379

> <r_i_glide_gscore>
-5.96344

> <r_i_glide_hbond>
-0.0413645

> <r_i_glide_ligand_efficiency>
-0.21298

> <r_i_glide_ligand_efficiency_ln>
-1.37654

> <r_i_glide_ligand_efficiency_sa>
-0.646733

> <r_i_glide_lipo>
-2.16872

> <r_i_glide_metal>
0

> <r_i_glide_rewards>
-1.53611

> <s_i_glide_gridfile>
wee1_glide-grid

> <s_m_Source_File>
wee1_decoys_glide_SP.sdf

> <s_m_Source_Path>
/Users/zhangxujun/Desktop

> <s_m_entry_id>
2189

> <s_m_entry_name>
wee1_decoys_glide_SP.1914

> <s_m_subgroup_title>
wee1_decoys_glide_SP

> <s_m_subgroupid>
wee1_decoys_glide_SP


$$$$
