ZINC35724966_3435
                    3D
 Schrodinger Suite 2024-2.
 61 63  0  0  1  0            999 V2000
    2.6816   55.6649   16.1434 C   0  0  0  0  0  0
    2.4844   54.7735   17.3786 C   0  0  0  0  0  0
    2.8499   53.2854   17.1511 C   0  0  1  0  0  0
    2.3510   53.0115   16.2196 H   0  0  0  0  0  0
    4.3592   53.1176   16.8547 C   0  0  0  0  0  0
    2.2318   52.3107   18.2236 C   0  0  2  0  0  0
    1.1731   52.5760   18.2798 H   0  0  0  0  0  0
    2.7527   52.4533   19.6835 C   0  0  0  0  0  0
    2.1688   51.8014   20.5536 O   0  0  0  0  0  0
    3.7788   53.2979   19.9337 N   0  0  0  0  0  0
    4.3007   53.6241   21.1790 C   0  0  0  0  0  0
    5.4887   54.1547   21.3287 N   0  0  0  0  0  0
    5.8047   54.3970   22.6597 N   0  0  0  0  0  0
    4.8289   54.0967   23.4886 C   0  0  0  0  0  0
    3.4136   53.4855   22.6735 S   0  0  0  0  0  0
    4.8714   54.2601   24.9795 C   0  0  0  0  0  0
    3.6905   54.1705   25.7305 C   0  0  0  0  0  0
    3.7234   54.2840   27.1149 C   0  0  0  0  0  0
    4.9378   54.4872   27.7665 C   0  0  0  0  0  0
    6.1197   54.5995   27.0323 C   0  0  0  0  0  0
    6.0860   54.4889   25.6422 C   0  0  0  0  0  0
    4.9453   54.5674   29.2787 C   0  0  0  0  0  0
    2.3037   50.9085   17.7898 N   0  0  0  0  0  0
    1.3965   49.9488   18.0362 C   0  0  0  0  0  0
    0.2632   50.1691   18.4614 O   0  0  0  0  0  0
    1.8988   48.7366   17.7253 N   0  0  0  0  0  0
    1.2655   47.4754   17.7781 C   0  0  0  0  0  0
    0.2450   47.2037   18.7051 C   0  0  0  0  0  0
   -0.3564   45.9518   18.7502 C   0  0  0  0  0  0
    0.0540   44.9510   17.8780 C   0  0  0  0  0  0
    1.0748   45.1871   16.9508 C   0  0  0  0  0  0
    1.6947   46.4543   16.8978 C   0  0  0  0  0  0
    2.8201   46.7233   15.8966 C   0  0  0  0  0  0
    1.5044   44.0362   16.0501 C   0  0  0  0  0  0
    2.0585   56.5584   16.2044 H   0  0  0  0  0  0
    3.7172   55.9976   16.0579 H   0  0  0  0  0  0
    2.4220   55.1462   15.2203 H   0  0  0  0  0  0
    1.4371   54.8458   17.6814 H   0  0  0  0  0  0
    3.0666   55.1887   18.2007 H   0  0  0  0  0  0
    5.0034   53.3931   17.6891 H   0  0  0  0  0  0
    4.5953   52.0941   16.5843 H   0  0  0  0  0  0
    4.6623   53.7320   16.0074 H   0  0  0  0  0  0
    4.2460   53.6925   19.1323 H   0  0  0  0  0  0
    2.7359   54.0014   25.2583 H   0  0  0  0  0  0
    2.8069   54.1983   27.6796 H   0  0  0  0  0  0
    7.0614   54.7566   27.5382 H   0  0  0  0  0  0
    7.0065   54.5565   25.0809 H   0  0  0  0  0  0
    4.1827   55.2709   29.6209 H   0  0  0  0  0  0
    4.7026   53.5867   29.6891 H   0  0  0  0  0  0
    5.9045   54.8981   29.6755 H   0  0  0  0  0  0
    3.2074   50.6079   17.4368 H   0  0  0  0  0  0
    2.8221   48.7550   17.2806 H   0  0  0  0  0  0
   -0.0833   47.9557   19.4080 H   0  0  0  0  0  0
   -1.1407   45.7591   19.4655 H   0  0  0  0  0  0
   -0.4193   43.9827   17.9308 H   0  0  0  0  0  0
    2.6880   47.6937   15.4177 H   0  0  0  0  0  0
    2.8704   45.9996   15.0841 H   0  0  0  0  0  0
    3.7755   46.7384   16.4205 H   0  0  0  0  0  0
    1.0338   43.0927   16.3311 H   0  0  0  0  0  0
    1.2524   44.2522   15.0112 H   0  0  0  0  0  0
    2.5841   43.8877   16.1111 H   0  0  0  0  0  0
  1  2  1  0  0  0
  1 35  1  0  0  0
  1 36  1  0  0  0
  1 37  1  0  0  0
  2  3  1  0  0  0
  2 38  1  0  0  0
  2 39  1  0  0  0
  3  4  1  0  0  0
  3  5  1  0  0  0
  3  6  1  0  0  0
  5 40  1  0  0  0
  5 41  1  0  0  0
  5 42  1  0  0  0
  6  7  1  0  0  0
  6  8  1  0  0  0
  6 23  1  0  0  0
  8  9  2  0  0  0
  8 10  1  0  0  0
 10 11  1  0  0  0
 10 43  1  0  0  0
 11 15  1  0  0  0
 11 12  2  0  0  0
 12 13  1  0  0  0
 13 14  2  0  0  0
 14 15  1  0  0  0
 14 16  1  0  0  0
 16 21  2  0  0  0
 16 17  1  0  0  0
 17 18  2  0  0  0
 17 44  1  0  0  0
 18 19  1  0  0  0
 18 45  1  0  0  0
 19 20  2  0  0  0
 19 22  1  0  0  0
 20 21  1  0  0  0
 20 46  1  0  0  0
 21 47  1  0  0  0
 22 48  1  0  0  0
 22 49  1  0  0  0
 22 50  1  0  0  0
 23 24  1  0  0  0
 23 51  1  0  0  0
 24 25  2  0  0  0
 24 26  1  0  0  0
 26 27  1  0  0  0
 26 52  1  0  0  0
 27 32  2  0  0  0
 27 28  1  0  0  0
 28 29  2  0  0  0
 28 53  1  0  0  0
 29 30  1  0  0  0
 29 54  1  0  0  0
 30 31  2  0  0  0
 30 55  1  0  0  0
 31 32  1  0  0  0
 31 34  1  0  0  0
 32 33  1  0  0  0
 33 56  1  0  0  0
 33 57  1  0  0  0
 33 58  1  0  0  0
 34 59  1  0  0  0
 34 60  1  0  0  0
 34 61  1  0  0  0
M  END
> <i_i_glide_confnum>
118

> <i_i_glide_lignum>
3436

> <i_i_glide_posenum>
254

> <i_i_glide_rotatable_bonds>
10

> <i_m_Source_File_Index>
5095

> <b_m_subgroup_collapsed>
0

> <r_i_docking_score>
-5.19429

> <r_i_glide_ecoul>
-7.28177

> <r_i_glide_eff_state_penalty>
0

> <r_i_glide_einternal>
6.04373

> <r_i_glide_emodel>
-55.4724

> <r_i_glide_energy>
-43.3922

> <r_i_glide_erotb>
0.88523

> <r_i_glide_esite>
-0.308383

> <r_i_glide_evdw>
-36.1104

> <r_i_glide_gscore>
-5.19429

> <r_i_glide_hbond>
-0.33966

> <r_i_glide_ligand_efficiency>
-0.162322

> <r_i_glide_ligand_efficiency_ln>
-1.16314

> <r_i_glide_ligand_efficiency_sa>
-0.515339

> <r_i_glide_lipo>
-2.21346

> <r_i_glide_metal>
0

> <r_i_glide_rewards>
-0.320228

> <s_i_glide_gridfile>
wee1_glide-grid

> <s_m_Source_File>
wee1_decoys_glide_SP.sdf

> <s_m_Source_Path>
/Users/zhangxujun/Desktop

> <s_m_entry_id>
5370

> <s_m_entry_name>
wee1_decoys_glide_SP.5095

> <s_m_subgroup_title>
wee1_decoys_glide_SP

> <s_m_subgroupid>
wee1_decoys_glide_SP


$$$$
