ZINC43259645_3181
                    3D
 Schrodinger Suite 2024-2.
 63 66  0  0  1  0            999 V2000
    0.6796   52.2552   30.1299 C   0  0  0  0  0  0
    1.9782   52.9213   29.7100 C   0  0  0  0  0  0
    2.0716   54.3135   29.7089 C   0  0  0  0  0  0
    3.2487   54.9286   29.2954 C   0  0  0  0  0  0
    4.3145   54.1551   28.8328 C   0  0  0  0  0  0
    4.2392   52.7628   28.8704 C   0  0  0  0  0  0
    3.0645   52.1464   29.2971 C   0  0  0  0  0  0
    5.4556   54.7874   28.3216 N   0  0  0  0  0  0
    5.8673   54.8194   27.0302 C   0  0  0  0  0  0
    7.0769   54.8938   26.8241 O   0  0  0  0  0  0
    4.9716   54.8984   25.9977 N   0  0  0  0  0  0
    3.5112   55.0161   26.1025 C   0  0  0  0  0  0
    2.9252   53.6634   25.7332 C   0  0  0  0  0  0
    3.2162   53.3703   24.3188 N   0  0  0  0  0  0
    4.6442   53.6648   23.8828 C   0  0  2  0  0  0
    5.2527   52.8967   24.2902 H   0  0  0  0  0  0
    5.4187   54.7952   24.5912 C   0  0  0  0  0  0
    4.9412   53.5286   22.3809 C   0  0  0  0  0  0
    5.5043   52.5099   21.9861 O   0  0  0  0  0  0
    4.5201   54.4964   21.5511 N   0  0  0  0  0  0
    4.6090   54.4304   20.0863 C   0  0  0  0  0  0
    5.5541   55.4648   19.4825 C   0  0  0  0  0  0
    5.0967   56.3240   18.4782 C   0  0  0  0  0  0
    5.9535   57.2739   17.9276 C   0  0  0  0  0  0
    7.2737   57.3475   18.3657 C   0  0  0  0  0  0
    7.7430   56.4851   19.3538 C   0  0  0  0  0  0
    6.8798   55.5524   19.9211 C   0  0  0  0  0  0
    1.8040   53.2073   23.2390 S   0  0  0  0  0  0
    1.1101   54.4965   23.2820 O   0  0  0  0  0  0
    2.2089   52.6283   21.9550 O   0  0  0  0  0  0
    0.7242   51.9935   23.9985 C   0  0  0  0  0  0
   -0.5030   52.3885   24.5365 C   0  0  0  0  0  0
   -1.3428   51.4390   25.1125 C   0  0  0  0  0  0
   -0.9556   50.1012   25.1444 C   0  0  0  0  0  0
    0.2681   49.7033   24.6112 C   0  0  0  0  0  0
    1.1056   50.6502   24.0280 C   0  0  0  0  0  0
   -1.7853   49.1804   25.6805 F   0  0  0  0  0  0
   -0.1793   52.8689   29.8555 H   0  0  0  0  0  0
    0.5444   51.2981   29.6247 H   0  0  0  0  0  0
    0.6550   52.0969   31.2088 H   0  0  0  0  0  0
    1.2345   54.9192   30.0259 H   0  0  0  0  0  0
    3.3071   56.0072   29.2820 H   0  0  0  0  0  0
    5.0684   52.1611   28.5248 H   0  0  0  0  0  0
    2.9921   51.0699   29.2798 H   0  0  0  0  0  0
    6.1884   54.9568   28.9974 H   0  0  0  0  0  0
    3.1064   55.5026   26.9811 H   0  0  0  0  0  0
    3.2203   55.6962   25.3084 H   0  0  0  0  0  0
    3.3708   52.8660   26.3248 H   0  0  0  0  0  0
    1.8525   53.6492   25.9267 H   0  0  0  0  0  0
    6.4978   54.6488   24.4947 H   0  0  0  0  0  0
    5.1828   55.6967   24.0818 H   0  0  0  0  0  0
    4.0124   55.2784   21.9347 H   0  0  0  0  0  0
    3.5975   54.5395   19.6868 H   0  0  0  0  0  0
    4.9503   53.4506   19.7426 H   0  0  0  0  0  0
    4.0752   56.2676   18.1304 H   0  0  0  0  0  0
    5.5973   57.9479   17.1614 H   0  0  0  0  0  0
    7.9397   58.0787   17.9310 H   0  0  0  0  0  0
    8.7711   56.5401   19.6828 H   0  0  0  0  0  0
    7.2452   54.8963   20.6970 H   0  0  0  0  0  0
   -0.8144   53.4218   24.4926 H   0  0  0  0  0  0
   -2.2958   51.7313   25.5274 H   0  0  0  0  0  0
    0.5621   48.6639   24.6485 H   0  0  0  0  0  0
    2.0509   50.3392   23.6050 H   0  0  0  0  0  0
  1  2  1  0  0  0
  1 38  1  0  0  0
  1 39  1  0  0  0
  1 40  1  0  0  0
  2  7  2  0  0  0
  2  3  1  0  0  0
  3  4  2  0  0  0
  3 41  1  0  0  0
  4  5  1  0  0  0
  4 42  1  0  0  0
  5  6  2  0  0  0
  5  8  1  0  0  0
  6  7  1  0  0  0
  6 43  1  0  0  0
  7 44  1  0  0  0
  8  9  1  0  0  0
  8 45  1  0  0  0
  9 10  2  0  0  0
  9 11  1  0  0  0
 11 17  1  0  0  0
 11 12  1  0  0  0
 12 13  1  0  0  0
 12 46  1  0  0  0
 12 47  1  0  0  0
 13 14  1  0  0  0
 13 48  1  0  0  0
 13 49  1  0  0  0
 14 15  1  0  0  0
 14 28  1  0  0  0
 15 16  1  0  0  0
 15 17  1  0  0  0
 15 18  1  0  0  0
 17 50  1  0  0  0
 17 51  1  0  0  0
 18 19  2  0  0  0
 18 20  1  0  0  0
 20 21  1  0  0  0
 20 52  1  0  0  0
 21 22  1  0  0  0
 21 53  1  0  0  0
 21 54  1  0  0  0
 22 27  2  0  0  0
 22 23  1  0  0  0
 23 24  2  0  0  0
 23 55  1  0  0  0
 24 25  1  0  0  0
 24 56  1  0  0  0
 25 26  2  0  0  0
 25 57  1  0  0  0
 26 27  1  0  0  0
 26 58  1  0  0  0
 27 59  1  0  0  0
 28 29  2  0  0  0
 28 30  2  0  0  0
 28 31  1  0  0  0
 31 36  2  0  0  0
 31 32  1  0  0  0
 32 33  2  0  0  0
 32 60  1  0  0  0
 33 34  1  0  0  0
 33 61  1  0  0  0
 34 35  2  0  0  0
 34 37  1  0  0  0
 35 36  1  0  0  0
 35 62  1  0  0  0
 36 63  1  0  0  0
M  END
> <i_i_glide_confnum>
245

> <i_i_glide_lignum>
3182

> <i_i_glide_posenum>
362

> <i_i_glide_rotatable_bonds>
9

> <i_m_Source_File_Index>
6051

> <b_m_subgroup_collapsed>
0

> <r_i_docking_score>
-3.15877

> <r_i_glide_ecoul>
-6.20166

> <r_i_glide_eff_state_penalty>
0

> <r_i_glide_einternal>
19.3924

> <r_i_glide_emodel>
-31.9541

> <r_i_glide_energy>
-51.2575

> <r_i_glide_erotb>
0.440094

> <r_i_glide_esite>
-0.1

> <r_i_glide_evdw>
-45.0558

> <r_i_glide_gscore>
-3.15877

> <r_i_glide_hbond>
-0.497111

> <r_i_glide_ligand_efficiency>
-0.0877436

> <r_i_glide_ligand_efficiency_ln>
-0.689158

> <r_i_glide_ligand_efficiency_sa>
-0.289723

> <r_i_glide_lipo>
-2.43834

> <r_i_glide_metal>
0

> <r_i_glide_rewards>
2.61963

> <s_i_glide_gridfile>
wee1_glide-grid

> <s_m_Source_File>
wee1_decoys_glide_SP.sdf

> <s_m_Source_Path>
/Users/zhangxujun/Desktop

> <s_m_entry_id>
6326

> <s_m_entry_name>
wee1_decoys_glide_SP.6051

> <s_m_subgroup_title>
wee1_decoys_glide_SP

> <s_m_subgroupid>
wee1_decoys_glide_SP


$$$$
