ZINC16039182_1124
                    3D
 Schrodinger Suite 2024-2.
 63 69  0  0  1  0            999 V2000
    1.7679   50.6739   18.0615 C   0  0  0  0  0  0
    1.4335   51.9824   18.3889 C   0  0  0  0  0  0
    0.5189   52.2234   19.4074 C   0  0  0  0  0  0
   -0.0522   51.1596   20.1198 C   0  0  0  0  0  0
    0.2546   49.8421   19.7468 C   0  0  0  0  0  0
    1.1720   49.6026   18.7245 C   0  0  0  0  0  0
   -0.9728   51.4675   21.2569 C   0  0  0  0  0  0
   -1.6461   52.4959   21.3004 O   0  0  0  0  0  0
   -0.9030   50.5563   22.5282 C   0  0  1  0  0  0
   -0.3244   49.6740   22.2651 H   0  0  0  0  0  0
   -0.2175   51.2711   23.7587 C   0  0  1  0  0  0
    0.3296   50.5369   24.3494 H   0  0  0  0  0  0
   -1.2074   51.3908   26.0909 C   0  0  0  0  0  0
   -2.2487   51.0000   26.8416 C   0  0  0  0  0  0
   -3.6243   50.9656   26.3512 C   0  0  0  0  0  0
   -4.6742   50.8030   27.2589 C   0  0  0  0  0  0
   -5.9935   50.8384   26.8138 C   0  0  0  0  0  0
   -6.2642   51.0525   25.4651 C   0  0  0  0  0  0
   -5.2137   51.2180   24.5631 C   0  0  0  0  0  0
   -3.8783   51.1692   24.9847 C   0  0  0  0  0  0
   -2.7068   51.3060   23.9855 C   0  0  2  0  0  0
   -2.9440   52.1808   23.3782 H   0  0  0  0  0  0
   -2.3005   50.0831   23.0955 C   0  0  2  0  0  0
   -2.3150   48.7867   23.8846 C   0  0  0  0  0  0
   -1.5010   48.3073   24.9156 C   0  0  0  0  0  0
   -1.8876   47.1744   25.6312 C   0  0  0  0  0  0
   -3.0614   46.4967   25.3032 C   0  0  0  0  0  0
   -3.8325   46.9205   24.2208 C   0  0  0  0  0  0
   -3.4409   48.0648   23.5279 C   0  0  0  0  0  0
   -4.0597   48.6774   22.4595 N   0  0  0  0  0  0
   -3.4387   49.7978   22.0627 C   0  0  0  0  0  0
   -3.7846   50.4966   21.1142 O   0  0  0  0  0  0
    0.7526   52.4875   23.5560 C   0  0  0  0  0  0
    0.4689   53.5689   24.0798 O   0  0  0  0  0  0
    1.9766   52.3356   22.7014 C   0  0  0  0  0  0
    2.3687   51.1011   22.1656 C   0  0  0  0  0  0
    3.4418   51.0325   21.2810 C   0  0  0  0  0  0
    4.1682   52.1760   20.9692 C   0  0  0  0  0  0
    3.8304   53.3976   21.5413 C   0  0  0  0  0  0
    2.7380   53.4771   22.4008 C   0  0  0  0  0  0
    2.4939   50.4973   17.2804 H   0  0  0  0  0  0
    1.8971   52.8082   17.8688 H   0  0  0  0  0  0
    0.3045   53.2515   19.6640 H   0  0  0  0  0  0
   -0.1944   48.9944   20.2438 H   0  0  0  0  0  0
    1.4322   48.5912   18.4475 H   0  0  0  0  0  0
   -0.1995   51.4275   26.4805 H   0  0  0  0  0  0
   -2.0494   50.6694   27.8535 H   0  0  0  0  0  0
   -4.4712   50.6473   28.3095 H   0  0  0  0  0  0
   -6.8044   50.7064   27.5154 H   0  0  0  0  0  0
   -7.2858   51.0883   25.1161 H   0  0  0  0  0  0
   -5.4449   51.3794   23.5203 H   0  0  0  0  0  0
   -0.6164   48.8305   25.2397 H   0  0  0  0  0  0
   -1.2980   46.8611   26.4810 H   0  0  0  0  0  0
   -3.3753   45.6574   25.9049 H   0  0  0  0  0  0
   -4.7371   46.3904   23.9638 H   0  0  0  0  0  0
   -4.8591   48.3031   21.9727 H   0  0  0  0  0  0
    1.8352   50.1888   22.3837 H   0  0  0  0  0  0
    3.6999   50.0966   20.8157 H   0  0  0  0  0  0
    4.9894   52.1131   20.2685 H   0  0  0  0  0  0
    4.3925   54.2865   21.2946 H   0  0  0  0  0  0
    2.4724   54.4475   22.7979 H   0  0  0  0  0  0
   -1.3770   51.7585   24.6698 N   0  3  2  0  0  0
   -1.3527   52.7702   24.6219 H   0  0  0  0  0  0
  1  6  2  0  0  0
  1  2  1  0  0  0
  1 41  1  0  0  0
  2  3  2  0  0  0
  2 42  1  0  0  0
  3  4  1  0  0  0
  3 43  1  0  0  0
  4  5  2  0  0  0
  4  7  1  0  0  0
  5  6  1  0  0  0
  5 44  1  0  0  0
  6 45  1  0  0  0
  7  8  2  0  0  0
  7  9  1  0  0  0
  9 10  1  0  0  0
  9 23  1  0  0  0
  9 11  1  0  0  0
 11 12  1  0  0  0
 11 33  1  0  0  0
 11 62  1  0  0  0
 13 14  2  0  0  0
 13 46  1  0  0  0
 13 62  1  0  0  0
 14 15  1  0  0  0
 14 47  1  0  0  0
 15 20  2  0  0  0
 15 16  1  0  0  0
 16 17  2  0  0  0
 16 48  1  0  0  0
 17 18  1  0  0  0
 17 49  1  0  0  0
 18 19  2  0  0  0
 18 50  1  0  0  0
 19 20  1  0  0  0
 19 51  1  0  0  0
 20 21  1  0  0  0
 21 22  1  0  0  0
 21 23  1  0  0  0
 21 62  1  0  0  0
 23 31  1  0  0  0
 23 24  1  0  0  0
 24 29  2  0  0  0
 24 25  1  0  0  0
 25 26  2  0  0  0
 25 52  1  0  0  0
 26 27  1  0  0  0
 26 53  1  0  0  0
 27 28  2  0  0  0
 27 54  1  0  0  0
 28 29  1  0  0  0
 28 55  1  0  0  0
 29 30  1  0  0  0
 30 31  1  0  0  0
 30 56  1  0  0  0
 31 32  2  0  0  0
 33 34  2  0  0  0
 33 35  1  0  0  0
 35 40  2  0  0  0
 35 36  1  0  0  0
 36 37  2  0  0  0
 36 57  1  0  0  0
 37 38  1  0  0  0
 37 58  1  0  0  0
 38 39  2  0  0  0
 38 59  1  0  0  0
 39 40  1  0  0  0
 39 60  1  0  0  0
 40 61  1  0  0  0
 62 63  1  0  0  0
M  CHG  1  62   1
M  END
> <i_i_glide_confnum>
5

> <i_i_glide_lignum>
1125

> <i_i_glide_posenum>
300

> <i_i_glide_rotatable_bonds>
4

> <i_m_Source_File_Index>
3238

> <b_m_subgroup_collapsed>
0

> <r_i_docking_score>
-2.94873

> <r_i_glide_ecoul>
-6.52995

> <r_i_glide_eff_state_penalty>
0

> <r_i_glide_einternal>
6.77593

> <r_i_glide_emodel>
-39.1745

> <r_i_glide_energy>
-36.3389

> <r_i_glide_erotb>
0.329605

> <r_i_glide_esite>
-0.0130566

> <r_i_glide_evdw>
-29.809

> <r_i_glide_gscore>
-2.94873

> <r_i_glide_hbond>
-0.0928268

> <r_i_glide_ligand_efficiency>
-0.0775981

> <r_i_glide_ligand_efficiency_ln>
-0.635833

> <r_i_glide_ligand_efficiency_sa>
-0.260883

> <r_i_glide_lipo>
-0.510374

> <r_i_glide_metal>
0

> <r_i_glide_rewards>
-0.192136

> <s_i_glide_gridfile>
wee1_glide-grid

> <s_m_Source_File>
wee1_decoys_glide_SP.sdf

> <s_m_Source_Path>
/Users/zhangxujun/Desktop

> <s_m_entry_id>
3513

> <s_m_entry_name>
wee1_decoys_glide_SP.3238

> <s_m_subgroup_title>
wee1_decoys_glide_SP

> <s_m_subgroupid>
wee1_decoys_glide_SP


$$$$
