ZINC23011588_3932
                    3D
 Schrodinger Suite 2024-2.
 42 44  0  0  1  0            999 V2000
   -6.7397   51.1743   31.3261 C   0  0  0  0  0  0
   -5.5839   50.4850   31.6849 C   0  0  0  0  0  0
   -4.5936   50.2507   30.7364 C   0  0  0  0  0  0
   -4.7532   50.7177   29.4298 C   0  0  0  0  0  0
   -5.9274   51.3979   29.0692 C   0  0  0  0  0  0
   -6.9171   51.6279   30.0215 C   0  0  0  0  0  0
   -3.6956   50.4470   28.5460 N   0  0  0  0  0  0
   -3.3848   51.0546   27.3859 C   0  0  0  0  0  0
   -4.0023   51.9974   26.8869 O   0  0  0  0  0  0
   -2.2704   50.4967   26.8809 N   0  0  0  0  0  0
   -1.4392   50.9285   25.8320 C   0  0  0  0  0  0
   -1.6105   52.1316   25.1328 C   0  0  0  0  0  0
   -0.6303   52.5647   24.2482 C   0  0  0  0  0  0
    0.5370   51.8108   24.0689 C   0  0  0  0  0  0
    0.6364   50.5454   24.6484 C   0  0  0  0  0  0
   -0.3412   50.1137   25.5433 C   0  0  0  0  0  0
    1.6742   52.3176   23.4103 N   0  0  0  0  0  0
    2.1523   53.5683   23.5998 C   0  0  0  0  0  0
    1.5066   54.4970   24.0804 O   0  0  0  0  0  0
    3.6110   53.7801   23.3299 C   0  0  0  0  0  0
    4.4290   54.2150   24.3824 C   0  0  0  0  0  0
    5.7713   54.5151   24.1622 C   0  0  0  0  0  0
    6.3046   54.4091   22.8801 C   0  0  0  0  0  0
    5.4915   53.9975   21.8223 C   0  0  0  0  0  0
    4.1511   53.6745   22.0410 C   0  0  0  0  0  0
    3.3910   53.2766   20.9950 F   0  0  0  0  0  0
    6.8566   55.1086   25.6075 Br  0  0  0  0  0  0
   -7.5074   51.3517   32.0653 H   0  0  0  0  0  0
   -5.4458   50.1419   32.7008 H   0  0  0  0  0  0
   -3.6956   49.7205   31.0277 H   0  0  0  0  0  0
   -6.0940   51.7450   28.0612 H   0  0  0  0  0  0
   -7.8223   52.1493   29.7465 H   0  0  0  0  0  0
   -3.0424   49.7422   28.8700 H   0  0  0  0  0  0
   -1.9503   49.6532   27.3573 H   0  0  0  0  0  0
   -2.4519   52.7828   25.3036 H   0  0  0  0  0  0
   -0.7506   53.5268   23.7728 H   0  0  0  0  0  0
    1.5050   49.9252   24.4817 H   0  0  0  0  0  0
   -0.2098   49.1691   26.0557 H   0  0  0  0  0  0
    2.3111   51.6375   23.0258 H   0  0  0  0  0  0
    4.0254   54.3317   25.3792 H   0  0  0  0  0  0
    7.3428   54.6554   22.7066 H   0  0  0  0  0  0
    5.9022   53.9272   20.8256 H   0  0  0  0  0  0
  1  6  2  0  0  0
  1  2  1  0  0  0
  1 28  1  0  0  0
  2  3  2  0  0  0
  2 29  1  0  0  0
  3  4  1  0  0  0
  3 30  1  0  0  0
  4  5  2  0  0  0
  4  7  1  0  0  0
  5  6  1  0  0  0
  5 31  1  0  0  0
  6 32  1  0  0  0
  7  8  1  0  0  0
  7 33  1  0  0  0
  8  9  2  0  0  0
  8 10  1  0  0  0
 10 11  1  0  0  0
 10 34  1  0  0  0
 11 16  2  0  0  0
 11 12  1  0  0  0
 12 13  2  0  0  0
 12 35  1  0  0  0
 13 14  1  0  0  0
 13 36  1  0  0  0
 14 15  2  0  0  0
 14 17  1  0  0  0
 15 16  1  0  0  0
 15 37  1  0  0  0
 16 38  1  0  0  0
 17 18  1  0  0  0
 17 39  1  0  0  0
 18 19  2  0  0  0
 18 20  1  0  0  0
 20 25  2  0  0  0
 20 21  1  0  0  0
 21 22  2  0  0  0
 21 40  1  0  0  0
 22 23  1  0  0  0
 22 27  1  0  0  0
 23 24  2  0  0  0
 23 41  1  0  0  0
 24 25  1  0  0  0
 24 42  1  0  0  0
 25 26  1  0  0  0
M  END
> <i_i_glide_confnum>
92

> <i_i_glide_lignum>
3933

> <i_i_glide_posenum>
347

> <i_i_glide_rotatable_bonds>
7

> <i_m_Source_File_Index>
5048

> <b_m_subgroup_collapsed>
0

> <r_i_docking_score>
-5.14436

> <r_i_glide_ecoul>
-8.21947

> <r_i_glide_eff_state_penalty>
0

> <r_i_glide_einternal>
16.4769

> <r_i_glide_emodel>
-50.1821

> <r_i_glide_energy>
-43.795

> <r_i_glide_erotb>
0.649789

> <r_i_glide_esite>
-0.263337

> <r_i_glide_evdw>
-35.5755

> <r_i_glide_gscore>
-5.14436

> <r_i_glide_hbond>
-0.277887

> <r_i_glide_ligand_efficiency>
-0.190532

> <r_i_glide_ligand_efficiency_ln>
-1.19752

> <r_i_glide_ligand_efficiency_sa>
-0.571596

> <r_i_glide_lipo>
-1.70583

> <r_i_glide_metal>
0

> <r_i_glide_rewards>
-0.535398

> <s_i_glide_gridfile>
wee1_glide-grid

> <s_m_Source_File>
wee1_decoys_glide_SP.sdf

> <s_m_Source_Path>
/Users/zhangxujun/Desktop

> <s_m_entry_id>
5323

> <s_m_entry_name>
wee1_decoys_glide_SP.5048

> <s_m_subgroup_title>
wee1_decoys_glide_SP

> <s_m_subgroupid>
wee1_decoys_glide_SP


$$$$
