ZINC08829070_3021
                    3D
 Schrodinger Suite 2024-2.
 60 64  0  0  1  0            999 V2000
    8.9525   56.0420   17.3093 C   0  0  0  0  0  0
    7.9497   55.6790   18.3963 C   0  0  0  0  0  0
    8.3814   55.7331   19.7276 C   0  0  0  0  0  0
    7.4521   55.3872   20.7076 C   0  0  0  0  0  0
    6.1320   54.9919   20.3978 C   0  0  0  0  0  0
    5.7172   54.9477   19.0629 C   0  0  0  0  0  0
    6.6357   55.2934   18.0649 C   0  0  0  0  0  0
    6.1760   55.2411   16.6141 C   0  0  0  0  0  0
    5.4326   54.6867   21.5344 N   0  0  0  0  0  0
    6.2718   54.8968   22.5230 C   0  0  0  0  0  0
    7.5042   55.3092   22.0784 N   0  0  0  0  0  0
    8.2921   55.4766   22.6955 H   0  0  0  0  0  0
    5.9206   54.7560   23.9672 C   0  0  0  0  0  0
    4.7589   54.0830   24.3444 C   0  0  0  0  0  0
    4.4598   53.9051   25.6917 C   0  0  0  0  0  0
    5.3031   54.4572   26.6592 C   0  0  0  0  0  0
    6.4116   55.1637   26.3122 N   0  0  0  0  0  0
    6.7044   55.2976   24.9913 C   0  0  0  0  0  0
    4.9834   54.2972   28.4062 S   0  0  0  0  0  0
    3.6590   53.0931   28.8119 C   0  0  0  0  0  0
    2.3230   53.2688   28.0794 C   0  0  0  0  0  0
    1.8948   54.3962   27.8329 O   0  0  0  0  0  0
    1.7133   52.1259   27.6985 N   0  0  0  0  0  0
    0.7376   51.9707   26.7009 C   0  0  0  0  0  0
    0.7047   52.7766   25.5542 C   0  0  0  0  0  0
   -0.2382   52.5364   24.5608 C   0  0  0  0  0  0
   -1.1486   51.4902   24.7056 C   0  0  0  0  0  0
   -1.0951   50.6604   25.8288 C   0  0  0  0  0  0
   -0.1460   50.8969   26.8204 C   0  0  0  0  0  0
   -2.4063   51.2260   23.4585 S   0  0  0  0  0  0
   -2.5497   49.7760   23.2884 O   0  0  0  0  0  0
   -2.0944   52.0946   22.3166 O   0  0  0  0  0  0
   -3.8831   51.8454   24.1847 N   0  0  0  0  0  0
   -4.4677   51.1878   25.3663 C   0  0  0  0  0  0
   -5.9760   51.0751   25.3884 C   0  0  0  0  0  0
   -5.1373   49.8493   25.1393 C   0  0  0  0  0  0
    8.6165   56.9233   16.7627 H   0  0  0  0  0  0
    9.9466   56.2439   17.7105 H   0  0  0  0  0  0
    9.0464   55.2251   16.5935 H   0  0  0  0  0  0
    9.3918   56.0220   19.9814 H   0  0  0  0  0  0
    4.7108   54.6431   18.8150 H   0  0  0  0  0  0
    5.1166   54.9986   16.5218 H   0  0  0  0  0  0
    6.3370   56.2044   16.1302 H   0  0  0  0  0  0
    6.7471   54.4942   16.0628 H   0  0  0  0  0  0
    4.1082   53.6509   23.5976 H   0  0  0  0  0  0
    3.5998   53.3136   25.9303 H   0  0  0  0  0  0
    7.5878   55.8696   24.7565 H   0  0  0  0  0  0
    3.4647   53.1584   29.8818 H   0  0  0  0  0  0
    4.0669   52.0980   28.6337 H   0  0  0  0  0  0
    1.9792   51.2755   28.1695 H   0  0  0  0  0  0
    1.3989   53.5928   25.4217 H   0  0  0  0  0  0
   -0.2626   53.1756   23.6903 H   0  0  0  0  0  0
   -1.7841   49.8341   25.9422 H   0  0  0  0  0  0
   -0.1152   50.2417   27.6800 H   0  0  0  0  0  0
   -4.0452   52.8506   24.0923 H   0  0  0  0  0  0
   -3.9409   51.3555   26.3076 H   0  0  0  0  0  0
   -6.5481   51.5028   24.5636 H   0  0  0  0  0  0
   -6.4878   51.1825   26.3453 H   0  0  0  0  0  0
   -5.0459   49.0934   25.9205 H   0  0  0  0  0  0
   -5.1185   49.4130   24.1396 H   0  0  0  0  0  0
  1  2  1  0  0  0
  1 37  1  0  0  0
  1 38  1  0  0  0
  1 39  1  0  0  0
  2  7  2  0  0  0
  2  3  1  0  0  0
  3  4  2  0  0  0
  3 40  1  0  0  0
  4 11  1  0  0  0
  4  5  1  0  0  0
  5  6  2  0  0  0
  5  9  1  0  0  0
  6  7  1  0  0  0
  6 41  1  0  0  0
  7  8  1  0  0  0
  8 42  1  0  0  0
  8 43  1  0  0  0
  8 44  1  0  0  0
  9 10  2  0  0  0
 10 11  1  0  0  0
 10 13  1  0  0  0
 11 12  1  0  0  0
 13 18  2  0  0  0
 13 14  1  0  0  0
 14 15  2  0  0  0
 14 45  1  0  0  0
 15 16  1  0  0  0
 15 46  1  0  0  0
 16 17  2  0  0  0
 16 19  1  0  0  0
 17 18  1  0  0  0
 18 47  1  0  0  0
 19 20  1  0  0  0
 20 21  1  0  0  0
 20 48  1  0  0  0
 20 49  1  0  0  0
 21 22  2  0  0  0
 21 23  1  0  0  0
 23 24  1  0  0  0
 23 50  1  0  0  0
 24 29  2  0  0  0
 24 25  1  0  0  0
 25 26  2  0  0  0
 25 51  1  0  0  0
 26 27  1  0  0  0
 26 52  1  0  0  0
 27 28  2  0  0  0
 27 30  1  0  0  0
 28 29  1  0  0  0
 28 53  1  0  0  0
 29 54  1  0  0  0
 30 31  2  0  0  0
 30 32  2  0  0  0
 30 33  1  0  0  0
 33 34  1  0  0  0
 33 55  1  0  0  0
 34 36  1  0  0  0
 34 35  1  0  0  0
 34 56  1  0  0  0
 35 36  1  0  0  0
 35 57  1  0  0  0
 35 58  1  0  0  0
 36 59  1  0  0  0
 36 60  1  0  0  0
M  END
> <i_i_glide_confnum>
301

> <i_i_glide_lignum>
3022

> <i_i_glide_posenum>
107

> <i_i_glide_rotatable_bonds>
9

> <i_m_Source_File_Index>
2765

> <b_m_subgroup_collapsed>
0

> <r_i_docking_score>
-5.87866

> <r_i_glide_ecoul>
-5.55759

> <r_i_glide_eff_state_penalty>
0

> <r_i_glide_einternal>
2.26041

> <r_i_glide_emodel>
-69.6281

> <r_i_glide_energy>
-50.4515

> <r_i_glide_erotb>
0.714863

> <r_i_glide_esite>
-0.010605

> <r_i_glide_evdw>
-44.8939

> <r_i_glide_gscore>
-5.87866

> <r_i_glide_hbond>
-0.423918

> <r_i_glide_ligand_efficiency>
-0.167962

> <r_i_glide_ligand_efficiency_ln>
-1.2905

> <r_i_glide_ligand_efficiency_sa>
-0.549414

> <r_i_glide_lipo>
-2.59904

> <r_i_glide_metal>
0

> <r_i_glide_rewards>
-0.481635

> <s_i_glide_gridfile>
wee1_glide-grid

> <s_m_Source_File>
wee1_decoys_glide_SP.sdf

> <s_m_Source_Path>
/Users/zhangxujun/Desktop

> <s_m_entry_id>
3040

> <s_m_entry_name>
wee1_decoys_glide_SP.2765

> <s_m_subgroup_title>
wee1_decoys_glide_SP

> <s_m_subgroupid>
wee1_decoys_glide_SP


$$$$
