ZINC45772890_5615
                    3D
 Schrodinger Suite 2024-2.
 67 70  0  0  1  0            999 V2000
    3.6539   52.9139   18.8664 C   0  0  0  0  0  0
    4.7160   53.8895   18.3695 C   0  0  0  0  0  0
    4.7751   54.1696   17.0010 C   0  0  0  0  0  0
    5.7419   55.0333   16.4951 C   0  0  0  0  0  0
    6.6861   55.6013   17.3483 C   0  0  0  0  0  0
    6.6356   55.3306   18.7171 C   0  0  0  0  0  0
    5.6339   54.4989   19.2474 C   0  0  0  0  0  0
    5.5042   54.2308   20.6278 N   0  0  0  0  0  0
    6.0155   54.8984   21.6829 C   0  0  0  0  0  0
    6.7041   55.9165   21.6059 O   0  0  0  0  0  0
    5.6519   54.3212   23.0593 C   0  0  0  0  0  0
    6.6719   54.6283   24.1855 C   0  0  0  0  0  0
    6.1416   54.4139   25.5889 C   0  0  0  0  0  0
    4.9149   54.1895   25.9768 N   0  0  0  0  0  0
    5.0609   53.9815   27.2728 C   0  0  0  0  0  0
    6.2920   54.0943   27.7350 N   0  0  0  0  0  0
    7.0396   54.4011   26.6012 O   0  0  0  0  0  0
    3.9005   53.6315   28.1606 C   0  0  0  0  0  0
    2.5944   53.9871   27.8026 C   0  0  0  0  0  0
    1.5242   53.6852   28.6404 C   0  0  0  0  0  0
    1.7417   53.0106   29.8448 C   0  0  0  0  0  0
    3.0410   52.6346   30.1977 C   0  0  0  0  0  0
    4.1091   52.9405   29.3588 C   0  0  0  0  0  0
    0.5706   52.6839   30.7745 C   0  0  0  0  0  0
   -0.0341   53.9528   31.4048 C   0  0  0  0  0  0
   -0.5077   51.8334   30.0727 C   0  0  0  0  0  0
    7.9644   56.6669   16.6838 S   0  0  0  0  0  0
    7.3596   57.3881   15.5580 O   0  0  0  0  0  0
    8.5514   57.3837   17.8228 O   0  0  0  0  0  0
    9.2051   55.5733   16.0292 N   0  0  0  0  0  0
    9.0162   54.9687   14.6848 C   0  0  0  0  0  0
    8.4929   53.5190   14.7724 C   0  0  0  0  0  0
    9.3354   52.6575   15.7347 C   0  0  0  0  0  0
    9.5425   53.3381   17.1045 C   0  0  0  0  0  0
   10.0482   54.7897   16.9673 C   0  0  0  0  0  0
    3.0835   52.4678   18.0507 H   0  0  0  0  0  0
    4.1277   52.0970   19.4130 H   0  0  0  0  0  0
    2.9602   53.4109   19.5449 H   0  0  0  0  0  0
    4.0690   53.7139   16.3217 H   0  0  0  0  0  0
    5.7675   55.2446   15.4359 H   0  0  0  0  0  0
    7.3879   55.7729   19.3506 H   0  0  0  0  0  0
    4.8724   53.4747   20.8399 H   0  0  0  0  0  0
    5.4050   53.2593   23.0282 H   0  0  0  0  0  0
    4.7191   54.8313   23.3032 H   0  0  0  0  0  0
    7.1044   55.6257   24.0882 H   0  0  0  0  0  0
    7.5048   53.9403   24.0507 H   0  0  0  0  0  0
    2.4034   54.5017   26.8731 H   0  0  0  0  0  0
    0.5252   53.9777   28.3509 H   0  0  0  0  0  0
    3.2285   52.1130   31.1254 H   0  0  0  0  0  0
    5.1044   52.6338   29.6454 H   0  0  0  0  0  0
    0.9533   52.0797   31.5995 H   0  0  0  0  0  0
    0.7078   54.5570   31.9209 H   0  0  0  0  0  0
   -0.7853   53.6966   32.1518 H   0  0  0  0  0  0
   -0.4947   54.5904   30.6504 H   0  0  0  0  0  0
   -0.0734   50.9838   29.5456 H   0  0  0  0  0  0
   -1.2234   51.4320   30.7925 H   0  0  0  0  0  0
   -1.0685   52.4128   29.3398 H   0  0  0  0  0  0
    8.3332   55.5883   14.1033 H   0  0  0  0  0  0
    9.9772   54.9946   14.1702 H   0  0  0  0  0  0
    7.4543   53.5151   15.0994 H   0  0  0  0  0  0
    8.4877   53.0687   13.7790 H   0  0  0  0  0  0
   10.3090   52.4654   15.2799 H   0  0  0  0  0  0
    8.8676   51.6800   15.8691 H   0  0  0  0  0  0
   10.2579   52.7570   17.6822 H   0  0  0  0  0  0
    8.6106   53.3252   17.6717 H   0  0  0  0  0  0
   11.0708   54.8011   16.5892 H   0  0  0  0  0  0
   10.0643   55.2873   17.9379 H   0  0  0  0  0  0
  1  2  1  0  0  0
  1 36  1  0  0  0
  1 37  1  0  0  0
  1 38  1  0  0  0
  2  7  2  0  0  0
  2  3  1  0  0  0
  3  4  2  0  0  0
  3 39  1  0  0  0
  4  5  1  0  0  0
  4 40  1  0  0  0
  5  6  2  0  0  0
  5 27  1  0  0  0
  6  7  1  0  0  0
  6 41  1  0  0  0
  7  8  1  0  0  0
  8  9  1  0  0  0
  8 42  1  0  0  0
  9 10  2  0  0  0
  9 11  1  0  0  0
 11 12  1  0  0  0
 11 43  1  0  0  0
 11 44  1  0  0  0
 12 13  1  0  0  0
 12 45  1  0  0  0
 12 46  1  0  0  0
 13 17  1  0  0  0
 13 14  2  0  0  0
 14 15  1  0  0  0
 15 16  2  0  0  0
 15 18  1  0  0  0
 16 17  1  0  0  0
 18 23  2  0  0  0
 18 19  1  0  0  0
 19 20  2  0  0  0
 19 47  1  0  0  0
 20 21  1  0  0  0
 20 48  1  0  0  0
 21 22  2  0  0  0
 21 24  1  0  0  0
 22 23  1  0  0  0
 22 49  1  0  0  0
 23 50  1  0  0  0
 24 25  1  0  0  0
 24 26  1  0  0  0
 24 51  1  0  0  0
 25 52  1  0  0  0
 25 53  1  0  0  0
 25 54  1  0  0  0
 26 55  1  0  0  0
 26 56  1  0  0  0
 26 57  1  0  0  0
 27 28  2  0  0  0
 27 29  2  0  0  0
 27 30  1  0  0  0
 30 35  1  0  0  0
 30 31  1  0  0  0
 31 32  1  0  0  0
 31 58  1  0  0  0
 31 59  1  0  0  0
 32 33  1  0  0  0
 32 60  1  0  0  0
 32 61  1  0  0  0
 33 34  1  0  0  0
 33 62  1  0  0  0
 33 63  1  0  0  0
 34 35  1  0  0  0
 34 64  1  0  0  0
 34 65  1  0  0  0
 35 66  1  0  0  0
 35 67  1  0  0  0
M  END
> <i_i_glide_confnum>
181

> <i_i_glide_lignum>
5616

> <i_i_glide_posenum>
150

> <i_i_glide_rotatable_bonds>
9

> <i_m_Source_File_Index>
3698

> <b_m_subgroup_collapsed>
0

> <r_i_docking_score>
-4.90765

> <r_i_glide_ecoul>
-2.36494

> <r_i_glide_eff_state_penalty>
0

> <r_i_glide_einternal>
0.895492

> <r_i_glide_emodel>
-65.9451

> <r_i_glide_energy>
-49.1344

> <r_i_glide_erotb>
0.6615

> <r_i_glide_esite>
-0.000828802

> <r_i_glide_evdw>
-46.7695

> <r_i_glide_gscore>
-4.90765

> <r_i_glide_hbond>
0

> <r_i_glide_ligand_efficiency>
-0.140219

> <r_i_glide_ligand_efficiency_ln>
-1.07734

> <r_i_glide_ligand_efficiency_sa>
-0.458664

> <r_i_glide_lipo>
-2.11995

> <r_i_glide_metal>
0

> <r_i_glide_rewards>
-0.755157

> <s_i_glide_gridfile>
wee1_glide-grid

> <s_m_Source_File>
wee1_decoys_glide_SP.sdf

> <s_m_Source_Path>
/Users/zhangxujun/Desktop

> <s_m_entry_id>
3973

> <s_m_entry_name>
wee1_decoys_glide_SP.3698

> <s_m_subgroup_title>
wee1_decoys_glide_SP

> <s_m_subgroupid>
wee1_decoys_glide_SP


$$$$
