ZINC02978395_5775
                    3D
 Schrodinger Suite 2024-2.
 53 55  0  0  1  0            999 V2000
   -3.1319   47.5600   25.8120 C   0  0  0  0  0  0
   -2.1587   48.5140   25.1421 C   0  0  0  0  0  0
   -0.8468   48.6259   25.6063 C   0  0  0  0  0  0
    0.0416   49.4934   24.9902 C   0  0  0  0  0  0
   -0.3903   50.3029   23.9385 C   0  0  0  0  0  0
   -1.7121   50.2194   23.4952 C   0  0  0  0  0  0
   -2.5908   49.3136   24.0827 C   0  0  0  0  0  0
    0.4812   51.2652   23.4024 N   0  0  0  0  0  0
    1.7156   50.8116   22.7894 C   0  0  0  0  0  0
    1.5222   50.1488   21.4114 C   0  0  0  0  0  0
    2.3012   49.2542   21.0904 O   0  0  0  0  0  0
    0.5537   50.6603   20.6145 N   0  0  0  0  0  0
    0.2145   50.4126   19.2616 C   0  0  0  0  0  0
    1.0329   49.6218   18.4328 C   0  0  0  0  0  0
    0.7041   49.3953   17.1012 C   0  0  0  0  0  0
   -0.4481   49.9544   16.5659 C   0  0  0  0  0  0
   -1.2649   50.7511   17.3609 C   0  0  0  0  0  0
   -0.9608   51.0090   18.7107 C   0  0  0  0  0  0
   -1.8916   51.9166   19.4883 C   0  0  0  0  0  0
   -2.8324   52.4891   18.8873 O   0  0  0  0  0  0
    0.3851   52.9079   24.0929 S   0  0  0  0  0  0
    1.3976   53.7425   23.4350 O   0  0  0  0  0  0
   -1.0300   53.2959   24.0812 O   0  0  0  0  0  0
    0.8608   52.7446   25.8211 C   0  0  0  0  0  0
    2.1318   53.1389   26.2449 C   0  0  0  0  0  0
    2.4705   53.0470   27.5937 C   0  0  0  0  0  0
    1.5398   52.5733   28.5191 C   0  0  0  0  0  0
    0.2727   52.1677   28.0948 C   0  0  0  0  0  0
   -0.0649   52.2519   26.7465 C   0  0  0  0  0  0
    2.0032   52.4973   30.2292 S   0  0  0  0  0  0
    0.4922   52.5424   31.2418 C   0  0  0  0  0  0
   -4.1135   48.0255   25.9064 H   0  0  0  0  0  0
   -3.2429   46.6512   25.2223 H   0  0  0  0  0  0
   -2.8181   47.2903   26.8203 H   0  0  0  0  0  0
   -0.5050   48.0944   26.4793 H   0  0  0  0  0  0
    1.0467   49.5744   25.3770 H   0  0  0  0  0  0
   -2.0702   50.8646   22.7102 H   0  0  0  0  0  0
   -3.6114   49.2583   23.7331 H   0  0  0  0  0  0
    2.3050   50.1671   23.4428 H   0  0  0  0  0  0
    2.3950   51.6396   22.5904 H   0  0  0  0  0  0
   -0.0690   51.3453   21.0371 H   0  0  0  0  0  0
    1.9544   49.1825   18.7788 H   0  0  0  0  0  0
    1.3583   48.7978   16.4828 H   0  0  0  0  0  0
   -0.7013   49.7831   15.5299 H   0  0  0  0  0  0
   -2.1467   51.1794   16.9041 H   0  0  0  0  0  0
    2.8545   53.5185   25.5368 H   0  0  0  0  0  0
    3.4535   53.3542   27.9205 H   0  0  0  0  0  0
   -0.4538   51.7798   28.7919 H   0  0  0  0  0  0
   -1.0484   51.9402   26.4223 H   0  0  0  0  0  0
    0.7458   52.5112   32.3021 H   0  0  0  0  0  0
   -0.0674   53.4589   31.0572 H   0  0  0  0  0  0
   -0.1603   51.6965   31.0354 H   0  0  0  0  0  0
   -1.6881   52.0966   20.7092 O   0  5  0  0  0  0
  1  2  1  0  0  0
  1 32  1  0  0  0
  1 33  1  0  0  0
  1 34  1  0  0  0
  2  7  2  0  0  0
  2  3  1  0  0  0
  3  4  2  0  0  0
  3 35  1  0  0  0
  4  5  1  0  0  0
  4 36  1  0  0  0
  5  6  2  0  0  0
  5  8  1  0  0  0
  6  7  1  0  0  0
  6 37  1  0  0  0
  7 38  1  0  0  0
  8  9  1  0  0  0
  8 21  1  0  0  0
  9 10  1  0  0  0
  9 39  1  0  0  0
  9 40  1  0  0  0
 10 11  2  0  0  0
 10 12  1  0  0  0
 12 13  1  0  0  0
 12 41  1  0  0  0
 13 18  2  0  0  0
 13 14  1  0  0  0
 14 15  2  0  0  0
 14 42  1  0  0  0
 15 16  1  0  0  0
 15 43  1  0  0  0
 16 17  2  0  0  0
 16 44  1  0  0  0
 17 18  1  0  0  0
 17 45  1  0  0  0
 18 19  1  0  0  0
 19 20  2  0  0  0
 19 53  1  0  0  0
 21 22  2  0  0  0
 21 23  2  0  0  0
 21 24  1  0  0  0
 24 29  2  0  0  0
 24 25  1  0  0  0
 25 26  2  0  0  0
 25 46  1  0  0  0
 26 27  1  0  0  0
 26 47  1  0  0  0
 27 28  2  0  0  0
 27 30  1  0  0  0
 28 29  1  0  0  0
 28 48  1  0  0  0
 29 49  1  0  0  0
 30 31  1  0  0  0
 31 50  1  0  0  0
 31 51  1  0  0  0
 31 52  1  0  0  0
M  CHG  1  53  -1
M  END
> <i_i_glide_confnum>
139

> <i_i_glide_lignum>
5776

> <i_i_glide_posenum>
189

> <i_i_glide_rotatable_bonds>
9

> <i_m_Source_File_Index>
576

> <b_m_subgroup_collapsed>
0

> <r_i_docking_score>
-2.86707

> <r_i_glide_ecoul>
-8.15522

> <r_i_glide_eff_state_penalty>
0

> <r_i_glide_einternal>
8.33486

> <r_i_glide_emodel>
-44.3813

> <r_i_glide_energy>
-41.7606

> <r_i_glide_erotb>
0.641271

> <r_i_glide_esite>
-0.0355366

> <r_i_glide_evdw>
-33.6054

> <r_i_glide_gscore>
-2.86707

> <r_i_glide_hbond>
-0.222274

> <r_i_glide_ligand_efficiency>
-0.089596

> <r_i_glide_ligand_efficiency_ln>
-0.642016

> <r_i_glide_ligand_efficiency_sa>
-0.28445

> <r_i_glide_lipo>
-0.753917

> <r_i_glide_metal>
0

> <r_i_glide_rewards>
0.406938

> <s_i_glide_gridfile>
wee1_glide-grid

> <s_m_Source_File>
wee1_decoys_glide_SP.sdf

> <s_m_Source_Path>
/Users/zhangxujun/Desktop

> <s_m_entry_id>
851

> <s_m_entry_name>
wee1_decoys_glide_SP.576

> <s_m_subgroup_title>
wee1_decoys_glide_SP

> <s_m_subgroupid>
wee1_decoys_glide_SP


$$$$
