ZINC12064317_5477
                    3D
 Schrodinger Suite 2024-2.
 67 70  0  0  1  0            999 V2000
   11.4615   55.0226   15.8606 C   0  0  0  0  0  0
   11.0039   54.0815   16.9917 C   0  0  2  0  0  0
   11.8481   53.9122   17.6627 H   0  0  0  0  0  0
   10.5556   52.6941   16.4515 C   0  0  0  0  0  0
    9.1415   52.6972   15.8121 C   0  0  2  0  0  0
    9.1867   53.3216   14.9178 H   0  0  0  0  0  0
    8.1221   53.3598   16.7665 C   0  0  0  0  0  0
    8.5963   54.7247   17.1018 N   0  0  0  0  0  0
    9.8834   54.7293   17.8447 C   0  0  0  0  0  0
    7.3808   55.9179   17.5962 S   0  0  0  0  0  0
    6.1809   55.7240   16.7731 O   0  0  0  0  0  0
    8.0402   57.2278   17.6600 O   0  0  0  0  0  0
    6.9443   55.4946   19.2816 C   0  0  0  0  0  0
    7.7725   55.9217   20.3165 C   0  0  0  0  0  0
    7.4456   55.6241   21.6336 C   0  0  0  0  0  0
    6.3016   54.8754   21.9324 C   0  0  0  0  0  0
    5.4655   54.4593   20.8821 C   0  0  0  0  0  0
    5.7878   54.7647   19.5611 C   0  0  0  0  0  0
    6.0199   54.4970   23.3684 C   0  0  0  0  0  0
    6.9533   54.3075   24.1508 O   0  0  0  0  0  0
    4.7130   54.4023   23.6945 N   0  0  0  0  0  0
    4.1496   54.1598   24.9468 C   0  0  0  0  0  0
    2.8471   53.6954   25.1959 C   0  0  0  0  0  0
    2.5733   53.5978   26.6009 C   0  0  0  0  0  0
    3.6902   53.9421   27.3831 C   0  0  0  0  0  0
    5.0266   54.4399   26.4118 S   0  0  0  0  0  0
    3.7682   53.9789   28.8903 C   0  0  0  0  0  0
    2.7916   55.0046   29.4828 C   0  0  0  0  0  0
    1.3406   54.5152   29.5643 C   0  0  0  0  0  0
    0.6722   54.3203   28.1999 C   0  0  0  0  0  0
    1.2590   53.2168   27.2930 C   0  0  0  0  0  0
    1.9046   53.4497   24.1087 C   0  0  0  0  0  0
    1.9549   54.0982   23.0613 O   0  0  0  0  0  0
    1.0371   52.4439   24.3020 N   0  0  0  0  0  0
    0.0358   52.0057   23.3359 C   0  0  0  0  0  0
    8.7053   51.2850   15.3917 C   0  0  0  0  0  0
   10.6520   55.2466   15.1653 H   0  0  0  0  0  0
   11.8224   55.9706   16.2603 H   0  0  0  0  0  0
   12.2765   54.5805   15.2875 H   0  0  0  0  0  0
   10.5478   51.9896   17.2818 H   0  0  0  0  0  0
   11.2886   52.2795   15.7578 H   0  0  0  0  0  0
    8.1040   52.7674   17.6816 H   0  0  0  0  0  0
    7.1250   53.4000   16.3252 H   0  0  0  0  0  0
   10.1423   55.7496   18.1312 H   0  0  0  0  0  0
    9.7547   54.0983   18.7261 H   0  0  0  0  0  0
    8.6708   56.4853   20.1027 H   0  0  0  0  0  0
    8.0966   55.9711   22.4223 H   0  0  0  0  0  0
    4.5746   53.8752   21.0684 H   0  0  0  0  0  0
    5.1413   54.4302   18.7614 H   0  0  0  0  0  0
    4.0488   54.3808   22.9321 H   0  0  0  0  0  0
    4.7842   54.2032   29.2201 H   0  0  0  0  0  0
    3.5395   52.9960   29.3041 H   0  0  0  0  0  0
    2.8445   55.9461   28.9326 H   0  0  0  0  0  0
    3.1046   55.2521   30.4818 H   0  0  0  0  0  0
    0.7609   55.2436   30.1334 H   0  0  0  0  0  0
    1.2873   53.5879   30.1373 H   0  0  0  0  0  0
    0.7042   55.2785   27.6819 H   0  0  0  0  0  0
   -0.3820   54.0981   28.3744 H   0  0  0  0  0  0
    1.4066   52.3141   27.8876 H   0  0  0  0  0  0
    0.4678   52.9453   26.6024 H   0  0  0  0  0  0
    1.0761   51.9367   25.1732 H   0  0  0  0  0  0
    0.0433   50.9178   23.2658 H   0  0  0  0  0  0
   -0.9559   52.3188   23.6612 H   0  0  0  0  0  0
    0.2079   52.4042   22.3355 H   0  0  0  0  0  0
    8.7032   50.5999   16.2411 H   0  0  0  0  0  0
    7.7031   51.2894   14.9620 H   0  0  0  0  0  0
    9.3805   50.8723   14.6409 H   0  0  0  0  0  0
  1  2  1  0  0  0
  1 37  1  0  0  0
  1 38  1  0  0  0
  1 39  1  0  0  0
  2  3  1  0  0  0
  2  9  1  0  0  0
  2  4  1  0  0  0
  4  5  1  0  0  0
  4 40  1  0  0  0
  4 41  1  0  0  0
  5  6  1  0  0  0
  5  7  1  0  0  0
  5 36  1  0  0  0
  7  8  1  0  0  0
  7 42  1  0  0  0
  7 43  1  0  0  0
  8  9  1  0  0  0
  8 10  1  0  0  0
  9 44  1  0  0  0
  9 45  1  0  0  0
 10 11  2  0  0  0
 10 12  2  0  0  0
 10 13  1  0  0  0
 13 18  2  0  0  0
 13 14  1  0  0  0
 14 15  2  0  0  0
 14 46  1  0  0  0
 15 16  1  0  0  0
 15 47  1  0  0  0
 16 17  2  0  0  0
 16 19  1  0  0  0
 17 18  1  0  0  0
 17 48  1  0  0  0
 18 49  1  0  0  0
 19 20  2  0  0  0
 19 21  1  0  0  0
 21 22  1  0  0  0
 21 50  1  0  0  0
 22 26  1  0  0  0
 22 23  2  0  0  0
 23 24  1  0  0  0
 23 32  1  0  0  0
 24 31  1  0  0  0
 24 25  2  0  0  0
 25 26  1  0  0  0
 25 27  1  0  0  0
 27 28  1  0  0  0
 27 51  1  0  0  0
 27 52  1  0  0  0
 28 29  1  0  0  0
 28 53  1  0  0  0
 28 54  1  0  0  0
 29 30  1  0  0  0
 29 55  1  0  0  0
 29 56  1  0  0  0
 30 31  1  0  0  0
 30 57  1  0  0  0
 30 58  1  0  0  0
 31 59  1  0  0  0
 31 60  1  0  0  0
 32 33  2  0  0  0
 32 34  1  0  0  0
 34 35  1  0  0  0
 34 61  1  0  0  0
 35 62  1  0  0  0
 35 63  1  0  0  0
 35 64  1  0  0  0
 36 65  1  0  0  0
 36 66  1  0  0  0
 36 67  1  0  0  0
M  END
> <i_i_glide_confnum>
132

> <i_i_glide_lignum>
5478

> <i_i_glide_posenum>
332

> <i_i_glide_rotatable_bonds>
7

> <i_m_Source_File_Index>
2131

> <b_m_subgroup_collapsed>
0

> <r_i_docking_score>
-5.706

> <r_i_glide_ecoul>
-0.671936

> <r_i_glide_eff_state_penalty>
0

> <r_i_glide_einternal>
3.63121

> <r_i_glide_emodel>
-60.8136

> <r_i_glide_energy>
-45.3085

> <r_i_glide_erotb>
0.483456

> <r_i_glide_esite>
0

> <r_i_glide_evdw>
-44.6366

> <r_i_glide_gscore>
-5.706

> <r_i_glide_hbond>
0

> <r_i_glide_ligand_efficiency>
-0.167823

> <r_i_glide_ligand_efficiency_ln>
-1.26062

> <r_i_glide_ligand_efficiency_sa>
-0.543683

> <r_i_glide_lipo>
-3.16157

> <r_i_glide_metal>
0

> <r_i_glide_rewards>
-0.69527

> <s_i_glide_gridfile>
wee1_glide-grid

> <s_m_Source_File>
wee1_decoys_glide_SP.sdf

> <s_m_Source_Path>
/Users/zhangxujun/Desktop

> <s_m_entry_id>
2406

> <s_m_entry_name>
wee1_decoys_glide_SP.2131

> <s_m_subgroup_title>
wee1_decoys_glide_SP

> <s_m_subgroupid>
wee1_decoys_glide_SP


$$$$
