ZINC38885673_365
                    3D
 Schrodinger Suite 2024-2.
 68 71  0  0  1  0            999 V2000
    1.1298   56.0862   30.9164 C   0  0  0  0  0  0
    1.0444   54.9809   29.8524 C   0  0  0  0  0  0
    1.3012   55.5984   28.4814 C   0  0  0  0  0  0
    1.9988   53.8991   30.1698 N   0  0  0  0  0  0
    2.4151   52.6302   29.0316 S   0  0  0  0  0  0
    3.2750   51.6969   29.7656 O   0  0  0  0  0  0
    1.1728   52.1722   28.4027 O   0  0  0  0  0  0
    3.4428   53.3834   27.7746 C   0  0  0  0  0  0
    4.6739   53.9528   28.1007 C   0  0  0  0  0  0
    5.4751   54.5013   27.0977 C   0  0  0  0  0  0
    5.0526   54.4984   25.7549 C   0  0  0  0  0  0
    3.8099   53.9284   25.4370 C   0  0  0  0  0  0
    3.0120   53.3759   26.4500 C   0  0  0  0  0  0
    3.4789   53.8201   24.0734 N   0  0  0  0  0  0
    2.2780   53.5777   23.5086 C   0  0  0  0  0  0
    1.2074   53.6892   24.1055 O   0  0  0  0  0  0
    2.2492   53.1207   22.0329 C   0  0  2  0  0  0
    1.4108   53.6960   21.6458 H   0  0  0  0  0  0
    1.9260   51.6038   22.0088 C   0  0  0  0  0  0
    1.8975   51.0814   20.5606 C   0  0  0  0  0  0
    3.2053   51.3697   19.8046 C   0  0  0  0  0  0
    3.4520   52.8963   19.8094 N   0  3  1  0  0  0
    3.5485   53.4738   21.2455 C   0  0  0  0  0  0
    4.7081   53.2446   18.9718 C   0  0  0  0  0  0
    4.5358   54.6211   18.3724 C   0  0  0  0  0  0
    3.5231   55.0590   17.6785 N   0  0  0  0  0  0
    3.9010   56.2832   17.3560 C   0  0  0  0  0  0
    5.0693   56.6592   17.8450 N   0  0  0  0  0  0
    5.5140   55.5398   18.5477 O   0  0  0  0  0  0
    3.0538   57.1744   16.4855 C   0  0  0  0  0  0
    3.4685   58.4755   16.1731 C   0  0  0  0  0  0
    2.6786   59.2962   15.3712 C   0  0  0  0  0  0
    1.4660   58.8248   14.8796 C   0  0  0  0  0  0
    1.0380   57.5347   15.1779 C   0  0  0  0  0  0
    1.8286   56.7146   15.9786 C   0  0  0  0  0  0
    5.7924   55.0145   24.7049 O   0  0  0  0  0  0
    7.0548   55.6114   24.9502 C   0  0  0  0  0  0
    0.3053   56.7923   30.8168 H   0  0  0  0  0  0
    2.0483   56.6645   30.8188 H   0  0  0  0  0  0
    1.1013   55.6935   31.9305 H   0  0  0  0  0  0
    0.0441   54.5451   29.8817 H   0  0  0  0  0  0
    0.7047   56.4966   28.3845 H   0  0  0  0  0  0
    2.3429   55.8907   28.3484 H   0  0  0  0  0  0
    1.0193   54.9176   27.6824 H   0  0  0  0  0  0
    1.9057   53.5524   31.1283 H   0  0  0  0  0  0
    5.0159   53.9592   29.1260 H   0  0  0  0  0  0
    6.4260   54.9222   27.3899 H   0  0  0  0  0  0
    2.0759   52.8945   26.2134 H   0  0  0  0  0  0
    4.2715   53.9232   23.4578 H   0  0  0  0  0  0
    2.7064   51.0251   22.5079 H   0  0  0  0  0  0
    0.9489   51.3918   22.4472 H   0  0  0  0  0  0
    1.7162   50.0061   20.5609 H   0  0  0  0  0  0
    1.0574   51.5226   20.0213 H   0  0  0  0  0  0
    4.0794   50.8894   20.2454 H   0  0  0  0  0  0
    3.1033   51.0568   18.7625 H   0  0  0  0  0  0
    3.6521   54.5538   21.1153 H   0  0  0  0  0  0
    4.4538   53.0290   21.6665 H   0  0  0  0  0  0
    5.5808   53.1316   19.6145 H   0  0  0  0  0  0
    4.7823   52.4978   18.1787 H   0  0  0  0  0  0
    4.3981   58.8756   16.5518 H   0  0  0  0  0  0
    3.0079   60.3005   15.1471 H   0  0  0  0  0  0
    0.8558   59.4673   14.2635 H   0  0  0  0  0  0
    0.0982   57.1709   14.7881 H   0  0  0  0  0  0
    1.4799   55.7157   16.1986 H   0  0  0  0  0  0
    7.4385   56.0368   24.0230 H   0  0  0  0  0  0
    6.9912   56.4135   25.6829 H   0  0  0  0  0  0
    7.7740   54.8663   25.2813 H   0  0  0  0  0  0
    2.6561   53.3295   19.3519 H   0  0  0  0  0  0
  1  2  1  0  0  0
  1 38  1  0  0  0
  1 39  1  0  0  0
  1 40  1  0  0  0
  2  3  1  0  0  0
  2  4  1  0  0  0
  2 41  1  0  0  0
  3 42  1  0  0  0
  3 43  1  0  0  0
  3 44  1  0  0  0
  4  5  1  0  0  0
  4 45  1  0  0  0
  5  6  2  0  0  0
  5  7  2  0  0  0
  5  8  1  0  0  0
  8 13  2  0  0  0
  8  9  1  0  0  0
  9 10  2  0  0  0
  9 46  1  0  0  0
 10 11  1  0  0  0
 10 47  1  0  0  0
 11 12  2  0  0  0
 11 36  1  0  0  0
 12 13  1  0  0  0
 12 14  1  0  0  0
 13 48  1  0  0  0
 14 15  1  0  0  0
 14 49  1  0  0  0
 15 16  2  0  0  0
 15 17  1  0  0  0
 17 18  1  0  0  0
 17 23  1  0  0  0
 17 19  1  0  0  0
 19 20  1  0  0  0
 19 50  1  0  0  0
 19 51  1  0  0  0
 20 21  1  0  0  0
 20 52  1  0  0  0
 20 53  1  0  0  0
 21 22  1  0  0  0
 21 54  1  0  0  0
 21 55  1  0  0  0
 22 23  1  0  0  0
 22 24  1  0  0  0
 22 68  1  0  0  0
 23 56  1  0  0  0
 23 57  1  0  0  0
 24 25  1  0  0  0
 24 58  1  0  0  0
 24 59  1  0  0  0
 25 29  1  0  0  0
 25 26  2  0  0  0
 26 27  1  0  0  0
 27 28  2  0  0  0
 27 30  1  0  0  0
 28 29  1  0  0  0
 30 35  2  0  0  0
 30 31  1  0  0  0
 31 32  2  0  0  0
 31 60  1  0  0  0
 32 33  1  0  0  0
 32 61  1  0  0  0
 33 34  2  0  0  0
 33 62  1  0  0  0
 34 35  1  0  0  0
 34 63  1  0  0  0
 35 64  1  0  0  0
 36 37  1  0  0  0
 37 65  1  0  0  0
 37 66  1  0  0  0
 37 67  1  0  0  0
M  CHG  1  22   1
M  END
> <i_i_glide_confnum>
35

> <i_i_glide_lignum>
366

> <i_i_glide_posenum>
15

> <i_i_glide_rotatable_bonds>
10

> <i_m_Source_File_Index>
5165

> <b_m_subgroup_collapsed>
0

> <r_i_docking_score>
-4.42544

> <r_i_glide_ecoul>
-3.64751

> <r_i_glide_eff_state_penalty>
0

> <r_i_glide_einternal>
8.86376

> <r_i_glide_emodel>
-60.7032

> <r_i_glide_energy>
-51.2023

> <r_i_glide_erotb>
0.619677

> <r_i_glide_esite>
-0.0104683

> <r_i_glide_evdw>
-47.5547

> <r_i_glide_gscore>
-4.42544

> <r_i_glide_hbond>
0

> <r_i_glide_ligand_efficiency>
-0.122929

> <r_i_glide_ligand_efficiency_ln>
-0.965511

> <r_i_glide_ligand_efficiency_sa>
-0.405902

> <r_i_glide_lipo>
-2.18039

> <r_i_glide_metal>
0

> <r_i_glide_rewards>
0.0706104

> <s_i_glide_gridfile>
wee1_glide-grid

> <s_m_Source_File>
wee1_decoys_glide_SP.sdf

> <s_m_Source_Path>
/Users/zhangxujun/Desktop

> <s_m_entry_id>
5440

> <s_m_entry_name>
wee1_decoys_glide_SP.5165

> <s_m_subgroup_title>
wee1_decoys_glide_SP

> <s_m_subgroupid>
wee1_decoys_glide_SP


$$$$
