ZINC39675252_391
                    3D
 Schrodinger Suite 2024-2.
 77 80  0  0  1  0            999 V2000
   -2.6258   50.0820   18.3597 C   0  0  0  0  0  0
   -2.2812   49.1288   19.5214 C   0  0  1  0  0  0
   -3.1868   49.0120   20.1229 H   0  0  0  0  0  0
   -1.8960   47.7256   18.9876 C   0  0  0  0  0  0
   -1.4165   46.6898   20.0354 C   0  0  0  0  0  0
   -2.5184   46.1149   20.9202 C   0  0  0  0  0  0
   -2.9920   46.8358   22.0187 C   0  0  0  0  0  0
   -3.9605   46.2808   22.8498 C   0  0  0  0  0  0
   -4.4704   45.0072   22.5961 C   0  0  0  0  0  0
   -4.0040   44.2919   21.4822 C   0  0  0  0  0  0
   -3.0341   44.8443   20.6506 C   0  0  0  0  0  0
   -5.3955   44.5252   23.5000 O   0  0  0  0  0  0
   -5.9648   43.2355   23.2984 C   0  0  0  0  0  0
   -1.2293   49.6716   20.3843 N   0  0  0  0  0  0
   -1.3327   50.7179   21.2200 C   0  0  0  0  0  0
   -2.3260   51.4465   21.2692 O   0  0  0  0  0  0
   -0.0765   50.9910   22.0854 C   0  0  1  0  0  0
    0.8052   50.6242   21.5528 H   0  0  0  0  0  0
    0.0779   52.4967   22.3291 C   0  0  0  0  0  0
    0.9235   52.5568   23.5282 N   0  0  0  0  0  0
    0.9476   51.2662   24.2303 C   0  0  0  0  0  0
   -0.1160   50.3902   23.5171 C   0  0  0  0  0  0
   -1.5096   50.5167   24.2184 C   0  0  0  0  0  0
   -1.4863   50.0199   25.6788 C   0  0  0  0  0  0
   -1.0189   48.5492   25.6817 N   0  3  0  0  0  0
    0.3044   48.2954   24.9244 C   0  0  0  0  0  0
    0.2012   48.8804   23.5089 C   0  0  0  0  0  0
    1.8000   53.5832   23.6995 C   0  0  0  0  0  0
    1.8737   54.4966   22.8821 O   0  0  0  0  0  0
    2.7043   53.6362   24.9142 C   0  0  0  0  0  0
    2.1860   53.3876   26.1937 C   0  0  0  0  0  0
    2.9969   53.4826   27.3219 C   0  0  0  0  0  0
    4.3421   53.8221   27.2063 C   0  0  0  0  0  0
    4.8590   54.0965   25.9336 C   0  0  0  0  0  0
    4.0609   54.0087   24.7816 C   0  0  0  0  0  0
    4.5728   54.2214   23.5108 O   0  0  0  0  0  0
    5.9591   54.4963   23.3280 C   0  0  0  0  0  0
    5.0828   53.8620   28.3717 O   0  0  0  0  0  0
    6.4861   54.0938   28.2830 C   0  0  0  0  0  0
   -3.3695   49.6347   17.6996 H   0  0  0  0  0  0
   -3.0510   51.0214   18.7137 H   0  0  0  0  0  0
   -1.7509   50.2988   17.7463 H   0  0  0  0  0  0
   -1.0899   47.8511   18.2624 H   0  0  0  0  0  0
   -2.7312   47.3036   18.4271 H   0  0  0  0  0  0
   -0.6280   47.1021   20.6658 H   0  0  0  0  0  0
   -0.9304   45.8650   19.5106 H   0  0  0  0  0  0
   -2.6147   47.8249   22.2289 H   0  0  0  0  0  0
   -4.3229   46.8418   23.6990 H   0  0  0  0  0  0
   -4.3781   43.3055   21.2524 H   0  0  0  0  0  0
   -2.6791   44.2817   19.7980 H   0  0  0  0  0  0
   -6.6733   43.0265   24.1002 H   0  0  0  0  0  0
   -5.2054   42.4529   23.3183 H   0  0  0  0  0  0
   -6.5097   43.1825   22.3542 H   0  0  0  0  0  0
   -0.3489   49.1800   20.3567 H   0  0  0  0  0  0
    0.4925   52.9703   21.4349 H   0  0  0  0  0  0
   -0.8965   52.8965   22.6137 H   0  0  0  0  0  0
    0.8925   51.2800   25.3148 H   0  0  0  0  0  0
    1.9201   50.8268   24.0025 H   0  0  0  0  0  0
   -1.8240   51.5610   24.2310 H   0  0  0  0  0  0
   -2.2916   49.9936   23.6656 H   0  0  0  0  0  0
   -0.8097   50.5663   26.3358 H   0  0  0  0  0  0
   -2.4760   50.0170   26.1394 H   0  0  0  0  0  0
   -0.9406   48.2503   26.6577 H   0  0  0  0  0  0
    1.1040   48.7324   25.5241 H   0  0  0  0  0  0
    0.4385   47.2158   24.8817 H   0  0  0  0  0  0
   -0.5149   48.3238   22.9076 H   0  0  0  0  0  0
    1.1648   48.7251   23.0210 H   0  0  0  0  0  0
    1.1409   53.1526   26.3324 H   0  0  0  0  0  0
    2.5804   53.2866   28.2988 H   0  0  0  0  0  0
    5.8978   54.3612   25.8365 H   0  0  0  0  0  0
    6.1633   54.6174   22.2644 H   0  0  0  0  0  0
    6.2605   55.4207   23.8220 H   0  0  0  0  0  0
    6.5815   53.6769   23.6902 H   0  0  0  0  0  0
    6.9261   54.0967   29.2782 H   0  0  0  0  0  0
    6.9842   53.3090   27.7114 H   0  0  0  0  0  0
    6.7042   55.0599   27.8267 H   0  0  0  0  0  0
   -1.7488   47.9755   25.2864 H   0  0  0  0  0  0
  1  2  1  0  0  0
  1 40  1  0  0  0
  1 41  1  0  0  0
  1 42  1  0  0  0
  2  3  1  0  0  0
  2  4  1  0  0  0
  2 14  1  0  0  0
  4  5  1  0  0  0
  4 43  1  0  0  0
  4 44  1  0  0  0
  5  6  1  0  0  0
  5 45  1  0  0  0
  5 46  1  0  0  0
  6 11  2  0  0  0
  6  7  1  0  0  0
  7  8  2  0  0  0
  7 47  1  0  0  0
  8  9  1  0  0  0
  8 48  1  0  0  0
  9 10  2  0  0  0
  9 12  1  0  0  0
 10 11  1  0  0  0
 10 49  1  0  0  0
 11 50  1  0  0  0
 12 13  1  0  0  0
 13 51  1  0  0  0
 13 52  1  0  0  0
 13 53  1  0  0  0
 14 15  1  0  0  0
 14 54  1  0  0  0
 15 16  2  0  0  0
 15 17  1  0  0  0
 17 18  1  0  0  0
 17 22  1  0  0  0
 17 19  1  0  0  0
 19 20  1  0  0  0
 19 55  1  0  0  0
 19 56  1  0  0  0
 20 21  1  0  0  0
 20 28  1  0  0  0
 21 22  1  0  0  0
 21 57  1  0  0  0
 21 58  1  0  0  0
 22 27  1  0  0  0
 22 23  1  0  0  0
 23 24  1  0  0  0
 23 59  1  0  0  0
 23 60  1  0  0  0
 24 25  1  0  0  0
 24 61  1  0  0  0
 24 62  1  0  0  0
 25 26  1  0  0  0
 25 63  1  0  0  0
 25 77  1  0  0  0
 26 27  1  0  0  0
 26 64  1  0  0  0
 26 65  1  0  0  0
 27 66  1  0  0  0
 27 67  1  0  0  0
 28 29  2  0  0  0
 28 30  1  0  0  0
 30 35  2  0  0  0
 30 31  1  0  0  0
 31 32  2  0  0  0
 31 68  1  0  0  0
 32 33  1  0  0  0
 32 69  1  0  0  0
 33 34  2  0  0  0
 33 38  1  0  0  0
 34 35  1  0  0  0
 34 70  1  0  0  0
 35 36  1  0  0  0
 36 37  1  0  0  0
 37 71  1  0  0  0
 37 72  1  0  0  0
 37 73  1  0  0  0
 38 39  1  0  0  0
 39 74  1  0  0  0
 39 75  1  0  0  0
 39 76  1  0  0  0
M  CHG  1  25   1
M  END
> <i_i_glide_confnum>
66

> <i_i_glide_lignum>
392

> <i_i_glide_posenum>
382

> <i_i_glide_rotatable_bonds>
11

> <i_m_Source_File_Index>
2975

> <b_m_subgroup_collapsed>
0

> <r_i_docking_score>
-4.85807

> <r_i_glide_ecoul>
-6.55146

> <r_i_glide_eff_state_penalty>
0

> <r_i_glide_einternal>
9.48782

> <r_i_glide_emodel>
-55.8288

> <r_i_glide_energy>
-42.5982

> <r_i_glide_erotb>
0.628562

> <r_i_glide_esite>
-0.1

> <r_i_glide_evdw>
-36.0467

> <r_i_glide_gscore>
-4.85807

> <r_i_glide_hbond>
-0.2

> <r_i_glide_ligand_efficiency>
-0.131299

> <r_i_glide_ligand_efficiency_ln>
-1.0536

> <r_i_glide_ligand_efficiency_sa>
-0.437518

> <r_i_glide_lipo>
-1.88869

> <r_i_glide_metal>
0

> <r_i_glide_rewards>
-0.512887

> <s_i_glide_gridfile>
wee1_glide-grid

> <s_m_Source_File>
wee1_decoys_glide_SP.sdf

> <s_m_Source_Path>
/Users/zhangxujun/Desktop

> <s_m_entry_id>
3250

> <s_m_entry_name>
wee1_decoys_glide_SP.2975

> <s_m_subgroup_title>
wee1_decoys_glide_SP

> <s_m_subgroupid>
wee1_decoys_glide_SP


$$$$
