ZINC35918834_5050
                    3D
 Schrodinger Suite 2024-2.
 66 69  0  0  1  0            999 V2000
    2.3348   46.1578   16.1866 C   0  0  0  0  0  0
    1.5052   46.4980   17.4142 C   0  0  0  0  0  0
    1.7285   47.6984   18.0960 C   0  0  0  0  0  0
    0.9866   48.0341   19.2386 C   0  0  0  0  0  0
    0.0089   47.1343   19.6816 C   0  0  0  0  0  0
   -0.2204   45.9354   19.0084 C   0  0  0  0  0  0
    0.5271   45.6144   17.8780 C   0  0  0  0  0  0
    0.3032   44.4397   17.2426 F   0  0  0  0  0  0
    1.1853   49.3546   20.0041 C   0  0  2  0  0  0
    1.3244   49.0054   21.0284 H   0  0  0  0  0  0
   -0.0977   50.2176   19.9491 C   0  0  0  0  0  0
    0.0505   51.5458   20.7172 C   0  0  2  0  0  0
   -0.8508   52.1551   20.6331 H   0  0  0  0  0  0
    1.2303   52.3258   20.0912 C   0  0  0  0  0  0
    2.4787   51.5338   20.2254 N   0  0  0  0  0  0
    2.4864   50.1604   19.6485 C   0  0  0  0  0  0
    3.5943   52.0188   20.8445 C   0  0  0  0  0  0
    4.4926   51.2964   21.2808 O   0  0  0  0  0  0
    3.6727   53.3647   20.9412 N   0  0  0  0  0  0
    4.8218   54.0542   21.3403 C   0  0  0  0  0  0
    5.3446   53.9070   22.6285 C   0  0  0  0  0  0
    6.4822   54.6195   22.9972 C   0  0  0  0  0  0
    7.0844   55.4737   22.0754 C   0  0  0  0  0  0
    6.5670   55.6209   20.7894 C   0  0  0  0  0  0
    5.4325   54.9039   20.4202 C   0  0  0  0  0  0
    0.1793   51.3206   22.2580 C   0  0  0  0  0  0
   -0.2574   50.2790   22.7541 O   0  0  0  0  0  0
    0.7355   52.3152   22.9917 N   0  0  0  0  0  0
    0.8589   52.3855   24.3930 C   0  0  0  0  0  0
   -0.0340   51.7623   25.2752 C   0  0  0  0  0  0
    0.1284   51.8894   26.6505 C   0  0  0  0  0  0
    1.1790   52.6529   27.1827 C   0  0  0  0  0  0
    2.0709   53.2969   26.3063 C   0  0  0  0  0  0
    1.8992   53.1582   24.9153 C   0  0  0  0  0  0
    3.0834   54.0450   26.8826 O   0  0  0  0  0  0
    4.1082   54.5947   26.0665 C   0  0  0  0  0  0
    1.3895   52.8084   28.5429 O   0  0  0  0  0  0
    0.5303   52.1404   29.4632 C   0  0  0  0  0  0
    1.6957   46.1003   15.3058 H   0  0  0  0  0  0
    3.1201   46.8943   16.0025 H   0  0  0  0  0  0
    2.8120   45.1837   16.3077 H   0  0  0  0  0  0
    2.4841   48.3646   17.7158 H   0  0  0  0  0  0
   -0.5833   47.3652   20.5580 H   0  0  0  0  0  0
   -0.9786   45.2524   19.3616 H   0  0  0  0  0  0
   -0.9941   49.7031   20.3031 H   0  0  0  0  0  0
   -0.3476   50.4543   18.9118 H   0  0  0  0  0  0
    1.0456   52.4970   19.0315 H   0  0  0  0  0  0
    1.2795   53.2959   20.5713 H   0  0  0  0  0  0
    3.3260   49.5837   20.0384 H   0  0  0  0  0  0
    2.5820   50.2755   18.5664 H   0  0  0  0  0  0
    2.9562   53.9110   20.4805 H   0  0  0  0  0  0
    4.8745   53.2391   23.3345 H   0  0  0  0  0  0
    6.9005   54.5069   23.9865 H   0  0  0  0  0  0
    7.9607   56.0350   22.3632 H   0  0  0  0  0  0
    7.0443   56.2773   20.0774 H   0  0  0  0  0  0
    5.0320   55.0109   19.4221 H   0  0  0  0  0  0
    1.1724   53.0680   22.4807 H   0  0  0  0  0  0
   -0.8692   51.1819   24.9154 H   0  0  0  0  0  0
   -0.5805   51.3839   27.2882 H   0  0  0  0  0  0
    2.5736   53.6456   24.2300 H   0  0  0  0  0  0
    4.8006   55.1616   26.6898 H   0  0  0  0  0  0
    4.6794   53.8046   25.5773 H   0  0  0  0  0  0
    3.7122   55.2777   25.3137 H   0  0  0  0  0  0
    0.8780   52.3177   30.4808 H   0  0  0  0  0  0
    0.5298   51.0624   29.2947 H   0  0  0  0  0  0
   -0.4931   52.5120   29.3949 H   0  0  0  0  0  0
  1  2  1  0  0  0
  1 39  1  0  0  0
  1 40  1  0  0  0
  1 41  1  0  0  0
  2  7  2  0  0  0
  2  3  1  0  0  0
  3  4  2  0  0  0
  3 42  1  0  0  0
  4  5  1  0  0  0
  4  9  1  0  0  0
  5  6  2  0  0  0
  5 43  1  0  0  0
  6  7  1  0  0  0
  6 44  1  0  0  0
  7  8  1  0  0  0
  9 10  1  0  0  0
  9 16  1  0  0  0
  9 11  1  0  0  0
 11 12  1  0  0  0
 11 45  1  0  0  0
 11 46  1  0  0  0
 12 13  1  0  0  0
 12 14  1  0  0  0
 12 26  1  0  0  0
 14 15  1  0  0  0
 14 47  1  0  0  0
 14 48  1  0  0  0
 15 16  1  0  0  0
 15 17  1  0  0  0
 16 49  1  0  0  0
 16 50  1  0  0  0
 17 18  2  0  0  0
 17 19  1  0  0  0
 19 20  1  0  0  0
 19 51  1  0  0  0
 20 25  2  0  0  0
 20 21  1  0  0  0
 21 22  2  0  0  0
 21 52  1  0  0  0
 22 23  1  0  0  0
 22 53  1  0  0  0
 23 24  2  0  0  0
 23 54  1  0  0  0
 24 25  1  0  0  0
 24 55  1  0  0  0
 25 56  1  0  0  0
 26 27  2  0  0  0
 26 28  1  0  0  0
 28 29  1  0  0  0
 28 57  1  0  0  0
 29 34  2  0  0  0
 29 30  1  0  0  0
 30 31  2  0  0  0
 30 58  1  0  0  0
 31 32  1  0  0  0
 31 59  1  0  0  0
 32 33  2  0  0  0
 32 37  1  0  0  0
 33 34  1  0  0  0
 33 35  1  0  0  0
 34 60  1  0  0  0
 35 36  1  0  0  0
 36 61  1  0  0  0
 36 62  1  0  0  0
 36 63  1  0  0  0
 37 38  1  0  0  0
 38 64  1  0  0  0
 38 65  1  0  0  0
 38 66  1  0  0  0
M  END
> <i_i_glide_confnum>
75

> <i_i_glide_lignum>
5051

> <i_i_glide_posenum>
399

> <i_i_glide_rotatable_bonds>
9

> <i_m_Source_File_Index>
109

> <b_m_subgroup_collapsed>
0

> <r_i_docking_score>
-3.83801

> <r_i_glide_ecoul>
-5.94498

> <r_i_glide_eff_state_penalty>
0

> <r_i_glide_einternal>
11.7904

> <r_i_glide_emodel>
-51.0585

> <r_i_glide_energy>
-48.1688

> <r_i_glide_erotb>
0.589792

> <r_i_glide_esite>
-0.0426625

> <r_i_glide_evdw>
-42.2239

> <r_i_glide_gscore>
-3.83801

> <r_i_glide_hbond>
-0.279948

> <r_i_glide_ligand_efficiency>
-0.106611

> <r_i_glide_ligand_efficiency_ln>
-0.83735

> <r_i_glide_ligand_efficiency_sa>
-0.352023

> <r_i_glide_lipo>
-2.14301

> <r_i_glide_metal>
0

> <r_i_glide_rewards>
1.04076

> <s_i_glide_gridfile>
wee1_glide-grid

> <s_m_Source_File>
wee1_decoys_glide_SP.sdf

> <s_m_Source_Path>
/Users/zhangxujun/Desktop

> <s_m_entry_id>
384

> <s_m_entry_name>
wee1_decoys_glide_SP.109

> <s_m_subgroup_title>
wee1_decoys_glide_SP

> <s_m_subgroupid>
wee1_decoys_glide_SP


$$$$
