ZINC36737146_1830
                    3D
 Schrodinger Suite 2024-2.
 35 37  0  0  1  0            999 V2000
    5.7340   54.7378   19.9788 C   0  0  0  0  0  0
    5.3206   54.4937   21.4252 C   0  0  0  0  0  0
    4.0129   54.0987   21.7008 C   0  0  0  0  0  0
    3.5807   53.9608   23.0151 C   0  0  0  0  0  0
    4.4562   54.1754   24.0958 C   0  0  0  0  0  0
    5.7947   54.4993   23.8036 C   0  0  0  0  0  0
    6.2198   54.6897   22.4830 C   0  0  0  0  0  0
    7.5043   55.1000   22.2130 O   0  0  0  0  0  0
    3.9779   54.0964   25.5377 C   0  0  0  0  0  0
    4.7198   54.4306   26.4627 O   0  0  0  0  0  0
    2.7248   53.6156   25.7070 N   0  0  0  0  0  0
    2.0143   53.3019   26.8853 C   0  0  0  0  0  0
    2.2636   53.9486   28.1170 C   0  0  0  0  0  0
    1.4790   53.5966   29.2126 C   0  0  0  0  0  0
    0.4842   52.6684   29.1165 C   0  0  0  0  0  0
    0.2013   52.0153   27.9268 C   0  0  0  0  0  0
    0.9721   52.3381   26.8015 C   0  0  0  0  0  0
    0.6643   51.6709   25.6095 N   0  0  0  0  0  0
   -0.1518   52.5504   30.3105 O   0  0  0  0  0  0
    0.5865   53.3194   31.2195 C   0  0  0  0  0  0
    1.5034   54.0886   30.4813 O   0  0  0  0  0  0
    6.1210   55.7507   19.8684 H   0  0  0  0  0  0
    6.5271   54.0536   19.6816 H   0  0  0  0  0  0
    4.8983   54.6251   19.2861 H   0  0  0  0  0  0
    3.3086   53.9468   20.8951 H   0  0  0  0  0  0
    2.5421   53.7054   23.1638 H   0  0  0  0  0  0
    6.4986   54.6650   24.6060 H   0  0  0  0  0  0
    8.1112   55.1363   22.9667 H   0  0  0  0  0  0
    2.2428   53.3638   24.8612 H   0  0  0  0  0  0
    3.0246   54.7107   28.2145 H   0  0  0  0  0  0
   -0.5910   51.2817   27.8743 H   0  0  0  0  0  0
   -0.0220   50.9301   25.6634 H   0  0  0  0  0  0
    1.3513   51.6417   24.8726 H   0  0  0  0  0  0
   -0.0906   53.9581   31.7897 H   0  0  0  0  0  0
    1.1208   52.6420   31.8911 H   0  0  0  0  0  0
  1  2  1  0  0  0
  1 22  1  0  0  0
  1 23  1  0  0  0
  1 24  1  0  0  0
  2  7  2  0  0  0
  2  3  1  0  0  0
  3  4  2  0  0  0
  3 25  1  0  0  0
  4  5  1  0  0  0
  4 26  1  0  0  0
  5  6  2  0  0  0
  5  9  1  0  0  0
  6  7  1  0  0  0
  6 27  1  0  0  0
  7  8  1  0  0  0
  8 28  1  0  0  0
  9 10  2  0  0  0
  9 11  1  0  0  0
 11 12  1  0  0  0
 11 29  1  0  0  0
 12 17  2  0  0  0
 12 13  1  0  0  0
 13 14  2  0  0  0
 13 30  1  0  0  0
 14 21  1  0  0  0
 14 15  1  0  0  0
 15 16  2  0  0  0
 15 19  1  0  0  0
 16 17  1  0  0  0
 16 31  1  0  0  0
 17 18  1  0  0  0
 18 32  1  0  0  0
 18 33  1  0  0  0
 19 20  1  0  0  0
 20 21  1  0  0  0
 20 34  1  0  0  0
 20 35  1  0  0  0
M  END
> <i_i_glide_confnum>
2

> <i_i_glide_lignum>
1831

> <i_i_glide_posenum>
262

> <i_i_glide_rotatable_bonds>
4

> <i_m_Source_File_Index>
5155

> <b_m_subgroup_collapsed>
0

> <r_i_docking_score>
-6.31388

> <r_i_glide_ecoul>
-7.10939

> <r_i_glide_eff_state_penalty>
0

> <r_i_glide_einternal>
0.354157

> <r_i_glide_emodel>
-53.594

> <r_i_glide_energy>
-38.3523

> <r_i_glide_erotb>
0.664641

> <r_i_glide_esite>
-0.0308296

> <r_i_glide_evdw>
-31.2429

> <r_i_glide_gscore>
-6.31388

> <r_i_glide_hbond>
-0.491522

> <r_i_glide_ligand_efficiency>
-0.300661

> <r_i_glide_ligand_efficiency_ln>
-1.56109

> <r_i_glide_ligand_efficiency_sa>
-0.8295

> <r_i_glide_lipo>
-2.05809

> <r_i_glide_metal>
0

> <r_i_glide_rewards>
-1.76953

> <s_i_glide_gridfile>
wee1_glide-grid

> <s_m_Source_File>
wee1_decoys_glide_SP.sdf

> <s_m_Source_Path>
/Users/zhangxujun/Desktop

> <s_m_entry_id>
5430

> <s_m_entry_name>
wee1_decoys_glide_SP.5155

> <s_m_subgroup_title>
wee1_decoys_glide_SP

> <s_m_subgroupid>
wee1_decoys_glide_SP


$$$$
