ZINC35646702_5445
                    3D
 Schrodinger Suite 2024-2.
 74 77  0  0  1  0            999 V2000
    3.7492   53.8100   22.1020 C   0  0  0  0  0  0
    2.3724   53.9510   22.7618 C   0  0  0  0  0  0
    1.8106   52.6579   22.9315 O   0  0  0  0  0  0
    0.6065   52.4883   23.5302 C   0  0  0  0  0  0
   -0.0065   53.4083   24.0688 O   0  0  0  0  0  0
    0.1291   51.0782   23.5027 C   0  0  0  0  0  0
   -0.5700   50.5011   24.5249 C   0  0  0  0  0  0
   -0.8924   49.1480   24.4918 N   0  0  0  0  0  0
   -0.8470   48.4025   23.3372 C   0  0  0  0  0  0
   -1.2973   47.2748   23.1679 O   0  0  0  0  0  0
   -0.2639   49.0014   22.2763 N   0  0  0  0  0  0
    0.6214   50.1770   22.3399 C   0  0  1  0  0  0
    1.5614   49.7586   22.7079 H   0  0  0  0  0  0
    0.8969   50.8091   20.9620 C   0  0  0  0  0  0
    2.1863   50.6978   20.4244 C   0  0  0  0  0  0
    2.5013   51.2825   19.2027 C   0  0  0  0  0  0
    1.5298   51.9808   18.4873 C   0  0  0  0  0  0
    0.2402   52.0965   19.0106 C   0  0  0  0  0  0
   -0.0879   51.5216   20.2440 C   0  0  0  0  0  0
   -1.5145   51.6915   20.7559 C   0  0  0  0  0  0
    1.8836   52.6323   17.1633 C   0  0  0  0  0  0
   -1.3055   48.3706   25.6816 C   0  0  0  0  0  0
   -1.1710   51.2639   25.7307 C   0  0  0  0  0  0
   -0.3485   51.2192   27.0471 N   0  3  2  0  0  0
   -1.1669   51.8578   28.1913 C   0  0  0  0  0  0
   -0.5202   51.7076   29.5742 C   0  0  0  0  0  0
    0.5415   52.7615   29.9465 C   0  0  0  0  0  0
    1.7043   52.8889   29.0444 N   0  0  0  0  0  0
    1.9530   51.8030   28.0831 C   0  0  0  0  0  0
    1.0402   51.8702   26.8485 C   0  0  0  0  0  0
    2.5088   53.9861   29.1726 C   0  0  0  0  0  0
    2.3461   54.8159   30.0710 O   0  0  0  0  0  0
    3.6786   54.1761   28.2316 C   0  0  0  0  0  0
    4.9631   54.2968   28.7697 C   0  0  0  0  0  0
    6.0678   54.4338   27.9361 C   0  0  0  0  0  0
    5.8965   54.4978   26.5580 C   0  0  0  0  0  0
    4.6189   54.4239   26.0078 C   0  0  0  0  0  0
    3.5100   54.2664   26.8420 C   0  0  0  0  0  0
    6.9756   54.6541   25.7549 F   0  0  0  0  0  0
    4.2150   54.7836   21.9624 H   0  0  0  0  0  0
    4.4210   53.1997   22.7032 H   0  0  0  0  0  0
    3.6587   53.3442   21.1192 H   0  0  0  0  0  0
    1.7164   54.5455   22.1257 H   0  0  0  0  0  0
    2.4646   54.4636   23.7224 H   0  0  0  0  0  0
   -0.1917   48.4227   21.4537 H   0  0  0  0  0  0
    2.9622   50.1654   20.9581 H   0  0  0  0  0  0
    3.5038   51.1954   18.8085 H   0  0  0  0  0  0
   -0.5048   52.6525   18.4582 H   0  0  0  0  0  0
   -2.2040   51.9214   19.9449 H   0  0  0  0  0  0
   -1.8864   50.7761   21.2118 H   0  0  0  0  0  0
   -1.5687   52.4856   21.4999 H   0  0  0  0  0  0
    1.2211   53.4677   16.9357 H   0  0  0  0  0  0
    2.8958   53.0354   17.1943 H   0  0  0  0  0  0
    1.8346   51.9015   16.3543 H   0  0  0  0  0  0
   -1.3332   47.2878   25.5422 H   0  0  0  0  0  0
   -0.5834   48.5385   26.4815 H   0  0  0  0  0  0
   -2.2912   48.6698   26.0378 H   0  0  0  0  0  0
   -2.1342   50.8089   25.9778 H   0  0  0  0  0  0
   -1.4030   52.3118   25.5491 H   0  0  0  0  0  0
   -2.1247   51.3321   28.1784 H   0  0  0  0  0  0
   -1.2955   52.8955   27.8873 H   0  0  0  0  0  0
   -0.0959   50.7153   29.6437 H   0  0  0  0  0  0
   -1.2962   51.7187   30.3405 H   0  0  0  0  0  0
    0.9086   52.5149   30.9446 H   0  0  0  0  0  0
    0.0456   53.7318   30.0165 H   0  0  0  0  0  0
    2.9896   51.8294   27.7487 H   0  0  0  0  0  0
    1.8794   50.8306   28.5706 H   0  0  0  0  0  0
    0.8432   52.8922   26.5248 H   0  0  0  0  0  0
    1.5022   51.3379   26.0203 H   0  0  0  0  0  0
    5.1044   54.2839   29.8374 H   0  0  0  0  0  0
    7.0580   54.4964   28.3598 H   0  0  0  0  0  0
    4.4917   54.4957   24.9396 H   0  0  0  0  0  0
    2.5275   54.2346   26.3958 H   0  0  0  0  0  0
   -0.2137   50.2395   27.2782 H   0  0  0  0  0  0
  1  2  1  0  0  0
  1 40  1  0  0  0
  1 41  1  0  0  0
  1 42  1  0  0  0
  2  3  1  0  0  0
  2 43  1  0  0  0
  2 44  1  0  0  0
  3  4  1  0  0  0
  4  5  2  0  0  0
  4  6  1  0  0  0
  6 12  1  0  0  0
  6  7  2  0  0  0
  7  8  1  0  0  0
  7 23  1  0  0  0
  8  9  1  0  0  0
  8 22  1  0  0  0
  9 10  2  0  0  0
  9 11  1  0  0  0
 11 12  1  0  0  0
 11 45  1  0  0  0
 12 13  1  0  0  0
 12 14  1  0  0  0
 14 19  2  0  0  0
 14 15  1  0  0  0
 15 16  2  0  0  0
 15 46  1  0  0  0
 16 17  1  0  0  0
 16 47  1  0  0  0
 17 18  2  0  0  0
 17 21  1  0  0  0
 18 19  1  0  0  0
 18 48  1  0  0  0
 19 20  1  0  0  0
 20 49  1  0  0  0
 20 50  1  0  0  0
 20 51  1  0  0  0
 21 52  1  0  0  0
 21 53  1  0  0  0
 21 54  1  0  0  0
 22 55  1  0  0  0
 22 56  1  0  0  0
 22 57  1  0  0  0
 23 24  1  0  0  0
 23 58  1  0  0  0
 23 59  1  0  0  0
 24 30  1  0  0  0
 24 25  1  0  0  0
 24 74  1  0  0  0
 25 26  1  0  0  0
 25 60  1  0  0  0
 25 61  1  0  0  0
 26 27  1  0  0  0
 26 62  1  0  0  0
 26 63  1  0  0  0
 27 28  1  0  0  0
 27 64  1  0  0  0
 27 65  1  0  0  0
 28 29  1  0  0  0
 28 31  1  0  0  0
 29 30  1  0  0  0
 29 66  1  0  0  0
 29 67  1  0  0  0
 30 68  1  0  0  0
 30 69  1  0  0  0
 31 32  2  0  0  0
 31 33  1  0  0  0
 33 38  2  0  0  0
 33 34  1  0  0  0
 34 35  2  0  0  0
 34 70  1  0  0  0
 35 36  1  0  0  0
 35 71  1  0  0  0
 36 37  2  0  0  0
 36 39  1  0  0  0
 37 38  1  0  0  0
 37 72  1  0  0  0
 38 73  1  0  0  0
M  CHG  1  24   1
M  END
> <i_i_glide_confnum>
5

> <i_i_glide_lignum>
5446

> <i_i_glide_posenum>
181

> <i_i_glide_rotatable_bonds>
8

> <i_m_Source_File_Index>
4987

> <b_m_subgroup_collapsed>
0

> <r_i_docking_score>
-5.65582

> <r_i_glide_ecoul>
-4.58129

> <r_i_glide_eff_state_penalty>
0

> <r_i_glide_einternal>
2.94698

> <r_i_glide_emodel>
-65.8471

> <r_i_glide_energy>
-48.1809

> <r_i_glide_erotb>
0.525206

> <r_i_glide_esite>
-0.0941915

> <r_i_glide_evdw>
-43.5996

> <r_i_glide_gscore>
-5.65582

> <r_i_glide_hbond>
-0.283898

> <r_i_glide_ligand_efficiency>
-0.148837

> <r_i_glide_ligand_efficiency_ln>
-1.21956

> <r_i_glide_ligand_efficiency_sa>
-0.500387

> <r_i_glide_lipo>
-2.17123

> <r_i_glide_metal>
0

> <r_i_glide_rewards>
-0.764533

> <s_i_glide_gridfile>
wee1_glide-grid

> <s_m_Source_File>
wee1_decoys_glide_SP.sdf

> <s_m_Source_Path>
/Users/zhangxujun/Desktop

> <s_m_entry_id>
5262

> <s_m_entry_name>
wee1_decoys_glide_SP.4987

> <s_m_subgroup_title>
wee1_decoys_glide_SP

> <s_m_subgroupid>
wee1_decoys_glide_SP


$$$$
