ZINC20720128_2193
                    3D
 Schrodinger Suite 2024-2.
 61 66  0  0  1  0            999 V2000
    5.9090   58.3892   15.0360 C   0  0  0  0  0  0
    5.6695   58.1102   16.5349 N   0  3  0  0  0  0
    7.0016   58.1954   17.3126 C   0  0  0  0  0  0
    6.7297   57.9608   18.8143 C   0  0  0  0  0  0
    5.9130   56.7369   19.0673 N   0  0  0  0  0  0
    4.6759   56.5831   18.2518 C   0  0  0  0  0  0
    4.9533   56.7545   16.7455 C   0  0  0  0  0  0
    6.6902   55.2778   19.7349 S   0  0  0  0  0  0
    6.4948   54.1959   18.7644 O   0  0  0  0  0  0
    8.0409   55.6408   20.1806 O   0  0  0  0  0  0
    5.7694   54.8019   21.2115 C   0  0  0  0  0  0
    6.3618   54.8974   22.4734 C   0  0  0  0  0  0
    5.6606   54.4968   23.6094 C   0  0  0  0  0  0
    4.3638   53.9929   23.4959 C   0  0  0  0  0  0
    3.7488   53.8724   22.2391 C   0  0  0  0  0  0
    4.4773   54.2759   21.1074 C   0  0  0  0  0  0
    2.3339   53.3069   22.1049 C   0  0  1  0  0  0
    1.7286   54.0960   21.6855 H   0  0  0  0  0  0
    2.2760   52.0525   21.2556 C   0  0  0  0  0  0
    1.9054   50.9804   21.9694 C   0  0  0  0  0  0
    1.6042   51.3408   23.4048 C   0  0  0  0  0  0
    1.6716   52.8779   23.4260 C   0  0  1  0  0  0
    0.6303   53.2011   23.3543 H   0  0  0  0  0  0
    2.2120   53.5943   24.7041 C   0  0  2  0  0  0
    1.8715   54.6277   24.6432 H   0  0  0  0  0  0
    3.6709   53.6958   24.6812 N   0  0  0  0  0  0
    1.6892   53.0280   26.0355 C   0  0  0  0  0  0
    0.5144   52.3162   26.2429 C   0  0  0  0  0  0
    0.3999   51.9149   27.5474 N   0  0  0  0  0  0
   -0.3684   51.3486   27.8827 H   0  0  0  0  0  0
    1.4682   52.3899   28.2700 C   0  0  0  0  0  0
    2.2928   53.1205   27.3546 C   0  0  0  0  0  0
    3.4547   53.7298   27.8673 C   0  0  0  0  0  0
    3.7768   53.5749   29.2143 C   0  0  0  0  0  0
    2.9628   52.8410   30.0692 C   0  0  0  0  0  0
    1.7823   52.2476   29.6267 C   0  0  0  0  0  0
    6.5652   57.6088   14.6406 H   0  0  0  0  0  0
    4.9358   58.3840   14.5398 H   0  0  0  0  0  0
    6.3678   59.3785   14.9602 H   0  0  0  0  0  0
    7.3731   59.2115   17.1586 H   0  0  0  0  0  0
    7.7044   57.4709   16.8927 H   0  0  0  0  0  0
    7.6994   57.8201   19.2824 H   0  0  0  0  0  0
    6.2736   58.8317   19.2825 H   0  0  0  0  0  0
    3.9250   57.2966   18.5826 H   0  0  0  0  0  0
    4.2740   55.5851   18.4276 H   0  0  0  0  0  0
    4.0104   56.8143   16.1948 H   0  0  0  0  0  0
    5.5734   55.9530   16.3313 H   0  0  0  0  0  0
    7.3687   55.2754   22.5828 H   0  0  0  0  0  0
    6.1287   54.5932   24.5782 H   0  0  0  0  0  0
    4.0234   54.1754   20.1325 H   0  0  0  0  0  0
    2.5384   52.0576   20.2064 H   0  0  0  0  0  0
    1.8136   49.9685   21.5983 H   0  0  0  0  0  0
    2.3048   50.8688   24.0811 H   0  0  0  0  0  0
    0.6109   50.9812   23.6722 H   0  0  0  0  0  0
    4.0965   53.8375   25.5821 H   0  0  0  0  0  0
   -0.2569   52.0274   25.5435 H   0  0  0  0  0  0
    4.1074   54.3120   27.2352 H   0  0  0  0  0  0
    4.6792   54.0308   29.5984 H   0  0  0  0  0  0
    3.2504   52.7315   31.1035 H   0  0  0  0  0  0
    1.1409   51.6984   30.3014 H   0  0  0  0  0  0
    5.0662   58.8478   16.8891 H   0  0  0  0  0  0
  1  2  1  0  0  0
  1 37  1  0  0  0
  1 38  1  0  0  0
  1 39  1  0  0  0
  2  7  1  0  0  0
  2  3  1  0  0  0
  2 61  1  0  0  0
  3  4  1  0  0  0
  3 40  1  0  0  0
  3 41  1  0  0  0
  4  5  1  0  0  0
  4 42  1  0  0  0
  4 43  1  0  0  0
  5  6  1  0  0  0
  5  8  1  0  0  0
  6  7  1  0  0  0
  6 44  1  0  0  0
  6 45  1  0  0  0
  7 46  1  0  0  0
  7 47  1  0  0  0
  8  9  2  0  0  0
  8 10  2  0  0  0
  8 11  1  0  0  0
 11 16  2  0  0  0
 11 12  1  0  0  0
 12 13  2  0  0  0
 12 48  1  0  0  0
 13 14  1  0  0  0
 13 49  1  0  0  0
 14 26  1  0  0  0
 14 15  2  0  0  0
 15 16  1  0  0  0
 15 17  1  0  0  0
 16 50  1  0  0  0
 17 18  1  0  0  0
 17 22  1  0  0  0
 17 19  1  0  0  0
 19 20  2  0  0  0
 19 51  1  0  0  0
 20 21  1  0  0  0
 20 52  1  0  0  0
 21 22  1  0  0  0
 21 53  1  0  0  0
 21 54  1  0  0  0
 22 23  1  0  0  0
 22 24  1  0  0  0
 24 25  1  0  0  0
 24 26  1  0  0  0
 24 27  1  0  0  0
 26 55  1  0  0  0
 27 32  1  0  0  0
 27 28  2  0  0  0
 28 29  1  0  0  0
 28 56  1  0  0  0
 29 30  1  0  0  0
 29 31  1  0  0  0
 31 36  2  0  0  0
 31 32  1  0  0  0
 32 33  2  0  0  0
 33 34  1  0  0  0
 33 57  1  0  0  0
 34 35  2  0  0  0
 34 58  1  0  0  0
 35 36  1  0  0  0
 35 59  1  0  0  0
 36 60  1  0  0  0
M  CHG  1   2   1
M  END
> <i_i_glide_confnum>
17

> <i_i_glide_lignum>
2194

> <i_i_glide_posenum>
23

> <i_i_glide_rotatable_bonds>
3

> <i_m_Source_File_Index>
3236

> <b_m_subgroup_collapsed>
0

> <r_i_docking_score>
-5.22228

> <r_i_glide_ecoul>
-2.42809

> <r_i_glide_eff_state_penalty>
0

> <r_i_glide_einternal>
3.62977

> <r_i_glide_emodel>
-53.0064

> <r_i_glide_energy>
-40.8102

> <r_i_glide_erotb>
0.297463

> <r_i_glide_esite>
-0.0505732

> <r_i_glide_evdw>
-38.3821

> <r_i_glide_gscore>
-5.22228

> <r_i_glide_hbond>
0

> <r_i_glide_ligand_efficiency>
-0.163196

> <r_i_glide_ligand_efficiency_ln>
-1.16941

> <r_i_glide_ligand_efficiency_sa>
-0.518116

> <r_i_glide_lipo>
-3.16176

> <r_i_glide_metal>
0

> <r_i_glide_rewards>
-0.024086

> <s_i_glide_gridfile>
wee1_glide-grid

> <s_m_Source_File>
wee1_decoys_glide_SP.sdf

> <s_m_Source_Path>
/Users/zhangxujun/Desktop

> <s_m_entry_id>
3511

> <s_m_entry_name>
wee1_decoys_glide_SP.3236

> <s_m_subgroup_title>
wee1_decoys_glide_SP

> <s_m_subgroupid>
wee1_decoys_glide_SP


$$$$
