ZINC39662452_1280
                    3D
 Schrodinger Suite 2024-2.
 66 69  0  0  1  0            999 V2000
    1.8037   54.7373   29.8156 C   0  0  0  0  0  0
    1.2466   54.7179   28.3789 C   0  0  0  0  0  0
    1.9027   53.7489   27.3398 C   0  0  1  0  0  0
    1.5034   54.0788   26.3842 H   0  0  0  0  0  0
    3.4324   53.8997   27.2091 C   0  0  0  0  0  0
    3.9652   54.4967   26.0571 C   0  0  0  0  0  0
    5.3409   54.6593   25.9127 C   0  0  0  0  0  0
    6.1939   54.2399   26.9297 C   0  0  0  0  0  0
    5.6833   53.6524   28.0830 C   0  0  0  0  0  0
    4.3090   53.4728   28.2163 C   0  0  0  0  0  0
    1.4488   52.2758   27.5430 C   0  0  0  0  0  0
    1.6497   51.7491   28.6415 O   0  0  0  0  0  0
    0.8253   51.5998   26.5398 N   0  0  0  0  0  0
    0.3043   50.2430   26.7470 C   0  0  0  0  0  0
   -0.5764   49.9813   25.5176 C   0  0  2  0  0  0
   -0.5192   48.9113   25.3109 H   0  0  0  0  0  0
    0.0733   50.8193   24.3726 C   0  0  0  0  0  0
    0.6229   52.0561   25.1549 C   0  0  0  0  0  0
    1.2096   49.9537   23.7304 C   0  0  0  0  0  0
    2.0630   50.7206   22.7011 C   0  0  0  0  0  0
    1.1310   51.2229   21.5770 N   0  3  0  0  0  0
   -0.0922   52.0037   22.1039 C   0  0  0  0  0  0
   -0.8326   51.1491   23.1501 C   0  0  0  0  0  0
   -2.0555   50.3276   25.8308 C   0  0  0  0  0  0
   -2.4343   51.4973   25.9253 O   0  0  0  0  0  0
   -2.8900   49.2848   25.9518 N   0  0  0  0  0  0
   -4.3289   49.3406   26.2137 C   0  0  1  0  0  0
   -4.4835   49.9637   27.0998 H   0  0  0  0  0  0
   -5.0255   50.0346   25.1083 C   0  0  0  0  0  0
   -5.5690   50.5764   24.2410 N   0  0  0  0  0  0
   -4.9423   47.9672   26.5342 C   0  0  0  0  0  0
   -4.1554   46.9310   27.0638 C   0  0  0  0  0  0
   -4.7135   45.6840   27.3313 C   0  0  0  0  0  0
   -6.0641   45.4615   27.0805 C   0  0  0  0  0  0
   -6.8626   46.4807   26.5673 C   0  0  0  0  0  0
   -6.3036   47.7266   26.2975 C   0  0  0  0  0  0
    1.2151   55.4144   30.4400 H   0  0  0  0  0  0
    1.7639   53.7523   30.2807 H   0  0  0  0  0  0
    2.8327   55.0975   29.8399 H   0  0  0  0  0  0
    1.2990   55.7356   27.9975 H   0  0  0  0  0  0
    0.1787   54.4980   28.4364 H   0  0  0  0  0  0
    3.3148   54.8399   25.2662 H   0  0  0  0  0  0
    5.7446   55.1133   25.0216 H   0  0  0  0  0  0
    7.2620   54.3642   26.8257 H   0  0  0  0  0  0
    6.3530   53.3279   28.8669 H   0  0  0  0  0  0
    3.9258   53.0014   29.1114 H   0  0  0  0  0  0
   -0.2474   50.1107   27.6808 H   0  0  0  0  0  0
    1.1253   49.5223   26.7620 H   0  0  0  0  0  0
    1.4886   52.5136   24.6764 H   0  0  0  0  0  0
   -0.1765   52.8005   25.1787 H   0  0  0  0  0  0
    1.9036   49.5947   24.4819 H   0  0  0  0  0  0
    0.8118   49.0373   23.2929 H   0  0  0  0  0  0
    2.5738   51.5941   23.1038 H   0  0  0  0  0  0
    2.8023   50.0786   22.2174 H   0  0  0  0  0  0
    1.6570   51.8016   20.9337 H   0  0  0  0  0  0
    0.3111   52.9134   22.5334 H   0  0  0  0  0  0
   -0.7039   52.2464   21.2352 H   0  0  0  0  0  0
   -1.2457   50.2434   22.7034 H   0  0  0  0  0  0
   -1.7004   51.7260   23.4735 H   0  0  0  0  0  0
   -2.4913   48.3570   25.9003 H   0  0  0  0  0  0
   -3.1075   47.0803   27.2833 H   0  0  0  0  0  0
   -4.0943   44.8969   27.7360 H   0  0  0  0  0  0
   -6.4970   44.4928   27.2851 H   0  0  0  0  0  0
   -7.9126   46.3027   26.3791 H   0  0  0  0  0  0
   -6.9420   48.5038   25.9027 H   0  0  0  0  0  0
    0.8070   50.4282   21.0423 H   0  0  0  0  0  0
  1  2  1  0  0  0
  1 37  1  0  0  0
  1 38  1  0  0  0
  1 39  1  0  0  0
  2  3  1  0  0  0
  2 40  1  0  0  0
  2 41  1  0  0  0
  3  4  1  0  0  0
  3  5  1  0  0  0
  3 11  1  0  0  0
  5 10  2  0  0  0
  5  6  1  0  0  0
  6  7  2  0  0  0
  6 42  1  0  0  0
  7  8  1  0  0  0
  7 43  1  0  0  0
  8  9  2  0  0  0
  8 44  1  0  0  0
  9 10  1  0  0  0
  9 45  1  0  0  0
 10 46  1  0  0  0
 11 12  2  0  0  0
 11 13  1  0  0  0
 13 18  1  0  0  0
 13 14  1  0  0  0
 14 15  1  0  0  0
 14 47  1  0  0  0
 14 48  1  0  0  0
 15 16  1  0  0  0
 15 17  1  0  0  0
 15 24  1  0  0  0
 17 23  1  0  0  0
 17 18  1  0  0  0
 17 19  1  0  0  0
 18 49  1  0  0  0
 18 50  1  0  0  0
 19 20  1  0  0  0
 19 51  1  0  0  0
 19 52  1  0  0  0
 20 21  1  0  0  0
 20 53  1  0  0  0
 20 54  1  0  0  0
 21 22  1  0  0  0
 21 55  1  0  0  0
 21 66  1  0  0  0
 22 23  1  0  0  0
 22 56  1  0  0  0
 22 57  1  0  0  0
 23 58  1  0  0  0
 23 59  1  0  0  0
 24 25  2  0  0  0
 24 26  1  0  0  0
 26 27  1  0  0  0
 26 60  1  0  0  0
 27 28  1  0  0  0
 27 29  1  0  0  0
 27 31  1  0  0  0
 29 30  3  0  0  0
 31 36  2  0  0  0
 31 32  1  0  0  0
 32 33  2  0  0  0
 32 61  1  0  0  0
 33 34  1  0  0  0
 33 62  1  0  0  0
 34 35  2  0  0  0
 34 63  1  0  0  0
 35 36  1  0  0  0
 35 64  1  0  0  0
 36 65  1  0  0  0
M  CHG  1  21   1
M  END
> <i_i_glide_confnum>
104

> <i_i_glide_lignum>
1281

> <i_i_glide_posenum>
360

> <i_i_glide_rotatable_bonds>
9

> <i_m_Source_File_Index>
1979

> <b_m_subgroup_collapsed>
0

> <r_i_docking_score>
-5.1505

> <r_i_glide_ecoul>
-3.96508

> <r_i_glide_eff_state_penalty>
0

> <r_i_glide_einternal>
4.04557

> <r_i_glide_emodel>
-56.4616

> <r_i_glide_energy>
-40.4264

> <r_i_glide_erotb>
0.604699

> <r_i_glide_esite>
-0.153996

> <r_i_glide_evdw>
-36.4613

> <r_i_glide_gscore>
-5.1505

> <r_i_glide_hbond>
0

> <r_i_glide_ligand_efficiency>
-0.156076

> <r_i_glide_ligand_efficiency_ln>
-1.14545

> <r_i_glide_ligand_efficiency_sa>
-0.500619

> <r_i_glide_lipo>
-2.46999

> <r_i_glide_metal>
0

> <r_i_glide_rewards>
-0.713385

> <s_i_glide_gridfile>
wee1_glide-grid

> <s_m_Source_File>
wee1_decoys_glide_SP.sdf

> <s_m_Source_Path>
/Users/zhangxujun/Desktop

> <s_m_entry_id>
2254

> <s_m_entry_name>
wee1_decoys_glide_SP.1979

> <s_m_subgroup_title>
wee1_decoys_glide_SP

> <s_m_subgroupid>
wee1_decoys_glide_SP


$$$$
