ZINC35023247_4442
                    3D
 Schrodinger Suite 2024-2.
 45 47  0  0  1  0            999 V2000
    6.5302   54.8280   27.1811 C   0  0  0  0  0  0
    6.0803   54.9174   25.8316 O   0  0  0  0  0  0
    4.8288   54.4194   25.5198 C   0  0  0  0  0  0
    3.9239   53.9451   26.4764 C   0  0  0  0  0  0
    2.6860   53.4544   26.0878 C   0  0  0  0  0  0
    2.3251   53.3908   24.7426 C   0  0  0  0  0  0
    3.2052   53.9154   23.7863 C   0  0  0  0  0  0
    4.4518   54.4102   24.1752 C   0  0  0  0  0  0
    0.9628   52.9245   24.3419 C   0  0  0  0  0  0
    0.2265   53.6585   23.6897 O   0  0  0  0  0  0
    0.5877   51.4135   24.5243 C   0  0  1  0  0  0
    1.5039   50.9194   24.8338 H   0  0  0  0  0  0
   -0.4534   51.1784   25.6914 C   0  0  1  0  0  0
   -1.3537   51.7592   25.4785 H   0  0  0  0  0  0
   -0.8707   49.7638   25.6842 N   0  0  0  0  0  0
   -0.9080   48.9337   24.6129 C   0  0  0  0  0  0
   -1.6942   47.4767   24.6517 S   0  0  0  0  0  0
   -0.2656   49.3482   23.4921 N   0  0  0  0  0  0
    0.1640   50.7138   23.1583 C   0  0  2  0  0  0
    1.3194   50.6849   22.0997 C   0  0  0  0  0  0
    1.6903   51.8938   21.6746 F   0  0  0  0  0  0
    2.4075   50.0956   22.5958 F   0  0  0  0  0  0
    0.9704   49.9879   21.0156 F   0  0  0  0  0  0
   -0.9524   51.3583   22.5609 O   0  0  0  0  0  0
    0.0491   51.6295   27.0611 C   0  0  0  0  0  0
   -0.4933   52.7549   27.6814 C   0  0  0  0  0  0
    0.0347   53.2162   28.8876 C   0  0  0  0  0  0
    1.1121   52.5551   29.4669 C   0  0  0  0  0  0
    1.6489   51.4240   28.8605 C   0  0  0  0  0  0
    1.0965   50.9421   27.6804 C   0  0  0  0  0  0
    1.6583   53.0219   30.6121 F   0  0  0  0  0  0
    7.5047   55.2967   27.2757 H   0  0  0  0  0  0
    6.6347   53.7877   27.4956 H   0  0  0  0  0  0
    5.8678   55.3458   27.8751 H   0  0  0  0  0  0
    4.1498   53.9530   27.5308 H   0  0  0  0  0  0
    2.0137   53.1688   26.8664 H   0  0  0  0  0  0
    2.9336   53.9390   22.7389 H   0  0  0  0  0  0
    5.1327   54.7979   23.4318 H   0  0  0  0  0  0
   -1.2924   49.3707   26.5231 H   0  0  0  0  0  0
   -0.3694   48.7006   22.7245 H   0  0  0  0  0  0
   -1.6736   51.3468   23.1930 H   0  0  0  0  0  0
   -1.3017   53.2951   27.2162 H   0  0  0  0  0  0
   -0.3745   54.0959   29.3632 H   0  0  0  0  0  0
    2.4975   50.9154   29.2822 H   0  0  0  0  0  0
    1.5044   50.0554   27.2270 H   0  0  0  0  0  0
  1  2  1  0  0  0
  1 32  1  0  0  0
  1 33  1  0  0  0
  1 34  1  0  0  0
  2  3  1  0  0  0
  3  8  2  0  0  0
  3  4  1  0  0  0
  4  5  2  0  0  0
  4 35  1  0  0  0
  5  6  1  0  0  0
  5 36  1  0  0  0
  6  7  2  0  0  0
  6  9  1  0  0  0
  7  8  1  0  0  0
  7 37  1  0  0  0
  8 38  1  0  0  0
  9 10  2  0  0  0
  9 11  1  0  0  0
 11 12  1  0  0  0
 11 19  1  0  0  0
 11 13  1  0  0  0
 13 14  1  0  0  0
 13 15  1  0  0  0
 13 25  1  0  0  0
 15 16  1  0  0  0
 15 39  1  0  0  0
 16 17  2  0  0  0
 16 18  1  0  0  0
 18 19  1  0  0  0
 18 40  1  0  0  0
 19 20  1  0  0  0
 19 24  1  0  0  0
 20 21  1  0  0  0
 20 22  1  0  0  0
 20 23  1  0  0  0
 24 41  1  0  0  0
 25 30  2  0  0  0
 25 26  1  0  0  0
 26 27  2  0  0  0
 26 42  1  0  0  0
 27 28  1  0  0  0
 27 43  1  0  0  0
 28 29  2  0  0  0
 28 31  1  0  0  0
 29 30  1  0  0  0
 29 44  1  0  0  0
 30 45  1  0  0  0
M  END
> <i_i_glide_confnum>
12

> <i_i_glide_lignum>
4443

> <i_i_glide_posenum>
261

> <i_i_glide_rotatable_bonds>
6

> <i_m_Source_File_Index>
3489

> <b_m_subgroup_collapsed>
0

> <r_i_docking_score>
-5.03398

> <r_i_glide_ecoul>
-1.87155

> <r_i_glide_eff_state_penalty>
0

> <r_i_glide_einternal>
10.2213

> <r_i_glide_emodel>
-43.479

> <r_i_glide_energy>
-36.3915

> <r_i_glide_erotb>
0.324692

> <r_i_glide_esite>
-0.191087

> <r_i_glide_evdw>
-34.52

> <r_i_glide_gscore>
-5.03398

> <r_i_glide_hbond>
-0.122581

> <r_i_glide_ligand_efficiency>
-0.173585

> <r_i_glide_ligand_efficiency_ln>
-1.15265

> <r_i_glide_ligand_efficiency_sa>
-0.533309

> <r_i_glide_lipo>
-2.08729

> <r_i_glide_metal>
0

> <r_i_glide_rewards>
-0.950981

> <s_i_glide_gridfile>
wee1_glide-grid

> <s_m_Source_File>
wee1_decoys_glide_SP.sdf

> <s_m_Source_Path>
/Users/zhangxujun/Desktop

> <s_m_entry_id>
3764

> <s_m_entry_name>
wee1_decoys_glide_SP.3489

> <s_m_subgroup_title>
wee1_decoys_glide_SP

> <s_m_subgroupid>
wee1_decoys_glide_SP


$$$$
