ZINC13080573_2462
                    3D
 Schrodinger Suite 2024-2.
 62 66  0  0  1  0            999 V2000
   -0.5883   48.1712   25.1243 C   0  0  0  0  0  0
   -0.2555   49.6473   25.1813 C   0  0  0  0  0  0
   -0.8132   50.4856   26.1518 C   0  0  0  0  0  0
   -0.4624   51.8329   26.1505 C   0  0  0  0  0  0
    0.4184   52.3122   25.1796 C   0  0  0  0  0  0
    0.9233   51.4130   24.2220 C   0  0  0  0  0  0
    0.5980   50.0958   24.2260 N   0  0  0  0  0  0
    1.8091   51.7660   23.1996 N   0  0  0  0  0  0
    2.0388   52.9804   22.6634 C   0  0  0  0  0  0
    1.4540   54.0081   23.0008 O   0  0  0  0  0  0
    3.1016   53.0119   21.6758 C   0  0  0  0  0  0
    3.1663   52.1258   20.6418 C   0  0  0  0  0  0
    4.1269   52.2672   19.6812 N   0  0  0  0  0  0
    5.0512   53.2761   19.6181 C   0  0  0  0  0  0
    5.0967   54.2389   20.5771 C   0  0  0  0  0  0
    4.1561   54.1523   21.8438 C   0  0  2  0  0  0
    3.6381   55.1115   21.8496 H   0  0  0  0  0  0
    4.8543   54.1620   23.2306 C   0  0  0  0  0  0
    4.1982   54.5518   24.4100 C   0  0  0  0  0  0
    4.8715   54.5926   25.6328 C   0  0  0  0  0  0
    6.2298   54.2584   25.6927 C   0  0  0  0  0  0
    6.8744   53.8870   24.5187 C   0  0  0  0  0  0
    6.1869   53.7949   23.3280 C   0  0  0  0  0  0
    6.9915   54.2504   26.8410 O   0  0  0  0  0  0
    6.3287   54.3073   28.0971 C   0  0  0  0  0  0
    6.0757   55.3564   20.4276 C   0  0  0  0  0  0
    6.3044   56.1843   21.3025 O   0  0  0  0  0  0
    6.9409   55.3969   19.1547 C   0  0  0  0  0  0
    6.2564   54.7409   17.9422 C   0  0  1  0  0  0
    7.0073   54.6620   17.1554 H   0  0  0  0  0  0
    5.8600   53.2956   18.3205 C   0  0  0  0  0  0
    5.1350   55.5963   17.3566 C   0  0  0  0  0  0
    4.6891   56.8939   17.5830 C   0  0  0  0  0  0
    3.6072   57.1198   16.7316 C   0  0  0  0  0  0
    3.4425   55.9520   16.0076 C   0  0  0  0  0  0
    4.3735   55.0353   16.3766 O   0  0  0  0  0  0
    2.1951   50.9993   20.2978 C   0  0  0  0  0  0
   -1.3446   47.9855   24.3597 H   0  0  0  0  0  0
   -0.9690   47.8130   26.0816 H   0  0  0  0  0  0
    0.2998   47.5858   24.8800 H   0  0  0  0  0  0
   -1.4951   50.0969   26.8967 H   0  0  0  0  0  0
   -0.8649   52.4968   26.9020 H   0  0  0  0  0  0
    0.7026   53.3519   25.1961 H   0  0  0  0  0  0
    2.2759   50.9864   22.7661 H   0  0  0  0  0  0
    4.2856   51.4829   19.0514 H   0  0  0  0  0  0
    3.1731   54.8787   24.3951 H   0  0  0  0  0  0
    4.3292   54.9056   26.5127 H   0  0  0  0  0  0
    7.9047   53.6033   24.4875 H   0  0  0  0  0  0
    6.7190   53.4390   22.4817 H   0  0  0  0  0  0
    7.0544   54.0971   28.8822 H   0  0  0  0  0  0
    5.9046   55.2951   28.2816 H   0  0  0  0  0  0
    5.5410   53.5575   28.1798 H   0  0  0  0  0  0
    7.8381   54.8215   19.3883 H   0  0  0  0  0  0
    7.2658   56.4193   18.9601 H   0  0  0  0  0  0
    6.7039   52.6076   18.3884 H   0  0  0  0  0  0
    5.2306   52.9384   17.5018 H   0  0  0  0  0  0
    5.1030   57.6014   18.2865 H   0  0  0  0  0  0
    3.0251   58.0265   16.6547 H   0  0  0  0  0  0
    2.7526   55.6482   15.2330 H   0  0  0  0  0  0
    2.6023   50.0388   20.6221 H   0  0  0  0  0  0
    1.2099   51.1293   20.7468 H   0  0  0  0  0  0
    2.0250   50.9365   19.2195 H   0  0  0  0  0  0
  1  2  1  0  0  0
  1 38  1  0  0  0
  1 39  1  0  0  0
  1 40  1  0  0  0
  2  7  2  0  0  0
  2  3  1  0  0  0
  3  4  2  0  0  0
  3 41  1  0  0  0
  4  5  1  0  0  0
  4 42  1  0  0  0
  5  6  2  0  0  0
  5 43  1  0  0  0
  6  7  1  0  0  0
  6  8  1  0  0  0
  8  9  1  0  0  0
  8 44  1  0  0  0
  9 10  2  0  0  0
  9 11  1  0  0  0
 11 16  1  0  0  0
 11 12  2  0  0  0
 12 13  1  0  0  0
 12 37  1  0  0  0
 13 14  1  0  0  0
 13 45  1  0  0  0
 14 31  1  0  0  0
 14 15  2  0  0  0
 15 16  1  0  0  0
 15 26  1  0  0  0
 16 17  1  0  0  0
 16 18  1  0  0  0
 18 23  2  0  0  0
 18 19  1  0  0  0
 19 20  2  0  0  0
 19 46  1  0  0  0
 20 21  1  0  0  0
 20 47  1  0  0  0
 21 22  2  0  0  0
 21 24  1  0  0  0
 22 23  1  0  0  0
 22 48  1  0  0  0
 23 49  1  0  0  0
 24 25  1  0  0  0
 25 50  1  0  0  0
 25 51  1  0  0  0
 25 52  1  0  0  0
 26 27  2  0  0  0
 26 28  1  0  0  0
 28 29  1  0  0  0
 28 53  1  0  0  0
 28 54  1  0  0  0
 29 30  1  0  0  0
 29 31  1  0  0  0
 29 32  1  0  0  0
 31 55  1  0  0  0
 31 56  1  0  0  0
 32 36  1  0  0  0
 32 33  2  0  0  0
 33 34  1  0  0  0
 33 57  1  0  0  0
 34 35  2  0  0  0
 34 58  1  0  0  0
 35 36  1  0  0  0
 35 59  1  0  0  0
 37 60  1  0  0  0
 37 61  1  0  0  0
 37 62  1  0  0  0
M  END
> <i_i_glide_confnum>
176

> <i_i_glide_lignum>
2463

> <i_i_glide_posenum>
386

> <i_i_glide_rotatable_bonds>
6

> <i_m_Source_File_Index>
383

> <b_m_subgroup_collapsed>
0

> <r_i_docking_score>
-5.94194

> <r_i_glide_ecoul>
-6.93731

> <r_i_glide_eff_state_penalty>
0

> <r_i_glide_einternal>
18.8168

> <r_i_glide_emodel>
-58.3821

> <r_i_glide_energy>
-49.6242

> <r_i_glide_erotb>
0.458093

> <r_i_glide_esite>
-0.0731332

> <r_i_glide_evdw>
-42.6869

> <r_i_glide_gscore>
-5.94194

> <r_i_glide_hbond>
-0.225974

> <r_i_glide_ligand_efficiency>
-0.16977

> <r_i_glide_ligand_efficiency_ln>
-1.30439

> <r_i_glide_ligand_efficiency_sa>
-0.555328

> <r_i_glide_lipo>
-2.3564

> <r_i_glide_metal>
0

> <r_i_glide_rewards>
-0.569582

> <s_i_glide_gridfile>
wee1_glide-grid

> <s_m_Source_File>
wee1_decoys_glide_SP.sdf

> <s_m_Source_Path>
/Users/zhangxujun/Desktop

> <s_m_entry_id>
658

> <s_m_entry_name>
wee1_decoys_glide_SP.383

> <s_m_subgroup_title>
wee1_decoys_glide_SP

> <s_m_subgroupid>
wee1_decoys_glide_SP


$$$$
