ZINC66815062_1508
                    3D
 Schrodinger Suite 2024-2.
 42 44  0  0  1  0            999 V2000
    4.4701   53.5585   28.4720 C   0  0  0  0  0  0
    3.3675   53.4492   27.6221 C   0  0  0  0  0  0
    3.4662   53.8123   26.2712 C   0  0  0  0  0  0
    4.6922   54.3068   25.7980 C   0  0  0  0  0  0
    5.7939   54.4177   26.6469 C   0  0  0  0  0  0
    5.6834   54.0429   27.9843 C   0  0  0  0  0  0
    6.9673   54.8967   26.1741 F   0  0  0  0  0  0
    2.2340   53.7328   25.3565 C   0  0  2  0  0  0
    1.5445   54.4967   25.6977 H   0  0  0  0  0  0
    1.5044   52.3794   25.3625 C   0  0  0  0  0  0
    0.2635   52.4244   24.5860 N   0  0  0  0  0  0
    0.6238   52.7297   23.1929 C   0  0  0  0  0  0
    1.5044   54.0034   23.0915 C   0  0  0  0  0  0
    2.6026   53.9826   23.9986 O   0  0  0  0  0  0
   -0.7767   51.5730   24.9397 C   0  0  0  0  0  0
   -1.8281   52.2311   25.5889 C   0  0  0  0  0  0
   -2.9365   51.5518   26.0745 C   0  0  0  0  0  0
   -3.0133   50.1765   25.9121 C   0  0  0  0  0  0
   -1.9874   49.4967   25.2640 C   0  0  0  0  0  0
   -0.8458   50.1597   24.7764 C   0  0  0  0  0  0
    0.2135   49.3170   24.1535 N   0  3  0  0  0  0
    0.0170   48.1057   24.0817 O   0  0  0  0  0  0
    1.2389   49.8215   23.7227 O   0  5  0  0  0  0
   -4.3964   49.2645   26.5651 S   0  0  0  0  0  0
   -4.9787   50.0604   27.6501 O   0  0  0  0  0  0
   -5.2170   48.8293   25.4313 O   0  0  0  0  0  0
   -3.6956   47.8436   27.2817 N   0  0  0  0  0  0
    4.3830   53.2721   29.5095 H   0  0  0  0  0  0
    2.4326   53.0882   28.0246 H   0  0  0  0  0  0
    4.8012   54.6118   24.7679 H   0  0  0  0  0  0
    6.5367   54.1356   28.6408 H   0  0  0  0  0  0
    2.2007   51.6967   24.8870 H   0  0  0  0  0  0
    1.3682   52.0003   26.3757 H   0  0  0  0  0  0
    1.1274   51.9021   22.6984 H   0  0  0  0  0  0
   -0.2948   52.8967   22.6304 H   0  0  0  0  0  0
    1.8989   54.0968   22.0817 H   0  0  0  0  0  0
    0.8963   54.8870   23.2836 H   0  0  0  0  0  0
   -1.7811   53.2967   25.7395 H   0  0  0  0  0  0
   -3.7219   52.0920   26.5838 H   0  0  0  0  0  0
   -2.0782   48.4229   25.1719 H   0  0  0  0  0  0
   -2.7797   48.0927   27.7360 H   0  0  0  0  0  0
   -4.2639   47.5200   28.0654 H   0  0  0  0  0  0
  1  6  2  0  0  0
  1  2  1  0  0  0
  1 28  1  0  0  0
  2  3  2  0  0  0
  2 29  1  0  0  0
  3  4  1  0  0  0
  3  8  1  0  0  0
  4  5  2  0  0  0
  4 30  1  0  0  0
  5  6  1  0  0  0
  5  7  1  0  0  0
  6 31  1  0  0  0
  8  9  1  0  0  0
  8 14  1  0  0  0
  8 10  1  0  0  0
 10 11  1  0  0  0
 10 32  1  0  0  0
 10 33  1  0  0  0
 11 12  1  0  0  0
 11 15  1  0  0  0
 12 13  1  0  0  0
 12 34  1  0  0  0
 12 35  1  0  0  0
 13 14  1  0  0  0
 13 36  1  0  0  0
 13 37  1  0  0  0
 15 20  2  0  0  0
 15 16  1  0  0  0
 16 17  2  0  0  0
 16 38  1  0  0  0
 17 18  1  0  0  0
 17 39  1  0  0  0
 18 19  2  0  0  0
 18 24  1  0  0  0
 19 20  1  0  0  0
 19 40  1  0  0  0
 20 21  1  0  0  0
 21 22  2  0  0  0
 21 23  1  0  0  0
 24 25  2  0  0  0
 24 26  2  0  0  0
 24 27  1  0  0  0
 27 41  1  0  0  0
 27 42  1  0  0  0
M  CHG  2  21   1  23  -1
M  END
> <i_i_glide_confnum>
1

> <i_i_glide_lignum>
1509

> <i_i_glide_posenum>
205

> <i_i_glide_rotatable_bonds>
4

> <i_m_Source_File_Index>
1079

> <b_m_subgroup_collapsed>
0

> <r_i_docking_score>
-5.37502

> <r_i_glide_ecoul>
-8.26309

> <r_i_glide_eff_state_penalty>
0

> <r_i_glide_einternal>
11.6536

> <r_i_glide_emodel>
-37.9822

> <r_i_glide_energy>
-34.3888

> <r_i_glide_erotb>
0.266901

> <r_i_glide_esite>
-0.240873

> <r_i_glide_evdw>
-26.1257

> <r_i_glide_gscore>
-5.37502

> <r_i_glide_hbond>
-0.124399

> <r_i_glide_ligand_efficiency>
-0.206731

> <r_i_glide_ligand_efficiency_ln>
-1.2623

> <r_i_glide_ligand_efficiency_sa>
-0.612441

> <r_i_glide_lipo>
-2.21706

> <r_i_glide_metal>
0

> <r_i_glide_rewards>
-0.51384

> <s_i_glide_gridfile>
wee1_glide-grid

> <s_m_Source_File>
wee1_decoys_glide_SP.sdf

> <s_m_Source_Path>
/Users/zhangxujun/Desktop

> <s_m_entry_id>
1354

> <s_m_entry_name>
wee1_decoys_glide_SP.1079

> <s_m_subgroup_title>
wee1_decoys_glide_SP

> <s_m_subgroupid>
wee1_decoys_glide_SP


$$$$
