ZINC08724004_816
                    3D
 Schrodinger Suite 2024-2.
 49 51  0  0  1  0            999 V2000
    4.0885   53.8532   21.0206 C   0  0  0  0  0  0
    4.1768   54.0039   22.5282 C   0  0  0  0  0  0
    3.0178   54.0483   23.3017 C   0  0  0  0  0  0
    3.1041   54.1852   24.6859 C   0  0  0  0  0  0
    4.3492   54.2820   25.3245 C   0  0  0  0  0  0
    5.5182   54.2472   24.5392 C   0  0  0  0  0  0
    5.4218   54.0966   23.1508 C   0  0  0  0  0  0
    6.9052   54.3517   25.1616 C   0  0  0  0  0  0
    4.4564   54.4908   26.7135 N   0  0  0  0  0  0
    3.5607   54.2311   27.7238 C   0  0  0  0  0  0
    3.5568   54.8964   28.8466 N   0  0  0  0  0  0
    2.5117   54.5343   29.6821 N   0  0  0  0  0  0
    1.7776   53.5544   29.2193 C   0  0  0  0  0  0
    2.3390   52.9898   27.6634 S   0  0  0  0  0  0
    0.3483   52.9552   30.0797 S   0  0  0  0  0  0
   -0.1537   51.4933   29.1043 C   0  0  0  0  0  0
   -0.8968   51.7917   27.7983 C   0  0  0  0  0  0
   -0.8098   52.8967   27.2800 O   0  0  0  0  0  0
   -1.6122   50.7969   27.2517 N   0  0  0  0  0  0
   -2.2289   50.8183   25.9903 C   0  0  0  0  0  0
   -1.5086   51.2152   24.8544 C   0  0  0  0  0  0
   -2.1048   51.1824   23.5920 C   0  0  0  0  0  0
   -3.4338   50.7727   23.4629 C   0  0  0  0  0  0
   -4.1562   50.3830   24.5906 C   0  0  0  0  0  0
   -3.5596   50.3940   25.8532 C   0  0  0  0  0  0
   -4.4950   49.8853   27.2189 Cl  0  0  0  0  0  0
   -1.1519   51.6338   22.1478 S   0  0  0  0  0  0
   -0.0558   52.4960   22.5993 O   0  0  0  0  0  0
   -2.0952   52.0961   21.1231 O   0  0  0  0  0  0
   -0.4178   49.9989   21.5869 C   0  0  0  0  0  0
    3.1061   53.4972   20.7063 H   0  0  0  0  0  0
    4.2947   54.8053   20.5303 H   0  0  0  0  0  0
    4.8196   53.1255   20.6654 H   0  0  0  0  0  0
    2.0476   53.9907   22.8298 H   0  0  0  0  0  0
    2.1847   54.2543   25.2454 H   0  0  0  0  0  0
    6.3180   54.0649   22.5476 H   0  0  0  0  0  0
    7.6869   54.0966   24.4459 H   0  0  0  0  0  0
    7.0799   55.3612   25.5336 H   0  0  0  0  0  0
    7.0007   53.6588   25.9991 H   0  0  0  0  0  0
    5.3792   54.7987   26.9791 H   0  0  0  0  0  0
   -0.8090   50.8971   29.7404 H   0  0  0  0  0  0
    0.7281   50.8960   28.8873 H   0  0  0  0  0  0
   -1.6956   49.9140   27.7649 H   0  0  0  0  0  0
   -0.4777   51.5268   24.9522 H   0  0  0  0  0  0
   -3.9063   50.7468   22.4913 H   0  0  0  0  0  0
   -5.1818   50.0617   24.4839 H   0  0  0  0  0  0
    0.1863   50.1799   20.6985 H   0  0  0  0  0  0
   -1.2281   49.3094   21.3584 H   0  0  0  0  0  0
    0.2054   49.6043   22.3877 H   0  0  0  0  0  0
  1  2  1  0  0  0
  1 31  1  0  0  0
  1 32  1  0  0  0
  1 33  1  0  0  0
  2  7  2  0  0  0
  2  3  1  0  0  0
  3  4  2  0  0  0
  3 34  1  0  0  0
  4  5  1  0  0  0
  4 35  1  0  0  0
  5  6  2  0  0  0
  5  9  1  0  0  0
  6  7  1  0  0  0
  6  8  1  0  0  0
  7 36  1  0  0  0
  8 37  1  0  0  0
  8 38  1  0  0  0
  8 39  1  0  0  0
  9 10  1  0  0  0
  9 40  1  0  0  0
 10 14  1  0  0  0
 10 11  2  0  0  0
 11 12  1  0  0  0
 12 13  2  0  0  0
 13 14  1  0  0  0
 13 15  1  0  0  0
 15 16  1  0  0  0
 16 17  1  0  0  0
 16 41  1  0  0  0
 16 42  1  0  0  0
 17 18  2  0  0  0
 17 19  1  0  0  0
 19 20  1  0  0  0
 19 43  1  0  0  0
 20 25  2  0  0  0
 20 21  1  0  0  0
 21 22  2  0  0  0
 21 44  1  0  0  0
 22 23  1  0  0  0
 22 27  1  0  0  0
 23 24  2  0  0  0
 23 45  1  0  0  0
 24 25  1  0  0  0
 24 46  1  0  0  0
 25 26  1  0  0  0
 27 28  2  0  0  0
 27 29  2  0  0  0
 27 30  1  0  0  0
 30 47  1  0  0  0
 30 48  1  0  0  0
 30 49  1  0  0  0
M  END
> <i_i_glide_confnum>
130

> <i_i_glide_lignum>
817

> <i_i_glide_posenum>
375

> <i_i_glide_rotatable_bonds>
8

> <i_m_Source_File_Index>
4436

> <b_m_subgroup_collapsed>
0

> <r_i_docking_score>
-5.59542

> <r_i_glide_ecoul>
-9.0554

> <r_i_glide_eff_state_penalty>
0

> <r_i_glide_einternal>
3.23486

> <r_i_glide_emodel>
-68.4584

> <r_i_glide_energy>
-50.4148

> <r_i_glide_erotb>
0.608975

> <r_i_glide_esite>
-0.18954

> <r_i_glide_evdw>
-41.3594

> <r_i_glide_gscore>
-5.59542

> <r_i_glide_hbond>
-0.16

> <r_i_glide_ligand_efficiency>
-0.186514

> <r_i_glide_ligand_efficiency_ln>
-1.27134

> <r_i_glide_ligand_efficiency_sa>
-0.579542

> <r_i_glide_lipo>
-2.27221

> <r_i_glide_metal>
0

> <r_i_glide_rewards>
-0.156365

> <s_i_glide_gridfile>
wee1_glide-grid

> <s_m_Source_File>
wee1_decoys_glide_SP.sdf

> <s_m_Source_Path>
/Users/zhangxujun/Desktop

> <s_m_entry_id>
4711

> <s_m_entry_name>
wee1_decoys_glide_SP.4436

> <s_m_subgroup_title>
wee1_decoys_glide_SP

> <s_m_subgroupid>
wee1_decoys_glide_SP


$$$$
