ZINC39462732_1639
                    3D
 Schrodinger Suite 2024-2.
 51 53  0  0  1  0            999 V2000
    2.5112   51.3402   28.7425 C   0  0  0  0  0  0
    1.8999   52.5893   29.4050 C   0  0  2  0  0  0
    0.3456   52.4862   29.1939 C   0  0  0  0  0  0
   -0.0696   53.5881   28.2328 C   0  0  0  0  0  0
    1.2295   54.0181   27.5222 C   0  0  1  0  0  0
    1.1046   55.0664   27.2820 H   0  0  0  0  0  0
    2.3389   53.8905   28.6123 C   0  0  0  0  0  0
    2.2397   55.1590   29.5199 C   0  0  0  0  0  0
    3.8052   53.8889   28.0752 C   0  0  0  0  0  0
    1.5045   53.2967   26.1596 C   0  0  0  0  0  0
    2.3761   53.7326   25.4045 O   0  0  0  0  0  0
    0.7040   52.2496   25.8511 N   0  0  0  0  0  0
    0.8134   51.5855   24.6307 N   0  0  0  0  0  0
   -0.0557   51.8864   23.6403 C   0  0  0  0  0  0
   -0.8764   52.8067   23.7022 O   0  0  0  0  0  0
   -0.0468   51.0262   22.3616 C   0  0  2  0  0  0
   -1.0401   50.8807   21.9363 H   0  0  0  0  0  0
    0.9637   49.8966   22.2101 C   0  0  0  0  0  0
    1.1287   51.1666   21.3994 C   0  0  2  0  0  0
    0.8395   51.0966   20.3494 H   0  0  0  0  0  0
    2.3967   51.9948   21.5749 C   0  0  0  0  0  0
    2.3626   53.2955   22.0844 C   0  0  0  0  0  0
    3.5387   54.0263   22.2219 C   0  0  0  0  0  0
    4.7480   53.4645   21.8218 C   0  0  0  0  0  0
    4.7854   52.1811   21.2815 C   0  0  0  0  0  0
    3.6103   51.4459   21.1590 C   0  0  0  0  0  0
    2.3679   52.4967   30.8815 C   0  0  0  0  0  0
    3.6006   52.4962   31.1096 O   0  0  0  0  0  0
    1.5046   52.3654   31.7707 O   0  5  0  0  0  0
    2.3051   51.2624   27.6805 H   0  0  0  0  0  0
    3.5910   51.2967   28.8811 H   0  0  0  0  0  0
    2.0659   50.4698   29.1850 H   0  0  0  0  0  0
    0.0398   51.5146   28.8004 H   0  0  0  0  0  0
   -0.2298   52.6054   30.1130 H   0  0  0  0  0  0
   -0.4732   54.4248   28.7957 H   0  0  0  0  0  0
   -0.8838   53.2870   27.5715 H   0  0  0  0  0  0
    2.3423   56.0809   28.9455 H   0  0  0  0  0  0
    1.2945   55.2170   30.0606 H   0  0  0  0  0  0
    3.0295   55.1751   30.2660 H   0  0  0  0  0  0
    4.0277   54.8081   27.5324 H   0  0  0  0  0  0
    4.5267   53.8120   28.8893 H   0  0  0  0  0  0
    4.0151   53.0651   27.3938 H   0  0  0  0  0  0
    0.0567   51.8149   26.4930 H   0  0  0  0  0  0
    1.4323   50.7886   24.6446 H   0  0  0  0  0  0
    1.6917   49.6764   22.9931 H   0  0  0  0  0  0
    0.6542   48.9880   21.6941 H   0  0  0  0  0  0
    1.4311   53.7584   22.3716 H   0  0  0  0  0  0
    3.5044   55.0249   22.6307 H   0  0  0  0  0  0
    5.6604   54.0342   21.9211 H   0  0  0  0  0  0
    5.7232   51.7585   20.9545 H   0  0  0  0  0  0
    3.6419   50.4525   20.7346 H   0  0  0  0  0  0
  1  2  1  0  0  0
  1 30  1  0  0  0
  1 31  1  0  0  0
  1 32  1  0  0  0
  2  7  1  0  0  0
  2  3  1  0  0  0
  2 27  1  0  0  0
  3  4  1  0  0  0
  3 33  1  0  0  0
  3 34  1  0  0  0
  4  5  1  0  0  0
  4 35  1  0  0  0
  4 36  1  0  0  0
  5  6  1  0  0  0
  5  7  1  0  0  0
  5 10  1  0  0  0
  7  8  1  0  0  0
  7  9  1  0  0  0
  8 37  1  0  0  0
  8 38  1  0  0  0
  8 39  1  0  0  0
  9 40  1  0  0  0
  9 41  1  0  0  0
  9 42  1  0  0  0
 10 11  2  0  0  0
 10 12  1  0  0  0
 12 13  1  0  0  0
 12 43  1  0  0  0
 13 14  1  0  0  0
 13 44  1  0  0  0
 14 15  2  0  0  0
 14 16  1  0  0  0
 16 17  1  0  0  0
 16 19  1  0  0  0
 16 18  1  0  0  0
 18 19  1  0  0  0
 18 45  1  0  0  0
 18 46  1  0  0  0
 19 20  1  0  0  0
 19 21  1  0  0  0
 21 26  2  0  0  0
 21 22  1  0  0  0
 22 23  2  0  0  0
 22 47  1  0  0  0
 23 24  1  0  0  0
 23 48  1  0  0  0
 24 25  2  0  0  0
 24 49  1  0  0  0
 25 26  1  0  0  0
 25 50  1  0  0  0
 26 51  1  0  0  0
 27 28  2  0  0  0
 27 29  1  0  0  0
M  CHG  1  29  -1
M  END
> <i_i_glide_confnum>
240

> <i_i_glide_lignum>
1640

> <i_i_glide_posenum>
378

> <i_i_glide_rotatable_bonds>
7

> <i_m_Source_File_Index>
1806

> <b_m_subgroup_collapsed>
0

> <r_i_docking_score>
-3.59529

> <r_i_glide_ecoul>
-1.04163

> <r_i_glide_eff_state_penalty>
0

> <r_i_glide_einternal>
12.0215

> <r_i_glide_emodel>
-29.8196

> <r_i_glide_energy>
-27.6422

> <r_i_glide_erotb>
0.899116

> <r_i_glide_esite>
-0.0530807

> <r_i_glide_evdw>
-26.6006

> <r_i_glide_gscore>
-3.59529

> <r_i_glide_hbond>
-0.0630414

> <r_i_glide_ligand_efficiency>
-0.13828

> <r_i_glide_ligand_efficiency_ln>
-0.844341

> <r_i_glide_ligand_efficiency_sa>
-0.409655

> <r_i_glide_lipo>
-1.68378

> <r_i_glide_metal>
0

> <r_i_glide_rewards>
-1.20823

> <s_i_glide_gridfile>
wee1_glide-grid

> <s_m_Source_File>
wee1_decoys_glide_SP.sdf

> <s_m_Source_Path>
/Users/zhangxujun/Desktop

> <s_m_entry_id>
2081

> <s_m_entry_name>
wee1_decoys_glide_SP.1806

> <s_m_subgroup_title>
wee1_decoys_glide_SP

> <s_m_subgroupid>
wee1_decoys_glide_SP


$$$$
