ZINC38651669_4139
                    3D
 Schrodinger Suite 2024-2.
 54 57  0  0  1  0            999 V2000
    1.6184   53.2279   22.5297 C   0  0  0  0  0  0
    1.4691   52.9630   24.0208 C   0  0  0  0  0  0
    0.4825   52.0750   24.4587 C   0  0  0  0  0  0
    0.3043   51.8330   25.8185 C   0  0  0  0  0  0
    1.1075   52.4853   26.7504 C   0  0  0  0  0  0
    2.1071   53.3710   26.3312 C   0  0  0  0  0  0
    2.2987   53.6078   24.9542 C   0  0  0  0  0  0
    3.2407   54.4974   24.4842 O   0  0  0  0  0  0
    4.6094   54.2126   24.7766 C   0  0  0  0  0  0
    5.4665   54.0966   23.5071 C   0  0  0  0  0  0
    6.6846   53.9218   23.5987 O   0  0  0  0  0  0
    4.7584   54.2214   22.3440 O   0  0  0  0  0  0
    5.4009   54.3535   21.1312 C   0  0  0  0  0  0
    5.1044   53.4595   20.1015 C   0  0  0  0  0  0
    5.7041   53.5939   18.8484 C   0  0  0  0  0  0
    6.6058   54.6328   18.5791 C   0  0  0  0  0  0
    6.9018   55.5218   19.6307 C   0  0  0  0  0  0
    6.3051   55.3926   20.8840 C   0  0  0  0  0  0
    7.7911   56.5659   19.4990 O   0  0  0  0  0  0
    8.4579   56.7149   18.3302 C   0  0  0  0  0  0
    8.2751   55.9615   17.2306 C   0  0  0  0  0  0
    7.2406   54.8332   17.1883 C   0  0  1  0  0  0
    6.4513   55.1916   16.5256 H   0  0  0  0  0  0
    7.7829   53.5458   16.5608 C   0  0  0  0  0  0
    8.9051   52.9141   17.1091 C   0  0  0  0  0  0
    9.4405   51.7852   16.4959 C   0  0  0  0  0  0
    8.8584   51.2904   15.3314 C   0  0  0  0  0  0
    7.7338   51.9043   14.7864 C   0  0  0  0  0  0
    7.1933   53.0289   15.4016 C   0  0  0  0  0  0
    9.6003   49.7561   14.4824 Br  0  0  0  0  0  0
    9.0411   56.2282   16.0532 C   0  0  0  0  0  0
    9.6779   56.4683   15.1167 N   0  0  0  0  0  0
    9.3381   57.7492   18.4817 N   0  0  0  0  0  0
    2.9242   54.0979   27.3899 C   0  0  0  0  0  0
    0.7061   52.9910   21.9805 H   0  0  0  0  0  0
    1.8260   54.2826   22.3505 H   0  0  0  0  0  0
    2.4407   52.6451   22.1184 H   0  0  0  0  0  0
   -0.1520   51.5684   23.7472 H   0  0  0  0  0  0
   -0.4588   51.1438   26.1532 H   0  0  0  0  0  0
    0.9505   52.2976   27.8025 H   0  0  0  0  0  0
    4.7157   53.2966   25.3557 H   0  0  0  0  0  0
    4.9984   55.0348   25.3757 H   0  0  0  0  0  0
    4.4024   52.6544   20.2670 H   0  0  0  0  0  0
    5.4550   52.8817   18.0736 H   0  0  0  0  0  0
    6.5484   56.0970   21.6629 H   0  0  0  0  0  0
    9.3701   53.3042   18.0025 H   0  0  0  0  0  0
   10.3080   51.3005   16.9197 H   0  0  0  0  0  0
    7.2851   51.5096   13.8865 H   0  0  0  0  0  0
    6.3284   53.5031   14.9625 H   0  0  0  0  0  0
    9.9430   58.0226   17.7214 H   0  0  0  0  0  0
    9.5752   58.0674   19.4119 H   0  0  0  0  0  0
    2.3623   54.2023   28.3187 H   0  0  0  0  0  0
    3.8483   53.5598   27.5987 H   0  0  0  0  0  0
    3.1719   55.1085   27.0672 H   0  0  0  0  0  0
  1  2  1  0  0  0
  1 35  1  0  0  0
  1 36  1  0  0  0
  1 37  1  0  0  0
  2  7  2  0  0  0
  2  3  1  0  0  0
  3  4  2  0  0  0
  3 38  1  0  0  0
  4  5  1  0  0  0
  4 39  1  0  0  0
  5  6  2  0  0  0
  5 40  1  0  0  0
  6  7  1  0  0  0
  6 34  1  0  0  0
  7  8  1  0  0  0
  8  9  1  0  0  0
  9 10  1  0  0  0
  9 41  1  0  0  0
  9 42  1  0  0  0
 10 11  2  0  0  0
 10 12  1  0  0  0
 12 13  1  0  0  0
 13 18  2  0  0  0
 13 14  1  0  0  0
 14 15  2  0  0  0
 14 43  1  0  0  0
 15 16  1  0  0  0
 15 44  1  0  0  0
 16 22  1  0  0  0
 16 17  2  0  0  0
 17 18  1  0  0  0
 17 19  1  0  0  0
 18 45  1  0  0  0
 19 20  1  0  0  0
 20 21  2  0  0  0
 20 33  1  0  0  0
 21 22  1  0  0  0
 21 31  1  0  0  0
 22 23  1  0  0  0
 22 24  1  0  0  0
 24 29  2  0  0  0
 24 25  1  0  0  0
 25 26  2  0  0  0
 25 46  1  0  0  0
 26 27  1  0  0  0
 26 47  1  0  0  0
 27 28  2  0  0  0
 27 30  1  0  0  0
 28 29  1  0  0  0
 28 48  1  0  0  0
 29 49  1  0  0  0
 31 32  3  0  0  0
 33 50  1  0  0  0
 33 51  1  0  0  0
 34 52  1  0  0  0
 34 53  1  0  0  0
 34 54  1  0  0  0
M  END
> <i_i_glide_confnum>
10

> <i_i_glide_lignum>
4140

> <i_i_glide_posenum>
107

> <i_i_glide_rotatable_bonds>
7

> <i_m_Source_File_Index>
2274

> <b_m_subgroup_collapsed>
0

> <r_i_docking_score>
-3.65852

> <r_i_glide_ecoul>
-2.18786

> <r_i_glide_eff_state_penalty>
0

> <r_i_glide_einternal>
4.30574

> <r_i_glide_emodel>
-47.2568

> <r_i_glide_energy>
-42.1541

> <r_i_glide_erotb>
0.48051

> <r_i_glide_esite>
0

> <r_i_glide_evdw>
-39.9662

> <r_i_glide_gscore>
-3.65852

> <r_i_glide_hbond>
-0.30998

> <r_i_glide_ligand_efficiency>
-0.110864

> <r_i_glide_ligand_efficiency_ln>
-0.813636

> <r_i_glide_ligand_efficiency_sa>
-0.355601

> <r_i_glide_lipo>
-2.14117

> <r_i_glide_metal>
0

> <r_i_glide_rewards>
0.638611

> <s_i_glide_gridfile>
wee1_glide-grid

> <s_m_Source_File>
wee1_decoys_glide_SP.sdf

> <s_m_Source_Path>
/Users/zhangxujun/Desktop

> <s_m_entry_id>
2549

> <s_m_entry_name>
wee1_decoys_glide_SP.2274

> <s_m_subgroup_title>
wee1_decoys_glide_SP

> <s_m_subgroupid>
wee1_decoys_glide_SP


$$$$
