ZINC67246656_1512
                    3D
 Schrodinger Suite 2024-2.
 43 46  0  0  1  0            999 V2000
    6.6379   55.2227   25.0598 C   0  0  0  0  0  0
    5.4901   54.6233   24.2581 C   0  0  0  0  0  0
    5.2977   54.4966   22.8634 C   0  0  0  0  0  0
    4.1119   53.9523   22.6428 N   0  0  0  0  0  0
    3.5013   53.7012   23.8466 N   0  0  0  0  0  0
    4.3324   54.0940   24.8244 N   0  0  0  0  0  0
    3.9485   53.8675   26.1850 C   0  0  0  0  0  0
    4.9057   53.6965   27.2014 C   0  0  0  0  0  0
    4.5216   53.4092   28.5136 C   0  0  0  0  0  0
    3.1726   53.2737   28.8321 C   0  0  0  0  0  0
    2.2048   53.4161   27.8278 C   0  0  0  0  0  0
    2.5881   53.7221   26.5231 C   0  0  0  0  0  0
    0.8550   53.2963   28.0906 O   0  0  0  0  0  0
    0.5656   52.5326   29.2669 C   0  0  0  0  0  0
    1.4500   53.0174   30.4404 C   0  0  0  0  0  0
    2.8460   52.9043   30.1245 O   0  0  0  0  0  0
    6.2254   54.8967   21.8155 C   0  0  0  0  0  0
    7.3582   55.3001   22.0823 O   0  0  0  0  0  0
    5.7505   54.7909   20.5511 N   0  0  0  0  0  0
    6.6128   54.8538   19.4290 N   0  0  0  0  0  0
    7.1995   56.0686   19.0532 C   0  0  0  0  0  0
    6.4313   57.2226   18.8772 C   0  0  0  0  0  0
    7.0378   58.4083   18.4690 C   0  0  0  0  0  0
    8.4124   58.4420   18.2450 C   0  0  0  0  0  0
    9.1841   57.2962   18.4225 C   0  0  0  0  0  0
    8.5759   56.1085   18.8212 C   0  0  0  0  0  0
    9.0080   59.5999   17.8787 F   0  0  0  0  0  0
    7.1874   55.9778   24.4961 H   0  0  0  0  0  0
    6.2994   55.7282   25.9633 H   0  0  0  0  0  0
    7.3661   54.4637   25.3433 H   0  0  0  0  0  0
    5.9620   53.7271   26.9935 H   0  0  0  0  0  0
    5.2727   53.2585   29.2730 H   0  0  0  0  0  0
    1.8135   53.8271   25.7769 H   0  0  0  0  0  0
    0.7663   51.4766   29.0754 H   0  0  0  0  0  0
   -0.4917   52.6273   29.5143 H   0  0  0  0  0  0
    1.2348   52.4448   31.3440 H   0  0  0  0  0  0
    1.2140   54.0624   30.6509 H   0  0  0  0  0  0
    4.8396   54.4048   20.3430 H   0  0  0  0  0  0
    7.2929   54.1146   19.5349 H   0  0  0  0  0  0
    5.3641   57.1958   19.0374 H   0  0  0  0  0  0
    6.4421   59.2966   18.3203 H   0  0  0  0  0  0
   10.2509   57.3285   18.2584 H   0  0  0  0  0  0
    9.1844   55.2260   18.9575 H   0  0  0  0  0  0
  1  2  1  0  0  0
  1 28  1  0  0  0
  1 29  1  0  0  0
  1 30  1  0  0  0
  2  6  1  0  0  0
  2  3  2  0  0  0
  3  4  1  0  0  0
  3 17  1  0  0  0
  4  5  2  0  0  0
  5  6  1  0  0  0
  6  7  1  0  0  0
  7 12  2  0  0  0
  7  8  1  0  0  0
  8  9  2  0  0  0
  8 31  1  0  0  0
  9 10  1  0  0  0
  9 32  1  0  0  0
 10 16  1  0  0  0
 10 11  2  0  0  0
 11 12  1  0  0  0
 11 13  1  0  0  0
 12 33  1  0  0  0
 13 14  1  0  0  0
 14 15  1  0  0  0
 14 34  1  0  0  0
 14 35  1  0  0  0
 15 16  1  0  0  0
 15 36  1  0  0  0
 15 37  1  0  0  0
 17 18  2  0  0  0
 17 19  1  0  0  0
 19 20  1  0  0  0
 19 38  1  0  0  0
 20 21  1  0  0  0
 20 39  1  0  0  0
 21 26  2  0  0  0
 21 22  1  0  0  0
 22 23  2  0  0  0
 22 40  1  0  0  0
 23 24  1  0  0  0
 23 41  1  0  0  0
 24 25  2  0  0  0
 24 27  1  0  0  0
 25 26  1  0  0  0
 25 42  1  0  0  0
 26 43  1  0  0  0
M  END
> <i_i_glide_confnum>
37

> <i_i_glide_lignum>
1513

> <i_i_glide_posenum>
172

> <i_i_glide_rotatable_bonds>
5

> <i_m_Source_File_Index>
1449

> <b_m_subgroup_collapsed>
0

> <r_i_docking_score>
-5.28111

> <r_i_glide_ecoul>
-1.35045

> <r_i_glide_eff_state_penalty>
0

> <r_i_glide_einternal>
3.53074

> <r_i_glide_emodel>
-54.8277

> <r_i_glide_energy>
-43.023

> <r_i_glide_erotb>
0.565317

> <r_i_glide_esite>
-0.0519957

> <r_i_glide_evdw>
-41.6725

> <r_i_glide_gscore>
-5.28111

> <r_i_glide_hbond>
-0.105066

> <r_i_glide_ligand_efficiency>
-0.195597

> <r_i_glide_ligand_efficiency_ln>
-1.22936

> <r_i_glide_ligand_efficiency_sa>
-0.58679

> <r_i_glide_lipo>
-2.29342

> <r_i_glide_metal>
0

> <r_i_glide_rewards>
-1.10975

> <s_i_glide_gridfile>
wee1_glide-grid

> <s_m_Source_File>
wee1_decoys_glide_SP.sdf

> <s_m_Source_Path>
/Users/zhangxujun/Desktop

> <s_m_entry_id>
1724

> <s_m_entry_name>
wee1_decoys_glide_SP.1449

> <s_m_subgroup_title>
wee1_decoys_glide_SP

> <s_m_subgroupid>
wee1_decoys_glide_SP


$$$$
