ZINC00659974_2031
                    3D
 Schrodinger Suite 2024-2.
 51 53  0  0  1  0            999 V2000
    5.0914   54.2512   28.8909 C   0  0  0  0  0  0
    4.0918   53.9078   27.7870 C   0  0  0  0  0  0
    2.8546   53.3687   28.1572 C   0  0  0  0  0  0
    1.9195   53.0736   27.1657 C   0  0  0  0  0  0
    2.1534   53.2983   25.8527 N   0  0  0  0  0  0
    3.3540   53.8117   25.4822 C   0  0  0  0  0  0
    4.3663   54.1262   26.4184 C   0  0  0  0  0  0
    5.6641   54.6694   26.0026 C   0  0  0  0  0  0
    6.6906   55.1011   25.6813 N   0  0  0  0  0  0
    3.5564   54.0964   23.7359 S   0  0  0  0  0  0
    1.9257   53.9952   22.9286 C   0  0  0  0  0  0
    1.5052   52.6210   22.3815 C   0  0  0  0  0  0
    0.3341   51.9237   22.5129 C   0  0  0  0  0  0
    0.1555   50.5308   21.8408 C   0  0  1  0  0  0
   -0.6811   50.6659   21.1504 H   0  0  0  0  0  0
    1.3641   50.1808   20.9748 C   0  0  0  0  0  0
    2.4113   51.0213   20.8909 C   0  0  0  0  0  0
    2.5163   52.1800   21.5845 O   0  0  0  0  0  0
    3.5042   50.9014   20.0830 N   0  0  0  0  0  0
    1.3544   48.9550   20.2410 C   0  0  0  0  0  0
    1.3266   47.9443   19.6799 N   0  0  0  0  0  0
   -0.3328   49.3973   22.7544 C   0  0  0  0  0  0
   -1.2874   48.4879   22.2833 C   0  0  0  0  0  0
   -1.8660   47.5712   23.1554 C   0  0  0  0  0  0
   -1.4878   47.5601   24.4964 C   0  0  0  0  0  0
   -0.4984   48.4221   24.9621 C   0  0  0  0  0  0
    0.0858   49.3336   24.0895 C   0  0  0  0  0  0
   -2.2794   46.4963   25.5959 Cl  0  0  0  0  0  0
   -0.8307   52.4348   23.2806 C   0  0  0  0  0  0
   -0.7649   53.3560   24.0823 O   0  0  0  0  0  0
   -1.9985   51.8005   23.0043 O   0  0  0  0  0  0
   -3.1991   52.1431   23.6826 C   0  0  0  0  0  0
    0.5745   52.4566   27.4975 C   0  0  0  0  0  0
    4.6397   54.2042   29.8817 H   0  0  0  0  0  0
    5.9457   53.5748   28.8621 H   0  0  0  0  0  0
    5.4733   55.2665   28.7694 H   0  0  0  0  0  0
    2.6204   53.1776   29.1935 H   0  0  0  0  0  0
    1.2002   54.4641   23.5831 H   0  0  0  0  0  0
    2.0025   54.6599   22.0818 H   0  0  0  0  0  0
    3.5761   50.1560   19.4031 H   0  0  0  0  0  0
    4.0648   51.7160   19.8747 H   0  0  0  0  0  0
   -1.6172   48.5220   21.2557 H   0  0  0  0  0  0
   -2.6312   46.8986   22.8002 H   0  0  0  0  0  0
   -0.2126   48.4020   26.0059 H   0  0  0  0  0  0
    0.8276   50.0222   24.4701 H   0  0  0  0  0  0
   -4.0196   51.5226   23.3213 H   0  0  0  0  0  0
   -3.0977   51.9834   24.7569 H   0  0  0  0  0  0
   -3.4616   53.1879   23.5114 H   0  0  0  0  0  0
    0.3141   52.6043   28.5455 H   0  0  0  0  0  0
   -0.2191   52.8958   26.8918 H   0  0  0  0  0  0
    0.5951   51.3841   27.2996 H   0  0  0  0  0  0
  1  2  1  0  0  0
  1 34  1  0  0  0
  1 35  1  0  0  0
  1 36  1  0  0  0
  2  7  2  0  0  0
  2  3  1  0  0  0
  3  4  2  0  0  0
  3 37  1  0  0  0
  4  5  1  0  0  0
  4 33  1  0  0  0
  5  6  2  0  0  0
  6  7  1  0  0  0
  6 10  1  0  0  0
  7  8  1  0  0  0
  8  9  3  0  0  0
 10 11  1  0  0  0
 11 12  1  0  0  0
 11 38  1  0  0  0
 11 39  1  0  0  0
 12 18  1  0  0  0
 12 13  2  0  0  0
 13 14  1  0  0  0
 13 29  1  0  0  0
 14 15  1  0  0  0
 14 16  1  0  0  0
 14 22  1  0  0  0
 16 17  2  0  0  0
 16 20  1  0  0  0
 17 18  1  0  0  0
 17 19  1  0  0  0
 19 40  1  0  0  0
 19 41  1  0  0  0
 20 21  3  0  0  0
 22 27  2  0  0  0
 22 23  1  0  0  0
 23 24  2  0  0  0
 23 42  1  0  0  0
 24 25  1  0  0  0
 24 43  1  0  0  0
 25 26  2  0  0  0
 25 28  1  0  0  0
 26 27  1  0  0  0
 26 44  1  0  0  0
 27 45  1  0  0  0
 29 30  2  0  0  0
 29 31  1  0  0  0
 31 32  1  0  0  0
 32 46  1  0  0  0
 32 47  1  0  0  0
 32 48  1  0  0  0
 33 49  1  0  0  0
 33 50  1  0  0  0
 33 51  1  0  0  0
M  END
> <i_i_glide_confnum>
117

> <i_i_glide_lignum>
2032

> <i_i_glide_posenum>
325

> <i_i_glide_rotatable_bonds>
8

> <i_m_Source_File_Index>
1286

> <b_m_subgroup_collapsed>
0

> <r_i_docking_score>
-5.5303

> <r_i_glide_ecoul>
-4.77647

> <r_i_glide_eff_state_penalty>
0

> <r_i_glide_einternal>
6.23494

> <r_i_glide_emodel>
-62.871

> <r_i_glide_energy>
-49.8637

> <r_i_glide_erotb>
0.46274

> <r_i_glide_esite>
-0.102315

> <r_i_glide_evdw>
-45.0873

> <r_i_glide_gscore>
-5.5303

> <r_i_glide_hbond>
-0.28552

> <r_i_glide_ligand_efficiency>
-0.172822

> <r_i_glide_ligand_efficiency_ln>
-1.23838

> <r_i_glide_ligand_efficiency_sa>
-0.548675

> <r_i_glide_lipo>
-1.95567

> <r_i_glide_metal>
0

> <r_i_glide_rewards>
-0.678703

> <s_i_glide_gridfile>
wee1_glide-grid

> <s_m_Source_File>
wee1_decoys_glide_SP.sdf

> <s_m_Source_Path>
/Users/zhangxujun/Desktop

> <s_m_entry_id>
1561

> <s_m_entry_name>
wee1_decoys_glide_SP.1286

> <s_m_subgroup_title>
wee1_decoys_glide_SP

> <s_m_subgroupid>
wee1_decoys_glide_SP


$$$$
