ZINC02374379_3608
                    3D
 Schrodinger Suite 2024-2.
 44 46  0  0  1  0            999 V2000
    6.7045   55.1176   23.1679 C   0  0  0  0  0  0
    6.6908   55.2660   24.5510 C   0  0  0  0  0  0
    5.6162   54.7793   25.2902 C   0  0  0  0  0  0
    4.5472   54.1557   24.6458 C   0  0  0  0  0  0
    4.5388   54.0154   23.2425 C   0  0  0  0  0  0
    5.6397   54.4967   22.5207 C   0  0  0  0  0  0
    3.3682   53.4009   22.5239 C   0  0  0  0  0  0
    2.1421   53.4184   22.9987 N   0  0  0  0  0  0
    1.3175   52.7761   22.0863 N   0  0  0  0  0  0
    2.0758   52.3631   21.1042 C   0  0  0  0  0  0
    3.3819   52.7601   21.2970 N   0  0  0  0  0  0
    4.4498   52.5520   20.4323 N   0  0  0  0  0  0
    1.4484   51.5639   19.6672 S   0  0  0  0  0  0
    2.5492   50.1146   19.6823 C   0  0  0  0  0  0
    1.7791   48.8101   19.5440 C   0  0  0  0  0  0
    0.9842   48.4957   20.4289 O   0  0  0  0  0  0
    2.0301   48.0991   18.4257 N   0  0  0  0  0  0
    1.4427   46.8970   17.9887 C   0  0  0  0  0  0
    1.7136   46.5207   16.6720 C   0  0  0  0  0  0
    1.1756   45.3426   16.1371 C   0  0  0  0  0  0
    0.3830   44.5228   16.9484 C   0  0  0  0  0  0
    0.1125   44.8706   18.2752 C   0  0  0  0  0  0
    0.6348   46.0651   18.7830 C   0  0  0  0  0  0
   -0.7393   43.9511   19.1524 C   0  0  0  0  0  0
    0.0281   42.9788   19.6483 F   0  0  0  0  0  0
   -1.7190   43.3867   18.4448 F   0  0  0  0  0  0
   -1.2946   44.6033   20.1748 F   0  0  0  0  0  0
    1.4278   44.9378   14.6870 C   0  0  0  0  0  0
    1.9043   43.6938   14.6436 F   0  0  0  0  0  0
    0.2801   44.9807   14.0120 F   0  0  0  0  0  0
    2.2969   45.7464   14.0793 F   0  0  0  0  0  0
    3.5226   53.7019   25.4072 F   0  0  0  0  0  0
    7.5334   55.5023   22.5895 H   0  0  0  0  0  0
    7.5044   55.7700   25.0403 H   0  0  0  0  0  0
    5.6050   54.8867   26.3649 H   0  0  0  0  0  0
    5.6718   54.4489   21.4444 H   0  0  0  0  0  0
    4.6183   51.5697   20.2611 H   0  0  0  0  0  0
    4.3373   53.0808   19.5787 H   0  0  0  0  0  0
    3.1057   50.0490   20.6184 H   0  0  0  0  0  0
    3.2759   50.2303   18.8815 H   0  0  0  0  0  0
    2.7213   48.4958   17.7919 H   0  0  0  0  0  0
    2.3391   47.1579   16.0596 H   0  0  0  0  0  0
   -0.0279   43.6098   16.5395 H   0  0  0  0  0  0
    0.4142   46.3198   19.8063 H   0  0  0  0  0  0
  1  6  2  0  0  0
  1  2  1  0  0  0
  1 33  1  0  0  0
  2  3  2  0  0  0
  2 34  1  0  0  0
  3  4  1  0  0  0
  3 35  1  0  0  0
  4  5  2  0  0  0
  4 32  1  0  0  0
  5  6  1  0  0  0
  5  7  1  0  0  0
  6 36  1  0  0  0
  7 11  1  0  0  0
  7  8  2  0  0  0
  8  9  1  0  0  0
  9 10  2  0  0  0
 10 11  1  0  0  0
 10 13  1  0  0  0
 11 12  1  0  0  0
 12 37  1  0  0  0
 12 38  1  0  0  0
 13 14  1  0  0  0
 14 15  1  0  0  0
 14 39  1  0  0  0
 14 40  1  0  0  0
 15 16  2  0  0  0
 15 17  1  0  0  0
 17 18  1  0  0  0
 17 41  1  0  0  0
 18 23  2  0  0  0
 18 19  1  0  0  0
 19 20  2  0  0  0
 19 42  1  0  0  0
 20 21  1  0  0  0
 20 28  1  0  0  0
 21 22  2  0  0  0
 21 43  1  0  0  0
 22 23  1  0  0  0
 22 24  1  0  0  0
 23 44  1  0  0  0
 24 25  1  0  0  0
 24 26  1  0  0  0
 24 27  1  0  0  0
 28 29  1  0  0  0
 28 30  1  0  0  0
 28 31  1  0  0  0
M  END
> <i_i_glide_confnum>
1

> <i_i_glide_lignum>
3609

> <i_i_glide_posenum>
276

> <i_i_glide_rotatable_bonds>
8

> <i_m_Source_File_Index>
2532

> <b_m_subgroup_collapsed>
0

> <r_i_docking_score>
-4.53096

> <r_i_glide_ecoul>
-5.2135

> <r_i_glide_eff_state_penalty>
0

> <r_i_glide_einternal>
2.50119

> <r_i_glide_emodel>
-52.7413

> <r_i_glide_energy>
-40.196

> <r_i_glide_erotb>
0.529275

> <r_i_glide_esite>
-0.329734

> <r_i_glide_evdw>
-34.9825

> <r_i_glide_gscore>
-4.53096

> <r_i_glide_hbond>
-0.16

> <r_i_glide_ligand_efficiency>
-0.141592

> <r_i_glide_ligand_efficiency_ln>
-1.01461

> <r_i_glide_ligand_efficiency_sa>
-0.449528

> <r_i_glide_lipo>
-1.38639

> <r_i_glide_metal>
0

> <r_i_glide_rewards>
-0.652958

> <s_i_glide_gridfile>
wee1_glide-grid

> <s_m_Source_File>
wee1_decoys_glide_SP.sdf

> <s_m_Source_Path>
/Users/zhangxujun/Desktop

> <s_m_entry_id>
2807

> <s_m_entry_name>
wee1_decoys_glide_SP.2532

> <s_m_subgroup_title>
wee1_decoys_glide_SP

> <s_m_subgroupid>
wee1_decoys_glide_SP


$$$$
