ZINC63384076_294
                    3D
 Schrodinger Suite 2024-2.
 59 63  0  0  1  0            999 V2000
    2.9302   56.5000   16.6429 C   0  0  0  0  0  0
    3.9014   57.4088   17.4072 C   0  0  0  0  0  0
    5.3361   57.1957   16.8592 N   0  3  1  0  0  0
    5.7217   58.4129   15.9760 C   0  0  0  0  0  0
    7.0999   58.1918   15.3297 C   0  0  0  0  0  0
    8.0989   57.9003   16.4280 C   0  0  0  0  0  0
    9.2435   58.4813   16.8117 C   0  0  0  0  0  0
    9.9804   59.6335   16.2731 C   0  0  0  0  0  0
   11.1388   60.0278   16.8380 C   0  0  0  0  0  0
   11.6263   59.2798   17.9905 C   0  0  0  0  0  0
   10.9469   58.2187   18.5016 C   0  0  0  0  0  0
    9.7412   57.8018   17.9264 C   0  0  0  0  0  0
    8.9368   56.8174   18.2712 N   0  3  0  0  0  0
    7.7865   56.7376   17.3415 C   0  0  1  0  0  0
    7.8739   55.7889   16.8068 H   0  0  0  0  0  0
    6.3771   56.8878   17.9787 C   0  0  2  0  0  0
    6.3338   57.7814   18.6089 H   0  0  0  0  0  0
    5.9859   55.5793   18.6964 C   0  0  0  0  0  0
    5.1665   52.4216   18.1879 H   0  0  0  0  0  0
    5.6758   54.4219   18.0704 C   0  0  0  0  0  0
    5.2790   53.2962   18.6935 N   0  0  0  0  0  0
    5.1044   53.2393   20.0386 C   0  0  0  0  0  0
    4.7374   52.1743   20.5397 O   0  0  0  0  0  0
    5.4000   54.4196   20.7218 N   0  0  0  0  0  0
    5.9196   55.5862   20.1605 C   0  0  0  0  0  0
    6.3049   56.5741   20.7973 O   0  0  0  0  0  0
    5.1449   54.4071   22.1321 C   0  0  0  0  0  0
    3.8567   54.0963   22.6078 C   0  0  0  0  0  0
    3.5665   54.1124   23.9732 C   0  0  0  0  0  0
    4.5576   54.4861   24.8811 C   0  0  0  0  0  0
    5.8414   54.8051   24.4339 C   0  0  0  0  0  0
    6.1421   54.7373   23.0694 C   0  0  0  0  0  0
    6.8825   55.2847   25.4218 C   0  0  0  0  0  0
    2.1675   53.7788   24.4552 C   0  0  0  0  0  0
    5.6894   54.2502   16.7973 O   0  5  0  0  0  0
    1.9033   56.6633   16.9725 H   0  0  0  0  0  0
    2.9617   56.6939   15.5693 H   0  0  0  0  0  0
    3.1547   55.4456   16.8014 H   0  0  0  0  0  0
    3.6373   58.4614   17.2809 H   0  0  0  0  0  0
    3.9057   57.1952   18.4790 H   0  0  0  0  0  0
    4.9522   58.5038   15.2064 H   0  0  0  0  0  0
    5.6980   59.2969   16.6187 H   0  0  0  0  0  0
    7.0520   57.3676   14.6172 H   0  0  0  0  0  0
    7.3790   59.0754   14.7535 H   0  0  0  0  0  0
    9.6165   60.1854   15.4179 H   0  0  0  0  0  0
   11.6904   60.8708   16.4467 H   0  0  0  0  0  0
   12.5619   59.5697   18.4472 H   0  0  0  0  0  0
   11.3625   57.6972   19.3512 H   0  0  0  0  0  0
    3.0691   53.8448   21.9098 H   0  0  0  0  0  0
    4.3305   54.5350   25.9372 H   0  0  0  0  0  0
    7.1382   54.9906   22.7349 H   0  0  0  0  0  0
    7.5044   54.4508   25.7365 H   0  0  0  0  0  0
    7.5038   56.0625   24.9699 H   0  0  0  0  0  0
    6.4161   55.7206   26.3057 H   0  0  0  0  0  0
    1.9853   52.7060   24.3686 H   0  0  0  0  0  0
    2.0030   54.0884   25.4880 H   0  0  0  0  0  0
    1.4268   54.2954   23.8439 H   0  0  0  0  0  0
    9.0844   56.1797   19.0497 H   0  0  0  0  0  0
    5.3165   56.3532   16.2933 H   0  0  0  0  0  0
  1  2  1  0  0  0
  1 36  1  0  0  0
  1 37  1  0  0  0
  1 38  1  0  0  0
  2  3  1  0  0  0
  2 39  1  0  0  0
  2 40  1  0  0  0
  3 16  1  0  0  0
  3  4  1  0  0  0
  3 59  1  0  0  0
  4  5  1  0  0  0
  4 41  1  0  0  0
  4 42  1  0  0  0
  5  6  1  0  0  0
  5 43  1  0  0  0
  5 44  1  0  0  0
  6 14  1  0  0  0
  6  7  2  0  0  0
  7 12  1  0  0  0
  7  8  1  0  0  0
  8  9  2  0  0  0
  8 45  1  0  0  0
  9 10  1  0  0  0
  9 46  1  0  0  0
 10 11  2  0  0  0
 10 47  1  0  0  0
 11 12  1  0  0  0
 11 48  1  0  0  0
 12 13  2  0  0  0
 13 14  1  0  0  0
 13 58  1  0  0  0
 14 15  1  0  0  0
 14 16  1  0  0  0
 16 17  1  0  0  0
 16 18  1  0  0  0
 18 25  1  0  0  0
 18 20  2  0  0  0
 19 21  1  0  0  0
 20 35  1  0  0  0
 20 21  1  0  0  0
 21 22  1  0  0  0
 22 23  2  0  0  0
 22 24  1  0  0  0
 24 25  1  0  0  0
 24 27  1  0  0  0
 25 26  2  0  0  0
 27 32  2  0  0  0
 27 28  1  0  0  0
 28 29  2  0  0  0
 28 49  1  0  0  0
 29 30  1  0  0  0
 29 34  1  0  0  0
 30 31  2  0  0  0
 30 50  1  0  0  0
 31 32  1  0  0  0
 31 33  1  0  0  0
 32 51  1  0  0  0
 33 52  1  0  0  0
 33 53  1  0  0  0
 33 54  1  0  0  0
 34 55  1  0  0  0
 34 56  1  0  0  0
 34 57  1  0  0  0
M  CHG  3   3   1  13   1  35  -1
M  END
> <i_i_glide_confnum>
6

> <i_i_glide_lignum>
295

> <i_i_glide_posenum>
254

> <i_i_glide_rotatable_bonds>
3

> <i_m_Source_File_Index>
2055

> <b_m_subgroup_collapsed>
0

> <r_i_docking_score>
-5.61882

> <r_i_glide_ecoul>
-8.00096

> <r_i_glide_eff_state_penalty>
0

> <r_i_glide_einternal>
3.54515

> <r_i_glide_emodel>
-55.3454

> <r_i_glide_energy>
-42.0589

> <r_i_glide_erotb>
0.213648

> <r_i_glide_esite>
-0.120224

> <r_i_glide_evdw>
-34.0579

> <r_i_glide_gscore>
-5.61882

> <r_i_glide_hbond>
-0.205224

> <r_i_glide_ligand_efficiency>
-0.175588

> <r_i_glide_ligand_efficiency_ln>
-1.25821

> <r_i_glide_ligand_efficiency_sa>
-0.557457

> <r_i_glide_lipo>
-1.92165

> <r_i_glide_metal>
0

> <r_i_glide_rewards>
-0.682326

> <s_i_glide_gridfile>
wee1_glide-grid

> <s_m_Source_File>
wee1_decoys_glide_SP.sdf

> <s_m_Source_Path>
/Users/zhangxujun/Desktop

> <s_m_entry_id>
2330

> <s_m_entry_name>
wee1_decoys_glide_SP.2055

> <s_m_subgroup_title>
wee1_decoys_glide_SP

> <s_m_subgroupid>
wee1_decoys_glide_SP


$$$$
