ZINC35749677_942
                    3D
 Schrodinger Suite 2024-2.
 71 74  0  0  1  0            999 V2000
   -5.5296   44.9198   26.0754 C   0  0  0  0  0  0
   -4.6628   46.1467   25.8578 C   0  0  0  0  0  0
   -5.2388   47.3325   25.4009 C   0  0  0  0  0  0
   -4.4524   48.4724   25.2410 C   0  0  0  0  0  0
   -3.0783   48.4355   25.5169 C   0  0  0  0  0  0
   -2.5054   47.2214   25.9267 C   0  0  0  0  0  0
   -3.2954   46.0963   26.1216 C   0  0  0  0  0  0
   -2.2457   49.6932   25.3829 C   0  0  0  0  0  0
   -2.6354   50.6170   24.6659 O   0  0  0  0  0  0
   -1.0897   49.7141   26.0817 N   0  0  0  0  0  0
   -0.0560   50.7658   26.1943 C   0  0  1  0  0  0
    0.8171   50.1862   26.4627 H   0  0  0  0  0  0
    0.2905   51.4749   24.8456 C   0  0  0  0  0  0
    1.3732   52.5743   24.9093 C   0  0  0  0  0  0
    1.3890   53.3474   23.5748 C   0  0  0  0  0  0
    1.7469   52.3564   22.5129 N   0  0  0  0  0  0
    0.8243   51.1840   22.4051 C   0  0  0  0  0  0
    0.8106   50.4919   23.7832 C   0  0  0  0  0  0
    2.8611   52.5234   21.7036 C   0  0  0  0  0  0
    3.1044   51.6318   20.2983 S   0  0  0  0  0  0
    3.7552   53.4718   22.1371 N   0  0  0  0  0  0
    4.8428   54.1272   21.5284 C   0  0  0  0  0  0
    4.8351   54.5118   20.1797 C   0  0  0  0  0  0
    5.8778   55.2831   19.6720 C   0  0  0  0  0  0
    6.9125   55.6845   20.5098 C   0  0  0  0  0  0
    6.9340   55.2964   21.8466 C   0  0  0  0  0  0
    5.9042   54.5043   22.3556 C   0  0  0  0  0  0
    7.9048   56.4580   20.0199 F   0  0  0  0  0  0
   -0.4206   51.7772   27.3183 C   0  0  0  0  0  0
   -1.4553   52.4219   27.1439 O   0  0  0  0  0  0
    0.4075   51.9947   28.3888 N   0  0  0  0  0  0
    1.7469   51.3927   28.5590 C   0  0  0  0  0  0
    2.8035   52.5050   28.3878 C   0  0  0  0  0  0
    2.5734   53.6599   29.3732 C   0  0  0  0  0  0
    1.1151   54.1591   29.3124 C   0  0  0  0  0  0
    0.0585   53.0231   29.4074 C   0  0  2  0  0  0
   -0.8929   53.4807   29.1527 H   0  0  0  0  0  0
   -0.1463   52.4851   30.8368 C   0  0  0  0  0  0
   -4.9471   44.0531   26.3981 H   0  0  0  0  0  0
   -6.2880   45.1242   26.8323 H   0  0  0  0  0  0
   -6.0500   44.6572   25.1531 H   0  0  0  0  0  0
   -6.2972   47.3823   25.1917 H   0  0  0  0  0  0
   -4.9248   49.3880   24.9113 H   0  0  0  0  0  0
   -1.4504   47.1476   26.1562 H   0  0  0  0  0  0
   -2.8417   45.1941   26.5086 H   0  0  0  0  0  0
   -1.0303   49.0032   26.8087 H   0  0  0  0  0  0
   -0.6273   51.9497   24.4948 H   0  0  0  0  0  0
    1.1314   53.2859   25.6996 H   0  0  0  0  0  0
    2.3495   52.1835   25.1918 H   0  0  0  0  0  0
    0.3905   53.7270   23.3524 H   0  0  0  0  0  0
    2.0310   54.2278   23.6420 H   0  0  0  0  0  0
   -0.1677   51.5602   22.1501 H   0  0  0  0  0  0
    1.0807   50.4516   21.6427 H   0  0  0  0  0  0
    1.7663   50.0449   24.0745 H   0  0  0  0  0  0
    0.1407   49.6340   23.7123 H   0  0  0  0  0  0
    3.7116   53.6564   23.1279 H   0  0  0  0  0  0
    4.0062   54.2695   19.5306 H   0  0  0  0  0  0
    5.8697   55.5934   18.6371 H   0  0  0  0  0  0
    7.7480   55.6157   22.4808 H   0  0  0  0  0  0
    5.9217   54.2275   23.3983 H   0  0  0  0  0  0
    1.9494   50.4822   28.0088 H   0  0  0  0  0  0
    1.7791   51.0393   29.5868 H   0  0  0  0  0  0
    2.8034   52.8736   27.3629 H   0  0  0  0  0  0
    3.8024   52.0957   28.5434 H   0  0  0  0  0  0
    3.2627   54.4786   29.1616 H   0  0  0  0  0  0
    2.7976   53.3163   30.3821 H   0  0  0  0  0  0
    0.9745   54.6779   28.3620 H   0  0  0  0  0  0
    0.9383   54.9139   30.0795 H   0  0  0  0  0  0
   -0.4864   53.2771   31.5062 H   0  0  0  0  0  0
    0.7748   52.0997   31.2715 H   0  0  0  0  0  0
   -0.8962   51.6903   30.8707 H   0  0  0  0  0  0
  1  2  1  0  0  0
  1 39  1  0  0  0
  1 40  1  0  0  0
  1 41  1  0  0  0
  2  7  2  0  0  0
  2  3  1  0  0  0
  3  4  2  0  0  0
  3 42  1  0  0  0
  4  5  1  0  0  0
  4 43  1  0  0  0
  5  6  2  0  0  0
  5  8  1  0  0  0
  6  7  1  0  0  0
  6 44  1  0  0  0
  7 45  1  0  0  0
  8  9  2  0  0  0
  8 10  1  0  0  0
 10 11  1  0  0  0
 10 46  1  0  0  0
 11 12  1  0  0  0
 11 13  1  0  0  0
 11 29  1  0  0  0
 13 18  1  0  0  0
 13 14  1  0  0  0
 13 47  1  0  0  0
 14 15  1  0  0  0
 14 48  1  0  0  0
 14 49  1  0  0  0
 15 16  1  0  0  0
 15 50  1  0  0  0
 15 51  1  0  0  0
 16 17  1  0  0  0
 16 19  1  0  0  0
 17 18  1  0  0  0
 17 52  1  0  0  0
 17 53  1  0  0  0
 18 54  1  0  0  0
 18 55  1  0  0  0
 19 20  2  0  0  0
 19 21  1  0  0  0
 21 22  1  0  0  0
 21 56  1  0  0  0
 22 27  2  0  0  0
 22 23  1  0  0  0
 23 24  2  0  0  0
 23 57  1  0  0  0
 24 25  1  0  0  0
 24 58  1  0  0  0
 25 26  2  0  0  0
 25 28  1  0  0  0
 26 27  1  0  0  0
 26 59  1  0  0  0
 27 60  1  0  0  0
 29 30  2  0  0  0
 29 31  1  0  0  0
 31 36  1  0  0  0
 31 32  1  0  0  0
 32 33  1  0  0  0
 32 61  1  0  0  0
 32 62  1  0  0  0
 33 34  1  0  0  0
 33 63  1  0  0  0
 33 64  1  0  0  0
 34 35  1  0  0  0
 34 65  1  0  0  0
 34 66  1  0  0  0
 35 36  1  0  0  0
 35 67  1  0  0  0
 35 68  1  0  0  0
 36 37  1  0  0  0
 36 38  1  0  0  0
 38 69  1  0  0  0
 38 70  1  0  0  0
 38 71  1  0  0  0
M  END
> <i_i_glide_confnum>
344

> <i_i_glide_lignum>
943

> <i_i_glide_posenum>
86

> <i_i_glide_rotatable_bonds>
9

> <i_m_Source_File_Index>
4646

> <b_m_subgroup_collapsed>
0

> <r_i_docking_score>
-4.47514

> <r_i_glide_ecoul>
-4.05712

> <r_i_glide_eff_state_penalty>
0

> <r_i_glide_einternal>
17.3649

> <r_i_glide_emodel>
-48.1954

> <r_i_glide_energy>
-45.0319

> <r_i_glide_erotb>
0.707075

> <r_i_glide_esite>
-0.232407

> <r_i_glide_evdw>
-40.9748

> <r_i_glide_gscore>
-4.47514

> <r_i_glide_hbond>
-0.16

> <r_i_glide_ligand_efficiency>
-0.12431

> <r_i_glide_ligand_efficiency_ln>
-0.976355

> <r_i_glide_ligand_efficiency_sa>
-0.410461

> <r_i_glide_lipo>
-1.90336

> <r_i_glide_metal>
0

> <r_i_glide_rewards>
-0.229149

> <s_i_glide_gridfile>
wee1_glide-grid

> <s_m_Source_File>
wee1_decoys_glide_SP.sdf

> <s_m_Source_Path>
/Users/zhangxujun/Desktop

> <s_m_entry_id>
4921

> <s_m_entry_name>
wee1_decoys_glide_SP.4646

> <s_m_subgroup_title>
wee1_decoys_glide_SP

> <s_m_subgroupid>
wee1_decoys_glide_SP


$$$$
