ZINC44441349_2828
                    3D
 Schrodinger Suite 2024-2.
 53 57  0  0  1  0            999 V2000
    1.3386   46.6946   17.6952 C   0  0  0  0  0  0
    0.6387   47.2379   19.2815 S   0  0  0  0  0  0
    1.3741   48.8053   19.6347 C   0  0  0  0  0  0
    1.6543   49.1514   20.9563 C   0  0  0  0  0  0
    2.3055   50.3472   21.2384 C   0  0  0  0  0  0
    2.6659   51.2041   20.1985 C   0  0  0  0  0  0
    2.3093   50.8903   18.8785 C   0  0  0  0  0  0
    1.6795   49.6840   18.5976 C   0  0  0  0  0  0
    3.3331   52.3832   20.5612 N   0  0  0  0  0  0
    4.1339   53.1654   19.8044 C   0  0  0  0  0  0
    4.4919   52.8968   18.6611 O   0  0  0  0  0  0
    4.5168   54.5259   20.4119 C   0  0  2  0  0  0
    3.5045   54.8968   20.4599 H   0  0  0  0  0  0
    5.4044   55.4113   19.4722 C   0  0  0  0  0  0
    6.9133   55.1336   19.6380 C   0  0  0  0  0  0
    7.4316   55.4211   21.0670 C   0  0  0  0  0  0
    6.4330   54.8969   22.0866 C   0  0  0  0  0  0
    5.1174   54.4959   21.8229 C   0  0  0  0  0  0
    4.4063   54.1491   22.8853 N   0  0  0  0  0  0
    5.0585   54.3293   24.0064 C   0  0  0  0  0  0
    6.7044   54.8602   23.8024 S   0  0  0  0  0  0
    4.4454   54.0896   25.2290 N   0  0  0  0  0  0
    4.9661   54.2141   26.4706 C   0  0  0  0  0  0
    6.1004   54.6299   26.7204 O   0  0  0  0  0  0
    4.0633   53.7515   27.5944 C   0  0  0  0  0  0
    4.6448   53.2935   28.7978 C   0  0  0  0  0  0
    3.8604   52.8050   29.8522 C   0  0  0  0  0  0
    2.4850   52.7886   29.6754 C   0  0  0  0  0  0
    1.9017   53.2430   28.5288 C   0  0  0  0  0  0
    2.6543   53.7388   27.4682 C   0  0  0  0  0  0
    0.5504   53.1446   28.6471 O   0  0  0  0  0  0
    0.3325   52.3767   29.8028 C   0  0  0  0  0  0
    1.5233   52.3833   30.5442 O   0  0  0  0  0  0
    1.1306   45.6368   17.5343 H   0  0  0  0  0  0
    0.9026   47.2572   16.8695 H   0  0  0  0  0  0
    2.4197   46.8446   17.6831 H   0  0  0  0  0  0
    1.3934   48.4968   21.7704 H   0  0  0  0  0  0
    2.5436   50.5884   22.2645 H   0  0  0  0  0  0
    2.5545   51.5448   18.0562 H   0  0  0  0  0  0
    1.4582   49.4370   17.5705 H   0  0  0  0  0  0
    3.2080   52.6703   21.5187 H   0  0  0  0  0  0
    5.2231   56.4653   19.6818 H   0  0  0  0  0  0
    5.1175   55.3036   18.4241 H   0  0  0  0  0  0
    7.4810   55.7311   18.9230 H   0  0  0  0  0  0
    7.1121   54.0968   19.3658 H   0  0  0  0  0  0
    7.5415   56.4965   21.1928 H   0  0  0  0  0  0
    8.4198   54.9822   21.2082 H   0  0  0  0  0  0
    3.5024   53.7391   25.1759 H   0  0  0  0  0  0
    5.7206   53.2968   28.9094 H   0  0  0  0  0  0
    4.3093   52.4494   30.7666 H   0  0  0  0  0  0
    2.1543   54.0961   26.5803 H   0  0  0  0  0  0
   -0.4929   52.7749   30.3952 H   0  0  0  0  0  0
    0.0881   51.3514   29.5135 H   0  0  0  0  0  0
  1  2  1  0  0  0
  1 34  1  0  0  0
  1 35  1  0  0  0
  1 36  1  0  0  0
  2  3  1  0  0  0
  3  8  2  0  0  0
  3  4  1  0  0  0
  4  5  2  0  0  0
  4 37  1  0  0  0
  5  6  1  0  0  0
  5 38  1  0  0  0
  6  7  2  0  0  0
  6  9  1  0  0  0
  7  8  1  0  0  0
  7 39  1  0  0  0
  8 40  1  0  0  0
  9 10  1  0  0  0
  9 41  1  0  0  0
 10 11  2  0  0  0
 10 12  1  0  0  0
 12 13  1  0  0  0
 12 18  1  0  0  0
 12 14  1  0  0  0
 14 15  1  0  0  0
 14 42  1  0  0  0
 14 43  1  0  0  0
 15 16  1  0  0  0
 15 44  1  0  0  0
 15 45  1  0  0  0
 16 17  1  0  0  0
 16 46  1  0  0  0
 16 47  1  0  0  0
 17 21  1  0  0  0
 17 18  2  0  0  0
 18 19  1  0  0  0
 19 20  2  0  0  0
 20 21  1  0  0  0
 20 22  1  0  0  0
 22 23  1  0  0  0
 22 48  1  0  0  0
 23 24  2  0  0  0
 23 25  1  0  0  0
 25 30  2  0  0  0
 25 26  1  0  0  0
 26 27  2  0  0  0
 26 49  1  0  0  0
 27 28  1  0  0  0
 27 50  1  0  0  0
 28 33  1  0  0  0
 28 29  2  0  0  0
 29 30  1  0  0  0
 29 31  1  0  0  0
 30 51  1  0  0  0
 31 32  1  0  0  0
 32 33  1  0  0  0
 32 52  1  0  0  0
 32 53  1  0  0  0
M  END
> <i_i_glide_confnum>
65

> <i_i_glide_lignum>
2829

> <i_i_glide_posenum>
188

> <i_i_glide_rotatable_bonds>
7

> <i_m_Source_File_Index>
1527

> <b_m_subgroup_collapsed>
0

> <r_i_docking_score>
-5.25884

> <r_i_glide_ecoul>
-0.970437

> <r_i_glide_eff_state_penalty>
0

> <r_i_glide_einternal>
1.89792

> <r_i_glide_emodel>
-66.9286

> <r_i_glide_energy>
-50.4018

> <r_i_glide_erotb>
0.553941

> <r_i_glide_esite>
-0.0342028

> <r_i_glide_evdw>
-49.4314

> <r_i_glide_gscore>
-5.25884

> <r_i_glide_hbond>
0

> <r_i_glide_ligand_efficiency>
-0.164339

> <r_i_glide_ligand_efficiency_ln>
-1.1776

> <r_i_glide_ligand_efficiency_sa>
-0.521743

> <r_i_glide_lipo>
-2.57036

> <r_i_glide_metal>
0

> <r_i_glide_rewards>
-0.591076

> <s_i_glide_gridfile>
wee1_glide-grid

> <s_m_Source_File>
wee1_decoys_glide_SP.sdf

> <s_m_Source_Path>
/Users/zhangxujun/Desktop

> <s_m_entry_id>
1802

> <s_m_entry_name>
wee1_decoys_glide_SP.1527

> <s_m_subgroup_title>
wee1_decoys_glide_SP

> <s_m_subgroupid>
wee1_decoys_glide_SP


$$$$
