ZINC44020728_4584
                    3D
 Schrodinger Suite 2024-2.
 61 62  0  0  1  0            999 V2000
   -4.6405   44.0366   21.8267 C   0  0  0  0  0  0
   -4.1993   45.4098   21.2853 C   0  0  0  0  0  0
   -5.1537   45.9228   20.1956 C   0  0  0  0  0  0
   -4.0602   46.4048   22.3473 N   0  0  0  0  0  0
   -3.0423   46.4975   23.2250 C   0  0  0  0  0  0
   -2.0956   45.7060   23.2539 O   0  0  0  0  0  0
   -3.1846   47.6339   24.1695 C   0  0  0  0  0  0
   -4.2756   48.1817   24.3737 O   0  0  0  0  0  0
   -2.0178   47.9912   24.7620 N   0  0  0  0  0  0
   -1.9995   49.0468   25.6817 N   0  0  0  0  0  0
   -1.9940   50.3365   25.2701 C   0  0  0  0  0  0
   -1.7536   50.6532   24.0991 O   0  0  0  0  0  0
   -2.1550   51.4387   26.3787 C   0  0  0  0  0  0
   -3.2774   51.0115   27.3983 C   0  0  0  0  0  0
   -4.6904   50.8698   26.7818 C   0  0  0  0  0  0
   -5.1291   52.1575   26.0544 C   0  0  0  0  0  0
   -4.0711   52.6600   25.0515 C   0  0  0  0  0  0
   -2.6735   52.7663   25.7110 C   0  0  0  0  0  0
   -0.7813   51.7463   27.0415 C   0  0  0  0  0  0
   -0.6065   51.7010   28.4327 C   0  0  0  0  0  0
    0.5822   52.1252   29.0180 C   0  0  0  0  0  0
    1.6458   52.5935   28.2355 C   0  0  0  0  0  0
    1.4979   52.5738   26.8412 C   0  0  0  0  0  0
    0.3053   52.1563   26.2561 C   0  0  0  0  0  0
    2.9290   53.1291   28.9223 C   0  0  0  0  0  0
    2.6008   54.4632   29.6289 C   0  0  0  0  0  0
    4.0924   53.4000   27.9304 C   0  0  0  0  0  0
    3.4506   52.1177   29.9732 C   0  0  0  0  0  0
   -4.7986   43.3307   21.0120 H   0  0  0  0  0  0
   -3.8905   43.5966   22.4814 H   0  0  0  0  0  0
   -5.5858   44.1053   22.3667 H   0  0  0  0  0  0
   -3.2218   45.2864   20.8100 H   0  0  0  0  0  0
   -5.2755   45.1825   19.4038 H   0  0  0  0  0  0
   -6.1506   46.1187   20.5930 H   0  0  0  0  0  0
   -4.7759   46.8303   19.7242 H   0  0  0  0  0  0
   -4.7937   47.0949   22.4260 H   0  0  0  0  0  0
   -1.1115   47.5828   24.5838 H   0  0  0  0  0  0
   -2.0845   48.7486   26.6518 H   0  0  0  0  0  0
   -2.9980   50.1139   27.9538 H   0  0  0  0  0  0
   -3.3618   51.7770   28.1694 H   0  0  0  0  0  0
   -4.7170   50.0310   26.0882 H   0  0  0  0  0  0
   -5.4103   50.6253   27.5637 H   0  0  0  0  0  0
   -6.0773   51.9902   25.5417 H   0  0  0  0  0  0
   -5.3190   52.9373   26.7936 H   0  0  0  0  0  0
   -4.0380   51.9918   24.1902 H   0  0  0  0  0  0
   -4.3689   53.6328   24.6580 H   0  0  0  0  0  0
   -2.7418   53.5347   26.4821 H   0  0  0  0  0  0
   -1.9483   53.1776   25.0062 H   0  0  0  0  0  0
   -1.3906   51.3657   29.0943 H   0  0  0  0  0  0
    0.6506   52.1117   30.0957 H   0  0  0  0  0  0
    2.2868   52.9058   26.1848 H   0  0  0  0  0  0
    0.2169   52.1924   25.1799 H   0  0  0  0  0  0
    3.4935   54.8924   30.0825 H   0  0  0  0  0  0
    1.8541   54.3392   30.4154 H   0  0  0  0  0  0
    2.2114   55.2012   28.9252 H   0  0  0  0  0  0
    4.3682   52.5053   27.3727 H   0  0  0  0  0  0
    3.8414   54.1791   27.2092 H   0  0  0  0  0  0
    4.9912   53.7382   28.4485 H   0  0  0  0  0  0
    3.6288   51.1437   29.5209 H   0  0  0  0  0  0
    4.3905   52.4460   30.4169 H   0  0  0  0  0  0
    2.7545   51.9798   30.8007 H   0  0  0  0  0  0
  1  2  1  0  0  0
  1 29  1  0  0  0
  1 30  1  0  0  0
  1 31  1  0  0  0
  2  3  1  0  0  0
  2  4  1  0  0  0
  2 32  1  0  0  0
  3 33  1  0  0  0
  3 34  1  0  0  0
  3 35  1  0  0  0
  4  5  1  0  0  0
  4 36  1  0  0  0
  5  6  2  0  0  0
  5  7  1  0  0  0
  7  8  2  0  0  0
  7  9  1  0  0  0
  9 10  1  0  0  0
  9 37  1  0  0  0
 10 11  1  0  0  0
 10 38  1  0  0  0
 11 12  2  0  0  0
 11 13  1  0  0  0
 13 18  1  0  0  0
 13 14  1  0  0  0
 13 19  1  0  0  0
 14 15  1  0  0  0
 14 39  1  0  0  0
 14 40  1  0  0  0
 15 16  1  0  0  0
 15 41  1  0  0  0
 15 42  1  0  0  0
 16 17  1  0  0  0
 16 43  1  0  0  0
 16 44  1  0  0  0
 17 18  1  0  0  0
 17 45  1  0  0  0
 17 46  1  0  0  0
 18 47  1  0  0  0
 18 48  1  0  0  0
 19 24  2  0  0  0
 19 20  1  0  0  0
 20 21  2  0  0  0
 20 49  1  0  0  0
 21 22  1  0  0  0
 21 50  1  0  0  0
 22 23  2  0  0  0
 22 25  1  0  0  0
 23 24  1  0  0  0
 23 51  1  0  0  0
 24 52  1  0  0  0
 25 26  1  0  0  0
 25 27  1  0  0  0
 25 28  1  0  0  0
 26 53  1  0  0  0
 26 54  1  0  0  0
 26 55  1  0  0  0
 27 56  1  0  0  0
 27 57  1  0  0  0
 27 58  1  0  0  0
 28 59  1  0  0  0
 28 60  1  0  0  0
 28 61  1  0  0  0
M  END
> <i_i_glide_confnum>
57

> <i_i_glide_lignum>
4585

> <i_i_glide_posenum>
390

> <i_i_glide_rotatable_bonds>
9

> <i_m_Source_File_Index>
4676

> <b_m_subgroup_collapsed>
0

> <r_i_docking_score>
-3.61624

> <r_i_glide_ecoul>
-4.79649

> <r_i_glide_eff_state_penalty>
0

> <r_i_glide_einternal>
10.0729

> <r_i_glide_emodel>
-38.0339

> <r_i_glide_energy>
-30.763

> <r_i_glide_erotb>
0.907792

> <r_i_glide_esite>
-0.241252

> <r_i_glide_evdw>
-25.9665

> <r_i_glide_gscore>
-3.61624

> <r_i_glide_hbond>
-0.216449

> <r_i_glide_ligand_efficiency>
-0.129151

> <r_i_glide_ligand_efficiency_ln>
-0.834734

> <r_i_glide_ligand_efficiency_sa>
-0.39218

> <r_i_glide_lipo>
-1.2816

> <r_i_glide_metal>
0

> <r_i_glide_rewards>
-0.766932

> <s_i_glide_gridfile>
wee1_glide-grid

> <s_m_Source_File>
wee1_decoys_glide_SP.sdf

> <s_m_Source_Path>
/Users/zhangxujun/Desktop

> <s_m_entry_id>
4951

> <s_m_entry_name>
wee1_decoys_glide_SP.4676

> <s_m_subgroup_title>
wee1_decoys_glide_SP

> <s_m_subgroupid>
wee1_decoys_glide_SP


$$$$
