ZINC31854400_4578
                    3D
 Schrodinger Suite 2024-2.
 44 46  0  0  1  0            999 V2000
    1.0324   52.1609   26.1888 C   0  0  0  0  0  0
    0.9984   52.4960   27.6665 C   0  0  0  0  0  0
    1.8274   53.3344   28.4453 C   0  0  0  0  0  0
    1.2165   53.3213   30.0889 S   0  0  0  0  0  0
   -0.0032   52.2096   29.5901 C   0  0  0  0  0  0
    0.0200   51.9003   28.3249 N   0  0  0  0  0  0
   -0.8956   51.6967   30.4817 N   0  0  0  0  0  0
    2.9849   54.1493   28.1282 C   0  0  0  0  0  0
    3.5048   54.8576   28.9978 O   0  0  0  0  0  0
    3.4301   54.0677   26.8553 N   0  0  0  0  0  0
    4.5156   54.7568   26.4287 N   0  0  0  0  0  0
    4.8361   54.7161   25.1898 C   0  0  0  0  0  0
    4.1357   54.1543   24.0058 C   0  0  0  0  0  0
    2.7326   54.0863   23.9487 C   0  0  0  0  0  0
    2.0769   53.4762   22.8818 C   0  0  0  0  0  0
    2.8104   52.9334   21.8333 C   0  0  0  0  0  0
    4.1960   53.0504   21.8324 C   0  0  0  0  0  0
    4.8606   53.6967   22.8783 C   0  0  0  0  0  0
    6.2304   53.7886   22.7612 O   0  0  0  0  0  0
    6.7942   55.0773   22.4813 C   0  0  0  0  0  0
    6.9607   55.3832   20.9941 C   0  0  0  0  0  0
    8.2304   55.6964   20.4932 C   0  0  0  0  0  0
    8.3986   56.0000   19.1458 C   0  0  0  0  0  0
    7.2933   56.0073   18.2987 C   0  0  0  0  0  0
    6.0228   55.7156   18.7897 C   0  0  0  0  0  0
    5.8586   55.4065   20.1371 C   0  0  0  0  0  0
    2.0406   52.1055   25.7886 H   0  0  0  0  0  0
    0.5841   51.1899   25.9688 H   0  0  0  0  0  0
    0.4813   52.8952   25.6025 H   0  0  0  0  0  0
   -1.5379   50.9655   30.1999 H   0  0  0  0  0  0
   -0.8956   51.8798   31.4881 H   0  0  0  0  0  0
    2.9753   53.4864   26.1682 H   0  0  0  0  0  0
    5.7854   55.1729   24.9369 H   0  0  0  0  0  0
    2.1201   54.4988   24.7349 H   0  0  0  0  0  0
    0.9985   53.4202   22.8684 H   0  0  0  0  0  0
    2.3057   52.4538   21.0070 H   0  0  0  0  0  0
    4.7616   52.6593   20.9985 H   0  0  0  0  0  0
    6.3045   55.9105   22.9744 H   0  0  0  0  0  0
    7.7847   55.0459   22.9128 H   0  0  0  0  0  0
    9.0952   55.6971   21.1422 H   0  0  0  0  0  0
    9.3832   56.2283   18.7628 H   0  0  0  0  0  0
    7.4216   56.2455   17.2528 H   0  0  0  0  0  0
    5.1677   55.7323   18.1292 H   0  0  0  0  0  0
    4.8668   55.2032   20.5083 H   0  0  0  0  0  0
  1  2  1  0  0  0
  1 27  1  0  0  0
  1 28  1  0  0  0
  1 29  1  0  0  0
  2  6  1  0  0  0
  2  3  2  0  0  0
  3  4  1  0  0  0
  3  8  1  0  0  0
  4  5  1  0  0  0
  5  6  2  0  0  0
  5  7  1  0  0  0
  7 30  1  0  0  0
  7 31  1  0  0  0
  8  9  2  0  0  0
  8 10  1  0  0  0
 10 11  1  0  0  0
 10 32  1  0  0  0
 11 12  2  0  0  0
 12 13  1  0  0  0
 12 33  1  0  0  0
 13 18  2  0  0  0
 13 14  1  0  0  0
 14 15  2  0  0  0
 14 34  1  0  0  0
 15 16  1  0  0  0
 15 35  1  0  0  0
 16 17  2  0  0  0
 16 36  1  0  0  0
 17 18  1  0  0  0
 17 37  1  0  0  0
 18 19  1  0  0  0
 19 20  1  0  0  0
 20 21  1  0  0  0
 20 38  1  0  0  0
 20 39  1  0  0  0
 21 26  2  0  0  0
 21 22  1  0  0  0
 22 23  2  0  0  0
 22 40  1  0  0  0
 23 24  1  0  0  0
 23 41  1  0  0  0
 24 25  2  0  0  0
 24 42  1  0  0  0
 25 26  1  0  0  0
 25 43  1  0  0  0
 26 44  1  0  0  0
M  END
> <i_i_glide_confnum>
103

> <i_i_glide_lignum>
4579

> <i_i_glide_posenum>
300

> <i_i_glide_rotatable_bonds>
7

> <i_m_Source_File_Index>
4461

> <b_m_subgroup_collapsed>
0

> <r_i_docking_score>
-6.14354

> <r_i_glide_ecoul>
-6.91372

> <r_i_glide_eff_state_penalty>
0

> <r_i_glide_einternal>
11.8771

> <r_i_glide_emodel>
-58.8343

> <r_i_glide_energy>
-45.3585

> <r_i_glide_erotb>
1.00339

> <r_i_glide_esite>
-0.0947184

> <r_i_glide_evdw>
-38.4448

> <r_i_glide_gscore>
-6.14354

> <r_i_glide_hbond>
-0.16

> <r_i_glide_ligand_efficiency>
-0.23629

> <r_i_glide_ligand_efficiency_ln>
-1.44279

> <r_i_glide_ligand_efficiency_sa>
-0.700008

> <r_i_glide_lipo>
-2.34422

> <r_i_glide_metal>
0

> <r_i_glide_rewards>
-1.58869

> <s_i_glide_gridfile>
wee1_glide-grid

> <s_m_Source_File>
wee1_decoys_glide_SP.sdf

> <s_m_Source_Path>
/Users/zhangxujun/Desktop

> <s_m_entry_id>
4736

> <s_m_entry_name>
wee1_decoys_glide_SP.4461

> <s_m_subgroup_title>
wee1_decoys_glide_SP

> <s_m_subgroupid>
wee1_decoys_glide_SP


$$$$
