ZINC12465906_906
                    3D
 Schrodinger Suite 2024-2.
 56 60  0  0  1  0            999 V2000
    0.9902   55.0863   30.4836 C   0  0  0  0  0  0
    0.2038   53.8998   30.4597 O   0  0  0  0  0  0
    0.1425   53.1500   29.3011 C   0  0  0  0  0  0
   -0.7372   52.0704   29.2908 C   0  0  0  0  0  0
   -0.9179   51.2998   28.1419 C   0  0  0  0  0  0
   -0.1781   51.5524   26.9771 C   0  0  0  0  0  0
    0.7229   52.6290   26.9972 C   0  0  0  0  0  0
    0.8868   53.4110   28.1442 C   0  0  0  0  0  0
    1.5707   52.9264   25.9334 N   0  0  0  0  0  0
    1.2633   53.1652   24.6390 C   0  0  0  0  0  0
    0.1359   53.1170   24.1425 O   0  0  0  0  0  0
    2.4261   53.5265   23.8618 C   0  0  0  0  0  0
    2.4814   53.7574   22.4816 C   0  0  0  0  0  0
    3.7930   54.0973   22.1829 C   0  0  0  0  0  0
    4.4437   54.0765   23.3934 N   0  0  0  0  0  0
    3.6208   53.7070   24.3753 N   0  0  0  0  0  0
    5.8745   54.2061   23.6270 C   0  0  1  0  0  0
    6.2942   53.2042   23.5471 H   0  0  0  0  0  0
    6.4532   55.0367   22.4561 C   0  0  0  0  0  0
    5.9045   54.6709   21.0409 C   0  0  1  0  0  0
    6.2665   53.6979   20.7373 H   0  0  0  0  0  0
    4.4404   54.4967   21.0292 N   0  0  0  0  0  0
    6.5023   55.5777   19.9507 C   0  0  0  0  0  0
    7.9071   55.6841   19.8343 C   0  0  0  0  0  0
    8.5034   56.5038   18.8672 C   0  0  0  0  0  0
    7.6614   57.2164   18.0223 C   0  0  0  0  0  0
    6.3041   57.1112   18.1084 C   0  0  0  0  0  0
    5.6895   56.2931   19.0488 C   0  0  0  0  0  0
    5.7285   57.8733   17.1433 O   0  0  0  0  0  0
    6.7719   58.6097   16.5606 C   0  0  0  0  0  0
    7.9851   58.0561   17.0040 O   0  0  0  0  0  0
    6.2090   54.7360   25.0491 C   0  0  0  0  0  0
    7.5044   54.8968   25.2037 F   0  0  0  0  0  0
    5.6576   55.9234   25.2818 F   0  0  0  0  0  0
    5.8252   53.9137   26.0264 F   0  0  0  0  0  0
   -0.2614   50.7879   25.8260 O   0  0  0  0  0  0
   -0.9808   49.5618   25.8374 C   0  0  0  0  0  0
    0.8053   55.6149   31.4176 H   0  0  0  0  0  0
    0.7376   55.7687   29.6712 H   0  0  0  0  0  0
    2.0546   54.8548   30.4435 H   0  0  0  0  0  0
   -1.2956   51.8307   30.1842 H   0  0  0  0  0  0
   -1.6342   50.4967   28.1848 H   0  0  0  0  0  0
    1.5950   54.2254   28.1252 H   0  0  0  0  0  0
    2.5347   53.0881   26.1826 H   0  0  0  0  0  0
    1.6597   53.6968   21.7822 H   0  0  0  0  0  0
    6.3044   56.0968   22.6437 H   0  0  0  0  0  0
    7.5375   54.9343   22.4818 H   0  0  0  0  0  0
    4.1046   54.1513   20.1406 H   0  0  0  0  0  0
    8.5551   55.1240   20.4919 H   0  0  0  0  0  0
    9.5793   56.5715   18.7907 H   0  0  0  0  0  0
    4.6148   56.2162   19.0733 H   0  0  0  0  0  0
    6.7040   59.6514   16.8818 H   0  0  0  0  0  0
    6.7042   58.5583   15.4738 H   0  0  0  0  0  0
   -0.9873   49.1464   24.8300 H   0  0  0  0  0  0
   -0.4916   48.8317   26.4816 H   0  0  0  0  0  0
   -2.0198   49.6885   26.1439 H   0  0  0  0  0  0
  1  2  1  0  0  0
  1 38  1  0  0  0
  1 39  1  0  0  0
  1 40  1  0  0  0
  2  3  1  0  0  0
  3  8  2  0  0  0
  3  4  1  0  0  0
  4  5  2  0  0  0
  4 41  1  0  0  0
  5  6  1  0  0  0
  5 42  1  0  0  0
  6  7  2  0  0  0
  6 36  1  0  0  0
  7  8  1  0  0  0
  7  9  1  0  0  0
  8 43  1  0  0  0
  9 10  1  0  0  0
  9 44  1  0  0  0
 10 11  2  0  0  0
 10 12  1  0  0  0
 12 16  2  0  0  0
 12 13  1  0  0  0
 13 14  2  0  0  0
 13 45  1  0  0  0
 14 22  1  0  0  0
 14 15  1  0  0  0
 15 16  1  0  0  0
 15 17  1  0  0  0
 17 18  1  0  0  0
 17 19  1  0  0  0
 17 32  1  0  0  0
 19 20  1  0  0  0
 19 46  1  0  0  0
 19 47  1  0  0  0
 20 21  1  0  0  0
 20 22  1  0  0  0
 20 23  1  0  0  0
 22 48  1  0  0  0
 23 28  2  0  0  0
 23 24  1  0  0  0
 24 25  2  0  0  0
 24 49  1  0  0  0
 25 26  1  0  0  0
 25 50  1  0  0  0
 26 31  1  0  0  0
 26 27  2  0  0  0
 27 28  1  0  0  0
 27 29  1  0  0  0
 28 51  1  0  0  0
 29 30  1  0  0  0
 30 31  1  0  0  0
 30 52  1  0  0  0
 30 53  1  0  0  0
 32 33  1  0  0  0
 32 34  1  0  0  0
 32 35  1  0  0  0
 36 37  1  0  0  0
 37 54  1  0  0  0
 37 55  1  0  0  0
 37 56  1  0  0  0
M  END
> <i_i_glide_confnum>
46

> <i_i_glide_lignum>
907

> <i_i_glide_posenum>
46

> <i_i_glide_rotatable_bonds>
7

> <i_m_Source_File_Index>
5752

> <b_m_subgroup_collapsed>
0

> <r_i_docking_score>
-6.26031

> <r_i_glide_ecoul>
-5.32138

> <r_i_glide_eff_state_penalty>
0

> <r_i_glide_einternal>
5.81312

> <r_i_glide_emodel>
-57.0401

> <r_i_glide_energy>
-43.3497

> <r_i_glide_erotb>
0.338437

> <r_i_glide_esite>
-0.132562

> <r_i_glide_evdw>
-38.0284

> <r_i_glide_gscore>
-6.26031

> <r_i_glide_hbond>
0

> <r_i_glide_ligand_efficiency>
-0.178866

> <r_i_glide_ligand_efficiency_ln>
-1.37428

> <r_i_glide_ligand_efficiency_sa>
-0.585082

> <r_i_glide_lipo>
-2.4715

> <r_i_glide_metal>
0

> <r_i_glide_rewards>
-1.29506

> <s_i_glide_gridfile>
wee1_glide-grid

> <s_m_Source_File>
wee1_decoys_glide_SP.sdf

> <s_m_Source_Path>
/Users/zhangxujun/Desktop

> <s_m_entry_id>
6027

> <s_m_entry_name>
wee1_decoys_glide_SP.5752

> <s_m_subgroup_title>
wee1_decoys_glide_SP

> <s_m_subgroupid>
wee1_decoys_glide_SP


$$$$
