ZINC39684891_1293
                    3D
 Schrodinger Suite 2024-2.
 66 69  0  0  1  0            999 V2000
    5.1197   53.1708   28.5846 C   0  0  0  0  0  0
    3.7996   52.4654   28.9488 C   0  0  0  0  0  0
    2.4887   52.9222   28.2206 C   0  0  1  0  0  0
    1.8097   52.0794   28.3177 H   0  0  0  0  0  0
    1.8853   54.0707   29.0236 C   0  0  0  0  0  0
    2.3501   55.3777   28.8522 C   0  0  0  0  0  0
    1.9042   56.3878   29.6776 C   0  0  0  0  0  0
    1.0223   56.0967   30.6990 C   0  0  0  0  0  0
    0.5349   54.8046   30.8816 C   0  0  0  0  0  0
    0.9671   53.7869   30.0403 C   0  0  0  0  0  0
    2.5914   53.2960   26.7035 C   0  0  0  0  0  0
    3.5349   53.9895   26.3138 O   0  0  0  0  0  0
    1.6332   52.8977   25.8260 N   0  0  0  0  0  0
    1.7253   53.2516   24.4127 C   0  0  0  0  0  0
    0.4912   52.5799   23.7593 C   0  0  2  0  0  0
   -0.2609   53.3692   23.7122 H   0  0  0  0  0  0
    0.0858   51.4280   24.7201 C   0  0  0  0  0  0
    0.4800   52.0392   26.0958 C   0  0  0  0  0  0
   -1.4102   51.0511   24.6164 C   0  0  0  0  0  0
   -1.8210   50.0884   25.7519 C   0  0  0  0  0  0
   -0.9524   48.8089   25.6818 N   0  3  0  0  0  0
    0.5721   49.0353   25.5316 C   0  0  0  0  0  0
    0.8281   50.0865   24.4308 C   0  0  0  0  0  0
    0.8122   52.1962   22.2844 C   0  0  0  0  0  0
   -0.1173   52.0970   21.4851 O   0  0  0  0  0  0
    2.0979   52.0167   21.9302 N   0  0  0  0  0  0
    2.6573   51.9233   20.5816 C   0  0  0  0  0  0
    3.8148   52.8982   20.3305 C   0  0  0  0  0  0
    4.3923   53.6545   21.3623 C   0  0  0  0  0  0
    5.4138   54.5582   21.0890 C   0  0  0  0  0  0
    5.8646   54.7217   19.7796 C   0  0  0  0  0  0
    5.3094   53.9629   18.7472 C   0  0  0  0  0  0
    4.2876   53.0565   19.0255 C   0  0  0  0  0  0
    6.9125   55.6927   19.4991 C   0  0  0  0  0  0
    7.7441   56.4674   19.2808 N   0  0  0  0  0  0
    5.9046   52.8966   29.2815 H   0  0  0  0  0  0
    5.4663   52.8931   27.5887 H   0  0  0  0  0  0
    5.0256   54.2560   28.6247 H   0  0  0  0  0  0
    3.6611   52.5926   30.0243 H   0  0  0  0  0  0
    3.9245   51.3879   28.8815 H   0  0  0  0  0  0
    3.0836   55.6222   28.1014 H   0  0  0  0  0  0
    2.2712   57.3824   29.5394 H   0  0  0  0  0  0
    0.7062   56.8977   31.3417 H   0  0  0  0  0  0
   -0.1520   54.5868   31.6860 H   0  0  0  0  0  0
    0.6151   52.7785   30.2080 H   0  0  0  0  0  0
    2.6679   52.8020   24.1025 H   0  0  0  0  0  0
    1.7266   54.3330   24.2592 H   0  0  0  0  0  0
   -0.3323   52.7024   26.3973 H   0  0  0  0  0  0
    0.5818   51.2952   26.8801 H   0  0  0  0  0  0
   -2.0119   51.9533   24.7347 H   0  0  0  0  0  0
   -1.6658   50.6634   23.6283 H   0  0  0  0  0  0
   -1.6690   50.4998   26.7519 H   0  0  0  0  0  0
   -2.8572   49.7564   25.6712 H   0  0  0  0  0  0
   -1.1108   48.3036   26.5590 H   0  0  0  0  0  0
    0.9485   49.3101   26.5152 H   0  0  0  0  0  0
    0.9997   48.0677   25.2817 H   0  0  0  0  0  0
    0.5747   49.6826   23.4490 H   0  0  0  0  0  0
    1.9034   50.2593   24.3875 H   0  0  0  0  0  0
    2.7746   51.9347   22.6706 H   0  0  0  0  0  0
    1.8865   52.1006   19.8272 H   0  0  0  0  0  0
    3.0120   50.9047   20.4161 H   0  0  0  0  0  0
    4.0562   53.5655   22.3830 H   0  0  0  0  0  0
    5.8383   55.1346   21.8992 H   0  0  0  0  0  0
    5.6570   54.0658   17.7280 H   0  0  0  0  0  0
    3.8713   52.4676   18.2196 H   0  0  0  0  0  0
   -1.2822   48.2162   24.9340 H   0  0  0  0  0  0
  1  2  1  0  0  0
  1 36  1  0  0  0
  1 37  1  0  0  0
  1 38  1  0  0  0
  2  3  1  0  0  0
  2 39  1  0  0  0
  2 40  1  0  0  0
  3  4  1  0  0  0
  3  5  1  0  0  0
  3 11  1  0  0  0
  5 10  2  0  0  0
  5  6  1  0  0  0
  6  7  2  0  0  0
  6 41  1  0  0  0
  7  8  1  0  0  0
  7 42  1  0  0  0
  8  9  2  0  0  0
  8 43  1  0  0  0
  9 10  1  0  0  0
  9 44  1  0  0  0
 10 45  1  0  0  0
 11 12  2  0  0  0
 11 13  1  0  0  0
 13 18  1  0  0  0
 13 14  1  0  0  0
 14 15  1  0  0  0
 14 46  1  0  0  0
 14 47  1  0  0  0
 15 16  1  0  0  0
 15 17  1  0  0  0
 15 24  1  0  0  0
 17 23  1  0  0  0
 17 18  1  0  0  0
 17 19  1  0  0  0
 18 48  1  0  0  0
 18 49  1  0  0  0
 19 20  1  0  0  0
 19 50  1  0  0  0
 19 51  1  0  0  0
 20 21  1  0  0  0
 20 52  1  0  0  0
 20 53  1  0  0  0
 21 22  1  0  0  0
 21 54  1  0  0  0
 21 66  1  0  0  0
 22 23  1  0  0  0
 22 55  1  0  0  0
 22 56  1  0  0  0
 23 57  1  0  0  0
 23 58  1  0  0  0
 24 25  2  0  0  0
 24 26  1  0  0  0
 26 27  1  0  0  0
 26 59  1  0  0  0
 27 28  1  0  0  0
 27 60  1  0  0  0
 27 61  1  0  0  0
 28 33  2  0  0  0
 28 29  1  0  0  0
 29 30  2  0  0  0
 29 62  1  0  0  0
 30 31  1  0  0  0
 30 63  1  0  0  0
 31 32  2  0  0  0
 31 34  1  0  0  0
 32 33  1  0  0  0
 32 64  1  0  0  0
 33 65  1  0  0  0
 34 35  3  0  0  0
M  CHG  1  21   1
M  END
> <i_i_glide_confnum>
186

> <i_i_glide_lignum>
1294

> <i_i_glide_posenum>
341

> <i_i_glide_rotatable_bonds>
9

> <i_m_Source_File_Index>
557

> <b_m_subgroup_collapsed>
0

> <r_i_docking_score>
-6.48942

> <r_i_glide_ecoul>
-6.16492

> <r_i_glide_eff_state_penalty>
0

> <r_i_glide_einternal>
11.7194

> <r_i_glide_emodel>
-62.4026

> <r_i_glide_energy>
-46.3238

> <r_i_glide_erotb>
0.705482

> <r_i_glide_esite>
-0.1

> <r_i_glide_evdw>
-40.1589

> <r_i_glide_gscore>
-6.48942

> <r_i_glide_hbond>
-0.2

> <r_i_glide_ligand_efficiency>
-0.196649

> <r_i_glide_ligand_efficiency_ln>
-1.44321

> <r_i_glide_ligand_efficiency_sa>
-0.630758

> <r_i_glide_lipo>
-2.90835

> <r_i_glide_metal>
0

> <r_i_glide_rewards>
-1.05387

> <s_i_glide_gridfile>
wee1_glide-grid

> <s_m_Source_File>
wee1_decoys_glide_SP.sdf

> <s_m_Source_Path>
/Users/zhangxujun/Desktop

> <s_m_entry_id>
832

> <s_m_entry_name>
wee1_decoys_glide_SP.557

> <s_m_subgroup_title>
wee1_decoys_glide_SP

> <s_m_subgroupid>
wee1_decoys_glide_SP


$$$$
