ZINC39665121_637
                    3D
 Schrodinger Suite 2024-2.
 66 69  0  0  1  0            999 V2000
    4.1077   52.6314   15.3574 C   0  0  0  0  0  0
    4.1198   53.3723   16.7027 C   0  0  2  0  0  0
    5.1509   53.3702   17.0475 H   0  0  0  0  0  0
    3.2231   52.6691   17.7454 C   0  0  0  0  0  0
    3.1744   53.2971   19.0678 N   0  0  0  0  0  0
    4.1833   53.3970   19.9498 C   0  0  0  0  0  0
    5.3333   53.0393   19.6933 O   0  0  0  0  0  0
    3.7646   53.8893   21.3651 C   0  0  2  0  0  0
    3.3310   54.8917   21.2819 H   0  0  0  0  0  0
    5.0325   54.0667   22.2293 C   0  0  0  0  0  0
    4.5510   53.9536   23.6108 N   0  0  0  0  0  0
    3.2424   53.2971   23.6395 C   0  0  0  0  0  0
    2.9039   52.8772   22.1890 C   0  0  0  0  0  0
    1.3908   52.9872   21.8982 C   0  0  0  0  0  0
    0.5487   52.1002   22.8404 C   0  0  0  0  0  0
    0.9645   50.6279   22.6206 N   0  3  0  0  0  0
    2.4805   50.3663   22.7646 C   0  0  0  0  0  0
    3.2555   51.3773   21.8894 C   0  0  0  0  0  0
    5.2886   54.4266   24.6598 C   0  0  0  0  0  0
    6.3738   54.9778   24.4547 O   0  0  0  0  0  0
    4.8616   54.2401   26.1152 C   0  0  0  0  0  0
    5.8540   54.2508   27.1102 C   0  0  0  0  0  0
    5.5350   54.1014   28.4560 C   0  0  0  0  0  0
    4.2109   53.9261   28.8459 C   0  0  0  0  0  0
    3.1966   53.9034   27.8876 C   0  0  0  0  0  0
    3.5272   54.0914   26.5387 C   0  0  0  0  0  0
    1.7466   53.6718   28.3139 C   0  0  0  0  0  0
    1.2524   54.8007   28.8220 F   0  0  0  0  0  0
    0.9851   53.2966   27.2846 F   0  0  0  0  0  0
    1.6665   52.7121   29.2373 F   0  0  0  0  0  0
    3.9106   53.7881   30.1569 F   0  0  0  0  0  0
    3.5835   54.6748   16.4482 O   0  0  0  0  0  0
    4.2684   55.8299   16.7795 C   0  0  0  0  0  0
    5.4257   55.8916   17.5723 C   0  0  0  0  0  0
    6.0429   57.1157   17.8169 C   0  0  0  0  0  0
    5.5060   58.2793   17.2757 C   0  0  0  0  0  0
    4.3453   58.2358   16.5103 C   0  0  0  0  0  0
    3.7288   57.0118   16.2693 C   0  0  0  0  0  0
    4.4940   51.6161   15.4626 H   0  0  0  0  0  0
    3.1000   52.5615   14.9465 H   0  0  0  0  0  0
    4.7299   53.1477   14.6263 H   0  0  0  0  0  0
    2.1996   52.6498   17.3673 H   0  0  0  0  0  0
    3.5048   51.6218   17.8564 H   0  0  0  0  0  0
    2.3178   53.7866   19.2980 H   0  0  0  0  0  0
    5.7180   53.2272   22.0953 H   0  0  0  0  0  0
    5.5436   55.0066   22.0080 H   0  0  0  0  0  0
    2.5370   54.0963   23.8673 H   0  0  0  0  0  0
    3.1048   52.5000   24.3693 H   0  0  0  0  0  0
    1.1046   54.0231   22.0815 H   0  0  0  0  0  0
    1.1564   52.7974   20.8497 H   0  0  0  0  0  0
    0.6985   52.3198   23.8988 H   0  0  0  0  0  0
   -0.5184   52.1519   22.6175 H   0  0  0  0  0  0
    0.4572   50.0288   23.2595 H   0  0  0  0  0  0
    2.7030   50.4273   23.8271 H   0  0  0  0  0  0
    2.6477   49.3346   22.4473 H   0  0  0  0  0  0
    3.0973   51.1243   20.8394 H   0  0  0  0  0  0
    4.3232   51.2232   22.0528 H   0  0  0  0  0  0
    6.8963   54.3715   26.8496 H   0  0  0  0  0  0
    6.3199   54.1276   29.1976 H   0  0  0  0  0  0
    2.7042   54.1482   25.8524 H   0  0  0  0  0  0
    5.8711   55.0170   18.0147 H   0  0  0  0  0  0
    6.9366   57.1602   18.4206 H   0  0  0  0  0  0
    5.9816   59.2337   17.4577 H   0  0  0  0  0  0
    3.9316   59.1510   16.1080 H   0  0  0  0  0  0
    2.8319   56.9751   15.6707 H   0  0  0  0  0  0
    0.6860   50.3531   21.6882 H   0  0  0  0  0  0
  1  2  1  0  0  0
  1 39  1  0  0  0
  1 40  1  0  0  0
  1 41  1  0  0  0
  2  3  1  0  0  0
  2  4  1  0  0  0
  2 32  1  0  0  0
  4  5  1  0  0  0
  4 42  1  0  0  0
  4 43  1  0  0  0
  5  6  1  0  0  0
  5 44  1  0  0  0
  6  7  2  0  0  0
  6  8  1  0  0  0
  8  9  1  0  0  0
  8 13  1  0  0  0
  8 10  1  0  0  0
 10 11  1  0  0  0
 10 45  1  0  0  0
 10 46  1  0  0  0
 11 12  1  0  0  0
 11 19  1  0  0  0
 12 13  1  0  0  0
 12 47  1  0  0  0
 12 48  1  0  0  0
 13 18  1  0  0  0
 13 14  1  0  0  0
 14 15  1  0  0  0
 14 49  1  0  0  0
 14 50  1  0  0  0
 15 16  1  0  0  0
 15 51  1  0  0  0
 15 52  1  0  0  0
 16 17  1  0  0  0
 16 53  1  0  0  0
 16 66  1  0  0  0
 17 18  1  0  0  0
 17 54  1  0  0  0
 17 55  1  0  0  0
 18 56  1  0  0  0
 18 57  1  0  0  0
 19 20  2  0  0  0
 19 21  1  0  0  0
 21 26  2  0  0  0
 21 22  1  0  0  0
 22 23  2  0  0  0
 22 58  1  0  0  0
 23 24  1  0  0  0
 23 59  1  0  0  0
 24 25  2  0  0  0
 24 31  1  0  0  0
 25 26  1  0  0  0
 25 27  1  0  0  0
 26 60  1  0  0  0
 27 28  1  0  0  0
 27 29  1  0  0  0
 27 30  1  0  0  0
 32 33  1  0  0  0
 33 38  2  0  0  0
 33 34  1  0  0  0
 34 35  2  0  0  0
 34 61  1  0  0  0
 35 36  1  0  0  0
 35 62  1  0  0  0
 36 37  2  0  0  0
 36 63  1  0  0  0
 37 38  1  0  0  0
 37 64  1  0  0  0
 38 65  1  0  0  0
M  CHG  1  16   1
M  END
> <i_i_glide_confnum>
86

> <i_i_glide_lignum>
638

> <i_i_glide_posenum>
300

> <i_i_glide_rotatable_bonds>
9

> <i_m_Source_File_Index>
3777

> <b_m_subgroup_collapsed>
0

> <r_i_docking_score>
-6.50946

> <r_i_glide_ecoul>
-6.31595

> <r_i_glide_eff_state_penalty>
0

> <r_i_glide_einternal>
8.1136

> <r_i_glide_emodel>
-59.7352

> <r_i_glide_energy>
-44.9379

> <r_i_glide_erotb>
0.554202

> <r_i_glide_esite>
-0.0681976

> <r_i_glide_evdw>
-38.622

> <r_i_glide_gscore>
-6.50946

> <r_i_glide_hbond>
-0.32

> <r_i_glide_ligand_efficiency>
-0.180818

> <r_i_glide_ligand_efficiency_ln>
-1.42019

> <r_i_glide_ligand_efficiency_sa>
-0.597049

> <r_i_glide_lipo>
-2.36119

> <r_i_glide_metal>
0

> <r_i_glide_rewards>
-1.43579

> <s_i_glide_gridfile>
wee1_glide-grid

> <s_m_Source_File>
wee1_decoys_glide_SP.sdf

> <s_m_Source_Path>
/Users/zhangxujun/Desktop

> <s_m_entry_id>
4052

> <s_m_entry_name>
wee1_decoys_glide_SP.3777

> <s_m_subgroup_title>
wee1_decoys_glide_SP

> <s_m_subgroupid>
wee1_decoys_glide_SP


$$$$
