ZINC00921954_5766
                    3D
 Schrodinger Suite 2024-2.
 73 77  0  0  1  0            999 V2000
   -1.1420   49.7244   26.0806 C   0  0  0  0  0  0
   -1.2673   50.8610   25.2343 O   0  0  0  0  0  0
   -0.2437   51.1889   24.3683 C   0  0  0  0  0  0
    0.8784   50.3768   24.1253 C   0  0  0  0  0  0
    1.9040   50.8133   23.2820 C   0  0  0  0  0  0
    1.8474   52.0820   22.6855 C   0  0  0  0  0  0
    0.7038   52.8417   22.8833 C   0  0  0  0  0  0
   -0.3377   52.4201   23.7041 C   0  0  0  0  0  0
   -1.4040   53.2693   23.8794 O   0  0  0  0  0  0
   -2.6208   52.8312   23.2879 C   0  0  0  0  0  0
    2.8841   52.6418   21.7157 C   0  0  2  0  0  0
    2.3378   53.3778   21.1258 H   0  0  0  0  0  0
    3.2271   51.5484   20.6776 C   0  0  0  0  0  0
    4.3439   51.0438   20.6608 O   0  0  0  0  0  0
    2.2162   51.2543   19.8386 N   0  0  0  0  0  0
    2.2195   50.2881   18.7402 C   0  0  0  0  0  0
    2.2253   48.8159   19.2171 C   0  0  0  0  0  0
    0.9400   48.4446   19.9900 C   0  0  0  0  0  0
   -0.3281   48.7339   19.1582 C   0  0  0  0  0  0
   -0.3424   50.1629   18.5748 C   0  0  0  0  0  0
    0.9792   50.4837   17.8375 C   0  0  0  0  0  0
    4.0168   53.5004   22.2670 N   0  0  0  0  0  0
    4.1808   53.7471   23.6840 C   0  0  0  0  0  0
    3.0858   54.0788   24.4985 C   0  0  0  0  0  0
    3.1887   54.1410   25.8865 C   0  0  0  0  0  0
    4.4393   54.0966   26.4810 C   0  0  0  0  0  0
    5.5799   53.9118   25.6914 C   0  0  0  0  0  0
    5.4479   53.7008   24.3135 C   0  0  0  0  0  0
    6.8531   53.9618   26.2293 O   0  0  0  0  0  0
    6.9030   53.8296   27.6592 C   0  0  0  0  0  0
    5.7738   54.6471   28.3283 C   0  0  0  0  0  0
    4.4966   54.2199   27.8545 O   0  0  0  0  0  0
    4.8239   54.2304   21.4029 C   0  0  0  0  0  0
    5.7855   54.8971   21.7991 O   0  0  0  0  0  0
    4.5281   54.3721   19.8791 C   0  0  0  0  0  0
    5.7706   54.4421   19.0054 C   0  0  0  0  0  0
    6.3054   53.4592   18.1779 C   0  0  0  0  0  0
    7.4924   53.8175   17.5347 C   0  0  0  0  0  0
    7.8978   55.1000   17.8562 C   0  0  0  0  0  0
    6.7925   55.8615   18.9493 S   0  0  0  0  0  0
   -2.0136   49.7064   26.7358 H   0  0  0  0  0  0
   -1.1237   48.7937   25.5113 H   0  0  0  0  0  0
   -0.2535   49.7827   26.7129 H   0  0  0  0  0  0
    0.9766   49.4076   24.5919 H   0  0  0  0  0  0
    2.7436   50.1579   23.1065 H   0  0  0  0  0  0
    0.7045   53.8133   22.4256 H   0  0  0  0  0  0
   -3.3467   53.6440   23.3203 H   0  0  0  0  0  0
   -2.4878   52.5476   22.2426 H   0  0  0  0  0  0
   -3.0517   51.9851   23.8227 H   0  0  0  0  0  0
    1.3355   51.7229   19.9904 H   0  0  0  0  0  0
    3.1045   50.4851   18.1385 H   0  0  0  0  0  0
    2.3451   48.1554   18.3555 H   0  0  0  0  0  0
    3.0982   48.6347   19.8409 H   0  0  0  0  0  0
    0.9659   47.3893   20.2605 H   0  0  0  0  0  0
    0.8994   49.0031   20.9272 H   0  0  0  0  0  0
   -0.3865   48.0165   18.3388 H   0  0  0  0  0  0
   -1.2190   48.5728   19.7672 H   0  0  0  0  0  0
   -1.1858   50.2769   17.8930 H   0  0  0  0  0  0
   -0.5048   50.8818   19.3794 H   0  0  0  0  0  0
    0.9551   51.5078   17.4588 H   0  0  0  0  0  0
    1.0707   49.8471   16.9551 H   0  0  0  0  0  0
    2.1265   54.3028   24.0815 H   0  0  0  0  0  0
    2.3129   54.3219   26.4920 H   0  0  0  0  0  0
    6.3417   53.4927   23.7433 H   0  0  0  0  0  0
    6.7992   52.7831   27.9479 H   0  0  0  0  0  0
    7.8739   54.1752   28.0164 H   0  0  0  0  0  0
    5.8078   54.5612   29.4101 H   0  0  0  0  0  0
    5.9173   55.6965   28.0823 H   0  0  0  0  0  0
    3.8585   53.6321   19.4630 H   0  0  0  0  0  0
    3.9731   55.2946   19.7423 H   0  0  0  0  0  0
    5.8385   52.4963   18.0550 H   0  0  0  0  0  0
    8.0328   53.1625   16.8661 H   0  0  0  0  0  0
    8.7757   55.6244   17.5087 H   0  0  0  0  0  0
  1  2  1  0  0  0
  1 41  1  0  0  0
  1 42  1  0  0  0
  1 43  1  0  0  0
  2  3  1  0  0  0
  3  8  2  0  0  0
  3  4  1  0  0  0
  4  5  2  0  0  0
  4 44  1  0  0  0
  5  6  1  0  0  0
  5 45  1  0  0  0
  6  7  2  0  0  0
  6 11  1  0  0  0
  7  8  1  0  0  0
  7 46  1  0  0  0
  8  9  1  0  0  0
  9 10  1  0  0  0
 10 47  1  0  0  0
 10 48  1  0  0  0
 10 49  1  0  0  0
 11 12  1  0  0  0
 11 13  1  0  0  0
 11 22  1  0  0  0
 13 14  2  0  0  0
 13 15  1  0  0  0
 15 16  1  0  0  0
 15 50  1  0  0  0
 16 21  1  0  0  0
 16 17  1  0  0  0
 16 51  1  0  0  0
 17 18  1  0  0  0
 17 52  1  0  0  0
 17 53  1  0  0  0
 18 19  1  0  0  0
 18 54  1  0  0  0
 18 55  1  0  0  0
 19 20  1  0  0  0
 19 56  1  0  0  0
 19 57  1  0  0  0
 20 21  1  0  0  0
 20 58  1  0  0  0
 20 59  1  0  0  0
 21 60  1  0  0  0
 21 61  1  0  0  0
 22 23  1  0  0  0
 22 33  1  0  0  0
 23 28  2  0  0  0
 23 24  1  0  0  0
 24 25  2  0  0  0
 24 62  1  0  0  0
 25 26  1  0  0  0
 25 63  1  0  0  0
 26 32  1  0  0  0
 26 27  2  0  0  0
 27 28  1  0  0  0
 27 29  1  0  0  0
 28 64  1  0  0  0
 29 30  1  0  0  0
 30 31  1  0  0  0
 30 65  1  0  0  0
 30 66  1  0  0  0
 31 32  1  0  0  0
 31 67  1  0  0  0
 31 68  1  0  0  0
 33 34  2  0  0  0
 33 35  1  0  0  0
 35 36  1  0  0  0
 35 69  1  0  0  0
 35 70  1  0  0  0
 36 40  1  0  0  0
 36 37  2  0  0  0
 37 38  1  0  0  0
 37 71  1  0  0  0
 38 39  2  0  0  0
 38 72  1  0  0  0
 39 40  1  0  0  0
 39 73  1  0  0  0
M  END
> <i_i_glide_confnum>
4

> <i_i_glide_lignum>
5767

> <i_i_glide_posenum>
308

> <i_i_glide_rotatable_bonds>
11

> <i_m_Source_File_Index>
5620

> <b_m_subgroup_collapsed>
0

> <r_i_docking_score>
-5.45364

> <r_i_glide_ecoul>
-7.25017

> <r_i_glide_eff_state_penalty>
0

> <r_i_glide_einternal>
26.5651

> <r_i_glide_emodel>
-48.43

> <r_i_glide_energy>
-48.1882

> <r_i_glide_erotb>
0.409358

> <r_i_glide_esite>
-0.0510148

> <r_i_glide_evdw>
-40.938

> <r_i_glide_gscore>
-5.45364

> <r_i_glide_hbond>
-0.118226

> <r_i_glide_ligand_efficiency>
-0.139837

> <r_i_glide_ligand_efficiency_ln>
-1.16941

> <r_i_glide_ligand_efficiency_sa>
-0.474216

> <r_i_glide_lipo>
-2.48881

> <r_i_glide_metal>
0

> <r_i_glide_rewards>
-0.070518

> <s_i_glide_gridfile>
wee1_glide-grid

> <s_m_Source_File>
wee1_decoys_glide_SP.sdf

> <s_m_Source_Path>
/Users/zhangxujun/Desktop

> <s_m_entry_id>
5895

> <s_m_entry_name>
wee1_decoys_glide_SP.5620

> <s_m_subgroup_title>
wee1_decoys_glide_SP

> <s_m_subgroupid>
wee1_decoys_glide_SP


$$$$
