ZINC65571880_245
                    3D
 Schrodinger Suite 2024-2.
 60 62  0  0  1  0            999 V2000
    1.6107   56.0581   15.8397 C   0  0  0  0  0  0
    2.8858   56.7310   16.3392 C   0  0  0  0  0  0
    3.6248   56.0915   17.3403 C   0  0  0  0  0  0
    4.8087   56.6457   17.8318 C   0  0  0  0  0  0
    5.2711   57.8503   17.2812 C   0  0  0  0  0  0
    4.5432   58.4917   16.2824 C   0  0  0  0  0  0
    3.3431   57.9512   15.7997 C   0  0  0  0  0  0
    2.5988   58.6211   14.8004 N   0  0  0  0  0  0
    1.5302   59.4512   15.3448 C   0  0  0  0  0  0
    3.3563   59.2650   13.7294 C   0  0  0  0  0  0
    5.4319   55.9481   18.8840 N   0  0  0  0  0  0
    6.4391   56.3521   19.6998 C   0  0  0  0  0  0
    7.1040   57.3797   19.5595 O   0  0  0  0  0  0
    6.7181   55.4527   20.8508 C   0  0  0  0  0  0
    7.8658   55.2971   21.2703 O   0  0  0  0  0  0
    5.6329   54.8963   21.4391 N   0  0  0  0  0  0
    5.6282   54.0315   22.6312 C   0  0  1  0  0  0
    6.4958   54.5476   23.7993 C   0  0  0  0  0  0
    5.6587   54.5248   25.0767 C   0  0  0  0  0  0
    4.3742   53.7429   24.7356 N   0  3  2  0  0  0
    4.2092   53.9673   23.2135 C   0  0  0  0  0  0
    3.1372   54.1116   25.6071 C   0  0  1  0  0  0
    1.8604   53.5427   24.9400 C   0  0  0  0  0  0
    3.2848   53.7405   27.0981 C   0  0  0  0  0  0
    4.1511   54.4795   27.9129 C   0  0  0  0  0  0
    4.3030   54.1709   29.2616 C   0  0  0  0  0  0
    3.5697   53.1259   29.8151 C   0  0  0  0  0  0
    2.6769   52.4006   29.0326 C   0  0  0  0  0  0
    2.5376   52.7058   27.6817 C   0  0  0  0  0  0
    1.4981   55.0420   16.2252 H   0  0  0  0  0  0
    1.6225   55.9948   14.7484 H   0  0  0  0  0  0
    0.7300   56.6367   16.1246 H   0  0  0  0  0  0
    3.2562   55.1629   17.7518 H   0  0  0  0  0  0
    6.1756   58.3321   17.6154 H   0  0  0  0  0  0
    4.9111   59.4362   15.9090 H   0  0  0  0  0  0
    0.9214   58.9030   16.0642 H   0  0  0  0  0  0
    1.9422   60.3141   15.8717 H   0  0  0  0  0  0
    0.8690   59.8045   14.5529 H   0  0  0  0  0  0
    4.1263   58.5945   13.3441 H   0  0  0  0  0  0
    2.6970   59.5171   12.8984 H   0  0  0  0  0  0
    3.8431   60.1787   14.0738 H   0  0  0  0  0  0
    5.0189   55.0506   19.0864 H   0  0  0  0  0  0
    4.7265   55.1016   21.0455 H   0  0  0  0  0  0
    5.9066   52.9986   22.4075 H   0  0  0  0  0  0
    7.4098   53.9587   23.8977 H   0  0  0  0  0  0
    6.8202   55.5790   23.6441 H   0  0  0  0  0  0
    6.1375   54.0354   25.9263 H   0  0  0  0  0  0
    5.3543   55.5375   25.3483 H   0  0  0  0  0  0
    3.6580   54.9002   23.0957 H   0  0  0  0  0  0
    3.5944   53.1613   22.8086 H   0  0  0  0  0  0
    3.1043   55.1987   25.5299 H   0  0  0  0  0  0
    0.9903   53.6962   25.5721 H   0  0  0  0  0  0
    1.6361   54.0253   23.9884 H   0  0  0  0  0  0
    1.9429   52.4698   24.7604 H   0  0  0  0  0  0
    4.7248   55.2966   27.5122 H   0  0  0  0  0  0
    4.9902   54.7426   29.8677 H   0  0  0  0  0  0
    3.6934   52.8768   30.8593 H   0  0  0  0  0  0
    2.0969   51.5984   29.4657 H   0  0  0  0  0  0
    1.8491   52.1105   27.1023 H   0  0  0  0  0  0
    4.5590   52.7594   24.8952 H   0  0  0  0  0  0
  1  2  1  0  0  0
  1 30  1  0  0  0
  1 31  1  0  0  0
  1 32  1  0  0  0
  2  7  2  0  0  0
  2  3  1  0  0  0
  3  4  2  0  0  0
  3 33  1  0  0  0
  4  5  1  0  0  0
  4 11  1  0  0  0
  5  6  2  0  0  0
  5 34  1  0  0  0
  6  7  1  0  0  0
  6 35  1  0  0  0
  7  8  1  0  0  0
  8  9  1  0  0  0
  8 10  1  0  0  0
  9 36  1  0  0  0
  9 37  1  0  0  0
  9 38  1  0  0  0
 10 39  1  0  0  0
 10 40  1  0  0  0
 10 41  1  0  0  0
 11 12  1  0  0  0
 11 42  1  0  0  0
 12 13  2  0  0  0
 12 14  1  0  0  0
 14 15  2  0  0  0
 14 16  1  0  0  0
 16 17  1  0  0  0
 16 43  1  0  0  0
 17 21  1  0  0  0
 17 18  1  0  0  0
 17 44  1  0  0  0
 18 19  1  0  0  0
 18 45  1  0  0  0
 18 46  1  0  0  0
 19 20  1  0  0  0
 19 47  1  0  0  0
 19 48  1  0  0  0
 20 21  1  0  0  0
 20 22  1  0  0  0
 20 60  1  0  0  0
 21 49  1  0  0  0
 21 50  1  0  0  0
 22 23  1  0  0  0
 22 24  1  0  0  0
 22 51  1  0  0  0
 23 52  1  0  0  0
 23 53  1  0  0  0
 23 54  1  0  0  0
 24 29  2  0  0  0
 24 25  1  0  0  0
 25 26  2  0  0  0
 25 55  1  0  0  0
 26 27  1  0  0  0
 26 56  1  0  0  0
 27 28  2  0  0  0
 27 57  1  0  0  0
 28 29  1  0  0  0
 28 58  1  0  0  0
 29 59  1  0  0  0
M  CHG  1  20   1
M  END
> <i_i_glide_confnum>
186

> <i_i_glide_lignum>
246

> <i_i_glide_posenum>
328

> <i_i_glide_rotatable_bonds>
8

> <i_m_Source_File_Index>
4372

> <b_m_subgroup_collapsed>
0

> <r_i_docking_score>
-5.48732

> <r_i_glide_ecoul>
-1.49226

> <r_i_glide_eff_state_penalty>
0

> <r_i_glide_einternal>
11.74

> <r_i_glide_emodel>
-46.285

> <r_i_glide_energy>
-38.1879

> <r_i_glide_erotb>
0.875062

> <r_i_glide_esite>
-0.0244909

> <r_i_glide_evdw>
-36.6956

> <r_i_glide_gscore>
-5.48732

> <r_i_glide_hbond>
-0.264385

> <r_i_glide_ligand_efficiency>
-0.189218

> <r_i_glide_ligand_efficiency_ln>
-1.25646

> <r_i_glide_ligand_efficiency_sa>
-0.581337

> <r_i_glide_lipo>
-2.97466

> <r_i_glide_metal>
0

> <r_i_glide_rewards>
-1.04022

> <s_i_glide_gridfile>
wee1_glide-grid

> <s_m_Source_File>
wee1_decoys_glide_SP.sdf

> <s_m_Source_Path>
/Users/zhangxujun/Desktop

> <s_m_entry_id>
4647

> <s_m_entry_name>
wee1_decoys_glide_SP.4372

> <s_m_subgroup_title>
wee1_decoys_glide_SP

> <s_m_subgroupid>
wee1_decoys_glide_SP


$$$$
