ZINC36716934_2674
                    3D
 Schrodinger Suite 2024-2.
 53 56  0  0  1  0            999 V2000
   -2.1758   51.2109   21.1182 C   0  0  0  0  0  0
   -0.7336   51.6698   20.9210 C   0  0  0  0  0  0
    0.0085   52.0320   22.0500 C   0  0  0  0  0  0
    1.3476   52.4120   21.9402 C   0  0  0  0  0  0
    1.9697   52.3766   20.6855 C   0  0  0  0  0  0
    1.2400   52.0223   19.5532 C   0  0  0  0  0  0
   -0.1146   51.6943   19.6516 C   0  0  0  0  0  0
   -0.7664   51.3599   18.4543 N   0  0  0  0  0  0
   -1.8680   51.9631   17.9599 C   0  0  0  0  0  0
   -2.4641   52.8962   18.5047 O   0  0  0  0  0  0
   -2.3586   51.4415   16.6154 C   0  0  0  0  0  0
    2.0157   52.7798   23.1175 N   0  0  0  0  0  0
    3.0061   53.6936   23.2569 C   0  0  0  0  0  0
    3.4939   54.3376   22.3270 O   0  0  0  0  0  0
    3.5060   53.9045   24.6692 C   0  0  0  0  0  0
    2.6283   53.7182   25.7574 C   0  0  0  0  0  0
    3.0416   53.9607   27.0718 C   0  0  0  0  0  0
    4.2937   54.3721   27.4091 N   0  0  0  0  0  0
    5.1213   54.5069   26.3746 C   0  0  0  0  0  0
    4.8219   54.3021   25.0161 C   0  0  0  0  0  0
    6.0753   54.5794   24.3709 C   0  0  0  0  0  0
    6.9929   54.9222   25.2504 N   0  0  0  0  0  0
    6.4195   54.8870   26.5258 O   0  0  0  0  0  0
    6.4355   54.5196   22.9035 C   0  0  0  0  0  0
    2.0725   53.7926   28.1874 C   0  0  0  0  0  0
    1.2334   52.6736   28.2726 C   0  0  0  0  0  0
    0.3483   52.6774   29.3332 C   0  0  0  0  0  0
    0.6002   54.0980   30.2829 S   0  0  0  0  0  0
    1.8331   54.7082   29.2204 C   0  0  0  0  0  0
    2.4298   56.0779   29.4592 C   0  0  0  0  0  0
   -0.7157   51.6749   29.6784 C   0  0  0  0  0  0
   -2.3684   50.9068   22.1495 H   0  0  0  0  0  0
   -2.8717   52.0064   20.8471 H   0  0  0  0  0  0
   -2.3888   50.3406   20.4928 H   0  0  0  0  0  0
   -0.4628   52.0233   23.0191 H   0  0  0  0  0  0
    3.0144   52.6324   20.5743 H   0  0  0  0  0  0
    1.7405   52.0246   18.5951 H   0  0  0  0  0  0
   -0.2809   50.7116   17.8523 H   0  0  0  0  0  0
   -2.4965   50.3593   16.6463 H   0  0  0  0  0  0
   -1.6377   51.6801   15.8310 H   0  0  0  0  0  0
   -3.3127   51.8955   16.3475 H   0  0  0  0  0  0
    1.6533   52.3637   23.9628 H   0  0  0  0  0  0
    1.5982   53.4371   25.5944 H   0  0  0  0  0  0
    6.1481   53.5599   22.4753 H   0  0  0  0  0  0
    5.9245   55.2951   22.3321 H   0  0  0  0  0  0
    7.5033   54.6437   22.7184 H   0  0  0  0  0  0
    1.2590   51.8647   27.5533 H   0  0  0  0  0  0
    3.5035   56.0938   29.2816 H   0  0  0  0  0  0
    1.9752   56.8243   28.8026 H   0  0  0  0  0  0
    2.2733   56.4210   30.4828 H   0  0  0  0  0  0
   -0.6605   50.8108   29.0201 H   0  0  0  0  0  0
   -0.6570   51.3204   30.7084 H   0  0  0  0  0  0
   -1.7001   52.0967   29.5341 H   0  0  0  0  0  0
  1  2  1  0  0  0
  1 32  1  0  0  0
  1 33  1  0  0  0
  1 34  1  0  0  0
  2  7  2  0  0  0
  2  3  1  0  0  0
  3  4  2  0  0  0
  3 35  1  0  0  0
  4  5  1  0  0  0
  4 12  1  0  0  0
  5  6  2  0  0  0
  5 36  1  0  0  0
  6  7  1  0  0  0
  6 37  1  0  0  0
  7  8  1  0  0  0
  8  9  1  0  0  0
  8 38  1  0  0  0
  9 10  2  0  0  0
  9 11  1  0  0  0
 11 39  1  0  0  0
 11 40  1  0  0  0
 11 41  1  0  0  0
 12 13  1  0  0  0
 12 42  1  0  0  0
 13 14  2  0  0  0
 13 15  1  0  0  0
 15 20  2  0  0  0
 15 16  1  0  0  0
 16 17  2  0  0  0
 16 43  1  0  0  0
 17 18  1  0  0  0
 17 25  1  0  0  0
 18 19  2  0  0  0
 19 23  1  0  0  0
 19 20  1  0  0  0
 20 21  1  0  0  0
 21 22  2  0  0  0
 21 24  1  0  0  0
 22 23  1  0  0  0
 24 44  1  0  0  0
 24 45  1  0  0  0
 24 46  1  0  0  0
 25 29  2  0  0  0
 25 26  1  0  0  0
 26 27  2  0  0  0
 26 47  1  0  0  0
 27 28  1  0  0  0
 27 31  1  0  0  0
 28 29  1  0  0  0
 29 30  1  0  0  0
 30 48  1  0  0  0
 30 49  1  0  0  0
 30 50  1  0  0  0
 31 51  1  0  0  0
 31 52  1  0  0  0
 31 53  1  0  0  0
M  END
> <i_i_glide_confnum>
67

> <i_i_glide_lignum>
2675

> <i_i_glide_posenum>
28

> <i_i_glide_rotatable_bonds>
6

> <i_m_Source_File_Index>
2669

> <b_m_subgroup_collapsed>
0

> <r_i_docking_score>
-6.83635

> <r_i_glide_ecoul>
-4.88263

> <r_i_glide_eff_state_penalty>
0

> <r_i_glide_einternal>
7.50361

> <r_i_glide_emodel>
-71.5489

> <r_i_glide_energy>
-52.0599

> <r_i_glide_erotb>
0.527445

> <r_i_glide_esite>
-0.0151815

> <r_i_glide_evdw>
-47.1772

> <r_i_glide_gscore>
-6.83635

> <r_i_glide_hbond>
-0.315711

> <r_i_glide_ligand_efficiency>
-0.220527

> <r_i_glide_ligand_efficiency_ln>
-1.54181

> <r_i_glide_ligand_efficiency_sa>
-0.69276

> <r_i_glide_lipo>
-3.1409

> <r_i_glide_metal>
0

> <r_i_glide_rewards>
-0.800748

> <s_i_glide_gridfile>
wee1_glide-grid

> <s_m_Source_File>
wee1_decoys_glide_SP.sdf

> <s_m_Source_Path>
/Users/zhangxujun/Desktop

> <s_m_entry_id>
2944

> <s_m_entry_name>
wee1_decoys_glide_SP.2669

> <s_m_subgroup_title>
wee1_decoys_glide_SP

> <s_m_subgroupid>
wee1_decoys_glide_SP


$$$$
