ZINC20058658_2548
                    3D
 Schrodinger Suite 2024-2.
 53 55  0  0  1  0            999 V2000
    6.9706   55.1838   24.4652 C   0  0  0  0  0  0
    6.1169   54.7413   25.6341 C   0  0  0  0  0  0
    6.7014   54.4418   26.8668 C   0  0  0  0  0  0
    5.9004   54.0593   27.9402 C   0  0  0  0  0  0
    4.5118   53.9571   27.7847 C   0  0  0  0  0  0
    3.9400   54.2691   26.5433 C   0  0  0  0  0  0
    4.7366   54.6549   25.4737 C   0  0  0  0  0  0
    3.6463   53.5378   28.9475 C   0  0  0  0  0  0
    3.9044   53.9364   30.0817 O   0  0  0  0  0  0
    2.6279   52.7088   28.6141 N   0  0  0  0  0  0
    1.4955   52.2876   29.2740 C   0  0  0  0  0  0
    1.1106   52.5005   30.8817 S   0  0  0  0  0  0
    0.5960   51.5980   28.5088 N   0  0  0  0  0  0
    0.5110   51.5714   27.1071 C   0  0  0  0  0  0
    0.2360   50.3779   26.4349 C   0  0  0  0  0  0
    0.2453   50.3506   25.0395 C   0  0  0  0  0  0
    0.5211   51.5191   24.3177 C   0  0  0  0  0  0
    0.7083   52.7253   25.0043 C   0  0  0  0  0  0
    0.7025   52.7480   26.3848 C   0  0  0  0  0  0
    0.6378   51.4957   22.8178 C   0  0  0  0  0  0
   -0.0571   50.7635   22.1137 O   0  0  0  0  0  0
    1.5713   52.3444   22.3600 N   0  0  0  0  0  0
    1.8756   52.7548   20.9971 C   0  0  0  0  0  0
    3.1055   53.6961   21.0365 C   0  0  0  0  0  0
    4.3808   52.9892   21.5302 C   0  0  0  0  0  0
    4.6870   51.7550   20.6630 C   0  0  0  0  0  0
    3.4717   50.8207   20.4676 C   0  0  0  0  0  0
    2.2149   51.5967   20.0282 C   0  0  0  0  0  0
    7.6934   55.9334   24.7840 H   0  0  0  0  0  0
    7.5044   54.3304   24.0503 H   0  0  0  0  0  0
    6.3743   55.6411   23.6751 H   0  0  0  0  0  0
    7.7694   54.4963   27.0059 H   0  0  0  0  0  0
    6.3716   53.8358   28.8864 H   0  0  0  0  0  0
    2.8752   54.2389   26.3924 H   0  0  0  0  0  0
    4.2757   54.8920   24.5253 H   0  0  0  0  0  0
    2.6498   52.4331   27.6438 H   0  0  0  0  0  0
   -0.1660   51.1461   28.9966 H   0  0  0  0  0  0
    0.0376   49.4630   26.9740 H   0  0  0  0  0  0
    0.0731   49.4127   24.5292 H   0  0  0  0  0  0
    0.8691   53.6576   24.4794 H   0  0  0  0  0  0
    0.8417   53.6934   26.8940 H   0  0  0  0  0  0
    2.0719   52.8624   23.0644 H   0  0  0  0  0  0
    0.9958   53.2897   20.6331 H   0  0  0  0  0  0
    3.2967   54.0961   20.0396 H   0  0  0  0  0  0
    2.9044   54.5520   21.6826 H   0  0  0  0  0  0
    5.2261   53.6778   21.5055 H   0  0  0  0  0  0
    4.2631   52.6954   22.5717 H   0  0  0  0  0  0
    5.0406   52.0959   19.6884 H   0  0  0  0  0  0
    5.5042   51.2005   21.1110 H   0  0  0  0  0  0
    3.6995   50.0709   19.7092 H   0  0  0  0  0  0
    3.2677   50.2765   21.3902 H   0  0  0  0  0  0
    1.3711   50.9126   19.9369 H   0  0  0  0  0  0
    2.3689   51.9955   19.0239 H   0  0  0  0  0  0
  1  2  1  0  0  0
  1 29  1  0  0  0
  1 30  1  0  0  0
  1 31  1  0  0  0
  2  7  2  0  0  0
  2  3  1  0  0  0
  3  4  2  0  0  0
  3 32  1  0  0  0
  4  5  1  0  0  0
  4 33  1  0  0  0
  5  6  2  0  0  0
  5  8  1  0  0  0
  6  7  1  0  0  0
  6 34  1  0  0  0
  7 35  1  0  0  0
  8  9  2  0  0  0
  8 10  1  0  0  0
 10 11  1  0  0  0
 10 36  1  0  0  0
 11 12  2  0  0  0
 11 13  1  0  0  0
 13 14  1  0  0  0
 13 37  1  0  0  0
 14 19  2  0  0  0
 14 15  1  0  0  0
 15 16  2  0  0  0
 15 38  1  0  0  0
 16 17  1  0  0  0
 16 39  1  0  0  0
 17 18  2  0  0  0
 17 20  1  0  0  0
 18 19  1  0  0  0
 18 40  1  0  0  0
 19 41  1  0  0  0
 20 21  2  0  0  0
 20 22  1  0  0  0
 22 23  1  0  0  0
 22 42  1  0  0  0
 23 28  1  0  0  0
 23 24  1  0  0  0
 23 43  1  0  0  0
 24 25  1  0  0  0
 24 44  1  0  0  0
 24 45  1  0  0  0
 25 26  1  0  0  0
 25 46  1  0  0  0
 25 47  1  0  0  0
 26 27  1  0  0  0
 26 48  1  0  0  0
 26 49  1  0  0  0
 27 28  1  0  0  0
 27 50  1  0  0  0
 27 51  1  0  0  0
 28 52  1  0  0  0
 28 53  1  0  0  0
M  END
> <i_i_glide_confnum>
198

> <i_i_glide_lignum>
2549

> <i_i_glide_posenum>
29

> <i_i_glide_rotatable_bonds>
8

> <i_m_Source_File_Index>
1291

> <b_m_subgroup_collapsed>
0

> <r_i_docking_score>
-5.28543

> <r_i_glide_ecoul>
-4.2798

> <r_i_glide_eff_state_penalty>
0

> <r_i_glide_einternal>
9.81448

> <r_i_glide_emodel>
-52.6146

> <r_i_glide_energy>
-43.6891

> <r_i_glide_erotb>
1.00007

> <r_i_glide_esite>
-0.0501008

> <r_i_glide_evdw>
-39.4093

> <r_i_glide_gscore>
-5.28543

> <r_i_glide_hbond>
-0.32

> <r_i_glide_ligand_efficiency>
-0.188765

> <r_i_glide_ligand_efficiency_ln>
-1.22003

> <r_i_glide_ligand_efficiency_sa>
-0.573202

> <r_i_glide_lipo>
-2.19348

> <r_i_glide_metal>
0

> <r_i_glide_rewards>
-1.10947

> <s_i_glide_gridfile>
wee1_glide-grid

> <s_m_Source_File>
wee1_decoys_glide_SP.sdf

> <s_m_Source_Path>
/Users/zhangxujun/Desktop

> <s_m_entry_id>
1566

> <s_m_entry_name>
wee1_decoys_glide_SP.1291

> <s_m_subgroup_title>
wee1_decoys_glide_SP

> <s_m_subgroupid>
wee1_decoys_glide_SP


$$$$
