ZINC19753973_6139
                    3D
 Schrodinger Suite 2024-2.
 30 32  0  0  1  0            999 V2000
    0.9664   52.4971   31.0222 C   0  0  0  0  0  0
    0.6709   53.2851   29.9150 C   0  0  0  0  0  0
    1.6931   53.6836   29.0585 C   0  0  0  0  0  0
    3.0158   53.2941   29.3075 C   0  0  0  0  0  0
    3.2985   52.4963   30.4227 C   0  0  0  0  0  0
    2.2756   52.0979   31.2812 C   0  0  0  0  0  0
    4.1232   53.6932   28.4140 C   0  0  0  0  0  0
    4.0138   54.0854   27.1282 C   0  0  0  0  0  0
    5.1126   54.4871   26.2624 C   0  0  0  0  0  0
    6.3065   54.8947   26.6528 N   0  0  0  0  0  0
    7.1041   55.1524   25.5537 N   0  0  0  0  0  0
    6.3651   54.8583   24.4663 C   0  0  0  0  0  0
    5.0832   54.4492   24.8775 N   0  0  0  0  0  0
    4.1161   54.0943   23.9682 C   0  0  0  0  0  0
    4.4259   54.0969   22.6111 C   0  0  0  0  0  0
    5.6905   54.4928   22.1812 C   0  0  0  0  0  0
    6.6700   54.8908   23.0939 C   0  0  0  0  0  0
    3.4729   53.6944   21.6844 N   0  0  0  0  0  0
    0.1681   52.1871   31.6818 H   0  0  0  0  0  0
   -0.3485   53.5844   29.7218 H   0  0  0  0  0  0
    1.4467   54.3022   28.2086 H   0  0  0  0  0  0
    4.3116   52.1838   30.6305 H   0  0  0  0  0  0
    2.4904   51.4970   32.1526 H   0  0  0  0  0  0
    5.1107   53.6779   28.8541 H   0  0  0  0  0  0
    3.0449   54.1021   26.6544 H   0  0  0  0  0  0
    3.1599   53.7831   24.3589 H   0  0  0  0  0  0
    5.9193   54.4961   21.1245 H   0  0  0  0  0  0
    7.6458   55.2014   22.7544 H   0  0  0  0  0  0
    2.5355   53.5273   22.0169 H   0  0  0  0  0  0
    3.5930   53.9915   20.7253 H   0  0  0  0  0  0
  1  6  2  0  0  0
  1  2  1  0  0  0
  1 19  1  0  0  0
  2  3  2  0  0  0
  2 20  1  0  0  0
  3  4  1  0  0  0
  3 21  1  0  0  0
  4  5  2  0  0  0
  4  7  1  0  0  0
  5  6  1  0  0  0
  5 22  1  0  0  0
  6 23  1  0  0  0
  7  8  2  0  0  0
  7 24  1  0  0  0
  8  9  1  0  0  0
  8 25  1  0  0  0
  9 13  1  0  0  0
  9 10  2  0  0  0
 10 11  1  0  0  0
 11 12  2  0  0  0
 12 17  1  0  0  0
 12 13  1  0  0  0
 13 14  1  0  0  0
 14 15  2  0  0  0
 14 26  1  0  0  0
 15 16  1  0  0  0
 15 18  1  0  0  0
 16 17  2  0  0  0
 16 27  1  0  0  0
 17 28  1  0  0  0
 18 29  1  0  0  0
 18 30  1  0  0  0
M  END
> <i_i_glide_confnum>
4

> <i_i_glide_lignum>
6140

> <i_i_glide_posenum>
293

> <i_i_glide_rotatable_bonds>
2

> <i_m_Source_File_Index>
2738

> <b_m_subgroup_collapsed>
0

> <r_i_docking_score>
-6.75871

> <r_i_glide_ecoul>
-5.9288

> <r_i_glide_eff_state_penalty>
0

> <r_i_glide_einternal>
1.27661

> <r_i_glide_emodel>
-52.6353

> <r_i_glide_energy>
-37.5191

> <r_i_glide_erotb>
0.616728

> <r_i_glide_esite>
-0.00933263

> <r_i_glide_evdw>
-31.5903

> <r_i_glide_gscore>
-6.75871

> <r_i_glide_hbond>
0

> <r_i_glide_ligand_efficiency>
-0.375484

> <r_i_glide_ligand_efficiency_ln>
-1.73729

> <r_i_glide_ligand_efficiency_sa>
-0.984046

> <r_i_glide_lipo>
-1.91664

> <r_i_glide_metal>
0

> <r_i_glide_rewards>
-2.98063

> <s_i_glide_gridfile>
wee1_glide-grid

> <s_m_Source_File>
wee1_decoys_glide_SP.sdf

> <s_m_Source_Path>
/Users/zhangxujun/Desktop

> <s_m_entry_id>
3013

> <s_m_entry_name>
wee1_decoys_glide_SP.2738

> <s_m_subgroup_title>
wee1_decoys_glide_SP

> <s_m_subgroupid>
wee1_decoys_glide_SP


$$$$
