ZINC07127402_4677
                    3D
 Schrodinger Suite 2024-2.
 33 36  0  0  1  0            999 V2000
    5.5358   54.4967   27.3465 C   0  0  0  0  0  0
    5.1437   54.8073   26.0442 C   0  0  0  0  0  0
    3.9208   54.3826   25.5161 C   0  0  0  0  0  0
    3.1033   53.6102   26.3518 C   0  0  0  0  0  0
    3.4859   53.2969   27.6851 C   0  0  0  0  0  0
    4.7145   53.7475   28.1885 C   0  0  0  0  0  0
    2.5346   52.5476   28.3189 N   0  0  0  0  0  0
    1.6052   52.3652   27.4171 C   0  0  0  0  0  0
    1.8744   52.9867   26.1986 N   0  0  0  0  0  0
    0.9495   52.9424   25.0313 C   0  0  2  0  0  0
    0.7043   53.9761   24.7860 H   0  0  0  0  0  0
   -0.3147   52.3243   25.4929 N   0  0  0  0  0  0
   -0.4517   51.6363   26.7353 C   0  0  0  0  0  0
    0.4542   51.6643   27.6260 N   0  0  0  0  0  0
   -1.6194   50.8967   26.9860 N   0  0  0  0  0  0
    1.5362   52.3140   23.7610 C   0  0  0  0  0  0
    1.5792   50.9231   23.5627 C   0  0  0  0  0  0
    2.1336   50.3903   22.3986 C   0  0  0  0  0  0
    2.6364   51.2328   21.4096 C   0  0  0  0  0  0
    2.5743   52.6134   21.5848 C   0  0  0  0  0  0
    2.0236   53.1508   22.7475 C   0  0  0  0  0  0
    1.9577   54.4958   22.8817 F   0  0  0  0  0  0
    1.0957   50.0689   24.4898 F   0  0  0  0  0  0
    6.4884   54.8513   27.7155 H   0  0  0  0  0  0
    5.8057   55.3955   25.4249 H   0  0  0  0  0  0
    3.6438   54.6334   24.5057 H   0  0  0  0  0  0
    5.0226   53.5137   29.1964 H   0  0  0  0  0  0
   -1.0816   52.2814   24.8403 H   0  0  0  0  0  0
   -1.5816   50.2884   27.7981 H   0  0  0  0  0  0
   -1.9909   50.3625   26.2171 H   0  0  0  0  0  0
    2.1748   49.3185   22.2697 H   0  0  0  0  0  0
    3.0634   50.8185   20.5068 H   0  0  0  0  0  0
    2.9430   53.2749   20.8140 H   0  0  0  0  0  0
  1  6  2  0  0  0
  1  2  1  0  0  0
  1 24  1  0  0  0
  2  3  2  0  0  0
  2 25  1  0  0  0
  3  4  1  0  0  0
  3 26  1  0  0  0
  4  9  1  0  0  0
  4  5  2  0  0  0
  5  6  1  0  0  0
  5  7  1  0  0  0
  6 27  1  0  0  0
  7  8  2  0  0  0
  8 14  1  0  0  0
  8  9  1  0  0  0
  9 10  1  0  0  0
 10 11  1  0  0  0
 10 12  1  0  0  0
 10 16  1  0  0  0
 12 13  1  0  0  0
 12 28  1  0  0  0
 13 14  2  0  0  0
 13 15  1  0  0  0
 15 29  1  0  0  0
 15 30  1  0  0  0
 16 21  2  0  0  0
 16 17  1  0  0  0
 17 18  2  0  0  0
 17 23  1  0  0  0
 18 19  1  0  0  0
 18 31  1  0  0  0
 19 20  2  0  0  0
 19 32  1  0  0  0
 20 21  1  0  0  0
 20 33  1  0  0  0
 21 22  1  0  0  0
M  END
> <i_i_glide_confnum>
1

> <i_i_glide_lignum>
4678

> <i_i_glide_posenum>
213

> <i_i_glide_rotatable_bonds>
1

> <i_m_Source_File_Index>
2571

> <b_m_subgroup_collapsed>
0

> <r_i_docking_score>
-6.24986

> <r_i_glide_ecoul>
-3.28129

> <r_i_glide_eff_state_penalty>
0

> <r_i_glide_einternal>
1.40578

> <r_i_glide_emodel>
-48.3409

> <r_i_glide_energy>
-33.4206

> <r_i_glide_erotb>
0.205029

> <r_i_glide_esite>
-0.105106

> <r_i_glide_evdw>
-30.1393

> <r_i_glide_gscore>
-6.24986

> <r_i_glide_hbond>
-0.143556

> <r_i_glide_ligand_efficiency>
-0.284085

> <r_i_glide_ligand_efficiency_ln>
-1.52769

> <r_i_glide_ligand_efficiency_sa>
-0.796016

> <r_i_glide_lipo>
-2.06813

> <r_i_glide_metal>
0

> <r_i_glide_rewards>
-2.13895

> <s_i_glide_gridfile>
wee1_glide-grid

> <s_m_Source_File>
wee1_decoys_glide_SP.sdf

> <s_m_Source_Path>
/Users/zhangxujun/Desktop

> <s_m_entry_id>
2846

> <s_m_entry_name>
wee1_decoys_glide_SP.2571

> <s_m_subgroup_title>
wee1_decoys_glide_SP

> <s_m_subgroupid>
wee1_decoys_glide_SP


$$$$
