ZINC26954125_5436
                    3D
 Schrodinger Suite 2024-2.
 62 67  0  0  1  0            999 V2000
    1.5589   53.5579   14.6949 C   0  0  0  0  0  0
    2.2549   52.3787   14.9648 C   0  0  0  0  0  0
    2.9623   52.2511   16.1570 C   0  0  0  0  0  0
    2.9628   53.3010   17.0817 C   0  0  0  0  0  0
    2.2659   54.4815   16.8061 C   0  0  0  0  0  0
    1.5618   54.6089   15.6102 C   0  0  0  0  0  0
    3.7521   53.1834   18.3732 C   0  0  0  0  0  0
    2.8847   52.7143   19.5646 N   0  3  2  0  0  0
    3.5727   53.0344   20.9088 C   0  0  0  0  0  0
    2.5199   52.8910   22.0293 C   0  0  0  0  0  0
    1.7679   51.5699   21.8980 C   0  0  0  0  0  0
    1.8090   50.8126   20.7157 C   0  0  0  0  0  0
    0.9530   49.3095   20.8711 S   0  0  0  0  0  0
    0.5056   49.7095   22.4977 C   0  0  0  0  0  0
    0.9983   50.9409   22.8990 C   0  0  0  0  0  0
    0.6432   51.4465   24.2245 C   0  0  0  0  0  0
    0.9481   52.5710   24.6352 O   0  0  0  0  0  0
   -0.1039   50.5154   24.9599 N   0  0  0  0  0  0
   -0.5183   49.2560   24.4707 C   0  0  0  0  0  0
   -0.2449   48.8846   23.2650 N   0  0  0  0  0  0
   -1.2637   48.3751   25.3078 N   0  0  0  0  0  0
   -2.2232   47.4509   24.8773 N   0  0  0  0  0  0
   -2.8842   46.8802   25.7989 C   0  0  0  0  0  0
   -3.9636   45.9156   25.5640 C   0  0  0  0  0  0
   -4.6018   45.7955   24.3187 C   0  0  0  0  0  0
   -5.6050   44.8500   24.1271 C   0  0  0  0  0  0
   -5.9841   44.0183   25.1794 C   0  0  0  0  0  0
   -5.3653   44.1304   26.4212 C   0  0  0  0  0  0
   -4.3680   45.0827   26.6161 C   0  0  0  0  0  0
   -6.9498   43.0908   24.9889 F   0  0  0  0  0  0
   -0.4989   50.9399   26.2696 C   0  0  0  0  0  0
   -1.8565   50.9840   26.6261 C   0  0  0  0  0  0
   -2.2298   51.3264   27.9210 C   0  0  0  0  0  0
   -1.2536   51.6950   28.8467 C   0  0  0  0  0  0
    0.0915   51.6955   28.5018 C   0  0  0  0  0  0
    0.4669   51.3009   27.2235 C   0  0  0  0  0  0
    2.5653   51.2009   19.4505 C   0  0  0  0  0  0
    1.0143   53.6571   13.7699 H   0  0  0  0  0  0
    2.2501   51.5681   14.2522 H   0  0  0  0  0  0
    3.5054   51.3362   16.3611 H   0  0  0  0  0  0
    2.2691   55.2982   17.5153 H   0  0  0  0  0  0
    1.0248   55.5221   15.3940 H   0  0  0  0  0  0
    4.1418   54.1641   18.6483 H   0  0  0  0  0  0
    4.5987   52.4966   18.2946 H   0  0  0  0  0  0
    4.4204   52.3528   21.0055 H   0  0  0  0  0  0
    3.9263   54.0658   20.8695 H   0  0  0  0  0  0
    1.7994   53.7043   21.9698 H   0  0  0  0  0  0
    3.0035   52.9837   23.0020 H   0  0  0  0  0  0
   -1.2259   48.4965   26.3196 H   0  0  0  0  0  0
   -2.6851   47.0755   26.8510 H   0  0  0  0  0  0
   -4.3211   46.4343   23.4910 H   0  0  0  0  0  0
   -6.0936   44.7580   23.1664 H   0  0  0  0  0  0
   -5.6561   43.4763   27.2305 H   0  0  0  0  0  0
   -3.8972   45.1496   27.5905 H   0  0  0  0  0  0
   -2.6256   50.7135   25.9160 H   0  0  0  0  0  0
   -3.2726   51.3151   28.2063 H   0  0  0  0  0  0
   -1.5366   51.9437   29.8579 H   0  0  0  0  0  0
    0.8398   51.9698   29.2303 H   0  0  0  0  0  0
    1.5101   51.2881   26.9721 H   0  0  0  0  0  0
    3.5045   50.6568   19.3540 H   0  0  0  0  0  0
    1.9719   51.0788   18.5446 H   0  0  0  0  0  0
    2.0326   53.2575   19.5228 H   0  0  0  0  0  0
  1  6  2  0  0  0
  1  2  1  0  0  0
  1 38  1  0  0  0
  2  3  2  0  0  0
  2 39  1  0  0  0
  3  4  1  0  0  0
  3 40  1  0  0  0
  4  5  2  0  0  0
  4  7  1  0  0  0
  5  6  1  0  0  0
  5 41  1  0  0  0
  6 42  1  0  0  0
  7  8  1  0  0  0
  7 43  1  0  0  0
  7 44  1  0  0  0
  8 37  1  0  0  0
  8  9  1  0  0  0
  8 62  1  0  0  0
  9 10  1  0  0  0
  9 45  1  0  0  0
  9 46  1  0  0  0
 10 11  1  0  0  0
 10 47  1  0  0  0
 10 48  1  0  0  0
 11 15  1  0  0  0
 11 12  2  0  0  0
 12 13  1  0  0  0
 12 37  1  0  0  0
 13 14  1  0  0  0
 14 20  1  0  0  0
 14 15  2  0  0  0
 15 16  1  0  0  0
 16 17  2  0  0  0
 16 18  1  0  0  0
 18 19  1  0  0  0
 18 31  1  0  0  0
 19 20  2  0  0  0
 19 21  1  0  0  0
 21 22  1  0  0  0
 21 49  1  0  0  0
 22 23  2  0  0  0
 23 24  1  0  0  0
 23 50  1  0  0  0
 24 29  2  0  0  0
 24 25  1  0  0  0
 25 26  2  0  0  0
 25 51  1  0  0  0
 26 27  1  0  0  0
 26 52  1  0  0  0
 27 28  2  0  0  0
 27 30  1  0  0  0
 28 29  1  0  0  0
 28 53  1  0  0  0
 29 54  1  0  0  0
 31 36  2  0  0  0
 31 32  1  0  0  0
 32 33  2  0  0  0
 32 55  1  0  0  0
 33 34  1  0  0  0
 33 56  1  0  0  0
 34 35  2  0  0  0
 34 57  1  0  0  0
 35 36  1  0  0  0
 35 58  1  0  0  0
 36 59  1  0  0  0
 37 60  1  0  0  0
 37 61  1  0  0  0
M  CHG  1   8   1
M  END
> <i_i_glide_confnum>
86

> <i_i_glide_lignum>
5437

> <i_i_glide_posenum>
335

> <i_i_glide_rotatable_bonds>
6

> <i_m_Source_File_Index>
5594

> <b_m_subgroup_collapsed>
0

> <r_i_docking_score>
-3.01394

> <r_i_glide_ecoul>
-6.54349

> <r_i_glide_eff_state_penalty>
0

> <r_i_glide_einternal>
1.91928

> <r_i_glide_emodel>
-48.0523

> <r_i_glide_energy>
-39.3914

> <r_i_glide_erotb>
0.392906

> <r_i_glide_esite>
-0.255925

> <r_i_glide_evdw>
-32.8479

> <r_i_glide_gscore>
-3.01394

> <r_i_glide_hbond>
-0.143982

> <r_i_glide_ligand_efficiency>
-0.0814577

> <r_i_glide_ligand_efficiency_ln>
-0.653652

> <r_i_glide_ligand_efficiency_sa>
-0.271435

> <r_i_glide_lipo>
-0.383016

> <r_i_glide_metal>
0

> <r_i_glide_rewards>
0

> <s_i_glide_gridfile>
wee1_glide-grid

> <s_m_Source_File>
wee1_decoys_glide_SP.sdf

> <s_m_Source_Path>
/Users/zhangxujun/Desktop

> <s_m_entry_id>
5869

> <s_m_entry_name>
wee1_decoys_glide_SP.5594

> <s_m_subgroup_title>
wee1_decoys_glide_SP

> <s_m_subgroupid>
wee1_decoys_glide_SP


$$$$
