ZINC02265060_2847
                    3D
 Schrodinger Suite 2024-2.
 61 65  0  0  1  0            999 V2000
    7.6122   49.8792   12.9490 C   0  0  0  0  0  0
    7.5202   51.3896   13.1997 C   0  0  0  0  0  0
    7.0453   51.7212   14.6257 C   0  0  0  0  0  0
    6.9289   53.2250   14.9054 C   0  0  0  0  0  0
    6.4761   53.3692   16.2439 O   0  0  0  0  0  0
    6.5097   54.5629   16.8814 C   0  0  0  0  0  0
    6.9392   55.6024   16.3741 O   0  0  0  0  0  0
    6.0461   54.4669   18.3055 C   0  0  0  0  0  0
    5.3843   53.3267   18.7834 C   0  0  0  0  0  0
    5.0093   53.2281   20.1192 C   0  0  0  0  0  0
    5.2968   54.2741   21.0002 C   0  0  0  0  0  0
    5.9038   55.4386   20.5185 C   0  0  0  0  0  0
    6.2803   55.5322   19.1828 C   0  0  0  0  0  0
    4.9419   54.1737   22.3734 N   0  0  0  0  0  0
    5.7580   54.4899   23.4649 C   0  0  0  0  0  0
    5.0779   54.3153   24.6799 C   0  0  0  0  0  0
    3.7822   53.8181   24.2888 C   0  0  0  0  0  0
    3.7400   53.7032   22.8796 C   0  0  0  0  0  0
    2.6714   53.2360   22.2239 N   0  0  0  0  0  0
    1.5967   52.8306   22.9548 C   0  0  0  0  0  0
    0.4634   52.2823   22.3139 C   0  0  0  0  0  0
   -0.6248   51.8591   23.0773 C   0  0  0  0  0  0
   -0.6064   51.9663   24.4666 C   0  0  0  0  0  0
    0.5001   52.4969   25.1258 C   0  0  0  0  0  0
    1.6143   52.9408   24.3759 C   0  0  0  0  0  0
    2.7078   53.4547   25.0033 N   0  0  0  0  0  0
    5.6152   54.5997   25.9968 C   0  0  0  0  0  0
    6.6472   55.2522   26.1722 O   0  0  0  0  0  0
    4.8617   54.0967   26.9872 N   0  0  0  0  0  0
    5.0080   54.3309   28.4187 C   0  0  0  0  0  0
    3.6316   54.2672   29.0505 C   0  0  0  0  0  0
    2.7123   55.2910   29.2996 C   0  0  0  0  0  0
    1.5111   54.8621   29.8741 C   0  0  0  0  0  0
    1.4809   53.4934   30.0801 C   0  0  0  0  0  0
    2.9476   52.7396   29.5554 S   0  0  0  0  0  0
    7.0577   54.8743   23.2568 N   0  0  0  0  0  0
    7.9591   49.6719   11.9384 H   0  0  0  0  0  0
    6.6410   49.3985   13.0732 H   0  0  0  0  0  0
    8.3091   49.3987   13.6397 H   0  0  0  0  0  0
    8.4979   51.8450   13.0253 H   0  0  0  0  0  0
    6.8384   51.8341   12.4730 H   0  0  0  0  0  0
    6.0766   51.2508   14.8054 H   0  0  0  0  0  0
    7.7412   51.2922   15.3484 H   0  0  0  0  0  0
    7.8998   53.7065   14.7732 H   0  0  0  0  0  0
    6.2207   53.6949   14.2205 H   0  0  0  0  0  0
    5.1541   52.4970   18.1294 H   0  0  0  0  0  0
    4.5210   52.3237   20.4555 H   0  0  0  0  0  0
    6.0893   56.2734   21.1773 H   0  0  0  0  0  0
    6.7640   56.4381   18.8388 H   0  0  0  0  0  0
    0.4526   52.1922   21.2378 H   0  0  0  0  0  0
   -1.4894   51.4409   22.5843 H   0  0  0  0  0  0
   -1.4537   51.6232   25.0422 H   0  0  0  0  0  0
    0.5180   52.5686   26.2044 H   0  0  0  0  0  0
    4.0833   53.5158   26.7180 H   0  0  0  0  0  0
    5.6662   53.5685   28.8370 H   0  0  0  0  0  0
    5.4822   55.2929   28.6167 H   0  0  0  0  0  0
    2.9060   56.3272   29.0667 H   0  0  0  0  0  0
    0.7007   55.5290   30.1303 H   0  0  0  0  0  0
    0.6814   52.9045   30.5060 H   0  0  0  0  0  0
    7.6907   55.0574   24.0262 H   0  0  0  0  0  0
    7.4734   54.8977   22.3344 H   0  0  0  0  0  0
  1  2  1  0  0  0
  1 37  1  0  0  0
  1 38  1  0  0  0
  1 39  1  0  0  0
  2  3  1  0  0  0
  2 40  1  0  0  0
  2 41  1  0  0  0
  3  4  1  0  0  0
  3 42  1  0  0  0
  3 43  1  0  0  0
  4  5  1  0  0  0
  4 44  1  0  0  0
  4 45  1  0  0  0
  5  6  1  0  0  0
  6  7  2  0  0  0
  6  8  1  0  0  0
  8 13  2  0  0  0
  8  9  1  0  0  0
  9 10  2  0  0  0
  9 46  1  0  0  0
 10 11  1  0  0  0
 10 47  1  0  0  0
 11 12  2  0  0  0
 11 14  1  0  0  0
 12 13  1  0  0  0
 12 48  1  0  0  0
 13 49  1  0  0  0
 14 18  1  0  0  0
 14 15  1  0  0  0
 15 16  2  0  0  0
 15 36  1  0  0  0
 16 17  1  0  0  0
 16 27  1  0  0  0
 17 26  2  0  0  0
 17 18  1  0  0  0
 18 19  2  0  0  0
 19 20  1  0  0  0
 20 25  2  0  0  0
 20 21  1  0  0  0
 21 22  2  0  0  0
 21 50  1  0  0  0
 22 23  1  0  0  0
 22 51  1  0  0  0
 23 24  2  0  0  0
 23 52  1  0  0  0
 24 25  1  0  0  0
 24 53  1  0  0  0
 25 26  1  0  0  0
 27 28  2  0  0  0
 27 29  1  0  0  0
 29 30  1  0  0  0
 29 54  1  0  0  0
 30 31  1  0  0  0
 30 55  1  0  0  0
 30 56  1  0  0  0
 31 35  1  0  0  0
 31 32  2  0  0  0
 32 33  1  0  0  0
 32 57  1  0  0  0
 33 34  2  0  0  0
 33 58  1  0  0  0
 34 35  1  0  0  0
 34 59  1  0  0  0
 36 60  1  0  0  0
 36 61  1  0  0  0
M  END
> <i_i_glide_confnum>
201

> <i_i_glide_lignum>
2848

> <i_i_glide_posenum>
20

> <i_i_glide_rotatable_bonds>
10

> <i_m_Source_File_Index>
2128

> <b_m_subgroup_collapsed>
0

> <r_i_docking_score>
-7.00705

> <r_i_glide_ecoul>
-4.98751

> <r_i_glide_eff_state_penalty>
0

> <r_i_glide_einternal>
6.37271

> <r_i_glide_emodel>
-76.4818

> <r_i_glide_energy>
-56.2161

> <r_i_glide_erotb>
0.654328

> <r_i_glide_esite>
-0.00279751

> <r_i_glide_evdw>
-51.2286

> <r_i_glide_gscore>
-7.00705

> <r_i_glide_hbond>
-0.440394

> <r_i_glide_ligand_efficiency>
-0.19464

> <r_i_glide_ligand_efficiency_ln>
-1.52875

> <r_i_glide_ligand_efficiency_sa>
-0.642688

> <r_i_glide_lipo>
-2.98725

> <r_i_glide_metal>
0

> <r_i_glide_rewards>
-0.921381

> <s_i_glide_gridfile>
wee1_glide-grid

> <s_m_Source_File>
wee1_decoys_glide_SP.sdf

> <s_m_Source_Path>
/Users/zhangxujun/Desktop

> <s_m_entry_id>
2403

> <s_m_entry_name>
wee1_decoys_glide_SP.2128

> <s_m_subgroup_title>
wee1_decoys_glide_SP

> <s_m_subgroupid>
wee1_decoys_glide_SP


$$$$
