ZINC33628232_5682
                    3D
 Schrodinger Suite 2024-2.
 76 79  0  0  1  0            999 V2000
    3.4248   51.9688   14.1988 C   0  0  0  0  0  0
    3.7999   52.7062   15.4668 C   0  0  0  0  0  0
    4.5834   53.8588   15.3971 C   0  0  0  0  0  0
    4.9615   54.5269   16.5595 C   0  0  0  0  0  0
    4.5781   54.0496   17.7915 N   0  0  0  0  0  0
    3.7561   52.9032   17.8627 C   0  0  0  0  0  0
    3.3537   52.2268   16.6991 C   0  0  0  0  0  0
    3.5075   52.7075   19.1748 N   0  3  0  0  0  0
    4.0717   53.6963   19.9544 C   0  0  0  0  0  0
    4.8397   54.5138   19.0872 C   0  0  0  0  0  0
    5.6265   55.6398   19.3060 N   0  0  0  0  0  0
    7.0964   55.7580   19.3388 C   0  0  0  0  0  0
    7.5909   55.5001   20.7843 C   0  0  0  0  0  0
    7.7999   54.6977   18.4623 C   0  0  0  0  0  0
    7.5784   57.2172   19.0014 C   0  0  0  0  0  0
    7.3917   57.9362   17.6218 C   0  0  0  0  0  0
    8.1283   59.2967   17.7249 C   0  0  0  0  0  0
    5.9079   58.2510   17.3339 C   0  0  0  0  0  0
    8.0342   57.1732   16.4432 C   0  0  0  0  0  0
    3.8361   53.6912   21.4424 C   0  0  0  0  0  0
    4.5977   54.4940   22.2876 C   0  0  0  0  0  0
    4.3908   54.4966   23.6638 C   0  0  0  0  0  0
    3.3700   53.7326   24.2414 C   0  0  0  0  0  0
    2.5558   52.9506   23.4079 C   0  0  0  0  0  0
    2.8154   52.9195   22.0239 C   0  0  0  0  0  0
    1.5370   52.2402   24.0200 O   0  0  0  0  0  0
    0.6398   51.4684   23.2286 C   0  0  0  0  0  0
    3.0880   53.7586   25.5975 O   0  0  0  0  0  0
    4.0596   53.7136   26.5692 C   0  0  0  0  0  0
    5.2686   53.8616   26.3644 O   0  0  0  0  0  0
    3.5059   53.3435   27.9096 C   0  0  0  0  0  0
    4.3882   52.8958   28.8984 C   0  0  0  0  0  0
    3.9043   52.4710   30.1311 C   0  0  0  0  0  0
    2.5433   52.5236   30.4149 C   0  0  0  0  0  0
    1.6554   53.0006   29.4400 C   0  0  0  0  0  0
    2.1339   53.3977   28.1935 C   0  0  0  0  0  0
    2.1711   52.0962   31.6713 O   0  0  0  0  0  0
    0.8118   52.2130   32.0764 C   0  0  0  0  0  0
    2.4129   51.5687   14.2691 H   0  0  0  0  0  0
    3.4442   52.6259   13.3257 H   0  0  0  0  0  0
    4.1087   51.1336   14.0337 H   0  0  0  0  0  0
    4.9108   54.2359   14.4383 H   0  0  0  0  0  0
    5.5623   55.4171   16.5525 H   0  0  0  0  0  0
    2.7655   51.3246   16.7601 H   0  0  0  0  0  0
    5.2243   56.3924   19.8462 H   0  0  0  0  0  0
    7.2220   56.2504   21.4847 H   0  0  0  0  0  0
    7.2708   54.5278   21.1556 H   0  0  0  0  0  0
    8.6795   55.5193   20.8518 H   0  0  0  0  0  0
    8.8849   54.8126   18.4812 H   0  0  0  0  0  0
    7.5792   53.6960   18.8298 H   0  0  0  0  0  0
    7.4959   54.7061   17.4212 H   0  0  0  0  0  0
    8.6440   57.2636   19.2369 H   0  0  0  0  0  0
    7.1036   57.8728   19.7314 H   0  0  0  0  0  0
    7.9555   59.9138   16.8415 H   0  0  0  0  0  0
    9.2053   59.1671   17.8251 H   0  0  0  0  0  0
    7.7875   59.8788   18.5824 H   0  0  0  0  0  0
    5.2691   57.3739   17.3264 H   0  0  0  0  0  0
    5.5038   58.9312   18.0807 H   0  0  0  0  0  0
    5.7869   58.7433   16.3664 H   0  0  0  0  0  0
    7.4163   56.3612   16.0736 H   0  0  0  0  0  0
    8.1962   57.8271   15.5840 H   0  0  0  0  0  0
    9.0069   56.7631   16.7165 H   0  0  0  0  0  0
    5.3458   55.1484   21.8873 H   0  0  0  0  0  0
    5.0070   55.1366   24.2751 H   0  0  0  0  0  0
    2.1938   52.3129   21.3845 H   0  0  0  0  0  0
   -0.1069   51.0116   23.8799 H   0  0  0  0  0  0
    0.1094   52.0904   22.5041 H   0  0  0  0  0  0
    1.1556   50.6622   22.7060 H   0  0  0  0  0  0
    5.4519   52.8366   28.7089 H   0  0  0  0  0  0
    4.5906   52.0981   30.8777 H   0  0  0  0  0  0
    0.5934   53.0521   29.6228 H   0  0  0  0  0  0
    1.4256   53.7373   27.4524 H   0  0  0  0  0  0
    0.7027   51.7617   33.0617 H   0  0  0  0  0  0
    0.5078   53.2575   32.1546 H   0  0  0  0  0  0
    0.1312   51.6973   31.3993 H   0  0  0  0  0  0
    2.9594   51.9437   19.5374 H   0  0  0  0  0  0
  1  2  1  0  0  0
  1 39  1  0  0  0
  1 40  1  0  0  0
  1 41  1  0  0  0
  2  7  2  0  0  0
  2  3  1  0  0  0
  3  4  2  0  0  0
  3 42  1  0  0  0
  4  5  1  0  0  0
  4 43  1  0  0  0
  5 10  1  0  0  0
  5  6  1  0  0  0
  6  7  1  0  0  0
  6  8  2  0  0  0
  7 44  1  0  0  0
  8  9  1  0  0  0
  8 76  1  0  0  0
  9 10  2  0  0  0
  9 20  1  0  0  0
 10 11  1  0  0  0
 11 12  1  0  0  0
 11 45  1  0  0  0
 12 13  1  0  0  0
 12 14  1  0  0  0
 12 15  1  0  0  0
 13 46  1  0  0  0
 13 47  1  0  0  0
 13 48  1  0  0  0
 14 49  1  0  0  0
 14 50  1  0  0  0
 14 51  1  0  0  0
 15 16  1  0  0  0
 15 52  1  0  0  0
 15 53  1  0  0  0
 16 17  1  0  0  0
 16 18  1  0  0  0
 16 19  1  0  0  0
 17 54  1  0  0  0
 17 55  1  0  0  0
 17 56  1  0  0  0
 18 57  1  0  0  0
 18 58  1  0  0  0
 18 59  1  0  0  0
 19 60  1  0  0  0
 19 61  1  0  0  0
 19 62  1  0  0  0
 20 25  2  0  0  0
 20 21  1  0  0  0
 21 22  2  0  0  0
 21 63  1  0  0  0
 22 23  1  0  0  0
 22 64  1  0  0  0
 23 24  2  0  0  0
 23 28  1  0  0  0
 24 25  1  0  0  0
 24 26  1  0  0  0
 25 65  1  0  0  0
 26 27  1  0  0  0
 27 66  1  0  0  0
 27 67  1  0  0  0
 27 68  1  0  0  0
 28 29  1  0  0  0
 29 30  2  0  0  0
 29 31  1  0  0  0
 31 36  2  0  0  0
 31 32  1  0  0  0
 32 33  2  0  0  0
 32 69  1  0  0  0
 33 34  1  0  0  0
 33 70  1  0  0  0
 34 35  2  0  0  0
 34 37  1  0  0  0
 35 36  1  0  0  0
 35 71  1  0  0  0
 36 72  1  0  0  0
 37 38  1  0  0  0
 38 73  1  0  0  0
 38 74  1  0  0  0
 38 75  1  0  0  0
M  CHG  1   8   1
M  END
> <i_i_glide_confnum>
90

> <i_i_glide_lignum>
5683

> <i_i_glide_posenum>
361

> <i_i_glide_rotatable_bonds>
10

> <i_m_Source_File_Index>
178

> <b_m_subgroup_collapsed>
0

> <r_i_docking_score>
-4.34648

> <r_i_glide_ecoul>
-1.28991

> <r_i_glide_eff_state_penalty>
0

> <r_i_glide_einternal>
11.2519

> <r_i_glide_emodel>
-51.2208

> <r_i_glide_energy>
-42.3512

> <r_i_glide_erotb>
0.538304

> <r_i_glide_esite>
-0.121599

> <r_i_glide_evdw>
-41.0613

> <r_i_glide_gscore>
-4.34648

> <r_i_glide_hbond>
-0.147715

> <r_i_glide_ligand_efficiency>
-0.114381

> <r_i_glide_ligand_efficiency_ln>
-0.937229

> <r_i_glide_ligand_efficiency_sa>
-0.384546

> <r_i_glide_lipo>
-2.13506

> <r_i_glide_metal>
0

> <r_i_glide_rewards>
-0.233854

> <s_i_glide_gridfile>
wee1_glide-grid

> <s_m_Source_File>
wee1_decoys_glide_SP.sdf

> <s_m_Source_Path>
/Users/zhangxujun/Desktop

> <s_m_entry_id>
453

> <s_m_entry_name>
wee1_decoys_glide_SP.178

> <s_m_subgroup_title>
wee1_decoys_glide_SP

> <s_m_subgroupid>
wee1_decoys_glide_SP


$$$$
