ZINC08854200_3151
                    3D
 Schrodinger Suite 2024-2.
 31 32  0  0  1  0            999 V2000
    4.3392   54.0968   22.1079 C   0  0  0  0  0  0
    5.5762   54.5020   21.6127 C   0  0  0  0  0  0
    6.5618   54.8959   22.5171 C   0  0  0  0  0  0
    6.3685   54.8930   23.8597 N   0  0  0  0  0  0
    5.1571   54.4933   24.3457 C   0  0  0  0  0  0
    4.1164   54.0967   23.4863 C   0  0  0  0  0  0
    2.4015   53.5623   24.1273 Br  0  0  0  0  0  0
    4.9025   54.4954   25.7288 N   0  0  0  0  0  0
    5.7852   54.5129   26.7509 C   0  0  0  0  0  0
    7.0106   54.4968   26.6280 O   0  0  0  0  0  0
    5.1719   54.6257   28.1484 C   0  0  0  0  0  0
    4.7042   53.0324   28.8817 S   0  0  0  0  0  0
    3.0175   52.9265   28.3956 C   0  0  0  0  0  0
    2.4072   53.6907   27.5223 N   0  0  0  0  0  0
    1.1008   53.2963   27.2815 N   0  0  0  0  0  0
    0.7483   52.2530   27.9985 C   0  0  0  0  0  0
    1.9932   51.6967   29.0567 S   0  0  0  0  0  0
   -0.4506   51.5545   27.9895 N   0  0  0  0  0  0
   -1.4584   51.7029   27.1062 C   0  0  0  0  0  0
   -1.4507   52.4962   26.1631 O   0  0  0  0  0  0
   -2.6726   50.7991   27.3359 C   0  0  0  0  0  0
   -4.2171   51.5775   26.8842 Cl  0  0  0  0  0  0
    5.9074   54.5313   19.7398 Br  0  0  0  0  0  0
    3.5535   53.7980   21.4278 H   0  0  0  0  0  0
    7.5283   55.2259   22.1686 H   0  0  0  0  0  0
    3.9260   54.4244   25.9744 H   0  0  0  0  0  0
    5.9044   55.0841   28.8104 H   0  0  0  0  0  0
    4.3186   55.2967   28.1495 H   0  0  0  0  0  0
   -0.5463   50.8052   28.6612 H   0  0  0  0  0  0
   -2.5676   49.8922   26.7401 H   0  0  0  0  0  0
   -2.7526   50.4968   28.3813 H   0  0  0  0  0  0
  1  6  2  0  0  0
  1  2  1  0  0  0
  1 24  1  0  0  0
  2  3  2  0  0  0
  2 23  1  0  0  0
  3  4  1  0  0  0
  3 25  1  0  0  0
  4  5  2  0  0  0
  5  6  1  0  0  0
  5  8  1  0  0  0
  6  7  1  0  0  0
  8  9  1  0  0  0
  8 26  1  0  0  0
  9 10  2  0  0  0
  9 11  1  0  0  0
 11 12  1  0  0  0
 11 27  1  0  0  0
 11 28  1  0  0  0
 12 13  1  0  0  0
 13 17  1  0  0  0
 13 14  2  0  0  0
 14 15  1  0  0  0
 15 16  2  0  0  0
 16 17  1  0  0  0
 16 18  1  0  0  0
 18 19  1  0  0  0
 18 29  1  0  0  0
 19 20  2  0  0  0
 19 21  1  0  0  0
 21 22  1  0  0  0
 21 30  1  0  0  0
 21 31  1  0  0  0
M  END
> <i_i_glide_confnum>
15

> <i_i_glide_lignum>
3152

> <i_i_glide_posenum>
202

> <i_i_glide_rotatable_bonds>
8

> <i_m_Source_File_Index>
3186

> <b_m_subgroup_collapsed>
0

> <r_i_docking_score>
-5.63151

> <r_i_glide_ecoul>
-5.28095

> <r_i_glide_eff_state_penalty>
0

> <r_i_glide_einternal>
5.01595

> <r_i_glide_emodel>
-65.07

> <r_i_glide_energy>
-48.3801

> <r_i_glide_erotb>
0.487127

> <r_i_glide_esite>
-0.113234

> <r_i_glide_evdw>
-43.0991

> <r_i_glide_gscore>
-5.63151

> <r_i_glide_hbond>
-0.231482

> <r_i_glide_ligand_efficiency>
-0.244848

> <r_i_glide_ligand_efficiency_ln>
-1.36175

> <r_i_glide_ligand_efficiency_sa>
-0.696316

> <r_i_glide_lipo>
-2.37683

> <r_i_glide_metal>
0

> <r_i_glide_rewards>
-0.449994

> <s_i_glide_gridfile>
wee1_glide-grid

> <s_m_Source_File>
wee1_decoys_glide_SP.sdf

> <s_m_Source_Path>
/Users/zhangxujun/Desktop

> <s_m_entry_id>
3461

> <s_m_entry_name>
wee1_decoys_glide_SP.3186

> <s_m_subgroup_title>
wee1_decoys_glide_SP

> <s_m_subgroupid>
wee1_decoys_glide_SP


$$$$
