ZINC22218654_4720
                    3D
 Schrodinger Suite 2024-2.
 38 40  0  0  1  0            999 V2000
    6.1918   54.8659   19.4962 C   0  0  0  0  0  0
    5.2466   54.3663   20.3985 C   0  0  0  0  0  0
    5.4990   54.4993   21.7720 C   0  0  0  0  0  0
    6.6968   55.1322   22.2101 C   0  0  0  0  0  0
    7.6378   55.6259   21.2940 C   0  0  0  0  0  0
    7.3688   55.4764   19.9361 C   0  0  0  0  0  0
    8.3035   55.9385   19.0106 N   0  0  0  0  0  0
    6.7044   55.1671   23.9676 S   0  0  0  0  0  0
    5.1334   54.3792   23.9459 C   0  0  0  0  0  0
    4.6573   54.0962   22.7654 N   0  0  0  0  0  0
    4.3798   54.1034   25.0797 N   0  0  0  0  0  0
    4.6900   54.3883   26.3614 C   0  0  0  0  0  0
    5.7814   54.7870   26.7727 O   0  0  0  0  0  0
    3.6189   54.2332   27.1566 N   0  0  0  0  0  0
    3.5885   54.5120   28.5981 C   0  0  0  0  0  0
    2.1897   55.0122   29.0415 C   0  0  0  0  0  0
    1.0910   53.9339   28.8910 C   0  0  0  0  0  0
    1.4565   52.6375   29.6426 C   0  0  0  0  0  0
    2.8706   52.1382   29.2804 C   0  0  0  0  0  0
    3.9250   53.2549   29.4338 C   0  0  0  0  0  0
    6.0065   54.7666   18.4342 H   0  0  0  0  0  0
    4.3429   53.8972   20.0407 H   0  0  0  0  0  0
    8.5492   56.0954   21.6395 H   0  0  0  0  0  0
    8.1644   55.7113   18.0366 H   0  0  0  0  0  0
    9.2345   56.1651   19.3368 H   0  0  0  0  0  0
    3.4617   53.7301   24.8936 H   0  0  0  0  0  0
    2.8449   53.6913   26.8066 H   0  0  0  0  0  0
    4.3177   55.2958   28.8231 H   0  0  0  0  0  0
    1.9154   55.8984   28.4692 H   0  0  0  0  0  0
    2.2338   55.3419   30.0810 H   0  0  0  0  0  0
    0.9333   53.7107   27.8344 H   0  0  0  0  0  0
    0.1404   54.3171   29.2594 H   0  0  0  0  0  0
    0.7209   51.8595   29.4302 H   0  0  0  0  0  0
    1.4018   52.8141   30.7179 H   0  0  0  0  0  0
    2.8723   51.7628   28.2560 H   0  0  0  0  0  0
    3.1475   51.2970   29.9090 H   0  0  0  0  0  0
    4.0138   53.5288   30.4858 H   0  0  0  0  0  0
    4.9078   52.8728   29.1463 H   0  0  0  0  0  0
  1  6  2  0  0  0
  1  2  1  0  0  0
  1 21  1  0  0  0
  2  3  2  0  0  0
  2 22  1  0  0  0
  3 10  1  0  0  0
  3  4  1  0  0  0
  4  5  2  0  0  0
  4  8  1  0  0  0
  5  6  1  0  0  0
  5 23  1  0  0  0
  6  7  1  0  0  0
  7 24  1  0  0  0
  7 25  1  0  0  0
  8  9  1  0  0  0
  9 10  2  0  0  0
  9 11  1  0  0  0
 11 12  1  0  0  0
 11 26  1  0  0  0
 12 13  2  0  0  0
 12 14  1  0  0  0
 14 15  1  0  0  0
 14 27  1  0  0  0
 15 20  1  0  0  0
 15 16  1  0  0  0
 15 28  1  0  0  0
 16 17  1  0  0  0
 16 29  1  0  0  0
 16 30  1  0  0  0
 17 18  1  0  0  0
 17 31  1  0  0  0
 17 32  1  0  0  0
 18 19  1  0  0  0
 18 33  1  0  0  0
 18 34  1  0  0  0
 19 20  1  0  0  0
 19 35  1  0  0  0
 19 36  1  0  0  0
 20 37  1  0  0  0
 20 38  1  0  0  0
M  END
> <i_i_glide_confnum>
1

> <i_i_glide_lignum>
4721

> <i_i_glide_posenum>
373

> <i_i_glide_rotatable_bonds>
4

> <i_m_Source_File_Index>
1475

> <b_m_subgroup_collapsed>
0

> <r_i_docking_score>
-5.98528

> <r_i_glide_ecoul>
-2.08595

> <r_i_glide_eff_state_penalty>
0

> <r_i_glide_einternal>
0.765435

> <r_i_glide_emodel>
-57.5807

> <r_i_glide_energy>
-41.7012

> <r_i_glide_erotb>
0.648366

> <r_i_glide_esite>
0

> <r_i_glide_evdw>
-39.6152

> <r_i_glide_gscore>
-5.98528

> <r_i_glide_hbond>
0

> <r_i_glide_ligand_efficiency>
-0.299264

> <r_i_glide_ligand_efficiency_ln>
-1.49792

> <r_i_glide_ligand_efficiency_sa>
-0.812328

> <r_i_glide_lipo>
-2.52179

> <r_i_glide_metal>
0

> <r_i_glide_rewards>
-1.81821

> <s_i_glide_gridfile>
wee1_glide-grid

> <s_m_Source_File>
wee1_decoys_glide_SP.sdf

> <s_m_Source_Path>
/Users/zhangxujun/Desktop

> <s_m_entry_id>
1750

> <s_m_entry_name>
wee1_decoys_glide_SP.1475

> <s_m_subgroup_title>
wee1_decoys_glide_SP

> <s_m_subgroupid>
wee1_decoys_glide_SP


$$$$
