ZINC13565634_3161
                    3D
 Schrodinger Suite 2024-2.
 60 62  0  0  1  0            999 V2000
   -4.5010   48.5234   26.6285 C   0  0  0  0  0  0
   -3.5965   49.3130   25.6909 C   0  0  0  0  0  0
   -4.0533   49.7687   24.6437 O   0  0  0  0  0  0
   -2.3234   49.4658   26.0816 N   0  0  0  0  0  0
   -1.2851   50.1977   25.3427 C   0  0  2  0  0  0
   -1.7676   50.7589   24.5394 H   0  0  0  0  0  0
   -0.2555   49.2124   24.7163 C   0  0  0  0  0  0
    0.3749   49.7303   23.4223 C   0  0  0  0  0  0
    1.4470   50.6281   23.4721 C   0  0  0  0  0  0
    2.0431   51.0857   22.2966 C   0  0  0  0  0  0
    1.5766   50.6449   21.0594 C   0  0  0  0  0  0
    0.5068   49.7526   20.9997 C   0  0  0  0  0  0
   -0.0949   49.2978   22.1737 C   0  0  0  0  0  0
   -1.1277   48.4264   22.0896 F   0  0  0  0  0  0
   -0.5888   51.2326   26.2535 C   0  0  0  0  0  0
   -0.1786   52.2822   25.7637 O   0  0  0  0  0  0
   -0.4525   50.8966   27.5466 N   0  0  0  0  0  0
    0.3672   51.5328   28.5710 C   0  0  0  0  0  0
    1.9018   51.3979   28.3342 C   0  0  0  0  0  0
    2.7588   52.1475   29.3758 C   0  0  0  0  0  0
    2.2611   53.5209   29.5120 N   0  0  0  0  0  0
    0.8601   53.6560   29.9615 C   0  0  0  0  0  0
   -0.0873   52.9650   28.9653 C   0  0  0  0  0  0
    3.1690   54.8755   28.8336 S   0  0  0  0  0  0
    2.3061   56.0627   28.8817 O   0  0  0  0  0  0
    4.4791   54.8899   29.4928 O   0  0  0  0  0  0
    3.4749   54.4961   27.1044 C   0  0  0  0  0  0
    2.4269   54.0963   26.2800 C   0  0  0  0  0  0
    2.6336   53.8854   24.9179 C   0  0  0  0  0  0
    3.8946   54.0964   24.3662 C   0  0  0  0  0  0
    4.9606   54.4978   25.1803 C   0  0  0  0  0  0
    4.7466   54.6783   26.5534 C   0  0  0  0  0  0
    6.3401   54.7516   24.5861 C   0  0  0  0  0  0
    6.3049   54.9365   23.2654 F   0  0  0  0  0  0
    6.9006   55.8183   25.1524 F   0  0  0  0  0  0
    7.1015   53.6969   24.8364 F   0  0  0  0  0  0
   -5.3574   49.1324   26.9200 H   0  0  0  0  0  0
   -4.8710   47.6297   26.1266 H   0  0  0  0  0  0
   -3.9766   48.2184   27.5352 H   0  0  0  0  0  0
   -2.0415   49.0372   26.9697 H   0  0  0  0  0  0
   -0.7466   48.2629   24.4957 H   0  0  0  0  0  0
    0.5256   48.9369   25.4300 H   0  0  0  0  0  0
    1.8201   50.9768   24.4232 H   0  0  0  0  0  0
    2.8694   51.7793   22.3423 H   0  0  0  0  0  0
    2.0429   50.9937   20.1487 H   0  0  0  0  0  0
    0.1439   49.4087   20.0429 H   0  0  0  0  0  0
   -0.7880   49.9693   27.8001 H   0  0  0  0  0  0
    0.1362   50.9061   29.4349 H   0  0  0  0  0  0
    2.1958   50.3519   28.3175 H   0  0  0  0  0  0
    2.1458   51.7599   27.3386 H   0  0  0  0  0  0
    2.7355   51.6918   30.3629 H   0  0  0  0  0  0
    3.8023   52.1769   29.0573 H   0  0  0  0  0  0
    0.7744   53.2189   30.9581 H   0  0  0  0  0  0
    0.6066   54.7121   30.0582 H   0  0  0  0  0  0
   -0.2075   53.5917   28.0825 H   0  0  0  0  0  0
   -1.0730   52.8965   29.4208 H   0  0  0  0  0  0
    1.4392   53.9762   26.6903 H   0  0  0  0  0  0
    1.8069   53.5823   24.2910 H   0  0  0  0  0  0
    4.0372   53.9485   23.3049 H   0  0  0  0  0  0
    5.5626   54.9990   27.1868 H   0  0  0  0  0  0
  1  2  1  0  0  0
  1 37  1  0  0  0
  1 38  1  0  0  0
  1 39  1  0  0  0
  2  3  2  0  0  0
  2  4  1  0  0  0
  4  5  1  0  0  0
  4 40  1  0  0  0
  5  6  1  0  0  0
  5  7  1  0  0  0
  5 15  1  0  0  0
  7  8  1  0  0  0
  7 41  1  0  0  0
  7 42  1  0  0  0
  8 13  2  0  0  0
  8  9  1  0  0  0
  9 10  2  0  0  0
  9 43  1  0  0  0
 10 11  1  0  0  0
 10 44  1  0  0  0
 11 12  2  0  0  0
 11 45  1  0  0  0
 12 13  1  0  0  0
 12 46  1  0  0  0
 13 14  1  0  0  0
 15 16  2  0  0  0
 15 17  1  0  0  0
 17 18  1  0  0  0
 17 47  1  0  0  0
 18 23  1  0  0  0
 18 19  1  0  0  0
 18 48  1  0  0  0
 19 20  1  0  0  0
 19 49  1  0  0  0
 19 50  1  0  0  0
 20 21  1  0  0  0
 20 51  1  0  0  0
 20 52  1  0  0  0
 21 22  1  0  0  0
 21 24  1  0  0  0
 22 23  1  0  0  0
 22 53  1  0  0  0
 22 54  1  0  0  0
 23 55  1  0  0  0
 23 56  1  0  0  0
 24 25  2  0  0  0
 24 26  2  0  0  0
 24 27  1  0  0  0
 27 32  2  0  0  0
 27 28  1  0  0  0
 28 29  2  0  0  0
 28 57  1  0  0  0
 29 30  1  0  0  0
 29 58  1  0  0  0
 30 31  2  0  0  0
 30 59  1  0  0  0
 31 32  1  0  0  0
 31 33  1  0  0  0
 32 60  1  0  0  0
 33 34  1  0  0  0
 33 35  1  0  0  0
 33 36  1  0  0  0
M  END
> <i_i_glide_confnum>
4

> <i_i_glide_lignum>
3162

> <i_i_glide_posenum>
94

> <i_i_glide_rotatable_bonds>
10

> <i_m_Source_File_Index>
3545

> <b_m_subgroup_collapsed>
0

> <r_i_docking_score>
-6.16181

> <r_i_glide_ecoul>
-7.72996

> <r_i_glide_eff_state_penalty>
0

> <r_i_glide_einternal>
6.95655

> <r_i_glide_emodel>
-60.4643

> <r_i_glide_energy>
-46.7506

> <r_i_glide_erotb>
0.540472

> <r_i_glide_esite>
-0.271525

> <r_i_glide_evdw>
-39.0207

> <r_i_glide_gscore>
-6.16181

> <r_i_glide_hbond>
-0.304

> <r_i_glide_ligand_efficiency>
-0.176052

> <r_i_glide_ligand_efficiency_ln>
-1.35265

> <r_i_glide_ligand_efficiency_sa>
-0.575876

> <r_i_glide_lipo>
-2.55064

> <r_i_glide_metal>
0

> <r_i_glide_rewards>
-0.465589

> <s_i_glide_gridfile>
wee1_glide-grid

> <s_m_Source_File>
wee1_decoys_glide_SP.sdf

> <s_m_Source_Path>
/Users/zhangxujun/Desktop

> <s_m_entry_id>
3820

> <s_m_entry_name>
wee1_decoys_glide_SP.3545

> <s_m_subgroup_title>
wee1_decoys_glide_SP

> <s_m_subgroupid>
wee1_decoys_glide_SP


$$$$
