ZINC16604742_4675
                    3D
 Schrodinger Suite 2024-2.
 34 36  0  0  1  0            999 V2000
    1.1033   52.6800   26.2868 C   0  0  0  0  0  0
    0.7098   52.3300   27.5696 C   0  0  0  0  0  0
    1.5200   52.6010   28.6645 C   0  0  0  0  0  0
    2.7617   53.2114   28.4377 C   0  0  0  0  0  0
    3.2234   53.5521   27.1214 C   0  0  0  0  0  0
    2.3284   53.3001   26.0516 C   0  0  0  0  0  0
    4.5681   54.1014   27.1469 C   0  0  0  0  0  0
    5.0051   54.2305   28.4604 C   0  0  0  0  0  0
    3.9044   53.6561   29.6800 S   0  0  0  0  0  0
    5.4035   54.5193   26.0282 C   0  0  0  0  0  0
    6.4113   55.2062   26.2152 O   0  0  0  0  0  0
    4.9791   54.0971   24.8206 N   0  0  0  0  0  0
    5.4580   54.3965   23.5335 C   0  0  0  0  0  0
    6.7045   54.9779   23.2662 C   0  0  0  0  0  0
    7.0608   55.2999   21.9587 C   0  0  0  0  0  0
    6.1682   55.0566   20.9142 C   0  0  0  0  0  0
    4.9438   54.4353   21.1688 C   0  0  0  0  0  0
    4.5971   54.0962   22.4744 C   0  0  0  0  0  0
    6.6067   55.5242   19.2411 S   0  0  0  0  0  0
    7.8032   54.7580   18.8855 O   0  0  0  0  0  0
    5.3906   55.4723   18.4257 O   0  0  0  0  0  0
    7.0905   57.1979   19.3263 N   0  0  0  0  0  0
    0.4395   52.4740   25.4587 H   0  0  0  0  0  0
   -0.2461   51.8466   27.7200 H   0  0  0  0  0  0
    1.1948   52.3420   29.6624 H   0  0  0  0  0  0
    2.5516   53.5714   25.0350 H   0  0  0  0  0  0
    5.9570   54.6354   28.7827 H   0  0  0  0  0  0
    4.1561   53.5196   24.8353 H   0  0  0  0  0  0
    7.4128   55.1923   24.0505 H   0  0  0  0  0  0
    8.0232   55.7529   21.7651 H   0  0  0  0  0  0
    4.2528   54.2256   20.3631 H   0  0  0  0  0  0
    3.6361   53.6364   22.6536 H   0  0  0  0  0  0
    8.0099   57.3425   18.8993 H   0  0  0  0  0  0
    6.3894   57.8275   18.9238 H   0  0  0  0  0  0
  1  6  2  0  0  0
  1  2  1  0  0  0
  1 23  1  0  0  0
  2  3  2  0  0  0
  2 24  1  0  0  0
  3  4  1  0  0  0
  3 25  1  0  0  0
  4  9  1  0  0  0
  4  5  2  0  0  0
  5  6  1  0  0  0
  5  7  1  0  0  0
  6 26  1  0  0  0
  7  8  2  0  0  0
  7 10  1  0  0  0
  8  9  1  0  0  0
  8 27  1  0  0  0
 10 11  2  0  0  0
 10 12  1  0  0  0
 12 13  1  0  0  0
 12 28  1  0  0  0
 13 18  2  0  0  0
 13 14  1  0  0  0
 14 15  2  0  0  0
 14 29  1  0  0  0
 15 16  1  0  0  0
 15 30  1  0  0  0
 16 17  2  0  0  0
 16 19  1  0  0  0
 17 18  1  0  0  0
 17 31  1  0  0  0
 18 32  1  0  0  0
 19 20  2  0  0  0
 19 21  2  0  0  0
 19 22  1  0  0  0
 22 33  1  0  0  0
 22 34  1  0  0  0
M  END
> <i_i_glide_confnum>
3

> <i_i_glide_lignum>
4676

> <i_i_glide_posenum>
67

> <i_i_glide_rotatable_bonds>
4

> <i_m_Source_File_Index>
3616

> <b_m_subgroup_collapsed>
0

> <r_i_docking_score>
-5.55042

> <r_i_glide_ecoul>
-4.9052

> <r_i_glide_eff_state_penalty>
0

> <r_i_glide_einternal>
2.58057

> <r_i_glide_emodel>
-54.9606

> <r_i_glide_energy>
-43.6947

> <r_i_glide_erotb>
0.511378

> <r_i_glide_esite>
-0.0308173

> <r_i_glide_evdw>
-38.7895

> <r_i_glide_gscore>
-5.55042

> <r_i_glide_hbond>
-0.115365

> <r_i_glide_ligand_efficiency>
-0.252292

> <r_i_glide_ligand_efficiency_ln>
-1.35673

> <r_i_glide_ligand_efficiency_sa>
-0.706932

> <r_i_glide_lipo>
-2.37916

> <r_i_glide_metal>
0

> <r_i_glide_rewards>
-0.8612

> <s_i_glide_gridfile>
wee1_glide-grid

> <s_m_Source_File>
wee1_decoys_glide_SP.sdf

> <s_m_Source_Path>
/Users/zhangxujun/Desktop

> <s_m_entry_id>
3891

> <s_m_entry_name>
wee1_decoys_glide_SP.3616

> <s_m_subgroup_title>
wee1_decoys_glide_SP

> <s_m_subgroupid>
wee1_decoys_glide_SP


$$$$
