ZINC18180816_1201
                    3D
 Schrodinger Suite 2024-2.
 62 66  0  0  1  0            999 V2000
    4.9441   54.5440   28.8795 C   0  0  0  0  0  0
    4.9007   54.4735   27.3647 C   0  0  0  0  0  0
    6.0613   54.6428   26.6076 C   0  0  0  0  0  0
    6.0049   54.5583   25.2159 C   0  0  0  0  0  0
    4.7855   54.2949   24.5719 C   0  0  0  0  0  0
    3.6263   54.1503   25.3473 C   0  0  0  0  0  0
    3.6822   54.2395   26.7327 C   0  0  0  0  0  0
    4.7137   54.0951   23.1073 C   0  0  0  0  0  0
    3.6786   53.7423   22.4655 N   0  0  0  0  0  0
    4.0024   53.4474   21.1699 N   0  0  0  0  0  0
    5.3765   53.8350   20.8217 C   0  0  2  0  0  0
    5.8576   52.9160   20.4890 H   0  0  0  0  0  0
    5.9045   54.2570   22.1989 C   0  0  0  0  0  0
    5.5596   54.8685   19.7009 C   0  0  0  0  0  0
    4.4990   55.2788   18.8817 C   0  0  0  0  0  0
    4.7035   56.2400   17.8959 C   0  0  0  0  0  0
    5.9722   56.7842   17.7132 C   0  0  0  0  0  0
    7.0411   56.3639   18.5007 C   0  0  0  0  0  0
    6.8353   55.4042   19.4876 C   0  0  0  0  0  0
    6.2221   57.9864   16.5013 Cl  0  0  0  0  0  0
    3.1553   52.6997   20.4220 C   0  0  0  0  0  0
    3.5044   52.0967   19.2832 N   0  3  0  0  0  0
    1.4713   52.4937   20.8691 S   0  0  0  0  0  0
    1.5739   51.4487   22.3639 C   0  0  2  0  0  0
    2.6113   51.4600   22.6938 H   0  0  0  0  0  0
    1.1386   50.0232   22.1865 C   0  0  0  0  0  0
    0.2679   49.7489   23.3992 C   0  0  0  0  0  0
   -0.1729   48.6344   23.6814 O   0  0  0  0  0  0
    0.0871   50.9186   24.0778 N   0  0  0  0  0  0
    0.7038   51.9783   23.4876 C   0  0  0  0  0  0
    0.6107   53.1673   23.8000 O   0  0  0  0  0  0
   -0.6766   51.0392   25.2623 C   0  0  0  0  0  0
   -2.0182   50.6323   25.2942 C   0  0  0  0  0  0
   -2.7643   50.7653   26.4651 C   0  0  0  0  0  0
   -2.1776   51.2967   27.6133 C   0  0  0  0  0  0
   -0.8398   51.6979   27.5989 C   0  0  0  0  0  0
   -0.0953   51.5742   26.4236 C   0  0  0  0  0  0
   -0.1881   52.2500   28.8533 C   0  0  0  0  0  0
    4.1799   55.2310   29.2452 H   0  0  0  0  0  0
    5.9044   54.8969   29.2518 H   0  0  0  0  0  0
    4.7377   53.5621   29.3055 H   0  0  0  0  0  0
    7.0054   54.8252   27.1003 H   0  0  0  0  0  0
    6.9227   54.6728   24.6568 H   0  0  0  0  0  0
    2.6716   53.9538   24.8857 H   0  0  0  0  0  0
    2.7786   54.1144   27.3111 H   0  0  0  0  0  0
    6.2510   55.2917   22.2166 H   0  0  0  0  0  0
    6.7122   53.6065   22.5252 H   0  0  0  0  0  0
    3.5044   54.8793   19.0134 H   0  0  0  0  0  0
    3.8789   56.5678   17.2795 H   0  0  0  0  0  0
    8.0266   56.7797   18.3462 H   0  0  0  0  0  0
    7.6726   55.0857   20.0918 H   0  0  0  0  0  0
    2.8138   51.5784   18.7581 H   0  0  0  0  0  0
    0.5527   49.8616   21.2803 H   0  0  0  0  0  0
    1.9823   49.3302   22.1903 H   0  0  0  0  0  0
   -2.4854   50.2091   24.4165 H   0  0  0  0  0  0
   -3.7926   50.4365   26.4900 H   0  0  0  0  0  0
   -2.7574   51.3637   28.5222 H   0  0  0  0  0  0
    0.9401   51.8844   26.4187 H   0  0  0  0  0  0
   -0.8948   52.3420   29.6800 H   0  0  0  0  0  0
    0.6262   51.5957   29.1681 H   0  0  0  0  0  0
    0.2373   53.2346   28.6561 H   0  0  0  0  0  0
    4.4684   52.0157   18.9718 H   0  0  0  0  0  0
  1  2  1  0  0  0
  1 39  1  0  0  0
  1 40  1  0  0  0
  1 41  1  0  0  0
  2  7  2  0  0  0
  2  3  1  0  0  0
  3  4  2  0  0  0
  3 42  1  0  0  0
  4  5  1  0  0  0
  4 43  1  0  0  0
  5  6  2  0  0  0
  5  8  1  0  0  0
  6  7  1  0  0  0
  6 44  1  0  0  0
  7 45  1  0  0  0
  8 13  1  0  0  0
  8  9  2  0  0  0
  9 10  1  0  0  0
 10 11  1  0  0  0
 10 21  1  0  0  0
 11 12  1  0  0  0
 11 13  1  0  0  0
 11 14  1  0  0  0
 13 46  1  0  0  0
 13 47  1  0  0  0
 14 19  2  0  0  0
 14 15  1  0  0  0
 15 16  2  0  0  0
 15 48  1  0  0  0
 16 17  1  0  0  0
 16 49  1  0  0  0
 17 18  2  0  0  0
 17 20  1  0  0  0
 18 19  1  0  0  0
 18 50  1  0  0  0
 19 51  1  0  0  0
 21 22  2  0  0  0
 21 23  1  0  0  0
 22 52  1  0  0  0
 22 62  1  0  0  0
 23 24  1  0  0  0
 24 25  1  0  0  0
 24 30  1  0  0  0
 24 26  1  0  0  0
 26 27  1  0  0  0
 26 53  1  0  0  0
 26 54  1  0  0  0
 27 28  2  0  0  0
 27 29  1  0  0  0
 29 30  1  0  0  0
 29 32  1  0  0  0
 30 31  2  0  0  0
 32 37  2  0  0  0
 32 33  1  0  0  0
 33 34  2  0  0  0
 33 55  1  0  0  0
 34 35  1  0  0  0
 34 56  1  0  0  0
 35 36  2  0  0  0
 35 57  1  0  0  0
 36 37  1  0  0  0
 36 38  1  0  0  0
 37 58  1  0  0  0
 38 59  1  0  0  0
 38 60  1  0  0  0
 38 61  1  0  0  0
M  CHG  1  22   1
M  END
> <i_i_glide_confnum>
16

> <i_i_glide_lignum>
1202

> <i_i_glide_posenum>
322

> <i_i_glide_rotatable_bonds>
6

> <i_m_Source_File_Index>
6061

> <b_m_subgroup_collapsed>
0

> <r_i_docking_score>
-5.26376

> <r_i_glide_ecoul>
0.234075

> <r_i_glide_eff_state_penalty>
0

> <r_i_glide_einternal>
9.50887

> <r_i_glide_emodel>
-57.5684

> <r_i_glide_energy>
-45.9737

> <r_i_glide_erotb>
0.459115

> <r_i_glide_esite>
-0.0865054

> <r_i_glide_evdw>
-46.2078

> <r_i_glide_gscore>
-5.26376

> <r_i_glide_hbond>
-0.101838

> <r_i_glide_ligand_efficiency>
-0.146216

> <r_i_glide_ligand_efficiency_ln>
-1.14841

> <r_i_glide_ligand_efficiency_sa>
-0.482793

> <r_i_glide_lipo>
-2.59627

> <r_i_glide_metal>
0

> <r_i_glide_rewards>
-0.66299

> <s_i_glide_gridfile>
wee1_glide-grid

> <s_m_Source_File>
wee1_decoys_glide_SP.sdf

> <s_m_Source_Path>
/Users/zhangxujun/Desktop

> <s_m_entry_id>
6336

> <s_m_entry_name>
wee1_decoys_glide_SP.6061

> <s_m_subgroup_title>
wee1_decoys_glide_SP

> <s_m_subgroupid>
wee1_decoys_glide_SP


$$$$
