ZINC56744312_232
                    3D
 Schrodinger Suite 2024-2.
 60 62  0  0  1  0            999 V2000
    5.1087   53.4526   16.5343 C   0  0  0  0  0  0
    5.0618   54.2623   17.8450 C   0  0  2  0  0  0
    4.1848   54.9159   17.8371 H   0  0  0  0  0  0
    6.3211   55.1052   18.0578 C   0  0  0  0  0  0
    6.2190   56.4977   18.1639 C   0  0  0  0  0  0
    7.3587   57.2651   18.3904 C   0  0  0  0  0  0
    8.5986   56.6418   18.5195 C   0  0  0  0  0  0
    8.7097   55.2578   18.4138 C   0  0  0  0  0  0
    7.5729   54.4904   18.1756 C   0  0  0  0  0  0
    4.7856   53.2958   19.0243 N   0  3  2  0  0  0
    3.4170   52.5844   19.0041 C   0  0  0  0  0  0
    3.0885   52.2895   20.4758 C   0  0  0  0  0  0
    4.1762   52.9438   21.3398 C   0  0  1  0  0  0
    4.9384   52.1884   21.5531 H   0  0  0  0  0  0
    4.8174   53.9730   20.4056 C   0  0  0  0  0  0
    3.6207   53.5535   22.5536 N   0  0  0  0  0  0
    4.3717   54.0473   23.5527 C   0  0  0  0  0  0
    5.5047   54.4938   23.3755 O   0  0  0  0  0  0
    3.7548   53.9046   24.7443 N   0  0  0  0  0  0
    4.2596   54.0990   26.0509 C   0  0  0  0  0  0
    5.6299   54.2781   26.3203 C   0  0  0  0  0  0
    6.0792   54.4727   27.6234 C   0  0  0  0  0  0
    5.1732   54.4965   28.6763 C   0  0  0  0  0  0
    3.8179   54.3084   28.4334 C   0  0  0  0  0  0
    3.3480   54.0970   27.1310 C   0  0  0  0  0  0
    1.8456   53.8348   26.9491 C   0  0  0  0  0  0
    1.4678   52.3569   27.1788 C   0  0  0  0  0  0
    1.8937   51.8173   28.2046 O   0  0  0  0  0  0
    0.6936   51.6835   26.2823 N   0  0  0  0  0  0
    0.3799   50.2620   26.4577 C   0  0  0  0  0  0
    0.0530   52.2267   25.0804 C   0  0  0  0  0  0
    5.3209   54.0981   15.6811 H   0  0  0  0  0  0
    5.8767   52.6778   16.5647 H   0  0  0  0  0  0
    4.1605   52.9558   16.3300 H   0  0  0  0  0  0
    5.2619   56.9907   18.0741 H   0  0  0  0  0  0
    7.2786   58.3406   18.4656 H   0  0  0  0  0  0
    9.4838   57.2339   18.7063 H   0  0  0  0  0  0
    9.6748   54.7816   18.5197 H   0  0  0  0  0  0
    7.6672   53.4166   18.0934 H   0  0  0  0  0  0
    3.5029   51.7014   18.3654 H   0  0  0  0  0  0
    2.6972   53.2855   18.5754 H   0  0  0  0  0  0
    3.0184   51.2159   20.6657 H   0  0  0  0  0  0
    2.0994   52.7054   20.6917 H   0  0  0  0  0  0
    4.2390   54.8960   20.3200 H   0  0  0  0  0  0
    5.8483   54.2384   20.6496 H   0  0  0  0  0  0
    2.6253   53.4637   22.6872 H   0  0  0  0  0  0
    2.7943   53.6065   24.7161 H   0  0  0  0  0  0
    6.3768   54.2537   25.5420 H   0  0  0  0  0  0
    7.1319   54.6115   27.8214 H   0  0  0  0  0  0
    5.5246   54.6670   29.6807 H   0  0  0  0  0  0
    3.1273   54.3088   29.2653 H   0  0  0  0  0  0
    1.5306   54.2223   25.9896 H   0  0  0  0  0  0
    1.2962   54.4317   27.6787 H   0  0  0  0  0  0
    0.9245   49.8098   27.2816 H   0  0  0  0  0  0
    0.6389   49.7002   25.5605 H   0  0  0  0  0  0
   -0.6844   50.1218   26.6474 H   0  0  0  0  0  0
    0.4499   51.7332   24.1922 H   0  0  0  0  0  0
   -1.0170   52.0201   25.1136 H   0  0  0  0  0  0
    0.1511   53.2965   24.9313 H   0  0  0  0  0  0
    5.5017   52.5801   18.9926 H   0  0  0  0  0  0
  1  2  1  0  0  0
  1 32  1  0  0  0
  1 33  1  0  0  0
  1 34  1  0  0  0
  2  3  1  0  0  0
  2  4  1  0  0  0
  2 10  1  0  0  0
  4  9  2  0  0  0
  4  5  1  0  0  0
  5  6  2  0  0  0
  5 35  1  0  0  0
  6  7  1  0  0  0
  6 36  1  0  0  0
  7  8  2  0  0  0
  7 37  1  0  0  0
  8  9  1  0  0  0
  8 38  1  0  0  0
  9 39  1  0  0  0
 10 15  1  0  0  0
 10 11  1  0  0  0
 10 60  1  0  0  0
 11 12  1  0  0  0
 11 40  1  0  0  0
 11 41  1  0  0  0
 12 13  1  0  0  0
 12 42  1  0  0  0
 12 43  1  0  0  0
 13 14  1  0  0  0
 13 15  1  0  0  0
 13 16  1  0  0  0
 15 44  1  0  0  0
 15 45  1  0  0  0
 16 17  1  0  0  0
 16 46  1  0  0  0
 17 18  2  0  0  0
 17 19  1  0  0  0
 19 20  1  0  0  0
 19 47  1  0  0  0
 20 25  2  0  0  0
 20 21  1  0  0  0
 21 22  2  0  0  0
 21 48  1  0  0  0
 22 23  1  0  0  0
 22 49  1  0  0  0
 23 24  2  0  0  0
 23 50  1  0  0  0
 24 25  1  0  0  0
 24 51  1  0  0  0
 25 26  1  0  0  0
 26 27  1  0  0  0
 26 52  1  0  0  0
 26 53  1  0  0  0
 27 28  2  0  0  0
 27 29  1  0  0  0
 29 30  1  0  0  0
 29 31  1  0  0  0
 30 54  1  0  0  0
 30 55  1  0  0  0
 30 56  1  0  0  0
 31 57  1  0  0  0
 31 58  1  0  0  0
 31 59  1  0  0  0
M  CHG  1  10   1
M  END
> <i_i_glide_confnum>
64

> <i_i_glide_lignum>
233

> <i_i_glide_posenum>
348

> <i_i_glide_rotatable_bonds>
9

> <i_m_Source_File_Index>
1718

> <b_m_subgroup_collapsed>
0

> <r_i_docking_score>
-4.63876

> <r_i_glide_ecoul>
-3.61441

> <r_i_glide_eff_state_penalty>
0

> <r_i_glide_einternal>
4.17851

> <r_i_glide_emodel>
-53.3379

> <r_i_glide_energy>
-41.6287

> <r_i_glide_erotb>
1.00007

> <r_i_glide_esite>
-0.061327

> <r_i_glide_evdw>
-38.0143

> <r_i_glide_gscore>
-4.63876

> <r_i_glide_hbond>
-0.0206708

> <r_i_glide_ligand_efficiency>
-0.159957

> <r_i_glide_ligand_efficiency_ln>
-1.06216

> <r_i_glide_ligand_efficiency_sa>
-0.49144

> <r_i_glide_lipo>
-2.00917

> <r_i_glide_metal>
0

> <r_i_glide_rewards>
-1.10479

> <s_i_glide_gridfile>
wee1_glide-grid

> <s_m_Source_File>
wee1_decoys_glide_SP.sdf

> <s_m_Source_Path>
/Users/zhangxujun/Desktop

> <s_m_entry_id>
1993

> <s_m_entry_name>
wee1_decoys_glide_SP.1718

> <s_m_subgroup_title>
wee1_decoys_glide_SP

> <s_m_subgroupid>
wee1_decoys_glide_SP


$$$$
