ZINC35858967_5341
                    3D
 Schrodinger Suite 2024-2.
 73 77  0  0  1  0            999 V2000
    6.7047   53.9432   23.3721 C   0  0  0  0  0  0
    6.8714   55.0739   22.3463 C   0  0  0  0  0  0
    5.9554   54.9536   21.0986 C   0  0  2  0  0  0
    6.2713   54.0967   20.5137 H   0  0  0  0  0  0
    6.0780   56.1530   20.1176 C   0  0  0  0  0  0
    6.7044   57.1524   20.4810 O   0  0  0  0  0  0
    5.5045   56.0936   18.8819 N   0  0  0  0  0  0
    5.6299   57.2132   17.9242 C   0  0  0  0  0  0
    6.3167   56.6710   16.6516 C   0  0  0  0  0  0
    5.5359   55.4674   16.0876 N   0  3  0  0  0  0
    5.3507   54.3648   17.1478 C   0  0  1  0  0  0
    6.3216   53.9123   17.3683 H   0  0  0  0  0  0
    4.6914   54.9567   18.4139 C   0  0  0  0  0  0
    4.4690   53.2895   16.4934 C   0  0  0  0  0  0
    4.5948   54.8783   21.5430 O   0  0  0  0  0  0
    3.9379   53.6694   21.6901 C   0  0  0  0  0  0
    4.3182   52.4600   21.0951 C   0  0  0  0  0  0
    3.5504   51.3172   21.2812 C   0  0  0  0  0  0
    2.4044   51.3333   22.0812 C   0  0  0  0  0  0
    2.0192   52.5374   22.7133 C   0  0  0  0  0  0
    2.7918   53.6839   22.4820 C   0  0  0  0  0  0
    0.8050   52.5778   23.6664 C   0  0  1  0  0  0
    0.3272   53.5424   23.4878 H   0  0  0  0  0  0
   -0.1419   51.5220   23.2358 N   0  0  0  0  0  0
    0.4311   50.1637   23.2712 C   0  0  0  0  0  0
    1.5708   50.0617   22.2343 C   0  0  0  0  0  0
   -1.4659   51.7907   23.0455 C   0  0  0  0  0  0
   -1.9582   52.8969   23.2825 O   0  0  0  0  0  0
   -2.3808   50.7112   22.5160 C   0  0  0  0  0  0
   -3.6263   50.5029   23.1254 C   0  0  0  0  0  0
   -4.4992   49.5387   22.6282 C   0  0  0  0  0  0
   -4.1365   48.7892   21.5111 C   0  0  0  0  0  0
   -2.9091   48.9984   20.8847 C   0  0  0  0  0  0
   -2.0366   49.9624   21.3816 C   0  0  0  0  0  0
    1.1309   52.6294   25.1822 C   0  0  0  0  0  0
    2.2665   53.2970   25.6684 C   0  0  0  0  0  0
    2.5364   53.3465   27.0340 C   0  0  0  0  0  0
    1.6764   52.7237   27.9318 C   0  0  0  0  0  0
    0.5449   52.0559   27.4744 C   0  0  0  0  0  0
    0.2707   52.0190   26.1104 C   0  0  0  0  0  0
    7.4609   54.0121   24.1547 H   0  0  0  0  0  0
    5.7287   53.9816   23.8573 H   0  0  0  0  0  0
    6.8017   52.9649   22.9014 H   0  0  0  0  0  0
    7.9126   55.0973   22.0230 H   0  0  0  0  0  0
    6.7027   56.0229   22.8573 H   0  0  0  0  0  0
    4.6425   57.6148   17.6857 H   0  0  0  0  0  0
    6.1965   58.0538   18.3319 H   0  0  0  0  0  0
    6.3345   57.4168   15.8537 H   0  0  0  0  0  0
    7.3425   56.3428   16.8369 H   0  0  0  0  0  0
    6.0219   55.0893   15.2852 H   0  0  0  0  0  0
    3.7289   55.3946   18.1429 H   0  0  0  0  0  0
    4.4313   54.2043   19.1533 H   0  0  0  0  0  0
    4.3031   52.4554   17.1779 H   0  0  0  0  0  0
    4.9347   52.8654   15.6028 H   0  0  0  0  0  0
    3.4873   53.6712   16.2114 H   0  0  0  0  0  0
    5.1761   52.3703   20.4495 H   0  0  0  0  0  0
    3.8546   50.4073   20.7867 H   0  0  0  0  0  0
    2.4986   54.6208   22.9316 H   0  0  0  0  0  0
   -0.2837   49.3412   23.2333 H   0  0  0  0  0  0
    0.8724   50.0238   24.2592 H   0  0  0  0  0  0
    1.1448   49.8083   21.2637 H   0  0  0  0  0  0
    2.2114   49.2141   22.4833 H   0  0  0  0  0  0
   -3.9222   51.0856   23.9876 H   0  0  0  0  0  0
   -5.4557   49.3763   23.1046 H   0  0  0  0  0  0
   -4.8150   48.0434   21.1242 H   0  0  0  0  0  0
   -2.6413   48.4231   20.0101 H   0  0  0  0  0  0
   -1.1023   50.1312   20.8665 H   0  0  0  0  0  0
    2.9621   53.7879   25.0092 H   0  0  0  0  0  0
    3.4170   53.8614   27.3928 H   0  0  0  0  0  0
    1.8864   52.7568   28.9910 H   0  0  0  0  0  0
   -0.1213   51.5697   28.1725 H   0  0  0  0  0  0
   -0.6203   51.5004   25.7889 H   0  0  0  0  0  0
    4.6290   55.7696   15.7603 H   0  0  0  0  0  0
  1  2  1  0  0  0
  1 41  1  0  0  0
  1 42  1  0  0  0
  1 43  1  0  0  0
  2  3  1  0  0  0
  2 44  1  0  0  0
  2 45  1  0  0  0
  3  4  1  0  0  0
  3  5  1  0  0  0
  3 15  1  0  0  0
  5  6  2  0  0  0
  5  7  1  0  0  0
  7 13  1  0  0  0
  7  8  1  0  0  0
  8  9  1  0  0  0
  8 46  1  0  0  0
  8 47  1  0  0  0
  9 10  1  0  0  0
  9 48  1  0  0  0
  9 49  1  0  0  0
 10 11  1  0  0  0
 10 50  1  0  0  0
 10 73  1  0  0  0
 11 12  1  0  0  0
 11 13  1  0  0  0
 11 14  1  0  0  0
 13 51  1  0  0  0
 13 52  1  0  0  0
 14 53  1  0  0  0
 14 54  1  0  0  0
 14 55  1  0  0  0
 15 16  1  0  0  0
 16 21  2  0  0  0
 16 17  1  0  0  0
 17 18  2  0  0  0
 17 56  1  0  0  0
 18 19  1  0  0  0
 18 57  1  0  0  0
 19 26  1  0  0  0
 19 20  2  0  0  0
 20 21  1  0  0  0
 20 22  1  0  0  0
 21 58  1  0  0  0
 22 23  1  0  0  0
 22 24  1  0  0  0
 22 35  1  0  0  0
 24 25  1  0  0  0
 24 27  1  0  0  0
 25 26  1  0  0  0
 25 59  1  0  0  0
 25 60  1  0  0  0
 26 61  1  0  0  0
 26 62  1  0  0  0
 27 28  2  0  0  0
 27 29  1  0  0  0
 29 34  2  0  0  0
 29 30  1  0  0  0
 30 31  2  0  0  0
 30 63  1  0  0  0
 31 32  1  0  0  0
 31 64  1  0  0  0
 32 33  2  0  0  0
 32 65  1  0  0  0
 33 34  1  0  0  0
 33 66  1  0  0  0
 34 67  1  0  0  0
 35 40  2  0  0  0
 35 36  1  0  0  0
 36 37  2  0  0  0
 36 68  1  0  0  0
 37 38  1  0  0  0
 37 69  1  0  0  0
 38 39  2  0  0  0
 38 70  1  0  0  0
 39 40  1  0  0  0
 39 71  1  0  0  0
 40 72  1  0  0  0
M  CHG  1  10   1
M  END
> <i_i_glide_confnum>
210

> <i_i_glide_lignum>
5342

> <i_i_glide_posenum>
346

> <i_i_glide_rotatable_bonds>
8

> <i_m_Source_File_Index>
3411

> <b_m_subgroup_collapsed>
0

> <r_i_docking_score>
-5.5185

> <r_i_glide_ecoul>
-7.85226

> <r_i_glide_eff_state_penalty>
0

> <r_i_glide_einternal>
9.48425

> <r_i_glide_emodel>
-64.2841

> <r_i_glide_energy>
-49.1227

> <r_i_glide_erotb>
0.574537

> <r_i_glide_esite>
0

> <r_i_glide_evdw>
-41.2704

> <r_i_glide_gscore>
-5.5185

> <r_i_glide_hbond>
-0.32

> <r_i_glide_ligand_efficiency>
-0.149149

> <r_i_glide_ligand_efficiency_ln>
-1.19683

> <r_i_glide_ligand_efficiency_sa>
-0.496996

> <r_i_glide_lipo>
-2.32296

> <r_i_glide_metal>
0

> <r_i_glide_rewards>
-0.208717

> <s_i_glide_gridfile>
wee1_glide-grid

> <s_m_Source_File>
wee1_decoys_glide_SP.sdf

> <s_m_Source_Path>
/Users/zhangxujun/Desktop

> <s_m_entry_id>
3686

> <s_m_entry_name>
wee1_decoys_glide_SP.3411

> <s_m_subgroup_title>
wee1_decoys_glide_SP

> <s_m_subgroupid>
wee1_decoys_glide_SP


$$$$
