ZINC17301968_2402
                    3D
 Schrodinger Suite 2024-2.
 44 47  0  0  1  0            999 V2000
    2.1940   49.6055   20.8274 C   0  0  0  0  0  0
    3.1042   50.6230   20.5444 C   0  0  0  0  0  0
    3.1993   51.7483   21.3778 C   0  0  0  0  0  0
    2.3369   51.8277   22.4824 C   0  0  0  0  0  0
    1.4263   50.8099   22.7819 C   0  0  0  0  0  0
    1.3660   49.6955   21.9453 C   0  0  0  0  0  0
    0.5806   50.8558   23.9014 N   0  0  0  0  0  0
    0.0365   52.3500   24.6917 S   0  0  0  0  0  0
    0.1023   53.4285   23.7013 O   0  0  0  0  0  0
   -1.2270   52.0157   25.3562 O   0  0  0  0  0  0
    1.2316   52.6972   25.9820 C   0  0  0  0  0  0
    1.0921   52.0920   27.2344 C   0  0  0  0  0  0
    2.0128   52.3608   28.2466 C   0  0  0  0  0  0
    3.0865   53.2226   28.0127 C   0  0  0  0  0  0
    3.2323   53.8279   26.7570 C   0  0  0  0  0  0
    2.3011   53.5691   25.7502 C   0  0  0  0  0  0
    4.5496   54.8964   26.4172 Cl  0  0  0  0  0  0
    4.2172   53.5155   29.2876 Cl  0  0  0  0  0  0
    4.2053   52.8560   21.1369 C   0  0  0  0  0  0
    4.4921   53.6254   22.0572 O   0  0  0  0  0  0
    4.7239   52.9397   19.8900 N   0  0  0  0  0  0
    5.5004   53.9691   19.3212 C   0  0  0  0  0  0
    6.0644   53.6934   18.0603 C   0  0  0  0  0  0
    6.7995   54.6640   17.3653 C   0  0  0  0  0  0
    6.9330   55.9150   17.9561 C   0  0  0  0  0  0
    6.4032   56.1927   19.1840 C   0  0  0  0  0  0
    5.6882   55.2426   19.9048 C   0  0  0  0  0  0
    6.7042   57.4762   19.5219 O   0  0  0  0  0  0
    7.1726   58.0608   18.3346 C   0  0  0  0  0  0
    7.5708   57.0186   17.4844 O   0  0  0  0  0  0
    2.1435   48.7400   20.1831 H   0  0  0  0  0  0
    3.7427   50.5054   19.6815 H   0  0  0  0  0  0
    2.4025   52.6856   23.1286 H   0  0  0  0  0  0
    0.6715   48.8964   22.1559 H   0  0  0  0  0  0
    0.0833   50.0167   24.1577 H   0  0  0  0  0  0
    0.2704   51.4152   27.4273 H   0  0  0  0  0  0
    1.8943   51.8911   29.2118 H   0  0  0  0  0  0
    2.4121   54.0592   24.7939 H   0  0  0  0  0  0
    4.5128   52.1806   19.2556 H   0  0  0  0  0  0
    5.9273   52.7200   17.6068 H   0  0  0  0  0  0
    7.2270   54.4442   16.3984 H   0  0  0  0  0  0
    5.2700   55.5095   20.8612 H   0  0  0  0  0  0
    6.3641   58.6283   17.8645 H   0  0  0  0  0  0
    7.9983   58.7484   18.5152 H   0  0  0  0  0  0
  1  6  2  0  0  0
  1  2  1  0  0  0
  1 31  1  0  0  0
  2  3  2  0  0  0
  2 32  1  0  0  0
  3  4  1  0  0  0
  3 19  1  0  0  0
  4  5  2  0  0  0
  4 33  1  0  0  0
  5  6  1  0  0  0
  5  7  1  0  0  0
  6 34  1  0  0  0
  7  8  1  0  0  0
  7 35  1  0  0  0
  8  9  2  0  0  0
  8 10  2  0  0  0
  8 11  1  0  0  0
 11 16  2  0  0  0
 11 12  1  0  0  0
 12 13  2  0  0  0
 12 36  1  0  0  0
 13 14  1  0  0  0
 13 37  1  0  0  0
 14 15  2  0  0  0
 14 18  1  0  0  0
 15 16  1  0  0  0
 15 17  1  0  0  0
 16 38  1  0  0  0
 19 20  2  0  0  0
 19 21  1  0  0  0
 21 22  1  0  0  0
 21 39  1  0  0  0
 22 27  2  0  0  0
 22 23  1  0  0  0
 23 24  2  0  0  0
 23 40  1  0  0  0
 24 25  1  0  0  0
 24 41  1  0  0  0
 25 30  1  0  0  0
 25 26  2  0  0  0
 26 27  1  0  0  0
 26 28  1  0  0  0
 27 42  1  0  0  0
 28 29  1  0  0  0
 29 30  1  0  0  0
 29 43  1  0  0  0
 29 44  1  0  0  0
M  END
> <i_i_glide_confnum>
35

> <i_i_glide_lignum>
2403

> <i_i_glide_posenum>
247

> <i_i_glide_rotatable_bonds>
6

> <i_m_Source_File_Index>
5835

> <b_m_subgroup_collapsed>
0

> <r_i_docking_score>
-4.90533

> <r_i_glide_ecoul>
-5.3145

> <r_i_glide_eff_state_penalty>
0

> <r_i_glide_einternal>
1.0187

> <r_i_glide_emodel>
-57.8968

> <r_i_glide_energy>
-43.7148

> <r_i_glide_erotb>
0.558848

> <r_i_glide_esite>
-0.0914454

> <r_i_glide_evdw>
-38.4003

> <r_i_glide_gscore>
-4.90533

> <r_i_glide_hbond>
-0.289387

> <r_i_glide_ligand_efficiency>
-0.163511

> <r_i_glide_ligand_efficiency_ln>
-1.11455

> <r_i_glide_ligand_efficiency_sa>
-0.508067

> <r_i_glide_lipo>
-1.90849

> <r_i_glide_metal>
0

> <r_i_glide_rewards>
-0.45767

> <s_i_glide_gridfile>
wee1_glide-grid

> <s_m_Source_File>
wee1_decoys_glide_SP.sdf

> <s_m_Source_Path>
/Users/zhangxujun/Desktop

> <s_m_entry_id>
6110

> <s_m_entry_name>
wee1_decoys_glide_SP.5835

> <s_m_subgroup_title>
wee1_decoys_glide_SP

> <s_m_subgroupid>
wee1_decoys_glide_SP


$$$$
