ZINC59054340_4304
                    3D
 Schrodinger Suite 2024-2.
 53 56  0  0  1  0            999 V2000
    0.7070   51.6423   15.6058 C   0  0  0  0  0  0
    1.8904   51.2751   16.2380 C   0  0  0  0  0  0
    2.0170   51.4125   17.6188 C   0  0  0  0  0  0
    0.9520   51.9239   18.3746 C   0  0  0  0  0  0
   -0.2404   52.2782   17.7246 C   0  0  0  0  0  0
   -0.3615   52.1420   16.3435 C   0  0  0  0  0  0
    1.0547   52.0971   19.8705 C   0  0  0  0  0  0
    0.0360   52.0014   20.5578 O   0  0  0  0  0  0
    2.2828   52.4277   20.3385 N   0  0  0  0  0  0
    2.6536   52.8975   21.6173 C   0  0  0  0  0  0
    1.7769   52.9944   22.7032 C   0  0  0  0  0  0
    2.2123   53.5058   23.9156 C   0  0  0  0  0  0
    3.5464   53.9033   24.1067 C   0  0  0  0  0  0
    4.4352   53.8555   23.0052 C   0  0  0  0  0  0
    3.9678   53.3479   21.7785 C   0  0  0  0  0  0
    5.8953   54.3464   23.0696 C   0  0  0  0  0  0
    6.1294   55.2485   24.0276 F   0  0  0  0  0  0
    6.6931   53.3051   23.2821 F   0  0  0  0  0  0
    6.2575   54.9026   21.9119 F   0  0  0  0  0  0
    4.0205   54.3221   25.3734 N   0  0  0  0  0  0
    3.5027   54.0473   26.5901 C   0  0  0  0  0  0
    2.4450   53.4499   26.7889 O   0  0  0  0  0  0
    4.3037   54.4491   27.5931 N   0  0  0  0  0  0
    4.1436   54.0496   29.0014 C   0  0  2  0  0  0
    4.8753   54.6295   29.5679 H   0  0  0  0  0  0
    4.4452   52.5536   29.2411 C   0  0  0  0  0  0
    3.9319   52.0967   30.6156 C   0  0  0  0  0  0
    2.5130   52.1257   30.5420 O   0  0  0  0  0  0
    2.0352   53.3959   30.3127 C   0  0  0  0  0  0
    2.7886   54.3884   29.6392 C   0  0  0  0  0  0
    2.2959   55.6941   29.6372 C   0  0  0  0  0  0
    1.1043   56.0001   30.2763 C   0  0  0  0  0  0
    0.3478   54.9895   30.8703 C   0  0  0  0  0  0
    0.8000   53.6788   30.8818 C   0  0  0  0  0  0
    0.6157   51.5311   14.5348 H   0  0  0  0  0  0
    2.7070   50.8654   15.6631 H   0  0  0  0  0  0
    2.9460   51.0999   18.0803 H   0  0  0  0  0  0
   -1.0773   52.6698   18.2833 H   0  0  0  0  0  0
   -1.2792   52.4209   15.8488 H   0  0  0  0  0  0
    3.0154   52.4504   19.6461 H   0  0  0  0  0  0
    0.7459   52.6901   22.6481 H   0  0  0  0  0  0
    1.4751   53.5669   24.6989 H   0  0  0  0  0  0
    4.6424   53.3029   20.9350 H   0  0  0  0  0  0
    4.9289   54.7595   25.3521 H   0  0  0  0  0  0
    5.1338   54.9745   27.3684 H   0  0  0  0  0  0
    3.9460   51.9500   28.4835 H   0  0  0  0  0  0
    5.5043   52.3671   29.1218 H   0  0  0  0  0  0
    4.2623   51.1046   30.8810 H   0  0  0  0  0  0
    4.3018   52.7499   31.4097 H   0  0  0  0  0  0
    2.8560   56.4862   29.1641 H   0  0  0  0  0  0
    0.7434   57.0157   30.2832 H   0  0  0  0  0  0
   -0.6028   55.2343   31.2944 H   0  0  0  0  0  0
    0.2294   52.9046   31.3760 H   0  0  0  0  0  0
  1  6  2  0  0  0
  1  2  1  0  0  0
  1 35  1  0  0  0
  2  3  2  0  0  0
  2 36  1  0  0  0
  3  4  1  0  0  0
  3 37  1  0  0  0
  4  5  2  0  0  0
  4  7  1  0  0  0
  5  6  1  0  0  0
  5 38  1  0  0  0
  6 39  1  0  0  0
  7  8  2  0  0  0
  7  9  1  0  0  0
  9 10  1  0  0  0
  9 40  1  0  0  0
 10 15  2  0  0  0
 10 11  1  0  0  0
 11 12  2  0  0  0
 11 41  1  0  0  0
 12 13  1  0  0  0
 12 42  1  0  0  0
 13 14  2  0  0  0
 13 20  1  0  0  0
 14 15  1  0  0  0
 14 16  1  0  0  0
 15 43  1  0  0  0
 16 17  1  0  0  0
 16 18  1  0  0  0
 16 19  1  0  0  0
 20 21  1  0  0  0
 20 44  1  0  0  0
 21 22  2  0  0  0
 21 23  1  0  0  0
 23 24  1  0  0  0
 23 45  1  0  0  0
 24 25  1  0  0  0
 24 30  1  0  0  0
 24 26  1  0  0  0
 26 27  1  0  0  0
 26 46  1  0  0  0
 26 47  1  0  0  0
 27 28  1  0  0  0
 27 48  1  0  0  0
 27 49  1  0  0  0
 28 29  1  0  0  0
 29 34  2  0  0  0
 29 30  1  0  0  0
 30 31  2  0  0  0
 31 32  1  0  0  0
 31 50  1  0  0  0
 32 33  2  0  0  0
 32 51  1  0  0  0
 33 34  1  0  0  0
 33 52  1  0  0  0
 34 53  1  0  0  0
M  END
> <i_i_glide_confnum>
194

> <i_i_glide_lignum>
4305

> <i_i_glide_posenum>
305

> <i_i_glide_rotatable_bonds>
8

> <i_m_Source_File_Index>
4849

> <b_m_subgroup_collapsed>
0

> <r_i_docking_score>
-6.58954

> <r_i_glide_ecoul>
-3.34719

> <r_i_glide_eff_state_penalty>
0

> <r_i_glide_einternal>
7.70547

> <r_i_glide_emodel>
-57.7955

> <r_i_glide_energy>
-42.9054

> <r_i_glide_erotb>
0.581123

> <r_i_glide_esite>
-0.0483744

> <r_i_glide_evdw>
-39.5582

> <r_i_glide_gscore>
-6.58954

> <r_i_glide_hbond>
-0.32

> <r_i_glide_ligand_efficiency>
-0.199683

> <r_i_glide_ligand_efficiency_ln>
-1.46548

> <r_i_glide_ligand_efficiency_sa>
-0.64049

> <r_i_glide_lipo>
-2.81366

> <r_i_glide_metal>
0

> <r_i_glide_rewards>
-1.50863

> <s_i_glide_gridfile>
wee1_glide-grid

> <s_m_Source_File>
wee1_decoys_glide_SP.sdf

> <s_m_Source_Path>
/Users/zhangxujun/Desktop

> <s_m_entry_id>
5124

> <s_m_entry_name>
wee1_decoys_glide_SP.4849

> <s_m_subgroup_title>
wee1_decoys_glide_SP

> <s_m_subgroupid>
wee1_decoys_glide_SP


$$$$
