ZINC36013988_882
                    3D
 Schrodinger Suite 2024-2.
 75 77  0  0  1  0            999 V2000
    2.1070   50.2386   18.8756 C   0  0  0  0  0  0
    1.8027   51.7371   19.0603 C   0  0  0  0  0  0
    2.9826   52.6558   19.1164 N   0  0  0  0  0  0
    3.7929   52.8672   20.2426 C   0  0  0  0  0  0
    4.6774   53.9188   20.2895 C   0  0  0  0  0  0
    4.9827   54.7048   18.9910 C   0  0  2  0  0  0
    5.0532   55.7782   19.1801 H   0  0  0  0  0  0
    3.8569   54.5271   18.0615 N   0  0  0  0  0  0
    3.0769   53.4262   17.9758 C   0  0  0  0  0  0
    2.5846   53.1848   16.8725 O   0  0  0  0  0  0
    6.3487   54.3721   18.3558 C   0  0  0  0  0  0
    7.4431   55.2290   18.5386 C   0  0  0  0  0  0
    8.6917   54.9079   18.0112 C   0  0  0  0  0  0
    8.8578   53.7280   17.2856 C   0  0  0  0  0  0
    7.7724   52.8753   17.0851 C   0  0  0  0  0  0
    6.5287   53.1940   17.6233 C   0  0  0  0  0  0
   10.2199   53.3578   16.7266 C   0  0  0  0  0  0
    5.5045   54.3772   21.4536 C   0  0  0  0  0  0
    6.3221   55.2958   21.3506 O   0  0  0  0  0  0
    5.3046   53.7525   22.6364 O   0  0  0  0  0  0
    6.1833   53.9311   23.7532 C   0  0  0  0  0  0
    6.1189   55.3075   24.4313 C   0  0  0  0  0  0
    3.5834   51.8252   21.3728 C   0  0  0  0  0  0
    2.2682   51.9971   22.1788 N   0  3  2  0  0  0
    2.2367   53.3494   22.9174 C   0  0  0  0  0  0
    0.8161   53.7020   23.3340 C   0  0  0  0  0  0
    0.4147   53.2017   24.7209 C   0  0  0  0  0  0
    0.5262   51.7494   24.9596 N   0  0  0  0  0  0
    0.5307   50.8583   23.7743 C   0  0  0  0  0  0
    1.8812   50.7486   23.0211 C   0  0  0  0  0  0
    0.5683   51.2330   26.2257 C   0  0  0  0  0  0
    0.5891   50.0217   26.4406 O   0  0  0  0  0  0
    0.7036   52.1217   27.2359 N   0  0  0  0  0  0
    0.7193   51.8139   28.6670 C   0  0  0  0  0  0
    1.4528   52.9190   29.4452 C   0  0  0  0  0  0
   -0.6997   51.5889   29.2191 C   0  0  0  0  0  0
    1.3974   49.7762   18.1885 H   0  0  0  0  0  0
    3.1044   50.0734   18.4814 H   0  0  0  0  0  0
    2.0366   49.6871   19.8116 H   0  0  0  0  0  0
    1.1869   51.8894   19.9416 H   0  0  0  0  0  0
    1.1173   51.9964   18.2498 H   0  0  0  0  0  0
    3.8994   55.0498   17.1996 H   0  0  0  0  0  0
    7.3376   56.1441   19.1024 H   0  0  0  0  0  0
    9.5287   55.5714   18.1764 H   0  0  0  0  0  0
    7.8930   51.9545   16.5330 H   0  0  0  0  0  0
    5.7126   52.5005   17.4796 H   0  0  0  0  0  0
   10.9209   54.1940   16.7679 H   0  0  0  0  0  0
   10.6385   52.5132   17.2803 H   0  0  0  0  0  0
   10.1278   53.0557   15.6824 H   0  0  0  0  0  0
    5.9013   53.1924   24.4993 H   0  0  0  0  0  0
    7.2098   53.7015   23.4602 H   0  0  0  0  0  0
    6.6997   55.3049   25.3537 H   0  0  0  0  0  0
    6.5289   56.0945   23.7977 H   0  0  0  0  0  0
    5.0954   55.5723   24.6857 H   0  0  0  0  0  0
    4.3970   51.7321   22.0815 H   0  0  0  0  0  0
    3.5301   50.8375   20.9232 H   0  0  0  0  0  0
    2.5699   54.0931   22.1926 H   0  0  0  0  0  0
    2.9513   53.3007   23.7408 H   0  0  0  0  0  0
    0.1220   53.2965   22.6021 H   0  0  0  0  0  0
    0.7046   54.7848   23.2912 H   0  0  0  0  0  0
   -0.6307   53.4697   24.8747 H   0  0  0  0  0  0
    1.0373   53.7378   25.4387 H   0  0  0  0  0  0
    0.2561   49.8487   24.0893 H   0  0  0  0  0  0
   -0.2730   51.1262   23.0879 H   0  0  0  0  0  0
    2.7043   50.5004   23.6825 H   0  0  0  0  0  0
    1.8192   49.9435   22.2859 H   0  0  0  0  0  0
    0.8096   53.0953   27.0010 H   0  0  0  0  0  0
    1.2925   50.8966   28.8161 H   0  0  0  0  0  0
    1.4402   52.7102   30.5166 H   0  0  0  0  0  0
    0.9758   53.8917   29.3153 H   0  0  0  0  0  0
    2.4997   52.9901   29.1466 H   0  0  0  0  0  0
   -0.6780   51.2972   30.2698 H   0  0  0  0  0  0
   -1.2952   52.4969   29.1659 H   0  0  0  0  0  0
   -1.2307   50.8106   28.6704 H   0  0  0  0  0  0
    1.5476   52.0751   21.4754 H   0  0  0  0  0  0
  1  2  1  0  0  0
  1 37  1  0  0  0
  1 38  1  0  0  0
  1 39  1  0  0  0
  2  3  1  0  0  0
  2 40  1  0  0  0
  2 41  1  0  0  0
  3  9  1  0  0  0
  3  4  1  0  0  0
  4  5  2  0  0  0
  4 23  1  0  0  0
  5  6  1  0  0  0
  5 18  1  0  0  0
  6  7  1  0  0  0
  6  8  1  0  0  0
  6 11  1  0  0  0
  8  9  1  0  0  0
  8 42  1  0  0  0
  9 10  2  0  0  0
 11 16  2  0  0  0
 11 12  1  0  0  0
 12 13  2  0  0  0
 12 43  1  0  0  0
 13 14  1  0  0  0
 13 44  1  0  0  0
 14 15  2  0  0  0
 14 17  1  0  0  0
 15 16  1  0  0  0
 15 45  1  0  0  0
 16 46  1  0  0  0
 17 47  1  0  0  0
 17 48  1  0  0  0
 17 49  1  0  0  0
 18 19  2  0  0  0
 18 20  1  0  0  0
 20 21  1  0  0  0
 21 22  1  0  0  0
 21 50  1  0  0  0
 21 51  1  0  0  0
 22 52  1  0  0  0
 22 53  1  0  0  0
 22 54  1  0  0  0
 23 24  1  0  0  0
 23 55  1  0  0  0
 23 56  1  0  0  0
 24 30  1  0  0  0
 24 25  1  0  0  0
 24 75  1  0  0  0
 25 26  1  0  0  0
 25 57  1  0  0  0
 25 58  1  0  0  0
 26 27  1  0  0  0
 26 59  1  0  0  0
 26 60  1  0  0  0
 27 28  1  0  0  0
 27 61  1  0  0  0
 27 62  1  0  0  0
 28 29  1  0  0  0
 28 31  1  0  0  0
 29 30  1  0  0  0
 29 63  1  0  0  0
 29 64  1  0  0  0
 30 65  1  0  0  0
 30 66  1  0  0  0
 31 32  2  0  0  0
 31 33  1  0  0  0
 33 34  1  0  0  0
 33 67  1  0  0  0
 34 35  1  0  0  0
 34 36  1  0  0  0
 34 68  1  0  0  0
 35 69  1  0  0  0
 35 70  1  0  0  0
 35 71  1  0  0  0
 36 72  1  0  0  0
 36 73  1  0  0  0
 36 74  1  0  0  0
M  CHG  1  24   1
M  END
> <i_i_glide_confnum>
256

> <i_i_glide_lignum>
883

> <i_i_glide_posenum>
358

> <i_i_glide_rotatable_bonds>
10

> <i_m_Source_File_Index>
5999

> <b_m_subgroup_collapsed>
0

> <r_i_docking_score>
-3.42109

> <r_i_glide_ecoul>
0.894181

> <r_i_glide_eff_state_penalty>
0

> <r_i_glide_einternal>
9.29655

> <r_i_glide_emodel>
-40.9864

> <r_i_glide_energy>
-36.6059

> <r_i_glide_erotb>
0.600767

> <r_i_glide_esite>
-0.0689192

> <r_i_glide_evdw>
-37.5001

> <r_i_glide_gscore>
-3.42109

> <r_i_glide_hbond>
0

> <r_i_glide_ligand_efficiency>
-0.0977455

> <r_i_glide_ligand_efficiency_ln>
-0.751006

> <r_i_glide_ligand_efficiency_sa>
-0.319732

> <r_i_glide_lipo>
-1.80702

> <r_i_glide_metal>
0

> <r_i_glide_rewards>
-0.405044

> <s_i_glide_gridfile>
wee1_glide-grid

> <s_m_Source_File>
wee1_decoys_glide_SP.sdf

> <s_m_Source_Path>
/Users/zhangxujun/Desktop

> <s_m_entry_id>
6274

> <s_m_entry_name>
wee1_decoys_glide_SP.5999

> <s_m_subgroup_title>
wee1_decoys_glide_SP

> <s_m_subgroupid>
wee1_decoys_glide_SP


$$$$
