ZINC32722323_5813
                    3D
 Schrodinger Suite 2024-2.
 47 51  0  0  1  0            999 V2000
   -0.0955   52.5370   29.7761 C   0  0  0  0  0  0
    0.7964   53.5928   29.5891 C   0  0  0  0  0  0
    1.3692   53.8495   28.3426 C   0  0  0  0  0  0
    1.0230   53.0030   27.2797 C   0  0  0  0  0  0
    0.1263   51.9171   27.4596 C   0  0  0  0  0  0
   -0.4506   51.6969   28.7192 C   0  0  0  0  0  0
   -0.0951   51.1617   26.3482 N   0  0  0  0  0  0
    0.5832   51.6030   25.3226 C   0  0  0  0  0  0
    1.5044   53.0628   25.5921 S   0  0  0  0  0  0
    0.6109   50.9338   24.0308 C   0  0  0  0  0  0
   -0.0844   49.8707   23.4739 C   0  0  0  0  0  0
    0.4018   49.7003   22.1750 C   0  0  0  0  0  0
    1.3989   50.6462   21.9855 C   0  0  0  0  0  0
    1.5161   51.3869   23.1212 O   0  0  0  0  0  0
    2.3116   50.9947   20.8190 C   0  0  0  0  0  0
    2.7279   52.4022   20.8397 N   0  0  0  0  0  0
    3.9513   52.8383   21.1807 C   0  0  0  0  0  0
    4.8780   52.0835   21.4791 O   0  0  0  0  0  0
    4.1103   54.3612   21.2816 C   0  0  0  0  0  0
    5.4997   54.8460   21.3402 N   0  0  0  0  0  0
    6.3053   55.0355   22.4615 C   0  0  0  0  0  0
    7.4550   55.5443   22.0817 N   0  0  0  0  0  0
    7.4461   55.6969   20.7077 N   0  0  0  0  0  0
    6.2838   55.2870   20.2782 C   0  0  0  0  0  0
    5.8545   55.3520   18.5647 S   0  5  0  0  0  0
    5.9759   54.8137   23.9261 C   0  0  0  0  0  0
    4.9864   53.9366   24.3807 C   0  0  0  0  0  0
    4.7911   53.7177   25.7440 C   0  0  0  0  0  0
    5.5506   54.3970   26.6787 C   0  0  0  0  0  0
    6.5159   55.2949   26.2549 C   0  0  0  0  0  0
    6.7247   55.4988   24.8919 C   0  0  0  0  0  0
    5.3106   54.1000   28.3620 Cl  0  0  0  0  0  0
   -0.5219   52.3669   30.7565 H   0  0  0  0  0  0
    1.0412   54.2276   30.4283 H   0  0  0  0  0  0
    2.0528   54.6748   28.2007 H   0  0  0  0  0  0
   -1.1507   50.8898   28.8731 H   0  0  0  0  0  0
   -0.8586   49.2941   23.9592 H   0  0  0  0  0  0
    0.0734   48.9643   21.4563 H   0  0  0  0  0  0
    1.7903   50.8147   19.8783 H   0  0  0  0  0  0
    3.1750   50.3260   20.7962 H   0  0  0  0  0  0
    2.0396   53.0895   20.5623 H   0  0  0  0  0  0
    3.5686   54.7401   22.1472 H   0  0  0  0  0  0
    3.6228   54.8151   20.4203 H   0  0  0  0  0  0
    4.3973   53.3465   23.7055 H   0  0  0  0  0  0
    4.0896   52.9758   26.0844 H   0  0  0  0  0  0
    7.1044   55.7949   27.0012 H   0  0  0  0  0  0
    7.5057   56.1734   24.5783 H   0  0  0  0  0  0
  1  6  2  0  0  0
  1  2  1  0  0  0
  1 33  1  0  0  0
  2  3  2  0  0  0
  2 34  1  0  0  0
  3  4  1  0  0  0
  3 35  1  0  0  0
  4  9  1  0  0  0
  4  5  2  0  0  0
  5  6  1  0  0  0
  5  7  1  0  0  0
  6 36  1  0  0  0
  7  8  2  0  0  0
  8  9  1  0  0  0
  8 10  1  0  0  0
 10 14  1  0  0  0
 10 11  2  0  0  0
 11 12  1  0  0  0
 11 37  1  0  0  0
 12 13  2  0  0  0
 12 38  1  0  0  0
 13 14  1  0  0  0
 13 15  1  0  0  0
 15 16  1  0  0  0
 15 39  1  0  0  0
 15 40  1  0  0  0
 16 17  1  0  0  0
 16 41  1  0  0  0
 17 18  2  0  0  0
 17 19  1  0  0  0
 19 42  1  0  0  0
 19 43  1  0  0  0
 19 20  1  0  0  0
 20 24  1  0  0  0
 20 21  1  0  0  0
 21 26  1  0  0  0
 21 22  2  0  0  0
 22 23  1  0  0  0
 23 24  2  0  0  0
 24 25  1  0  0  0
 26 31  2  0  0  0
 26 27  1  0  0  0
 27 28  2  0  0  0
 27 44  1  0  0  0
 28 29  1  0  0  0
 28 45  1  0  0  0
 29 30  2  0  0  0
 29 32  1  0  0  0
 30 31  1  0  0  0
 30 46  1  0  0  0
 31 47  1  0  0  0
M  CHG  1  25  -1
M  END
> <i_i_glide_confnum>
11

> <i_i_glide_lignum>
5814

> <i_i_glide_posenum>
5

> <i_i_glide_rotatable_bonds>
7

> <i_m_Source_File_Index>
4320

> <b_m_subgroup_collapsed>
0

> <r_i_docking_score>
-5.94724

> <r_i_glide_ecoul>
-2.23263

> <r_i_glide_eff_state_penalty>
0

> <r_i_glide_einternal>
6.29994

> <r_i_glide_emodel>
-64.301

> <r_i_glide_energy>
-47.1445

> <r_i_glide_erotb>
0.613748

> <r_i_glide_esite>
-0.0122071

> <r_i_glide_evdw>
-44.9119

> <r_i_glide_gscore>
-5.94724

> <r_i_glide_hbond>
-0.116328

> <r_i_glide_ligand_efficiency>
-0.185851

> <r_i_glide_ligand_efficiency_ln>
-1.33175

> <r_i_glide_ligand_efficiency_sa>
-0.590041

> <r_i_glide_lipo>
-2.83394

> <r_i_glide_metal>
0

> <r_i_glide_rewards>
-1.01802

> <s_i_glide_gridfile>
wee1_glide-grid

> <s_m_Source_File>
wee1_decoys_glide_SP.sdf

> <s_m_Source_Path>
/Users/zhangxujun/Desktop

> <s_m_entry_id>
4595

> <s_m_entry_name>
wee1_decoys_glide_SP.4320

> <s_m_subgroup_title>
wee1_decoys_glide_SP

> <s_m_subgroupid>
wee1_decoys_glide_SP


$$$$
