ZINC13347542_4526
                    3D
 Schrodinger Suite 2024-2.
 51 54  0  0  1  0            999 V2000
   10.2280   49.2157   14.6099 C   0  0  0  0  0  0
   10.6101   50.6676   14.8273 C   0  0  0  0  0  0
   10.5078   51.2393   16.0988 C   0  0  0  0  0  0
   10.8526   52.5746   16.2887 C   0  0  0  0  0  0
   11.2942   53.3394   15.2050 C   0  0  0  0  0  0
   11.3847   52.7695   13.9314 C   0  0  0  0  0  0
   11.0466   51.4322   13.7445 C   0  0  0  0  0  0
   11.7171   55.0611   15.4511 S   0  0  0  0  0  0
   12.4012   55.5301   14.2403 O   0  0  0  0  0  0
   12.3427   55.1866   16.7738 O   0  0  0  0  0  0
   10.1658   55.9144   15.4872 N   0  0  0  0  0  0
    9.3364   56.0151   16.5706 C   0  0  0  0  0  0
    9.5845   55.5387   17.7562 N   0  0  0  0  0  0
    8.5723   55.7997   18.6197 C   0  0  0  0  0  0
    8.5663   55.4220   19.9653 C   0  0  0  0  0  0
    7.4386   55.6970   20.7376 C   0  0  0  0  0  0
    6.3580   56.4008   20.1864 C   0  0  0  0  0  0
    6.3533   56.8203   18.8550 C   0  0  0  0  0  0
    7.4699   56.5018   18.0702 C   0  0  0  0  0  0
    7.8059   56.8404   16.3777 S   0  0  0  0  0  0
    7.4653   55.2975   22.0818 N   0  0  0  0  0  0
    6.4188   54.8227   22.7902 C   0  0  0  0  0  0
    5.3427   54.4969   22.2911 O   0  0  0  0  0  0
    6.7057   54.7908   24.1049 N   0  0  0  0  0  0
    5.8722   54.5066   25.2035 C   0  0  0  0  0  0
    6.5015   54.3900   26.4465 C   0  0  0  0  0  0
    5.7658   54.1236   27.6014 C   0  0  0  0  0  0
    4.3792   53.9761   27.5298 C   0  0  0  0  0  0
    3.7387   54.0963   26.2926 C   0  0  0  0  0  0
    4.4775   54.3634   25.1376 C   0  0  0  0  0  0
    2.3970   53.9481   26.2027 F   0  0  0  0  0  0
    3.5747   53.6770   28.7843 C   0  0  0  0  0  0
    9.4900   48.8966   15.3438 H   0  0  0  0  0  0
    9.7782   49.0734   13.6257 H   0  0  0  0  0  0
   11.1097   48.5754   14.6820 H   0  0  0  0  0  0
   10.1662   50.6522   16.9389 H   0  0  0  0  0  0
   10.7760   53.0117   17.2756 H   0  0  0  0  0  0
   11.7217   53.3561   13.0889 H   0  0  0  0  0  0
   11.1283   50.9885   12.7612 H   0  0  0  0  0  0
    9.8893   56.2653   14.5859 H   0  0  0  0  0  0
    9.4204   54.9037   20.3712 H   0  0  0  0  0  0
    5.5072   56.6297   20.8044 H   0  0  0  0  0  0
    5.5132   57.3610   18.4412 H   0  0  0  0  0  0
    8.3722   55.2974   22.5382 H   0  0  0  0  0  0
    7.6683   54.9825   24.3352 H   0  0  0  0  0  0
    7.5687   54.4953   26.5363 H   0  0  0  0  0  0
    6.2802   54.0353   28.5480 H   0  0  0  0  0  0
    3.9369   54.4563   24.2084 H   0  0  0  0  0  0
    4.2137   53.5348   29.6590 H   0  0  0  0  0  0
    2.9885   52.7665   28.6427 H   0  0  0  0  0  0
    2.8740   54.4889   28.9845 H   0  0  0  0  0  0
  1  2  1  0  0  0
  1 33  1  0  0  0
  1 34  1  0  0  0
  1 35  1  0  0  0
  2  7  2  0  0  0
  2  3  1  0  0  0
  3  4  2  0  0  0
  3 36  1  0  0  0
  4  5  1  0  0  0
  4 37  1  0  0  0
  5  6  2  0  0  0
  5  8  1  0  0  0
  6  7  1  0  0  0
  6 38  1  0  0  0
  7 39  1  0  0  0
  8  9  2  0  0  0
  8 10  2  0  0  0
  8 11  1  0  0  0
 11 12  1  0  0  0
 11 40  1  0  0  0
 12 20  1  0  0  0
 12 13  2  0  0  0
 13 14  1  0  0  0
 14 19  2  0  0  0
 14 15  1  0  0  0
 15 16  2  0  0  0
 15 41  1  0  0  0
 16 17  1  0  0  0
 16 21  1  0  0  0
 17 18  2  0  0  0
 17 42  1  0  0  0
 18 19  1  0  0  0
 18 43  1  0  0  0
 19 20  1  0  0  0
 21 22  1  0  0  0
 21 44  1  0  0  0
 22 23  2  0  0  0
 22 24  1  0  0  0
 24 25  1  0  0  0
 24 45  1  0  0  0
 25 30  2  0  0  0
 25 26  1  0  0  0
 26 27  2  0  0  0
 26 46  1  0  0  0
 27 28  1  0  0  0
 27 47  1  0  0  0
 28 29  2  0  0  0
 28 32  1  0  0  0
 29 30  1  0  0  0
 29 31  1  0  0  0
 30 48  1  0  0  0
 32 49  1  0  0  0
 32 50  1  0  0  0
 32 51  1  0  0  0
M  END
> <i_i_glide_confnum>
61

> <i_i_glide_lignum>
4527

> <i_i_glide_posenum>
48

> <i_i_glide_rotatable_bonds>
7

> <i_m_Source_File_Index>
2308

> <b_m_subgroup_collapsed>
0

> <r_i_docking_score>
-5.57955

> <r_i_glide_ecoul>
-3.23525

> <r_i_glide_eff_state_penalty>
0

> <r_i_glide_einternal>
7.99467

> <r_i_glide_emodel>
-56.5636

> <r_i_glide_energy>
-43.1804

> <r_i_glide_erotb>
0.63882

> <r_i_glide_esite>
-0.00518894

> <r_i_glide_evdw>
-39.9451

> <r_i_glide_gscore>
-5.57955

> <r_i_glide_hbond>
-0.566254

> <r_i_glide_ligand_efficiency>
-0.174361

> <r_i_glide_ligand_efficiency_ln>
-1.24941

> <r_i_glide_ligand_efficiency_sa>
-0.553562

> <r_i_glide_lipo>
-2.39748

> <r_i_glide_metal>
0

> <r_i_glide_rewards>
-0.766905

> <s_i_glide_gridfile>
wee1_glide-grid

> <s_m_Source_File>
wee1_decoys_glide_SP.sdf

> <s_m_Source_Path>
/Users/zhangxujun/Desktop

> <s_m_entry_id>
2583

> <s_m_entry_name>
wee1_decoys_glide_SP.2308

> <s_m_subgroup_title>
wee1_decoys_glide_SP

> <s_m_subgroupid>
wee1_decoys_glide_SP


$$$$
