ZINC09632962_820
                    3D
 Schrodinger Suite 2024-2.
 46 48  0  0  1  0            999 V2000
   -1.8280   51.5635   28.4091 C   0  0  0  0  0  0
   -0.4079   52.0700   28.6190 C   0  0  0  0  0  0
   -0.1204   52.9200   29.6915 C   0  0  0  0  0  0
    1.1583   53.4369   29.8720 C   0  0  0  0  0  0
    2.1966   53.0884   28.9994 C   0  0  0  0  0  0
    1.9224   52.1856   27.9605 C   0  0  0  0  0  0
    0.6346   51.6855   27.7619 C   0  0  0  0  0  0
    0.4288   50.7635   26.7311 N   0  0  0  0  0  0
   -0.1698   51.0451   25.5582 C   0  0  0  0  0  0
   -0.4824   52.1789   25.1812 O   0  0  0  0  0  0
   -0.4191   49.8844   24.7481 C   0  0  0  0  0  0
   -0.6199   48.5432   25.0778 C   0  0  0  0  0  0
   -0.9438   47.8795   23.8946 C   0  0  0  0  0  0
   -0.9669   48.8418   22.9006 C   0  0  0  0  0  0
   -0.6774   50.0621   23.4227 O   0  0  0  0  0  0
    3.5513   53.7017   29.1743 C   0  0  0  0  0  0
    3.8182   54.4951   30.0751 O   0  0  0  0  0  0
    4.4421   53.3092   28.2292 O   0  0  0  0  0  0
    5.7643   53.8528   28.1284 C   0  0  0  0  0  0
    6.0430   54.3524   26.6980 C   0  0  0  0  0  0
    7.1028   54.9347   26.4881 O   0  0  0  0  0  0
    5.1161   54.0968   25.7476 N   0  0  0  0  0  0
    5.1685   54.2849   24.3529 C   0  0  0  0  0  0
    6.3291   54.6532   23.6473 C   0  0  0  0  0  0
    6.3031   54.7665   22.2580 C   0  0  0  0  0  0
    5.1265   54.4974   21.5572 C   0  0  0  0  0  0
    3.9700   54.1370   22.2461 C   0  0  0  0  0  0
    3.9861   54.0417   23.6386 C   0  0  0  0  0  0
    2.8476   53.6915   24.2853 F   0  0  0  0  0  0
    5.1010   54.6389   19.6607 Br  0  0  0  0  0  0
   -2.4620   51.6958   29.2803 H   0  0  0  0  0  0
   -2.2854   52.0647   27.5551 H   0  0  0  0  0  0
   -1.8273   50.4968   28.1949 H   0  0  0  0  0  0
   -0.8954   53.1994   30.3851 H   0  0  0  0  0  0
    1.3218   54.1187   30.6942 H   0  0  0  0  0  0
    2.7022   51.8847   27.2819 H   0  0  0  0  0  0
    0.6644   49.8007   26.9247 H   0  0  0  0  0  0
   -0.5485   48.0991   26.0649 H   0  0  0  0  0  0
   -1.1589   46.8276   23.7782 H   0  0  0  0  0  0
   -1.1799   48.8172   21.8411 H   0  0  0  0  0  0
    6.4573   53.0377   28.3382 H   0  0  0  0  0  0
    5.9775   54.6540   28.8395 H   0  0  0  0  0  0
    4.2580   53.6784   26.0799 H   0  0  0  0  0  0
    7.2702   54.8415   24.1399 H   0  0  0  0  0  0
    7.1993   55.0493   21.7265 H   0  0  0  0  0  0
    3.0560   53.9440   21.7010 H   0  0  0  0  0  0
  1  2  1  0  0  0
  1 31  1  0  0  0
  1 32  1  0  0  0
  1 33  1  0  0  0
  2  7  2  0  0  0
  2  3  1  0  0  0
  3  4  2  0  0  0
  3 34  1  0  0  0
  4  5  1  0  0  0
  4 35  1  0  0  0
  5  6  2  0  0  0
  5 16  1  0  0  0
  6  7  1  0  0  0
  6 36  1  0  0  0
  7  8  1  0  0  0
  8  9  1  0  0  0
  8 37  1  0  0  0
  9 10  2  0  0  0
  9 11  1  0  0  0
 11 15  1  0  0  0
 11 12  2  0  0  0
 12 13  1  0  0  0
 12 38  1  0  0  0
 13 14  2  0  0  0
 13 39  1  0  0  0
 14 15  1  0  0  0
 14 40  1  0  0  0
 16 17  2  0  0  0
 16 18  1  0  0  0
 18 19  1  0  0  0
 19 20  1  0  0  0
 19 41  1  0  0  0
 19 42  1  0  0  0
 20 21  2  0  0  0
 20 22  1  0  0  0
 22 23  1  0  0  0
 22 43  1  0  0  0
 23 28  2  0  0  0
 23 24  1  0  0  0
 24 25  2  0  0  0
 24 44  1  0  0  0
 25 26  1  0  0  0
 25 45  1  0  0  0
 26 27  2  0  0  0
 26 30  1  0  0  0
 27 28  1  0  0  0
 27 46  1  0  0  0
 28 29  1  0  0  0
M  END
> <i_i_glide_confnum>
114

> <i_i_glide_lignum>
821

> <i_i_glide_posenum>
288

> <i_i_glide_rotatable_bonds>
9

> <i_m_Source_File_Index>
5519

> <b_m_subgroup_collapsed>
0

> <r_i_docking_score>
-6.98044

> <r_i_glide_ecoul>
-8.79792

> <r_i_glide_eff_state_penalty>
0

> <r_i_glide_einternal>
9.59078

> <r_i_glide_emodel>
-73.1987

> <r_i_glide_energy>
-54.1185

> <r_i_glide_erotb>
0.716891

> <r_i_glide_esite>
-0.0605145

> <r_i_glide_evdw>
-45.3206

> <r_i_glide_gscore>
-6.98044

> <r_i_glide_hbond>
-0.608

> <r_i_glide_ligand_efficiency>
-0.232681

> <r_i_glide_ligand_efficiency_ln>
-1.58603

> <r_i_glide_ligand_efficiency_sa>
-0.722995

> <r_i_glide_lipo>
-2.25968

> <r_i_glide_metal>
0

> <r_i_glide_rewards>
-1.18342

> <s_i_glide_gridfile>
wee1_glide-grid

> <s_m_Source_File>
wee1_decoys_glide_SP.sdf

> <s_m_Source_Path>
/Users/zhangxujun/Desktop

> <s_m_entry_id>
5794

> <s_m_entry_name>
wee1_decoys_glide_SP.5519

> <s_m_subgroup_title>
wee1_decoys_glide_SP

> <s_m_subgroupid>
wee1_decoys_glide_SP


$$$$
