ZINC00921957_5767
                    3D
 Schrodinger Suite 2024-2.
 70 74  0  0  1  0            999 V2000
    7.2515   56.4767   19.0264 C   0  0  0  0  0  0
    5.9190   56.4122   18.5261 O   0  0  0  0  0  0
    5.2096   55.2271   18.6270 C   0  0  0  0  0  0
    5.7193   54.0659   19.2237 C   0  0  0  0  0  0
    4.9405   52.9144   19.3050 C   0  0  0  0  0  0
    3.5995   52.8988   18.9029 C   0  0  0  0  0  0
    3.1094   54.0548   18.2787 C   0  0  0  0  0  0
    3.9048   55.1943   18.1128 C   0  0  0  0  0  0
    3.3535   56.2944   17.4990 O   0  0  0  0  0  0
    3.8406   56.5495   16.1886 C   0  0  0  0  0  0
    2.7632   51.6284   19.1421 C   0  0  2  0  0  0
    3.5051   50.8327   19.1364 H   0  0  0  0  0  0
    1.8459   51.1856   17.9397 C   0  0  0  0  0  0
    1.6796   51.9126   16.9590 O   0  0  0  0  0  0
    1.2446   49.9881   18.0374 N   0  0  0  0  0  0
    0.4415   49.3373   17.0015 C   0  0  0  0  0  0
    1.3115   48.4498   16.0767 C   0  0  0  0  0  0
    1.9838   47.2865   16.8430 C   0  0  0  0  0  0
    0.9474   46.4182   17.5860 C   0  0  0  0  0  0
   -0.0199   47.2541   18.4504 C   0  0  0  0  0  0
   -0.6322   48.4243   17.6427 C   0  0  0  0  0  0
    2.1590   51.5300   20.5357 N   0  0  0  0  0  0
    2.4533   52.4472   21.5777 C   0  0  0  0  0  0
    1.4463   53.2409   22.1651 C   0  0  0  0  0  0
    1.7155   54.0800   23.2570 C   0  0  0  0  0  0
    3.0270   54.1501   23.7017 C   0  0  0  0  0  0
    4.0211   53.4328   23.1069 C   0  0  0  0  0  0
    3.7637   52.5387   22.0749 C   0  0  0  0  0  0
    5.2047   53.7027   23.7185 O   0  0  0  0  0  0
    4.8902   54.4914   24.8354 C   0  0  0  0  0  0
    3.5455   54.8787   24.7229 O   0  0  0  0  0  0
    1.6178   50.3479   20.9598 C   0  0  0  0  0  0
    2.1672   49.2647   20.7500 O   0  0  0  0  0  0
    0.1941   50.3222   21.5454 C   0  0  0  0  0  0
    0.1048   49.8388   22.9812 C   0  0  0  0  0  0
    0.6635   50.3745   24.1440 C   0  0  0  0  0  0
    0.3090   49.7030   25.3177 C   0  0  0  0  0  0
   -0.5251   48.6316   25.0817 C   0  0  0  0  0  0
   -0.8981   48.4725   23.4014 S   0  0  0  0  0  0
    7.6562   57.4740   18.8561 H   0  0  0  0  0  0
    7.2852   56.2892   20.1013 H   0  0  0  0  0  0
    7.9058   55.7682   18.5153 H   0  0  0  0  0  0
    6.7115   54.0380   19.6472 H   0  0  0  0  0  0
    5.3833   52.0270   19.7274 H   0  0  0  0  0  0
    2.0827   54.1004   17.9511 H   0  0  0  0  0  0
    3.2860   57.3808   15.7561 H   0  0  0  0  0  0
    4.8947   56.8240   16.1944 H   0  0  0  0  0  0
    3.7082   55.6858   15.5353 H   0  0  0  0  0  0
    1.5212   49.4005   18.8149 H   0  0  0  0  0  0
   -0.0664   50.1034   16.4099 H   0  0  0  0  0  0
    0.6989   48.0489   15.2676 H   0  0  0  0  0  0
    2.0773   49.0570   15.5897 H   0  0  0  0  0  0
    2.5644   46.6742   16.1531 H   0  0  0  0  0  0
    2.7034   47.6807   17.5631 H   0  0  0  0  0  0
    0.3742   45.8427   16.8567 H   0  0  0  0  0  0
    1.4686   45.6936   18.2110 H   0  0  0  0  0  0
   -0.8129   46.6159   18.8422 H   0  0  0  0  0  0
    0.5119   47.6396   19.3213 H   0  0  0  0  0  0
   -1.2793   49.0160   18.2909 H   0  0  0  0  0  0
   -1.2817   48.0288   16.8602 H   0  0  0  0  0  0
    0.4427   53.2096   21.7783 H   0  0  0  0  0  0
    0.9309   54.6619   23.7159 H   0  0  0  0  0  0
    4.5510   51.9143   21.6843 H   0  0  0  0  0  0
    5.0209   53.8911   25.7385 H   0  0  0  0  0  0
    5.5319   55.3731   24.8633 H   0  0  0  0  0  0
   -0.2948   51.2844   21.4290 H   0  0  0  0  0  0
   -0.3797   49.6615   20.8940 H   0  0  0  0  0  0
    1.3133   51.2358   24.1402 H   0  0  0  0  0  0
    0.6439   49.9811   26.3069 H   0  0  0  0  0  0
   -0.9297   47.9503   25.8195 H   0  0  0  0  0  0
  1  2  1  0  0  0
  1 40  1  0  0  0
  1 41  1  0  0  0
  1 42  1  0  0  0
  2  3  1  0  0  0
  3  8  2  0  0  0
  3  4  1  0  0  0
  4  5  2  0  0  0
  4 43  1  0  0  0
  5  6  1  0  0  0
  5 44  1  0  0  0
  6  7  2  0  0  0
  6 11  1  0  0  0
  7  8  1  0  0  0
  7 45  1  0  0  0
  8  9  1  0  0  0
  9 10  1  0  0  0
 10 46  1  0  0  0
 10 47  1  0  0  0
 10 48  1  0  0  0
 11 12  1  0  0  0
 11 13  1  0  0  0
 11 22  1  0  0  0
 13 14  2  0  0  0
 13 15  1  0  0  0
 15 16  1  0  0  0
 15 49  1  0  0  0
 16 21  1  0  0  0
 16 17  1  0  0  0
 16 50  1  0  0  0
 17 18  1  0  0  0
 17 51  1  0  0  0
 17 52  1  0  0  0
 18 19  1  0  0  0
 18 53  1  0  0  0
 18 54  1  0  0  0
 19 20  1  0  0  0
 19 55  1  0  0  0
 19 56  1  0  0  0
 20 21  1  0  0  0
 20 57  1  0  0  0
 20 58  1  0  0  0
 21 59  1  0  0  0
 21 60  1  0  0  0
 22 23  1  0  0  0
 22 32  1  0  0  0
 23 28  2  0  0  0
 23 24  1  0  0  0
 24 25  2  0  0  0
 24 61  1  0  0  0
 25 26  1  0  0  0
 25 62  1  0  0  0
 26 31  1  0  0  0
 26 27  2  0  0  0
 27 28  1  0  0  0
 27 29  1  0  0  0
 28 63  1  0  0  0
 29 30  1  0  0  0
 30 31  1  0  0  0
 30 64  1  0  0  0
 30 65  1  0  0  0
 32 33  2  0  0  0
 32 34  1  0  0  0
 34 35  1  0  0  0
 34 66  1  0  0  0
 34 67  1  0  0  0
 35 39  1  0  0  0
 35 36  2  0  0  0
 36 37  1  0  0  0
 36 68  1  0  0  0
 37 38  2  0  0  0
 37 69  1  0  0  0
 38 39  1  0  0  0
 38 70  1  0  0  0
M  END
> <i_i_glide_confnum>
135

> <i_i_glide_lignum>
5768

> <i_i_glide_posenum>
355

> <i_i_glide_rotatable_bonds>
11

> <i_m_Source_File_Index>
2997

> <b_m_subgroup_collapsed>
0

> <r_i_docking_score>
1.75135

> <r_i_glide_ecoul>
1.26407

> <r_i_glide_eff_state_penalty>
0

> <r_i_glide_einternal>
14.8888

> <r_i_glide_emodel>
-7.81428

> <r_i_glide_energy>
-30.2715

> <r_i_glide_erotb>
0.501981

> <r_i_glide_esite>
-0.134878

> <r_i_glide_evdw>
-31.5356

> <r_i_glide_gscore>
1.75135

> <r_i_glide_hbond>
0

> <r_i_glide_ligand_efficiency>
0.0460881

> <r_i_glide_ligand_efficiency_ln>
0.377642

> <r_i_glide_ligand_efficiency_sa>
0.154947

> <r_i_glide_lipo>
-0.827609

> <r_i_glide_metal>
0

> <r_i_glide_rewards>
3.59902

> <s_i_glide_gridfile>
wee1_glide-grid

> <s_m_Source_File>
wee1_decoys_glide_SP.sdf

> <s_m_Source_Path>
/Users/zhangxujun/Desktop

> <s_m_entry_id>
3272

> <s_m_entry_name>
wee1_decoys_glide_SP.2997

> <s_m_subgroup_title>
wee1_decoys_glide_SP

> <s_m_subgroupid>
wee1_decoys_glide_SP


$$$$
