ZINC09965920_73
                    3D
 Schrodinger Suite 2024-2.
 52 55  0  0  1  0            999 V2000
    0.6287   53.1021   30.6017 C   0  0  0  0  0  0
    0.7848   52.9113   29.0992 C   0  0  0  0  0  0
   -0.3363   52.5974   28.3308 C   0  0  0  0  0  0
   -0.2355   52.4113   26.9533 C   0  0  0  0  0  0
    1.0119   52.4698   26.3138 C   0  0  0  0  0  0
    2.1370   52.8058   27.0950 C   0  0  0  0  0  0
    2.0305   53.0279   28.4696 C   0  0  0  0  0  0
    3.4577   53.4234   29.3670 Cl  0  0  0  0  0  0
    1.1517   52.1443   24.9208 N   0  0  0  0  0  0
    1.7968   53.1136   24.1392 C   0  0  0  0  0  0
    1.9448   54.2882   24.4817 O   0  0  0  0  0  0
    2.3033   52.5549   22.8890 C   0  0  0  0  0  0
    3.1542   53.1525   21.9380 C   0  0  0  0  0  0
    3.3890   52.3047   20.8431 C   0  0  0  0  0  0
    2.5513   50.7894   20.9964 S   0  0  0  0  0  0
    1.8941   51.2881   22.5165 C   0  0  0  0  0  0
    1.1178   50.4741   23.2691 N   0  0  0  0  0  0
    0.7794   50.8615   24.4523 C   0  0  0  0  0  0
   -0.0905   49.6327   25.4897 S   0  0  0  0  0  0
   -0.0960   48.0964   24.4873 C   0  0  0  0  0  0
   -1.4011   47.2962   24.5487 C   0  0  0  0  0  0
   -1.8026   46.7586   23.5128 O   0  0  0  0  0  0
   -2.0022   47.1929   25.7559 N   0  0  0  0  0  0
   -3.0516   46.4141   26.0853 C   0  0  0  0  0  0
   -3.6965   45.6969   25.3141 O   0  0  0  0  0  0
   -3.2958   46.4967   27.3989 N   0  0  0  0  0  0
   -4.3276   45.7562   28.1090 C   0  0  0  0  0  0
    4.3238   52.6217   19.6838 C   0  0  0  0  0  0
    4.6263   54.1342   19.6732 C   0  0  0  0  0  0
    5.0082   54.6430   21.0750 C   0  0  0  0  0  0
    3.8424   54.5082   22.0819 C   0  0  0  0  0  0
    0.7880   54.1467   30.8717 H   0  0  0  0  0  0
   -0.3550   52.7919   30.9593 H   0  0  0  0  0  0
    1.3644   52.5028   31.1397 H   0  0  0  0  0  0
   -1.2957   52.4914   28.8088 H   0  0  0  0  0  0
   -1.1281   52.1715   26.3933 H   0  0  0  0  0  0
    3.1137   52.8744   26.6366 H   0  0  0  0  0  0
    0.6993   47.4598   24.8724 H   0  0  0  0  0  0
    0.1274   48.2696   23.4371 H   0  0  0  0  0  0
   -1.5796   47.6951   26.5327 H   0  0  0  0  0  0
   -2.7249   47.1332   27.9556 H   0  0  0  0  0  0
   -4.0150   45.6333   29.1450 H   0  0  0  0  0  0
   -4.4939   44.7673   27.6786 H   0  0  0  0  0  0
   -5.2661   46.3104   28.0942 H   0  0  0  0  0  0
    5.2629   52.0833   19.8067 H   0  0  0  0  0  0
    3.9036   52.3051   18.7283 H   0  0  0  0  0  0
    5.4297   54.3402   18.9652 H   0  0  0  0  0  0
    3.7561   54.6827   19.3069 H   0  0  0  0  0  0
    5.8713   54.0835   21.4388 H   0  0  0  0  0  0
    5.3334   55.6828   21.0223 H   0  0  0  0  0  0
    3.1077   55.2965   21.9225 H   0  0  0  0  0  0
    4.2163   54.6537   23.0955 H   0  0  0  0  0  0
  1  2  1  0  0  0
  1 32  1  0  0  0
  1 33  1  0  0  0
  1 34  1  0  0  0
  2  7  2  0  0  0
  2  3  1  0  0  0
  3  4  2  0  0  0
  3 35  1  0  0  0
  4  5  1  0  0  0
  4 36  1  0  0  0
  5  6  2  0  0  0
  5  9  1  0  0  0
  6  7  1  0  0  0
  6 37  1  0  0  0
  7  8  1  0  0  0
  9 18  1  0  0  0
  9 10  1  0  0  0
 10 11  2  0  0  0
 10 12  1  0  0  0
 12 16  2  0  0  0
 12 13  1  0  0  0
 13 31  1  0  0  0
 13 14  2  0  0  0
 14 15  1  0  0  0
 14 28  1  0  0  0
 15 16  1  0  0  0
 16 17  1  0  0  0
 17 18  2  0  0  0
 18 19  1  0  0  0
 19 20  1  0  0  0
 20 21  1  0  0  0
 20 38  1  0  0  0
 20 39  1  0  0  0
 21 22  2  0  0  0
 21 23  1  0  0  0
 23 24  1  0  0  0
 23 40  1  0  0  0
 24 25  2  0  0  0
 24 26  1  0  0  0
 26 27  1  0  0  0
 26 41  1  0  0  0
 27 42  1  0  0  0
 27 43  1  0  0  0
 27 44  1  0  0  0
 28 29  1  0  0  0
 28 45  1  0  0  0
 28 46  1  0  0  0
 29 30  1  0  0  0
 29 47  1  0  0  0
 29 48  1  0  0  0
 30 31  1  0  0  0
 30 49  1  0  0  0
 30 50  1  0  0  0
 31 51  1  0  0  0
 31 52  1  0  0  0
M  END
> <i_i_glide_confnum>
132

> <i_i_glide_lignum>
74

> <i_i_glide_posenum>
97

> <i_i_glide_rotatable_bonds>
7

> <i_m_Source_File_Index>
4401

> <b_m_subgroup_collapsed>
0

> <r_i_docking_score>
-5.67228

> <r_i_glide_ecoul>
-11.079

> <r_i_glide_eff_state_penalty>
0

> <r_i_glide_einternal>
9.63062

> <r_i_glide_emodel>
-65.4257

> <r_i_glide_energy>
-50.9195

> <r_i_glide_erotb>
0.534098

> <r_i_glide_esite>
-0.363901

> <r_i_glide_evdw>
-39.8405

> <r_i_glide_gscore>
-5.67228

> <r_i_glide_hbond>
-0.456

> <r_i_glide_ligand_efficiency>
-0.182977

> <r_i_glide_ligand_efficiency_ln>
-1.27927

> <r_i_glide_ligand_efficiency_sa>
-0.5748

> <r_i_glide_lipo>
-1.40995

> <r_i_glide_metal>
0

> <r_i_glide_rewards>
-0.322655

> <s_i_glide_gridfile>
wee1_glide-grid

> <s_m_Source_File>
wee1_decoys_glide_SP.sdf

> <s_m_Source_Path>
/Users/zhangxujun/Desktop

> <s_m_entry_id>
4676

> <s_m_entry_name>
wee1_decoys_glide_SP.4401

> <s_m_subgroup_title>
wee1_decoys_glide_SP

> <s_m_subgroupid>
wee1_decoys_glide_SP


$$$$
