ZINC10240361_821
                    3D
 Schrodinger Suite 2024-2.
 56 58  0  0  1  0            999 V2000
   -4.7958   43.4375   26.4473 C   0  0  0  0  0  0
   -5.4548   44.3508   27.4969 C   0  0  2  0  0  0
   -5.1157   44.0256   28.4793 H   0  0  0  0  0  0
   -6.9909   44.1836   27.4779 C   0  0  0  0  0  0
   -7.6584   44.9560   28.6334 C   0  0  0  0  0  0
   -7.2582   46.4454   28.6330 C   0  0  0  0  0  0
   -5.7331   46.6744   28.5085 C   0  0  0  0  0  0
   -5.1097   45.8639   27.3466 C   0  0  1  0  0  0
   -5.6276   46.2223   26.4516 H   0  0  0  0  0  0
   -3.6938   46.2010   27.1415 N   0  0  0  0  0  0
   -3.1125   46.4420   25.9540 C   0  0  0  0  0  0
   -3.5110   45.9398   24.8980 O   0  0  0  0  0  0
   -2.0963   47.3171   26.0815 N   0  0  0  0  0  0
   -1.3810   47.9097   25.0999 C   0  0  0  0  0  0
   -1.4219   47.6100   23.9048 O   0  0  0  0  0  0
   -0.4342   49.0250   25.5556 C   0  0  0  0  0  0
   -1.2999   50.6226   25.7437 S   0  0  0  0  0  0
   -0.0669   51.4950   26.6591 C   0  0  0  0  0  0
   -0.1230   51.6989   27.9517 N   0  0  0  0  0  0
    1.0241   52.3947   28.3217 N   0  0  0  0  0  0
    1.7133   52.6296   27.2306 C   0  0  0  0  0  0
    1.0692   52.0773   26.1328 N   0  0  0  0  0  0
    1.5033   52.0389   24.7341 C   0  0  0  0  0  0
    0.8802   53.1162   23.8700 C   0  0  0  0  0  0
    1.5866   53.9380   23.0784 C   0  0  0  0  0  0
    3.0341   53.3377   27.2104 C   0  0  0  0  0  0
    3.3384   54.2118   26.1631 C   0  0  0  0  0  0
    4.5920   54.7960   26.0671 C   0  0  0  0  0  0
    5.5488   54.5284   27.0368 C   0  0  0  0  0  0
    5.2493   53.7062   28.1222 C   0  0  0  0  0  0
    3.9873   53.1177   28.2140 C   0  0  0  0  0  0
    7.1043   55.2521   26.8830 Cl  0  0  0  0  0  0
   -5.1187   43.6953   25.4385 H   0  0  0  0  0  0
   -3.7093   43.5103   26.4826 H   0  0  0  0  0  0
   -5.0477   42.3902   26.6219 H   0  0  0  0  0  0
   -7.3955   44.4876   26.5102 H   0  0  0  0  0  0
   -7.2460   43.1251   27.5648 H   0  0  0  0  0  0
   -7.3898   44.5047   29.5868 H   0  0  0  0  0  0
   -8.7428   44.8655   28.5600 H   0  0  0  0  0  0
   -7.6355   46.9329   29.5332 H   0  0  0  0  0  0
   -7.7548   46.9401   27.7971 H   0  0  0  0  0  0
   -5.2433   46.4147   29.4480 H   0  0  0  0  0  0
   -5.5456   47.7396   28.3606 H   0  0  0  0  0  0
   -3.1517   46.3615   27.9810 H   0  0  0  0  0  0
   -1.8929   47.6595   27.0256 H   0  0  0  0  0  0
    0.3683   49.1196   24.8250 H   0  0  0  0  0  0
    0.0396   48.7429   26.4941 H   0  0  0  0  0  0
    2.5904   52.1027   24.6985 H   0  0  0  0  0  0
    1.2604   51.0648   24.3150 H   0  0  0  0  0  0
   -0.1965   53.2056   23.9091 H   0  0  0  0  0  0
    1.1049   54.6963   22.4829 H   0  0  0  0  0  0
    2.6634   53.8684   23.0099 H   0  0  0  0  0  0
    2.6028   54.4498   25.4149 H   0  0  0  0  0  0
    4.8223   55.4520   25.2403 H   0  0  0  0  0  0
    5.9958   53.5162   28.8788 H   0  0  0  0  0  0
    3.7657   52.4549   29.0383 H   0  0  0  0  0  0
  1  2  1  0  0  0
  1 33  1  0  0  0
  1 34  1  0  0  0
  1 35  1  0  0  0
  2  3  1  0  0  0
  2  8  1  0  0  0
  2  4  1  0  0  0
  4  5  1  0  0  0
  4 36  1  0  0  0
  4 37  1  0  0  0
  5  6  1  0  0  0
  5 38  1  0  0  0
  5 39  1  0  0  0
  6  7  1  0  0  0
  6 40  1  0  0  0
  6 41  1  0  0  0
  7  8  1  0  0  0
  7 42  1  0  0  0
  7 43  1  0  0  0
  8  9  1  0  0  0
  8 10  1  0  0  0
 10 11  1  0  0  0
 10 44  1  0  0  0
 11 12  2  0  0  0
 11 13  1  0  0  0
 13 14  1  0  0  0
 13 45  1  0  0  0
 14 15  2  0  0  0
 14 16  1  0  0  0
 16 17  1  0  0  0
 16 46  1  0  0  0
 16 47  1  0  0  0
 17 18  1  0  0  0
 18 22  1  0  0  0
 18 19  2  0  0  0
 19 20  1  0  0  0
 20 21  2  0  0  0
 21 22  1  0  0  0
 21 26  1  0  0  0
 22 23  1  0  0  0
 23 24  1  0  0  0
 23 48  1  0  0  0
 23 49  1  0  0  0
 24 25  2  0  0  0
 24 50  1  0  0  0
 25 51  1  0  0  0
 25 52  1  0  0  0
 26 31  2  0  0  0
 26 27  1  0  0  0
 27 28  2  0  0  0
 27 53  1  0  0  0
 28 29  1  0  0  0
 28 54  1  0  0  0
 29 30  2  0  0  0
 29 32  1  0  0  0
 30 31  1  0  0  0
 30 55  1  0  0  0
 31 56  1  0  0  0
M  END
> <i_i_glide_confnum>
463

> <i_i_glide_lignum>
822

> <i_i_glide_posenum>
370

> <i_i_glide_rotatable_bonds>
10

> <i_m_Source_File_Index>
1761

> <b_m_subgroup_collapsed>
0

> <r_i_docking_score>
-5.68788

> <r_i_glide_ecoul>
-11.3902

> <r_i_glide_eff_state_penalty>
0

> <r_i_glide_einternal>
7.33071

> <r_i_glide_emodel>
-60.9825

> <r_i_glide_energy>
-46.1163

> <r_i_glide_erotb>
0.998019

> <r_i_glide_esite>
-0.418426

> <r_i_glide_evdw>
-34.726

> <r_i_glide_gscore>
-5.68788

> <r_i_glide_hbond>
-0.293799

> <r_i_glide_ligand_efficiency>
-0.189596

> <r_i_glide_ligand_efficiency_ln>
-1.29235

> <r_i_glide_ligand_efficiency_sa>
-0.589119

> <r_i_glide_lipo>
-2.0211

> <r_i_glide_metal>
0

> <r_i_glide_rewards>
-0.507738

> <s_i_glide_gridfile>
wee1_glide-grid

> <s_m_Source_File>
wee1_decoys_glide_SP.sdf

> <s_m_Source_Path>
/Users/zhangxujun/Desktop

> <s_m_entry_id>
2036

> <s_m_entry_name>
wee1_decoys_glide_SP.1761

> <s_m_subgroup_title>
wee1_decoys_glide_SP

> <s_m_subgroupid>
wee1_decoys_glide_SP


$$$$
