ZINC22809938_5361
                    3D
 Schrodinger Suite 2024-2.
 59 63  0  0  1  0            999 V2000
    4.7354   54.5386   18.6691 C   0  0  0  0  0  0
    4.6493   54.4968   20.0635 C   0  0  0  0  0  0
    3.9041   53.4292   20.5789 C   0  0  0  0  0  0
    3.2732   52.4965   19.2427 S   0  0  0  0  0  0
    4.0390   53.5086   18.0716 C   0  0  0  0  0  0
    3.5710   53.0184   22.0109 C   0  0  1  0  0  0
    3.9242   51.9877   22.0911 H   0  0  0  0  0  0
    4.3502   53.7357   23.1393 C   0  0  0  0  0  0
    5.7224   53.9658   22.9893 C   0  0  0  0  0  0
    6.4591   54.5441   24.0150 C   0  0  0  0  0  0
    5.8507   54.8762   25.2146 C   0  0  0  0  0  0
    4.4869   54.6553   25.3891 C   0  0  0  0  0  0
    3.7385   54.0969   24.3528 C   0  0  0  0  0  0
    6.5940   55.4075   26.2131 F   0  0  0  0  0  0
    2.1119   53.0173   22.1849 N   0  0  0  0  0  0
    1.3907   52.0526   22.7856 C   0  0  0  0  0  0
    1.9043   51.0288   23.2412 O   0  0  0  0  0  0
   -0.1311   52.3133   22.8632 C   0  0  0  0  0  0
   -0.8660   51.2736   23.6097 N   0  0  0  0  0  0
   -2.3059   51.3594   23.3304 C   0  0  0  0  0  0
   -3.0633   50.2111   24.0392 C   0  0  0  0  0  0
   -2.8650   50.2829   25.4925 N   0  0  0  0  0  0
   -1.4293   50.2348   25.8092 C   0  0  0  0  0  0
   -0.6592   51.3597   25.0694 C   0  0  0  0  0  0
   -3.6103   49.2352   26.1991 C   0  0  0  0  0  0
   -4.5372   49.7837   27.2716 C   0  0  0  0  0  0
   -5.7625   50.3002   27.0275 C   0  0  0  0  0  0
   -6.6553   50.8073   28.0408 C   0  0  0  0  0  0
   -7.7672   51.3167   27.9097 O   0  0  0  0  0  0
   -6.0660   50.6532   29.3956 N   0  0  0  0  0  0
   -6.7227   51.0448   30.5466 C   0  0  0  0  0  0
   -6.0051   50.8142   31.6542 C   0  0  0  0  0  0
   -4.4407   50.0968   31.2815 S   0  0  0  0  0  0
   -4.8453   50.1233   29.6084 C   0  0  0  0  0  0
   -4.0956   49.6944   28.5781 N   0  3  0  0  0  0
    5.2838   55.2923   18.1213 H   0  0  0  0  0  0
    5.1224   55.2411   20.6837 H   0  0  0  0  0  0
    3.9375   53.2860   17.0193 H   0  0  0  0  0  0
    6.2352   53.6937   22.0816 H   0  0  0  0  0  0
    7.5065   54.7287   23.8774 H   0  0  0  0  0  0
    4.0139   54.9094   26.3256 H   0  0  0  0  0  0
    2.6860   53.9229   24.5205 H   0  0  0  0  0  0
    1.6409   53.8350   21.8241 H   0  0  0  0  0  0
   -0.3114   53.2968   23.2988 H   0  0  0  0  0  0
   -0.4841   52.3460   21.8304 H   0  0  0  0  0  0
   -2.7052   52.3187   23.6656 H   0  0  0  0  0  0
   -2.4815   51.2703   22.2570 H   0  0  0  0  0  0
   -2.6982   49.2570   23.6532 H   0  0  0  0  0  0
   -4.1242   50.2977   23.8018 H   0  0  0  0  0  0
   -1.0095   49.2739   25.5023 H   0  0  0  0  0  0
   -1.2745   50.3472   26.8824 H   0  0  0  0  0  0
    0.3989   51.2625   25.3158 H   0  0  0  0  0  0
   -1.0060   52.3263   25.4398 H   0  0  0  0  0  0
   -4.2423   48.6793   25.5034 H   0  0  0  0  0  0
   -2.9463   48.4841   26.6322 H   0  0  0  0  0  0
   -6.1096   50.3573   26.0059 H   0  0  0  0  0  0
   -7.7158   51.4678   30.4626 H   0  0  0  0  0  0
   -6.2808   51.0152   32.6793 H   0  0  0  0  0  0
   -3.1772   49.2823   28.7580 H   0  0  0  0  0  0
  1  5  2  0  0  0
  1  2  1  0  0  0
  1 36  1  0  0  0
  2  3  2  0  0  0
  2 37  1  0  0  0
  3  4  1  0  0  0
  3  6  1  0  0  0
  4  5  1  0  0  0
  5 38  1  0  0  0
  6  7  1  0  0  0
  6  8  1  0  0  0
  6 15  1  0  0  0
  8 13  2  0  0  0
  8  9  1  0  0  0
  9 10  2  0  0  0
  9 39  1  0  0  0
 10 11  1  0  0  0
 10 40  1  0  0  0
 11 12  2  0  0  0
 11 14  1  0  0  0
 12 13  1  0  0  0
 12 41  1  0  0  0
 13 42  1  0  0  0
 15 16  1  0  0  0
 15 43  1  0  0  0
 16 17  2  0  0  0
 16 18  1  0  0  0
 18 19  1  0  0  0
 18 44  1  0  0  0
 18 45  1  0  0  0
 19 24  1  0  0  0
 19 20  1  0  0  0
 20 21  1  0  0  0
 20 46  1  0  0  0
 20 47  1  0  0  0
 21 22  1  0  0  0
 21 48  1  0  0  0
 21 49  1  0  0  0
 22 23  1  0  0  0
 22 25  1  0  0  0
 23 24  1  0  0  0
 23 50  1  0  0  0
 23 51  1  0  0  0
 24 52  1  0  0  0
 24 53  1  0  0  0
 25 26  1  0  0  0
 25 54  1  0  0  0
 25 55  1  0  0  0
 26 35  1  0  0  0
 26 27  2  0  0  0
 27 28  1  0  0  0
 27 56  1  0  0  0
 28 29  2  0  0  0
 28 30  1  0  0  0
 30 34  1  0  0  0
 30 31  1  0  0  0
 31 32  2  0  0  0
 31 57  1  0  0  0
 32 33  1  0  0  0
 32 58  1  0  0  0
 33 34  1  0  0  0
 34 35  2  0  0  0
 35 59  1  0  0  0
M  CHG  1  35   1
M  END
> <i_i_glide_confnum>
119

> <i_i_glide_lignum>
5362

> <i_i_glide_posenum>
326

> <i_i_glide_rotatable_bonds>
8

> <i_m_Source_File_Index>
3208

> <b_m_subgroup_collapsed>
0

> <r_i_docking_score>
-4.73483

> <r_i_glide_ecoul>
-4.22166

> <r_i_glide_eff_state_penalty>
0

> <r_i_glide_einternal>
7.81427

> <r_i_glide_emodel>
-52.4591

> <r_i_glide_energy>
-41.0661

> <r_i_glide_erotb>
0.656657

> <r_i_glide_esite>
-0.17445

> <r_i_glide_evdw>
-36.8444

> <r_i_glide_gscore>
-4.73483

> <r_i_glide_hbond>
-0.370216

> <r_i_glide_ligand_efficiency>
-0.13926

> <r_i_glide_ligand_efficiency_ln>
-1.04606

> <r_i_glide_ligand_efficiency_sa>
-0.451148

> <r_i_glide_lipo>
-1.85832

> <r_i_glide_metal>
0

> <r_i_glide_rewards>
-0.513038

> <s_i_glide_gridfile>
wee1_glide-grid

> <s_m_Source_File>
wee1_decoys_glide_SP.sdf

> <s_m_Source_Path>
/Users/zhangxujun/Desktop

> <s_m_entry_id>
3483

> <s_m_entry_name>
wee1_decoys_glide_SP.3208

> <s_m_subgroup_title>
wee1_decoys_glide_SP

> <s_m_subgroupid>
wee1_decoys_glide_SP


$$$$
