ZINC35780122_1083
                    3D
 Schrodinger Suite 2024-2.
 70 73  0  0  1  0            999 V2000
    4.9546   54.2900   20.1726 C   0  0  0  0  0  0
    5.8442   54.6534   21.2236 O   0  0  0  0  0  0
    5.4411   54.4967   22.5354 C   0  0  0  0  0  0
    4.1704   54.0516   22.9328 C   0  0  0  0  0  0
    3.8616   53.9117   24.2937 C   0  0  0  0  0  0
    4.8193   54.2401   25.2532 C   0  0  0  0  0  0
    6.0922   54.6896   24.8759 C   0  0  0  0  0  0
    6.3782   54.8212   23.5170 C   0  0  0  0  0  0
    7.1044   54.9921   25.7652 O   0  0  0  0  0  0
    6.9181   54.6877   27.1447 C   0  0  0  0  0  0
    2.7041   53.2893   24.7793 N   0  0  0  0  0  0
    1.5519   53.0052   24.1416 C   0  0  0  0  0  0
    1.1700   53.5884   23.1295 O   0  0  0  0  0  0
    0.7356   51.8362   24.7684 C   0  0  1  0  0  0
    1.4489   51.0415   24.9751 H   0  0  0  0  0  0
   -0.0191   52.1741   26.0897 C   0  0  0  0  0  0
   -0.6846   50.9627   26.7698 C   0  0  0  0  0  0
   -0.8866   51.3513   28.2408 C   0  0  0  0  0  0
    0.0663   52.5170   28.5250 C   0  0  0  0  0  0
    0.8535   52.7373   27.2307 C   0  0  0  0  0  0
   -0.2139   51.1211   23.7525 N   0  3  0  0  0  0
   -1.4643   51.9366   23.3212 C   0  0  0  0  0  0
   -2.3281   51.1287   22.3336 C   0  0  0  0  0  0
   -1.4657   50.7223   21.2134 N   0  0  0  0  0  0
   -0.4078   49.7666   21.5873 C   0  0  0  0  0  0
    0.5535   50.4800   22.5615 C   0  0  0  0  0  0
   -1.6155   51.2769   19.9773 C   0  0  0  0  0  0
   -2.4968   52.0968   19.7133 O   0  0  0  0  0  0
   -0.6602   50.8722   18.8790 C   0  0  0  0  0  0
    0.6839   51.2653   18.9811 C   0  0  0  0  0  0
    1.6032   50.9173   17.9961 C   0  0  0  0  0  0
    1.1878   50.1927   16.8852 C   0  0  0  0  0  0
   -0.1452   49.8143   16.7568 C   0  0  0  0  0  0
   -1.0899   50.1446   17.7412 C   0  0  0  0  0  0
   -2.5356   49.6412   17.5641 C   0  0  0  0  0  0
   -3.3516   50.6639   17.3027 F   0  0  0  0  0  0
   -2.6495   48.7237   16.5951 F   0  0  0  0  0  0
   -2.9573   49.0456   18.6824 F   0  0  0  0  0  0
    5.4459   54.4544   19.2147 H   0  0  0  0  0  0
    4.6809   53.2337   20.2207 H   0  0  0  0  0  0
    4.0467   54.8954   20.1831 H   0  0  0  0  0  0
    3.4449   53.7707   22.1865 H   0  0  0  0  0  0
    4.5803   54.1050   26.2968 H   0  0  0  0  0  0
    7.3589   55.1649   23.2197 H   0  0  0  0  0  0
    7.8409   54.8964   27.6816 H   0  0  0  0  0  0
    6.6839   53.6337   27.3023 H   0  0  0  0  0  0
    6.1366   55.3010   27.5952 H   0  0  0  0  0  0
    2.8116   52.9058   25.7057 H   0  0  0  0  0  0
   -0.8130   52.8966   25.9139 H   0  0  0  0  0  0
   -1.5952   50.6231   26.2749 H   0  0  0  0  0  0
    0.0016   50.1131   26.7554 H   0  0  0  0  0  0
   -1.9222   51.6400   28.4259 H   0  0  0  0  0  0
   -0.6753   50.5067   28.8938 H   0  0  0  0  0  0
   -0.4959   53.4151   28.7810 H   0  0  0  0  0  0
    0.7265   52.3026   29.3668 H   0  0  0  0  0  0
    1.7703   52.1475   27.3025 H   0  0  0  0  0  0
    1.1624   53.7705   27.0751 H   0  0  0  0  0  0
   -2.0490   52.1030   24.2230 H   0  0  0  0  0  0
   -1.1630   52.8964   22.9104 H   0  0  0  0  0  0
   -2.7438   50.2437   22.8164 H   0  0  0  0  0  0
   -3.1982   51.6970   22.0036 H   0  0  0  0  0  0
    0.1242   49.3619   20.7241 H   0  0  0  0  0  0
   -0.8584   48.8950   22.0657 H   0  0  0  0  0  0
    1.1593   51.2379   22.0628 H   0  0  0  0  0  0
    1.2205   49.7388   23.0082 H   0  0  0  0  0  0
    1.0275   51.8504   19.8222 H   0  0  0  0  0  0
    2.6450   51.1998   18.0848 H   0  0  0  0  0  0
    1.9086   49.9124   16.1277 H   0  0  0  0  0  0
   -0.4324   49.2497   15.8814 H   0  0  0  0  0  0
   -0.6021   50.3272   24.2440 H   0  0  0  0  0  0
  1  2  1  0  0  0
  1 39  1  0  0  0
  1 40  1  0  0  0
  1 41  1  0  0  0
  2  3  1  0  0  0
  3  8  2  0  0  0
  3  4  1  0  0  0
  4  5  2  0  0  0
  4 42  1  0  0  0
  5  6  1  0  0  0
  5 11  1  0  0  0
  6  7  2  0  0  0
  6 43  1  0  0  0
  7  8  1  0  0  0
  7  9  1  0  0  0
  8 44  1  0  0  0
  9 10  1  0  0  0
 10 45  1  0  0  0
 10 46  1  0  0  0
 10 47  1  0  0  0
 11 12  1  0  0  0
 11 48  1  0  0  0
 12 13  2  0  0  0
 12 14  1  0  0  0
 14 15  1  0  0  0
 14 16  1  0  0  0
 14 21  1  0  0  0
 16 20  1  0  0  0
 16 17  1  0  0  0
 16 49  1  0  0  0
 17 18  1  0  0  0
 17 50  1  0  0  0
 17 51  1  0  0  0
 18 19  1  0  0  0
 18 52  1  0  0  0
 18 53  1  0  0  0
 19 20  1  0  0  0
 19 54  1  0  0  0
 19 55  1  0  0  0
 20 56  1  0  0  0
 20 57  1  0  0  0
 21 26  1  0  0  0
 21 22  1  0  0  0
 21 70  1  0  0  0
 22 23  1  0  0  0
 22 58  1  0  0  0
 22 59  1  0  0  0
 23 24  1  0  0  0
 23 60  1  0  0  0
 23 61  1  0  0  0
 24 25  1  0  0  0
 24 27  1  0  0  0
 25 26  1  0  0  0
 25 62  1  0  0  0
 25 63  1  0  0  0
 26 64  1  0  0  0
 26 65  1  0  0  0
 27 28  2  0  0  0
 27 29  1  0  0  0
 29 34  2  0  0  0
 29 30  1  0  0  0
 30 31  2  0  0  0
 30 66  1  0  0  0
 31 32  1  0  0  0
 31 67  1  0  0  0
 32 33  2  0  0  0
 32 68  1  0  0  0
 33 34  1  0  0  0
 33 69  1  0  0  0
 34 35  1  0  0  0
 35 36  1  0  0  0
 35 37  1  0  0  0
 35 38  1  0  0  0
M  CHG  1  21   1
M  END
> <i_i_glide_confnum>
261

> <i_i_glide_lignum>
1084

> <i_i_glide_posenum>
142

> <i_i_glide_rotatable_bonds>
10

> <i_m_Source_File_Index>
2367

> <b_m_subgroup_collapsed>
0

> <r_i_docking_score>
-5.24183

> <r_i_glide_ecoul>
-8.0671

> <r_i_glide_eff_state_penalty>
0

> <r_i_glide_einternal>
8.38788

> <r_i_glide_emodel>
-55.5623

> <r_i_glide_energy>
-43.3915

> <r_i_glide_erotb>
0.530889

> <r_i_glide_esite>
-0.0135098

> <r_i_glide_evdw>
-35.3244

> <r_i_glide_gscore>
-5.24183

> <r_i_glide_hbond>
-0.608

> <r_i_glide_ligand_efficiency>
-0.141671

> <r_i_glide_ligand_efficiency_ln>
-1.13683

> <r_i_glide_ligand_efficiency_sa>
-0.47208

> <r_i_glide_lipo>
-2.00059

> <r_i_glide_metal>
0

> <r_i_glide_rewards>
-0.174339

> <s_i_glide_gridfile>
wee1_glide-grid

> <s_m_Source_File>
wee1_decoys_glide_SP.sdf

> <s_m_Source_Path>
/Users/zhangxujun/Desktop

> <s_m_entry_id>
2642

> <s_m_entry_name>
wee1_decoys_glide_SP.2367

> <s_m_subgroup_title>
wee1_decoys_glide_SP

> <s_m_subgroupid>
wee1_decoys_glide_SP


$$$$
