ZINC39790134_3398
                    3D
 Schrodinger Suite 2024-2.
 53 56  0  0  1  0            999 V2000
    6.5120   58.8988   16.7268 C   0  0  0  0  0  0
    5.3812   57.8904   16.7669 C   0  0  0  0  0  0
    5.4137   56.5474   16.8654 C   0  0  0  0  0  0
    3.8097   55.8343   16.7562 S   0  0  0  0  0  0
    3.0919   57.4785   16.4817 C   0  0  0  0  0  0
    1.9049   57.6973   16.2559 O   0  0  0  0  0  0
    4.1320   58.3873   16.5766 N   0  0  0  0  0  0
    3.9598   59.3833   16.4828 H   0  0  0  0  0  0
    6.8789   55.5059   17.0480 S   0  0  0  0  0  0
    6.9050   54.5901   15.9028 O   0  0  0  0  0  0
    8.0352   56.3623   17.3323 O   0  0  0  0  0  0
    6.5906   54.5470   18.5073 N   0  0  0  0  0  0
    5.9902   53.1960   18.4802 C   0  0  0  0  0  0
    4.6689   53.1455   19.2808 C   0  0  0  0  0  0
    4.8813   53.7611   20.6233 N   0  0  0  0  0  0
    5.3985   55.1507   20.5743 C   0  0  0  0  0  0
    6.7618   55.1248   19.8505 C   0  0  0  0  0  0
    4.4765   53.0880   21.7443 C   0  0  0  0  0  0
    4.0389   51.9379   21.6814 O   0  0  0  0  0  0
    4.4501   53.7422   23.0451 C   0  0  0  0  0  0
    5.4910   54.3261   23.6794 C   0  0  0  0  0  0
    5.0444   54.8145   24.9033 N   0  0  0  0  0  0
    3.7253   54.3157   25.2141 N   0  0  0  0  0  0
    3.2772   53.6685   23.9970 C   0  0  1  0  0  0
    3.0253   52.6285   24.2086 H   0  0  0  0  0  0
    1.8728   54.4972   23.2783 Cl  0  0  0  0  0  0
    3.4359   53.9882   26.5535 C   0  0  0  0  0  0
    2.2623   53.2857   26.8543 C   0  0  0  0  0  0
    1.9469   52.9527   28.1708 C   0  0  0  0  0  0
    2.7982   53.3360   29.2037 C   0  0  0  0  0  0
    3.9532   54.0607   28.9309 C   0  0  0  0  0  0
    4.2644   54.3905   27.6154 C   0  0  0  0  0  0
    2.5027   53.0062   30.4811 F   0  0  0  0  0  0
    6.9490   54.5533   23.3727 C   0  0  0  0  0  0
    6.6987   59.2948   17.7253 H   0  0  0  0  0  0
    7.4379   58.4772   16.3402 H   0  0  0  0  0  0
    6.2638   59.7423   16.0807 H   0  0  0  0  0  0
    5.7948   52.9203   17.4431 H   0  0  0  0  0  0
    6.7041   52.4842   18.8820 H   0  0  0  0  0  0
    3.9174   53.7573   18.7809 H   0  0  0  0  0  0
    4.2974   52.1186   19.3217 H   0  0  0  0  0  0
    5.4129   55.6847   21.5214 H   0  0  0  0  0  0
    4.7040   55.6945   19.9367 H   0  0  0  0  0  0
    7.4931   54.5081   20.3654 H   0  0  0  0  0  0
    7.1838   56.1267   19.7710 H   0  0  0  0  0  0
    4.9770   55.8098   25.0586 H   0  0  0  0  0  0
    1.5878   52.9843   26.0663 H   0  0  0  0  0  0
    1.0470   52.3962   28.3901 H   0  0  0  0  0  0
    4.6098   54.3635   29.7328 H   0  0  0  0  0  0
    5.1697   54.9493   27.4344 H   0  0  0  0  0  0
    7.1753   55.6147   23.2702 H   0  0  0  0  0  0
    7.5268   54.1488   24.2030 H   0  0  0  0  0  0
    7.2641   54.0330   22.4815 H   0  0  0  0  0  0
  1  2  1  0  0  0
  1 35  1  0  0  0
  1 36  1  0  0  0
  1 37  1  0  0  0
  2  7  1  0  0  0
  2  3  2  0  0  0
  3  4  1  0  0  0
  3  9  1  0  0  0
  4  5  1  0  0  0
  5  6  2  0  0  0
  5  7  1  0  0  0
  7  8  1  0  0  0
  9 10  2  0  0  0
  9 11  2  0  0  0
  9 12  1  0  0  0
 12 17  1  0  0  0
 12 13  1  0  0  0
 13 14  1  0  0  0
 13 38  1  0  0  0
 13 39  1  0  0  0
 14 15  1  0  0  0
 14 40  1  0  0  0
 14 41  1  0  0  0
 15 16  1  0  0  0
 15 18  1  0  0  0
 16 17  1  0  0  0
 16 42  1  0  0  0
 16 43  1  0  0  0
 17 44  1  0  0  0
 17 45  1  0  0  0
 18 19  2  0  0  0
 18 20  1  0  0  0
 20 24  1  0  0  0
 20 21  2  0  0  0
 21 22  1  0  0  0
 21 34  1  0  0  0
 22 23  1  0  0  0
 22 46  1  0  0  0
 23 24  1  0  0  0
 23 27  1  0  0  0
 24 25  1  0  0  0
 24 26  1  0  0  0
 27 32  2  0  0  0
 27 28  1  0  0  0
 28 29  2  0  0  0
 28 47  1  0  0  0
 29 30  1  0  0  0
 29 48  1  0  0  0
 30 31  2  0  0  0
 30 33  1  0  0  0
 31 32  1  0  0  0
 31 49  1  0  0  0
 32 50  1  0  0  0
 34 51  1  0  0  0
 34 52  1  0  0  0
 34 53  1  0  0  0
M  END
> <i_i_glide_confnum>
99

> <i_i_glide_lignum>
3399

> <i_i_glide_posenum>
106

> <i_i_glide_rotatable_bonds>
5

> <i_m_Source_File_Index>
1353

> <b_m_subgroup_collapsed>
0

> <r_i_docking_score>
-5.26378

> <r_i_glide_ecoul>
-3.2294

> <r_i_glide_eff_state_penalty>
0

> <r_i_glide_einternal>
4.39198

> <r_i_glide_emodel>
-57.4104

> <r_i_glide_energy>
-44.3869

> <r_i_glide_erotb>
0.405379

> <r_i_glide_esite>
-0.0719955

> <r_i_glide_evdw>
-41.1574

> <r_i_glide_gscore>
-5.26378

> <r_i_glide_hbond>
-0.0819765

> <r_i_glide_ligand_efficiency>
-0.164493

> <r_i_glide_ligand_efficiency_ln>
-1.1787

> <r_i_glide_ligand_efficiency_sa>
-0.522234

> <r_i_glide_lipo>
-2.37784

> <r_i_glide_metal>
0

> <r_i_glide_rewards>
-0.595065

> <s_i_glide_gridfile>
wee1_glide-grid

> <s_m_Source_File>
wee1_decoys_glide_SP.sdf

> <s_m_Source_Path>
/Users/zhangxujun/Desktop

> <s_m_entry_id>
1628

> <s_m_entry_name>
wee1_decoys_glide_SP.1353

> <s_m_subgroup_title>
wee1_decoys_glide_SP

> <s_m_subgroupid>
wee1_decoys_glide_SP


$$$$
