ZINC04722332_4669
                    3D
 Schrodinger Suite 2024-2.
 38 39  0  0  1  0            999 V2000
    6.4639   54.5029   26.8827 C   0  0  0  0  0  0
    5.1824   54.2058   27.3401 C   0  0  0  0  0  0
    4.1322   54.0130   26.4352 C   0  0  0  0  0  0
    4.3878   54.1093   25.0571 C   0  0  0  0  0  0
    5.6823   54.3957   24.5875 C   0  0  0  0  0  0
    6.7048   54.6029   25.5125 C   0  0  0  0  0  0
    6.0400   54.5414   23.2343 N   0  0  0  0  0  0
    5.3191   54.2803   22.1210 C   0  0  0  0  0  0
    4.3419   53.5310   22.1302 O   0  0  0  0  0  0
    5.7678   54.8938   20.9839 N   0  0  0  0  0  0
    6.7046   56.0445   20.9723 C   0  0  0  0  0  0
    7.8561   55.6894   20.0112 C   0  0  0  0  0  0
    7.3504   55.3623   18.5929 C   0  0  0  0  0  0
    6.2275   54.2902   18.6524 C   0  0  1  0  0  0
    6.6837   53.3308   18.9044 H   0  0  0  0  0  0
    5.1135   54.6225   19.6825 C   0  0  0  0  0  0
    5.5699   54.1226   17.2692 C   0  0  0  0  0  0
    5.3727   55.0850   16.5308 O   0  0  0  0  0  0
    5.2131   52.8967   16.8930 N   0  0  0  0  0  0
    2.7376   53.6967   26.9739 C   0  0  0  0  0  0
    2.2911   54.7345   27.6813 F   0  0  0  0  0  0
    1.8656   53.4445   25.9973 F   0  0  0  0  0  0
    2.7840   52.6324   27.7776 F   0  0  0  0  0  0
    7.2636   54.6612   27.5942 H   0  0  0  0  0  0
    5.0062   54.1385   28.4051 H   0  0  0  0  0  0
    3.5719   53.9648   24.3651 H   0  0  0  0  0  0
    7.7000   54.8345   25.1627 H   0  0  0  0  0  0
    6.9198   55.0107   23.0883 H   0  0  0  0  0  0
    7.0891   56.3184   21.9570 H   0  0  0  0  0  0
    6.1578   56.9069   20.5886 H   0  0  0  0  0  0
    8.4362   54.8612   20.4147 H   0  0  0  0  0  0
    8.5631   56.5162   19.9579 H   0  0  0  0  0  0
    8.2017   55.0211   18.0036 H   0  0  0  0  0  0
    6.9631   56.3121   18.2141 H   0  0  0  0  0  0
    4.5789   55.5241   19.3786 H   0  0  0  0  0  0
    4.4070   53.7945   19.7415 H   0  0  0  0  0  0
    5.3402   52.0877   17.4985 H   0  0  0  0  0  0
    4.7781   52.7682   15.9934 H   0  0  0  0  0  0
  1  6  2  0  0  0
  1  2  1  0  0  0
  1 24  1  0  0  0
  2  3  2  0  0  0
  2 25  1  0  0  0
  3  4  1  0  0  0
  3 20  1  0  0  0
  4  5  2  0  0  0
  4 26  1  0  0  0
  5  6  1  0  0  0
  5  7  1  0  0  0
  6 27  1  0  0  0
  7  8  1  0  0  0
  7 28  1  0  0  0
  8  9  2  0  0  0
  8 10  1  0  0  0
 10 16  1  0  0  0
 10 11  1  0  0  0
 11 12  1  0  0  0
 11 29  1  0  0  0
 11 30  1  0  0  0
 12 13  1  0  0  0
 12 31  1  0  0  0
 12 32  1  0  0  0
 13 14  1  0  0  0
 13 33  1  0  0  0
 13 34  1  0  0  0
 14 15  1  0  0  0
 14 16  1  0  0  0
 14 17  1  0  0  0
 16 35  1  0  0  0
 16 36  1  0  0  0
 17 18  2  0  0  0
 17 19  1  0  0  0
 19 37  1  0  0  0
 19 38  1  0  0  0
 20 21  1  0  0  0
 20 22  1  0  0  0
 20 23  1  0  0  0
M  END
> <i_i_glide_confnum>
6

> <i_i_glide_lignum>
4670

> <i_i_glide_posenum>
297

> <i_i_glide_rotatable_bonds>
5

> <i_m_Source_File_Index>
4827

> <b_m_subgroup_collapsed>
0

> <r_i_docking_score>
-6.16367

> <r_i_glide_ecoul>
-1.20745

> <r_i_glide_eff_state_penalty>
0

> <r_i_glide_einternal>
2.63159

> <r_i_glide_emodel>
-45.7679

> <r_i_glide_energy>
-33.7432

> <r_i_glide_erotb>
0.561337

> <r_i_glide_esite>
-0.0991939

> <r_i_glide_evdw>
-32.5357

> <r_i_glide_gscore>
-6.16367

> <r_i_glide_hbond>
-0.16

> <r_i_glide_ligand_efficiency>
-0.280167

> <r_i_glide_ligand_efficiency_ln>
-1.50662

> <r_i_glide_ligand_efficiency_sa>
-0.785038

> <r_i_glide_lipo>
-2.25121

> <r_i_glide_metal>
0

> <r_i_glide_rewards>
-2.4067

> <s_i_glide_gridfile>
wee1_glide-grid

> <s_m_Source_File>
wee1_decoys_glide_SP.sdf

> <s_m_Source_Path>
/Users/zhangxujun/Desktop

> <s_m_entry_id>
5102

> <s_m_entry_name>
wee1_decoys_glide_SP.4827

> <s_m_subgroup_title>
wee1_decoys_glide_SP

> <s_m_subgroupid>
wee1_decoys_glide_SP


$$$$
