ZINC04147673_3352
                    3D
 Schrodinger Suite 2024-2.
 61 65  0  0  1  0            999 V2000
    0.0119   51.2955   28.0376 C   0  0  0  0  0  0
   -0.0819   52.2921   29.1040 N   0  0  0  0  0  0
   -0.6172   51.8323   30.3865 C   0  0  0  0  0  0
    0.7578   53.4351   29.0870 C   0  0  0  0  0  0
    0.6576   54.4146   30.0907 C   0  0  0  0  0  0
    1.4744   55.5436   30.0831 C   0  0  0  0  0  0
    2.4302   55.6964   29.0905 C   0  0  0  0  0  0
    2.5541   54.7431   28.0813 C   0  0  0  0  0  0
    1.7110   53.6317   28.0722 C   0  0  0  0  0  0
    3.4987   54.8931   27.0966 O   0  0  0  0  0  0
    4.7872   54.4780   27.3281 C   0  0  0  0  0  0
    5.2533   53.9971   28.4598 N   0  0  0  0  0  0
    6.5861   53.6964   28.1970 N   0  0  0  0  0  0
    6.8986   54.0139   26.8903 N   0  0  0  0  0  0
    5.7679   54.5077   26.3689 N   0  0  0  0  0  0
    5.6674   54.9154   24.9630 C   0  0  1  0  0  0
    5.1040   55.8443   24.9911 H   0  0  0  0  0  0
    6.9988   55.1253   24.2336 C   0  0  0  0  0  0
    6.6498   54.9876   22.8615 O   0  0  0  0  0  0
    5.6885   53.9395   22.7524 C   0  0  1  0  0  0
    6.1911   52.9902   22.5572 H   0  0  0  0  0  0
    4.9697   53.8825   24.0973 C   0  0  2  0  0  0
    5.0788   52.8967   24.5284 H   0  0  0  0  0  0
    3.5908   54.1417   23.8302 O   0  0  0  0  0  0
    3.3162   53.8120   22.4688 C   0  0  0  0  0  0
    4.5931   54.2153   21.7398 C   0  0  2  0  0  0
    4.5201   55.2965   21.6325 H   0  0  0  0  0  0
    4.7934   53.5842   20.4276 N   0  0  0  0  0  0
    5.5020   54.1612   19.4418 C   0  0  0  0  0  0
    5.8731   55.3358   19.4971 O   0  0  0  0  0  0
    5.8001   53.3032   18.4426 N   0  0  0  0  0  0
    6.5897   53.5767   17.3095 C   0  0  0  0  0  0
    6.7277   54.8505   16.7317 C   0  0  0  0  0  0
    7.5414   55.0299   15.6140 C   0  0  0  0  0  0
    8.2200   53.9465   15.0584 C   0  0  0  0  0  0
    8.0830   52.6665   15.6106 C   0  0  0  0  0  0
    7.2561   52.4962   16.7291 C   0  0  0  0  0  0
    8.8275   51.4756   15.0044 C   0  0  0  0  0  0
    9.9656   51.8591   14.4270 F   0  0  0  0  0  0
    8.0536   50.9105   14.0805 F   0  0  0  0  0  0
    9.1223   50.5615   15.9316 F   0  0  0  0  0  0
   -0.0683   51.7649   27.0573 H   0  0  0  0  0  0
    0.9762   50.7879   28.0809 H   0  0  0  0  0  0
   -0.7770   50.5446   28.1027 H   0  0  0  0  0  0
    0.1913   51.6967   31.1054 H   0  0  0  0  0  0
   -1.2920   52.5612   30.8207 H   0  0  0  0  0  0
   -1.1645   50.8967   30.2984 H   0  0  0  0  0  0
   -0.0644   54.3250   30.8870 H   0  0  0  0  0  0
    1.3777   56.2888   30.8611 H   0  0  0  0  0  0
    3.0824   56.5540   29.1146 H   0  0  0  0  0  0
    1.8369   52.9165   27.2743 H   0  0  0  0  0  0
    7.4523   56.0968   24.4292 H   0  0  0  0  0  0
    7.7550   54.3738   24.4702 H   0  0  0  0  0  0
    2.4316   54.3198   22.0824 H   0  0  0  0  0  0
    3.0811   52.7516   22.3607 H   0  0  0  0  0  0
    4.3709   52.6802   20.2657 H   0  0  0  0  0  0
    5.5069   52.3356   18.5299 H   0  0  0  0  0  0
    6.2069   55.7084   17.1315 H   0  0  0  0  0  0
    7.6438   56.0122   15.1793 H   0  0  0  0  0  0
    8.8467   54.1061   14.1917 H   0  0  0  0  0  0
    7.1300   51.5109   17.1581 H   0  0  0  0  0  0
  1  2  1  0  0  0
  1 42  1  0  0  0
  1 43  1  0  0  0
  1 44  1  0  0  0
  2  3  1  0  0  0
  2  4  1  0  0  0
  3 45  1  0  0  0
  3 46  1  0  0  0
  3 47  1  0  0  0
  4  9  2  0  0  0
  4  5  1  0  0  0
  5  6  2  0  0  0
  5 48  1  0  0  0
  6  7  1  0  0  0
  6 49  1  0  0  0
  7  8  2  0  0  0
  7 50  1  0  0  0
  8  9  1  0  0  0
  8 10  1  0  0  0
  9 51  1  0  0  0
 10 11  1  0  0  0
 11 15  1  0  0  0
 11 12  2  0  0  0
 12 13  1  0  0  0
 13 14  2  0  0  0
 14 15  1  0  0  0
 15 16  1  0  0  0
 16 17  1  0  0  0
 16 22  1  0  0  0
 16 18  1  0  0  0
 18 19  1  0  0  0
 18 52  1  0  0  0
 18 53  1  0  0  0
 19 20  1  0  0  0
 20 21  1  0  0  0
 20 26  1  0  0  0
 20 22  1  0  0  0
 22 23  1  0  0  0
 22 24  1  0  0  0
 24 25  1  0  0  0
 25 26  1  0  0  0
 25 54  1  0  0  0
 25 55  1  0  0  0
 26 27  1  0  0  0
 26 28  1  0  0  0
 28 29  1  0  0  0
 28 56  1  0  0  0
 29 30  2  0  0  0
 29 31  1  0  0  0
 31 32  1  0  0  0
 31 57  1  0  0  0
 32 37  2  0  0  0
 32 33  1  0  0  0
 33 34  2  0  0  0
 33 58  1  0  0  0
 34 35  1  0  0  0
 34 59  1  0  0  0
 35 36  2  0  0  0
 35 60  1  0  0  0
 36 37  1  0  0  0
 36 38  1  0  0  0
 37 61  1  0  0  0
 38 39  1  0  0  0
 38 40  1  0  0  0
 38 41  1  0  0  0
M  END
> <i_i_glide_confnum>
374

> <i_i_glide_lignum>
3353

> <i_i_glide_posenum>
215

> <i_i_glide_rotatable_bonds>
9

> <i_m_Source_File_Index>
3075

> <b_m_subgroup_collapsed>
0

> <r_i_docking_score>
-6.68174

> <r_i_glide_ecoul>
-3.8392

> <r_i_glide_eff_state_penalty>
0

> <r_i_glide_einternal>
2.93622

> <r_i_glide_emodel>
-73.1268

> <r_i_glide_energy>
-51.9575

> <r_i_glide_erotb>
0.532934

> <r_i_glide_esite>
-0.0897327

> <r_i_glide_evdw>
-48.1183

> <r_i_glide_gscore>
-6.68174

> <r_i_glide_hbond>
-0.16

> <r_i_glide_ligand_efficiency>
-0.180588

> <r_i_glide_ligand_efficiency_ln>
-1.44911

> <r_i_glide_ligand_efficiency_sa>
-0.601758

> <r_i_glide_lipo>
-2.90572

> <r_i_glide_metal>
0

> <r_i_glide_rewards>
-1.07743

> <s_i_glide_gridfile>
wee1_glide-grid

> <s_m_Source_File>
wee1_decoys_glide_SP.sdf

> <s_m_Source_Path>
/Users/zhangxujun/Desktop

> <s_m_entry_id>
3350

> <s_m_entry_name>
wee1_decoys_glide_SP.3075

> <s_m_subgroup_title>
wee1_decoys_glide_SP

> <s_m_subgroupid>
wee1_decoys_glide_SP


$$$$
