ZINC09578810_5073
                    3D
 Schrodinger Suite 2024-2.
 65 69  0  0  1  0            999 V2000
    1.3172   53.9762   30.3448 C   0  0  0  0  0  0
    2.0944   52.8387   30.1480 C   0  0  0  0  0  0
    2.9385   52.7607   29.0423 C   0  0  0  0  0  0
    2.9814   53.8096   28.1145 C   0  0  0  0  0  0
    2.2431   54.9705   28.3580 C   0  0  0  0  0  0
    1.4116   55.0548   29.4710 C   0  0  0  0  0  0
    3.8359   53.6696   26.8366 C   0  0  2  0  0  0
    4.2693   52.6706   26.8815 H   0  0  0  0  0  0
    5.0280   54.6634   26.8760 C   0  0  0  0  0  0
    5.9666   54.3775   25.8456 O   0  0  0  0  0  0
    5.4113   54.3652   24.5867 C   0  0  0  0  0  0
    6.3143   54.5598   23.5418 C   0  0  0  0  0  0
    5.8766   54.4979   22.2226 C   0  0  0  0  0  0
    4.5346   54.2477   21.9530 C   0  0  0  0  0  0
    3.6328   54.0541   22.9979 C   0  0  0  0  0  0
    4.0439   54.0967   24.3522 C   0  0  0  0  0  0
    3.1975   53.7933   25.4786 N   0  0  0  0  0  0
    1.8998   53.3792   25.2927 C   0  0  0  0  0  0
    1.1269   53.9243   24.4991 O   0  0  0  0  0  0
    1.4055   52.0966   26.0032 C   0  0  0  0  0  0
   -0.2593   51.1109   27.6375 C   0  0  0  0  0  0
   -1.6600   51.2720   28.2468 C   0  0  0  0  0  0
   -2.7513   51.0920   27.1614 C   0  0  2  0  0  0
   -2.5168   52.0489   25.9588 C   0  0  0  0  0  0
   -1.0982   51.8851   25.3803 C   0  0  0  0  0  0
   -4.1627   51.2941   27.7748 C   0  0  0  0  0  0
   -4.9599   52.0699   27.2417 O   0  0  0  0  0  0
   -4.4321   50.6179   28.9146 N   0  0  0  0  0  0
   -5.5693   50.7520   29.7405 C   0  0  0  0  0  0
   -6.8584   50.9607   29.2220 C   0  0  0  0  0  0
   -7.9466   51.1200   30.0809 C   0  0  0  0  0  0
   -7.7624   51.0733   31.4620 C   0  0  0  0  0  0
   -6.4886   50.8595   31.9866 C   0  0  0  0  0  0
   -5.3968   50.6907   31.1320 C   0  0  0  0  0  0
   -4.1564   50.4967   31.6817 O   0  0  0  0  0  0
    0.6592   54.0323   31.2014 H   0  0  0  0  0  0
    2.0361   52.0239   30.8530 H   0  0  0  0  0  0
    3.5295   51.8689   28.8890 H   0  0  0  0  0  0
    2.3034   55.8081   27.6817 H   0  0  0  0  0  0
    0.8349   55.9509   29.6532 H   0  0  0  0  0  0
    5.5490   54.6124   27.8332 H   0  0  0  0  0  0
    4.6793   55.6897   26.7490 H   0  0  0  0  0  0
    7.3599   54.7445   23.7527 H   0  0  0  0  0  0
    6.5750   54.6456   21.4137 H   0  0  0  0  0  0
    4.1905   54.2004   20.9286 H   0  0  0  0  0  0
    2.6186   53.8445   22.7021 H   0  0  0  0  0  0
    1.4398   51.2822   25.2805 H   0  0  0  0  0  0
    2.0138   51.7942   26.8475 H   0  0  0  0  0  0
   -0.0955   50.1133   27.2197 H   0  0  0  0  0  0
    0.4886   51.3064   28.4047 H   0  0  0  0  0  0
   -1.7418   50.5069   29.0194 H   0  0  0  0  0  0
   -1.6822   52.2570   28.6988 H   0  0  0  0  0  0
   -2.7509   50.0557   26.8159 H   0  0  0  0  0  0
   -2.5913   53.0941   26.2698 H   0  0  0  0  0  0
   -3.2093   51.8333   25.1439 H   0  0  0  0  0  0
   -0.9393   52.6198   24.5912 H   0  0  0  0  0  0
   -0.9139   50.8819   24.9869 H   0  0  0  0  0  0
   -3.6790   50.0772   29.3216 H   0  0  0  0  0  0
   -7.0281   50.9945   28.1546 H   0  0  0  0  0  0
   -8.9347   51.2760   29.6734 H   0  0  0  0  0  0
   -8.6073   51.1941   32.1254 H   0  0  0  0  0  0
   -6.3452   50.8205   33.0566 H   0  0  0  0  0  0
   -4.0305   50.9149   32.5538 H   0  0  0  0  0  0
   -0.0679   52.1591   26.5079 N   0  3  2  0  0  0
   -0.2188   53.0835   26.8981 H   0  0  0  0  0  0
  1  6  2  0  0  0
  1  2  1  0  0  0
  1 36  1  0  0  0
  2  3  2  0  0  0
  2 37  1  0  0  0
  3  4  1  0  0  0
  3 38  1  0  0  0
  4  5  2  0  0  0
  4  7  1  0  0  0
  5  6  1  0  0  0
  5 39  1  0  0  0
  6 40  1  0  0  0
  7  8  1  0  0  0
  7 17  1  0  0  0
  7  9  1  0  0  0
  9 10  1  0  0  0
  9 41  1  0  0  0
  9 42  1  0  0  0
 10 11  1  0  0  0
 11 16  2  0  0  0
 11 12  1  0  0  0
 12 13  2  0  0  0
 12 43  1  0  0  0
 13 14  1  0  0  0
 13 44  1  0  0  0
 14 15  2  0  0  0
 14 45  1  0  0  0
 15 16  1  0  0  0
 15 46  1  0  0  0
 16 17  1  0  0  0
 17 18  1  0  0  0
 18 19  2  0  0  0
 18 20  1  0  0  0
 20 47  1  0  0  0
 20 48  1  0  0  0
 20 64  1  0  0  0
 21 22  1  0  0  0
 21 49  1  0  0  0
 21 50  1  0  0  0
 21 64  1  0  0  0
 22 23  1  0  0  0
 22 51  1  0  0  0
 22 52  1  0  0  0
 23 24  1  0  0  0
 23 26  1  0  0  0
 23 53  1  0  0  0
 24 25  1  0  0  0
 24 54  1  0  0  0
 24 55  1  0  0  0
 25 56  1  0  0  0
 25 57  1  0  0  0
 25 64  1  0  0  0
 26 27  2  0  0  0
 26 28  1  0  0  0
 28 29  1  0  0  0
 28 58  1  0  0  0
 29 34  2  0  0  0
 29 30  1  0  0  0
 30 31  2  0  0  0
 30 59  1  0  0  0
 31 32  1  0  0  0
 31 60  1  0  0  0
 32 33  2  0  0  0
 32 61  1  0  0  0
 33 34  1  0  0  0
 33 62  1  0  0  0
 34 35  1  0  0  0
 35 63  1  0  0  0
 64 65  1  0  0  0
M  CHG  1  64   1
M  END
> <i_i_glide_confnum>
14

> <i_i_glide_lignum>
5074

> <i_i_glide_posenum>
86

> <i_i_glide_rotatable_bonds>
8

> <i_m_Source_File_Index>
5992

> <b_m_subgroup_collapsed>
0

> <r_i_docking_score>
-5.49707

> <r_i_glide_ecoul>
-6.76448

> <r_i_glide_eff_state_penalty>
0

> <r_i_glide_einternal>
6.18288

> <r_i_glide_emodel>
-59.3426

> <r_i_glide_energy>
-46.6717

> <r_i_glide_erotb>
0.633861

> <r_i_glide_esite>
-0.100786

> <r_i_glide_evdw>
-39.9072

> <r_i_glide_gscore>
-5.49707

> <r_i_glide_hbond>
-0.16

> <r_i_glide_ligand_efficiency>
-0.157059

> <r_i_glide_ligand_efficiency_ln>
-1.20673

> <r_i_glide_ligand_efficiency_sa>
-0.513751

> <r_i_glide_lipo>
-3.05697

> <r_i_glide_metal>
0

> <r_i_glide_rewards>
0.196858

> <s_i_glide_gridfile>
wee1_glide-grid

> <s_m_Source_File>
wee1_decoys_glide_SP.sdf

> <s_m_Source_Path>
/Users/zhangxujun/Desktop

> <s_m_entry_id>
6267

> <s_m_entry_name>
wee1_decoys_glide_SP.5992

> <s_m_subgroup_title>
wee1_decoys_glide_SP

> <s_m_subgroupid>
wee1_decoys_glide_SP


$$$$
