ZINC30983560_2503
                    3D
 Schrodinger Suite 2024-2.
 44 46  0  0  1  0            999 V2000
    0.6491   52.5594   23.6998 C   0  0  0  0  0  0
    0.1678   52.3652   25.1302 C   0  0  0  0  0  0
    1.1044   52.2563   26.1594 C   0  0  0  0  0  0
    0.7039   52.0849   27.4864 C   0  0  0  0  0  0
   -0.6610   51.9746   27.7895 C   0  0  0  0  0  0
   -1.6005   52.0895   26.7584 C   0  0  0  0  0  0
   -1.1968   52.2913   25.4369 C   0  0  0  0  0  0
   -2.5254   52.4867   24.0812 Br  0  0  0  0  0  0
   -1.1428   51.7049   29.2088 C   0  0  0  0  0  0
    1.9445   51.9947   28.7544 S   0  0  0  0  0  0
    2.4452   53.7104   29.1240 C   0  0  0  0  0  0
    3.7262   54.1412   28.4005 C   0  0  0  0  0  0
    4.7042   54.4970   29.0555 O   0  0  0  0  0  0
    3.6533   54.1014   27.0573 N   0  0  0  0  0  0
    4.6365   54.3470   26.1136 C   0  0  0  0  0  0
    4.3725   54.1377   24.8516 N   0  0  0  0  0  0
    5.3936   54.3990   24.0556 C   0  0  0  0  0  0
    6.5436   54.8412   24.7161 C   0  0  0  0  0  0
    6.2605   54.8961   26.4348 S   0  0  0  0  0  0
    5.2506   54.2025   22.6185 C   0  0  0  0  0  0
    5.9265   54.8962   21.6056 C   0  0  0  0  0  0
    5.5102   54.4325   20.3570 C   0  0  0  0  0  0
    4.5522   53.4789   20.6047 N   0  0  0  0  0  0
    4.0370   52.9742   19.8959 H   0  0  0  0  0  0
    4.3910   53.3307   21.9577 C   0  0  0  0  0  0
    5.9345   54.8834   19.0594 C   0  0  0  0  0  0
    6.4837   55.9713   18.9080 O   0  0  0  0  0  0
    5.6410   54.0856   18.0314 N   0  0  0  0  0  0
    1.7376   52.5540   23.6327 H   0  0  0  0  0  0
    0.2693   51.7599   23.0637 H   0  0  0  0  0  0
    0.2873   53.5031   23.2910 H   0  0  0  0  0  0
    2.1557   52.2882   25.9170 H   0  0  0  0  0  0
   -2.6560   52.0113   26.9783 H   0  0  0  0  0  0
   -0.5659   50.8965   29.6563 H   0  0  0  0  0  0
   -1.0012   52.5857   29.8357 H   0  0  0  0  0  0
   -2.1870   51.3904   29.2413 H   0  0  0  0  0  0
    1.6353   54.3985   28.8788 H   0  0  0  0  0  0
    2.6031   53.7827   30.1984 H   0  0  0  0  0  0
    2.7680   53.8022   26.6800 H   0  0  0  0  0  0
    7.5031   55.1035   24.2923 H   0  0  0  0  0  0
    6.6621   55.6723   21.7672 H   0  0  0  0  0  0
    3.6741   52.6186   22.3353 H   0  0  0  0  0  0
    5.8615   54.4047   17.1019 H   0  0  0  0  0  0
    5.3498   53.1284   18.1673 H   0  0  0  0  0  0
  1  2  1  0  0  0
  1 29  1  0  0  0
  1 30  1  0  0  0
  1 31  1  0  0  0
  2  7  2  0  0  0
  2  3  1  0  0  0
  3  4  2  0  0  0
  3 32  1  0  0  0
  4  5  1  0  0  0
  4 10  1  0  0  0
  5  6  2  0  0  0
  5  9  1  0  0  0
  6  7  1  0  0  0
  6 33  1  0  0  0
  7  8  1  0  0  0
  9 34  1  0  0  0
  9 35  1  0  0  0
  9 36  1  0  0  0
 10 11  1  0  0  0
 11 12  1  0  0  0
 11 37  1  0  0  0
 11 38  1  0  0  0
 12 13  2  0  0  0
 12 14  1  0  0  0
 14 15  1  0  0  0
 14 39  1  0  0  0
 15 19  1  0  0  0
 15 16  2  0  0  0
 16 17  1  0  0  0
 17 18  2  0  0  0
 17 20  1  0  0  0
 18 19  1  0  0  0
 18 40  1  0  0  0
 20 25  2  0  0  0
 20 21  1  0  0  0
 21 22  2  0  0  0
 21 41  1  0  0  0
 22 23  1  0  0  0
 22 26  1  0  0  0
 23 24  1  0  0  0
 23 25  1  0  0  0
 25 42  1  0  0  0
 26 27  2  0  0  0
 26 28  1  0  0  0
 28 43  1  0  0  0
 28 44  1  0  0  0
M  END
> <i_i_glide_confnum>
50

> <i_i_glide_lignum>
2504

> <i_i_glide_posenum>
313

> <i_i_glide_rotatable_bonds>
7

> <i_m_Source_File_Index>
5406

> <b_m_subgroup_collapsed>
0

> <r_i_docking_score>
-5.55311

> <r_i_glide_ecoul>
-2.51054

> <r_i_glide_eff_state_penalty>
0

> <r_i_glide_einternal>
7.76302

> <r_i_glide_emodel>
-67.0397

> <r_i_glide_energy>
-50.3452

> <r_i_glide_erotb>
0.558668

> <r_i_glide_esite>
-0.0221004

> <r_i_glide_evdw>
-47.8346

> <r_i_glide_gscore>
-5.55311

> <r_i_glide_hbond>
0

> <r_i_glide_ligand_efficiency>
-0.205671

> <r_i_glide_ligand_efficiency_ln>
-1.29267

> <r_i_glide_ligand_efficiency_sa>
-0.617013

> <r_i_glide_lipo>
-2.629

> <r_i_glide_metal>
0

> <r_i_glide_rewards>
-0.69237

> <s_i_glide_gridfile>
wee1_glide-grid

> <s_m_Source_File>
wee1_decoys_glide_SP.sdf

> <s_m_Source_Path>
/Users/zhangxujun/Desktop

> <s_m_entry_id>
5681

> <s_m_entry_name>
wee1_decoys_glide_SP.5406

> <s_m_subgroup_title>
wee1_decoys_glide_SP

> <s_m_subgroupid>
wee1_decoys_glide_SP


$$$$
