ZINC35778138_5691
                    3D
 Schrodinger Suite 2024-2.
 70 73  0  0  1  0            999 V2000
    1.9926   54.6874   23.4834 C   0  0  0  0  0  0
    1.7056   53.2722   23.4540 N   0  0  0  0  0  0
    1.2777   52.4398   24.4532 C   0  0  0  0  0  0
    1.1224   51.1845   23.8800 C   0  0  0  0  0  0
    1.4411   51.4006   22.5117 C   0  0  0  0  0  0
    1.7872   52.6493   22.2851 N   0  0  0  0  0  0
    1.4134   50.4654   21.3465 C   0  0  0  0  0  0
    0.9381   50.9206   20.1069 C   0  0  0  0  0  0
    0.9502   50.0841   18.9947 C   0  0  0  0  0  0
    1.4390   48.7876   19.1162 C   0  0  0  0  0  0
    1.9053   48.3256   20.3423 C   0  0  0  0  0  0
    1.8989   49.1623   21.4564 C   0  0  0  0  0  0
    0.6860   49.9306   24.6204 C   0  0  0  0  0  0
   -0.8345   49.6148   24.4960 N   0  3  2  0  0  0
   -1.7610   50.8072   24.1108 C   0  0  0  0  0  0
   -3.1837   50.3716   23.6975 C   0  0  0  0  0  0
   -3.9088   49.8278   24.7921 O   0  0  0  0  0  0
   -5.2114   49.3742   24.4575 C   0  0  0  0  0  0
   -1.3383   48.8153   25.7342 C   0  0  0  0  0  0
   -1.9530   47.4675   25.3068 C   0  0  2  0  0  0
   -2.6299   47.6164   24.4651 H   0  0  0  0  0  0
   -2.7547   46.8029   26.4438 C   0  0  0  0  0  0
   -3.5441   45.7201   25.9496 O   0  0  0  0  0  0
   -4.5549   45.3103   26.8693 C   0  0  0  0  0  0
   -5.4419   44.2789   26.2131 C   0  0  0  0  0  0
   -6.7555   44.2912   25.7578 C   0  0  0  0  0  0
   -7.0152   43.0305   25.2211 C   0  0  0  0  0  0
   -5.8479   42.3014   25.3723 C   0  0  0  0  0  0
   -4.8962   43.0577   25.9761 O   0  0  0  0  0  0
   -0.8960   46.6277   24.8817 O   0  0  0  0  0  0
    0.9706   52.8407   25.7300 O   0  0  0  0  0  0
    1.9237   53.2985   26.6180 C   0  0  0  0  0  0
    3.2969   53.3374   26.3445 C   0  0  0  0  0  0
    4.1913   53.8246   27.2917 C   0  0  0  0  0  0
    3.7140   54.2840   28.5159 C   0  0  0  0  0  0
    2.3515   54.2503   28.8034 C   0  0  0  0  0  0
    1.4633   53.7501   27.8558 C   0  0  0  0  0  0
    4.8250   54.8967   29.6814 Cl  0  0  0  0  0  0
    1.1056   55.2347   23.1704 H   0  0  0  0  0  0
    2.2872   54.9986   24.4801 H   0  0  0  0  0  0
    2.8144   54.8968   22.7971 H   0  0  0  0  0  0
    0.5724   51.9311   19.9963 H   0  0  0  0  0  0
    0.6016   50.4439   18.0368 H   0  0  0  0  0  0
    1.4731   48.1455   18.2472 H   0  0  0  0  0  0
    2.3064   47.3264   20.4242 H   0  0  0  0  0  0
    2.3092   48.8040   22.3885 H   0  0  0  0  0  0
    0.8870   50.0570   25.6856 H   0  0  0  0  0  0
    1.1773   49.0118   24.2950 H   0  0  0  0  0  0
   -1.7500   51.4969   24.9565 H   0  0  0  0  0  0
   -1.2986   51.2902   23.2517 H   0  0  0  0  0  0
   -3.7204   51.2367   23.3056 H   0  0  0  0  0  0
   -3.1188   49.6463   22.8836 H   0  0  0  0  0  0
   -5.6938   48.9635   25.3453 H   0  0  0  0  0  0
   -5.8362   50.1877   24.0862 H   0  0  0  0  0  0
   -5.1782   48.5855   23.7040 H   0  0  0  0  0  0
   -2.0418   49.4570   26.2671 H   0  0  0  0  0  0
   -0.5175   48.6541   26.4431 H   0  0  0  0  0  0
   -3.4069   47.5628   26.8795 H   0  0  0  0  0  0
   -2.0983   46.4689   27.2476 H   0  0  0  0  0  0
   -5.1579   46.1619   27.1920 H   0  0  0  0  0  0
   -4.0872   44.8974   27.7636 H   0  0  0  0  0  0
   -7.4418   45.1241   25.8038 H   0  0  0  0  0  0
   -7.9407   42.6894   24.7755 H   0  0  0  0  0  0
   -5.5575   41.2968   25.1105 H   0  0  0  0  0  0
   -0.3048   46.4946   25.6445 H   0  0  0  0  0  0
    3.6842   52.9821   25.4020 H   0  0  0  0  0  0
    5.2498   53.8444   27.0755 H   0  0  0  0  0  0
    1.9789   54.6097   29.7520 H   0  0  0  0  0  0
    0.4063   53.7223   28.0770 H   0  0  0  0  0  0
   -0.8929   48.9671   23.7196 H   0  0  0  0  0  0
  1  2  1  0  0  0
  1 39  1  0  0  0
  1 40  1  0  0  0
  1 41  1  0  0  0
  2  6  1  0  0  0
  2  3  1  0  0  0
  3  4  2  0  0  0
  3 31  1  0  0  0
  4  5  1  0  0  0
  4 13  1  0  0  0
  5  6  2  0  0  0
  5  7  1  0  0  0
  7 12  2  0  0  0
  7  8  1  0  0  0
  8  9  2  0  0  0
  8 42  1  0  0  0
  9 10  1  0  0  0
  9 43  1  0  0  0
 10 11  2  0  0  0
 10 44  1  0  0  0
 11 12  1  0  0  0
 11 45  1  0  0  0
 12 46  1  0  0  0
 13 14  1  0  0  0
 13 47  1  0  0  0
 13 48  1  0  0  0
 14 15  1  0  0  0
 14 19  1  0  0  0
 14 70  1  0  0  0
 15 16  1  0  0  0
 15 49  1  0  0  0
 15 50  1  0  0  0
 16 17  1  0  0  0
 16 51  1  0  0  0
 16 52  1  0  0  0
 17 18  1  0  0  0
 18 53  1  0  0  0
 18 54  1  0  0  0
 18 55  1  0  0  0
 19 20  1  0  0  0
 19 56  1  0  0  0
 19 57  1  0  0  0
 20 21  1  0  0  0
 20 22  1  0  0  0
 20 30  1  0  0  0
 22 23  1  0  0  0
 22 58  1  0  0  0
 22 59  1  0  0  0
 23 24  1  0  0  0
 24 25  1  0  0  0
 24 60  1  0  0  0
 24 61  1  0  0  0
 25 29  1  0  0  0
 25 26  2  0  0  0
 26 27  1  0  0  0
 26 62  1  0  0  0
 27 28  2  0  0  0
 27 63  1  0  0  0
 28 29  1  0  0  0
 28 64  1  0  0  0
 30 65  1  0  0  0
 31 32  1  0  0  0
 32 37  2  0  0  0
 32 33  1  0  0  0
 33 34  2  0  0  0
 33 66  1  0  0  0
 34 35  1  0  0  0
 34 67  1  0  0  0
 35 36  2  0  0  0
 35 38  1  0  0  0
 36 37  1  0  0  0
 36 68  1  0  0  0
 37 69  1  0  0  0
M  CHG  1  14   1
M  END
> <i_i_glide_confnum>
1

> <i_i_glide_lignum>
5692

> <i_i_glide_posenum>
65

> <i_i_glide_rotatable_bonds>
15

> <i_m_Source_File_Index>
1944

> <b_m_subgroup_collapsed>
0

> <r_i_docking_score>
-4.87406

> <r_i_glide_ecoul>
-12.0558

> <r_i_glide_eff_state_penalty>
0

> <r_i_glide_einternal>
16.4946

> <r_i_glide_emodel>
-56.6852

> <r_i_glide_energy>
-46.5813

> <r_i_glide_erotb>
0.889655

> <r_i_glide_esite>
-0.0226212

> <r_i_glide_evdw>
-34.5255

> <r_i_glide_gscore>
-4.87406

> <r_i_glide_hbond>
-0.17583

> <r_i_glide_ligand_efficiency>
-0.131731

> <r_i_glide_ligand_efficiency_ln>
-1.05707

> <r_i_glide_ligand_efficiency_sa>
-0.438958

> <r_i_glide_lipo>
-1.74595

> <r_i_glide_metal>
0

> <r_i_glide_rewards>
-0.284679

> <s_i_glide_gridfile>
wee1_glide-grid

> <s_m_Source_File>
wee1_decoys_glide_SP.sdf

> <s_m_Source_Path>
/Users/zhangxujun/Desktop

> <s_m_entry_id>
2219

> <s_m_entry_name>
wee1_decoys_glide_SP.1944

> <s_m_subgroup_title>
wee1_decoys_glide_SP

> <s_m_subgroupid>
wee1_decoys_glide_SP


$$$$
