ZINC59564713_2939
                    3D
 Schrodinger Suite 2024-2.
 66 70  0  0  1  0            999 V2000
   -4.5871   49.7048   29.3250 C   0  0  0  0  0  0
   -4.7761   50.5223   28.0625 C   0  0  0  0  0  0
   -3.9492   50.8320   27.0426 C   0  0  0  0  0  0
   -4.6857   51.5906   26.0379 C   0  0  0  0  0  0
   -4.2858   52.0048   24.9477 O   0  0  0  0  0  0
   -5.9244   51.7281   26.5548 N   0  0  0  0  0  0
   -6.0094   51.0814   27.7851 N   0  0  0  0  0  0
   -6.6405   51.9146   28.8132 C   0  0  0  0  0  0
   -7.0473   52.3079   25.9122 C   0  0  0  0  0  0
   -8.2851   51.6532   25.9480 C   0  0  0  0  0  0
   -9.3961   52.2189   25.3269 C   0  0  0  0  0  0
   -9.2693   53.4406   24.6698 C   0  0  0  0  0  0
   -8.0449   54.1021   24.6291 C   0  0  0  0  0  0
   -6.9320   53.5357   25.2468 C   0  0  0  0  0  0
   -2.6206   50.4965   26.9217 N   0  0  0  0  0  0
   -1.6087   51.3550   26.6488 C   0  0  0  0  0  0
   -1.7637   52.5663   26.4891 O   0  0  0  0  0  0
   -0.1901   50.7730   26.5969 C   0  0  0  0  0  0
    1.0038   51.7742   25.6271 S   0  0  0  0  0  0
    1.5322   52.9997   26.7567 C   0  0  0  0  0  0
    0.8773   53.3114   27.8527 N   0  3  0  0  0  0
    1.7784   53.9288   28.8043 C   0  0  0  0  0  0
    1.1042   55.0569   29.6143 C   0  0  0  0  0  0
   -0.0465   54.5027   30.4796 C   0  0  0  0  0  0
    0.4028   53.3693   31.4105 C   0  0  0  0  0  0
    1.2802   52.3118   30.7155 C   0  0  0  0  0  0
    2.3735   52.9078   29.8006 C   0  0  0  0  0  0
    2.7857   54.4844   27.9127 N   0  0  0  0  0  0
    2.6584   53.7178   26.7425 N   0  0  0  0  0  0
    3.6379   53.9434   25.7164 C   0  0  0  0  0  0
    3.2678   53.8695   24.3690 C   0  0  0  0  0  0
    4.2091   54.0965   23.3678 C   0  0  0  0  0  0
    5.5229   54.4068   23.7093 C   0  0  0  0  0  0
    5.9064   54.4917   25.0435 C   0  0  0  0  0  0
    4.9684   54.2590   26.0455 C   0  0  0  0  0  0
   -3.6658   49.1331   29.2845 H   0  0  0  0  0  0
   -4.5525   50.3428   30.2088 H   0  0  0  0  0  0
   -5.4024   48.9867   29.4419 H   0  0  0  0  0  0
   -6.0951   52.8496   28.9498 H   0  0  0  0  0  0
   -7.6733   52.1549   28.5599 H   0  0  0  0  0  0
   -6.6677   51.3940   29.7704 H   0  0  0  0  0  0
   -8.3908   50.7031   26.4505 H   0  0  0  0  0  0
  -10.3481   51.7108   25.3522 H   0  0  0  0  0  0
  -10.1283   53.8777   24.1820 H   0  0  0  0  0  0
   -7.9518   55.0466   24.1109 H   0  0  0  0  0  0
   -5.9841   54.0524   25.2020 H   0  0  0  0  0  0
   -2.3620   49.5490   27.1908 H   0  0  0  0  0  0
    0.1793   50.6864   27.6190 H   0  0  0  0  0  0
   -0.1901   49.7541   26.2054 H   0  0  0  0  0  0
    1.8334   55.5550   30.2582 H   0  0  0  0  0  0
    0.7192   55.8322   28.9498 H   0  0  0  0  0  0
   -0.4941   55.2948   31.0753 H   0  0  0  0  0  0
   -0.8370   54.1256   29.8304 H   0  0  0  0  0  0
    0.9222   53.7735   32.2759 H   0  0  0  0  0  0
   -0.4955   52.8967   31.7989 H   0  0  0  0  0  0
    1.7339   51.6741   31.4728 H   0  0  0  0  0  0
    0.6267   51.6830   30.1104 H   0  0  0  0  0  0
    2.8766   52.1019   29.2631 H   0  0  0  0  0  0
    3.1468   53.3822   30.4070 H   0  0  0  0  0  0
    2.5312   55.4451   27.7420 H   0  0  0  0  0  0
    2.2492   53.6629   24.0775 H   0  0  0  0  0  0
    3.9188   54.0442   22.3277 H   0  0  0  0  0  0
    6.2528   54.5803   22.9326 H   0  0  0  0  0  0
    6.9281   54.7243   25.2998 H   0  0  0  0  0  0
    5.2845   54.3158   27.0788 H   0  0  0  0  0  0
   -0.0486   52.9834   28.0901 H   0  0  0  0  0  0
  1  2  1  0  0  0
  1 36  1  0  0  0
  1 37  1  0  0  0
  1 38  1  0  0  0
  2  7  1  0  0  0
  2  3  2  0  0  0
  3  4  1  0  0  0
  3 15  1  0  0  0
  4  5  2  0  0  0
  4  6  1  0  0  0
  6  7  1  0  0  0
  6  9  1  0  0  0
  7  8  1  0  0  0
  8 39  1  0  0  0
  8 40  1  0  0  0
  8 41  1  0  0  0
  9 14  2  0  0  0
  9 10  1  0  0  0
 10 11  2  0  0  0
 10 42  1  0  0  0
 11 12  1  0  0  0
 11 43  1  0  0  0
 12 13  2  0  0  0
 12 44  1  0  0  0
 13 14  1  0  0  0
 13 45  1  0  0  0
 14 46  1  0  0  0
 15 16  1  0  0  0
 15 47  1  0  0  0
 16 17  2  0  0  0
 16 18  1  0  0  0
 18 19  1  0  0  0
 18 48  1  0  0  0
 18 49  1  0  0  0
 19 20  1  0  0  0
 20 29  1  0  0  0
 20 21  2  0  0  0
 21 22  1  0  0  0
 21 66  1  0  0  0
 22 27  1  0  0  0
 22 23  1  0  0  0
 22 28  1  0  0  0
 23 24  1  0  0  0
 23 50  1  0  0  0
 23 51  1  0  0  0
 24 25  1  0  0  0
 24 52  1  0  0  0
 24 53  1  0  0  0
 25 26  1  0  0  0
 25 54  1  0  0  0
 25 55  1  0  0  0
 26 27  1  0  0  0
 26 56  1  0  0  0
 26 57  1  0  0  0
 27 58  1  0  0  0
 27 59  1  0  0  0
 28 29  1  0  0  0
 28 60  1  0  0  0
 29 30  1  0  0  0
 30 35  2  0  0  0
 30 31  1  0  0  0
 31 32  2  0  0  0
 31 61  1  0  0  0
 32 33  1  0  0  0
 32 62  1  0  0  0
 33 34  2  0  0  0
 33 63  1  0  0  0
 34 35  1  0  0  0
 34 64  1  0  0  0
 35 65  1  0  0  0
M  CHG  1  21   1
M  END
> <i_i_glide_confnum>
126

> <i_i_glide_lignum>
2940

> <i_i_glide_posenum>
131

> <i_i_glide_rotatable_bonds>
7

> <i_m_Source_File_Index>
4174

> <b_m_subgroup_collapsed>
0

> <r_i_docking_score>
-5.23281

> <r_i_glide_ecoul>
-4.35778

> <r_i_glide_eff_state_penalty>
0

> <r_i_glide_einternal>
1.74944

> <r_i_glide_emodel>
-57.0464

> <r_i_glide_energy>
-41.1183

> <r_i_glide_erotb>
0.589626

> <r_i_glide_esite>
-0.160912

> <r_i_glide_evdw>
-36.7606

> <r_i_glide_gscore>
-5.23281

> <r_i_glide_hbond>
-0.159575

> <r_i_glide_ligand_efficiency>
-0.149509

> <r_i_glide_ligand_efficiency_ln>
-1.14872

> <r_i_glide_ligand_efficiency_sa>
-0.489053

> <r_i_glide_lipo>
-2.09716

> <r_i_glide_metal>
0

> <r_i_glide_rewards>
-0.913093

> <s_i_glide_gridfile>
wee1_glide-grid

> <s_m_Source_File>
wee1_decoys_glide_SP.sdf

> <s_m_Source_Path>
/Users/zhangxujun/Desktop

> <s_m_entry_id>
4449

> <s_m_entry_name>
wee1_decoys_glide_SP.4174

> <s_m_subgroup_title>
wee1_decoys_glide_SP

> <s_m_subgroupid>
wee1_decoys_glide_SP


$$$$
