ZINC08835257_3962
                    3D
 Schrodinger Suite 2024-2.
 56 60  0  0  1  0            999 V2000
    4.7611   54.7319   15.8316 C   0  0  0  0  0  0
    3.5715   54.1630   15.3988 C   0  0  0  0  0  0
    2.7218   53.5588   16.3176 C   0  0  0  0  0  0
    3.0592   53.4926   17.6794 C   0  0  0  0  0  0
    4.2516   54.1134   18.1425 C   0  0  0  0  0  0
    5.0893   54.7132   17.1840 C   0  0  0  0  0  0
    4.6720   54.2066   19.6063 C   0  0  0  0  0  0
    3.9185   53.8359   20.6124 N   0  0  0  0  0  0
    4.4946   54.0720   21.8176 C   0  0  0  0  0  0
    3.8938   53.8071   23.0570 C   0  0  0  0  0  0
    4.6122   54.0967   24.2186 C   0  0  0  0  0  0
    5.9042   54.6162   24.1578 C   0  0  0  0  0  0
    6.5160   54.8965   22.9355 C   0  0  0  0  0  0
    5.7942   54.6307   21.7643 C   0  0  0  0  0  0
    6.2270   54.8970   20.0828 S   0  0  0  0  0  0
    2.1922   52.8946   18.6190 N   0  0  0  0  0  0
    1.3579   51.8077   18.6189 C   0  0  0  0  0  0
    1.1052   50.7832   17.3048 S   0  0  0  0  0  0
    0.7573   51.6875   19.8482 N   0  0  0  0  0  0
    0.0474   50.6799   20.4238 C   0  0  0  0  0  0
    0.0406   49.5048   20.0499 O   0  0  0  0  0  0
   -0.8053   51.0841   21.6027 C   0  0  0  0  0  0
   -0.4187   52.1049   22.4754 C   0  0  0  0  0  0
   -1.2570   52.4965   23.5151 C   0  0  0  0  0  0
   -2.4832   51.8638   23.7317 C   0  0  0  0  0  0
   -2.8739   50.7976   22.8885 C   0  0  0  0  0  0
   -2.0203   50.4295   21.8358 C   0  0  0  0  0  0
   -4.1789   50.0969   23.0132 N   0  3  0  0  0  0
   -4.2610   48.9554   22.5680 O   0  0  0  0  0  0
   -5.1428   50.6811   23.4959 O   0  5  0  0  0  0
   -3.2546   52.3384   24.7940 N   0  0  0  0  0  0
   -4.2102   53.4405   24.7035 C   0  0  0  0  0  0
   -4.8405   53.5879   26.0818 C   0  0  0  0  0  0
   -4.8267   52.1570   26.5883 C   0  0  0  0  0  0
   -3.5113   51.6087   26.0355 C   0  0  0  0  0  0
    5.4245   55.2034   15.1212 H   0  0  0  0  0  0
    3.3033   54.1962   14.3530 H   0  0  0  0  0  0
    1.7911   53.1578   15.9498 H   0  0  0  0  0  0
    6.0133   55.1934   17.4646 H   0  0  0  0  0  0
    2.9012   53.3886   23.1129 H   0  0  0  0  0  0
    4.1685   53.8960   25.1836 H   0  0  0  0  0  0
    6.4360   54.8144   25.0769 H   0  0  0  0  0  0
    7.5046   55.3242   22.8956 H   0  0  0  0  0  0
    2.3081   53.3430   19.5194 H   0  0  0  0  0  0
    0.7039   52.5553   20.3573 H   0  0  0  0  0  0
    0.5246   52.6191   22.3546 H   0  0  0  0  0  0
   -0.9453   53.2988   24.1689 H   0  0  0  0  0  0
   -2.3229   49.6339   21.1664 H   0  0  0  0  0  0
   -4.9727   53.2301   23.9535 H   0  0  0  0  0  0
   -3.6952   54.3513   24.3979 H   0  0  0  0  0  0
   -5.8494   53.9985   26.0308 H   0  0  0  0  0  0
   -4.2442   54.2565   26.7026 H   0  0  0  0  0  0
   -4.8682   52.0966   27.6758 H   0  0  0  0  0  0
   -5.6718   51.5841   26.2018 H   0  0  0  0  0  0
   -2.7127   51.7586   26.7642 H   0  0  0  0  0  0
   -3.6607   50.5478   25.8278 H   0  0  0  0  0  0
  1  6  2  0  0  0
  1  2  1  0  0  0
  1 36  1  0  0  0
  2  3  2  0  0  0
  2 37  1  0  0  0
  3  4  1  0  0  0
  3 38  1  0  0  0
  4  5  2  0  0  0
  4 16  1  0  0  0
  5  6  1  0  0  0
  5  7  1  0  0  0
  6 39  1  0  0  0
  7 15  1  0  0  0
  7  8  2  0  0  0
  8  9  1  0  0  0
  9 14  2  0  0  0
  9 10  1  0  0  0
 10 11  2  0  0  0
 10 40  1  0  0  0
 11 12  1  0  0  0
 11 41  1  0  0  0
 12 13  2  0  0  0
 12 42  1  0  0  0
 13 14  1  0  0  0
 13 43  1  0  0  0
 14 15  1  0  0  0
 16 17  1  0  0  0
 16 44  1  0  0  0
 17 18  2  0  0  0
 17 19  1  0  0  0
 19 20  1  0  0  0
 19 45  1  0  0  0
 20 21  2  0  0  0
 20 22  1  0  0  0
 22 27  2  0  0  0
 22 23  1  0  0  0
 23 24  2  0  0  0
 23 46  1  0  0  0
 24 25  1  0  0  0
 24 47  1  0  0  0
 25 26  2  0  0  0
 25 31  1  0  0  0
 26 27  1  0  0  0
 26 28  1  0  0  0
 27 48  1  0  0  0
 28 29  2  0  0  0
 28 30  1  0  0  0
 31 35  1  0  0  0
 31 32  1  0  0  0
 32 33  1  0  0  0
 32 49  1  0  0  0
 32 50  1  0  0  0
 33 34  1  0  0  0
 33 51  1  0  0  0
 33 52  1  0  0  0
 34 35  1  0  0  0
 34 53  1  0  0  0
 34 54  1  0  0  0
 35 55  1  0  0  0
 35 56  1  0  0  0
M  CHG  2  28   1  30  -1
M  END
> <i_i_glide_confnum>
2

> <i_i_glide_lignum>
3963

> <i_i_glide_posenum>
331

> <i_i_glide_rotatable_bonds>
8

> <i_m_Source_File_Index>
4983

> <b_m_subgroup_collapsed>
0

> <r_i_docking_score>
-3.3285

> <r_i_glide_ecoul>
-0.3028

> <r_i_glide_eff_state_penalty>
0

> <r_i_glide_einternal>
13.5161

> <r_i_glide_emodel>
-32.8926

> <r_i_glide_energy>
-35.1293

> <r_i_glide_erotb>
0.564199

> <r_i_glide_esite>
-0.0942634

> <r_i_glide_evdw>
-34.8265

> <r_i_glide_gscore>
-3.3285

> <r_i_glide_hbond>
-0.0987272

> <r_i_glide_ligand_efficiency>
-0.0951001

> <r_i_glide_ligand_efficiency_ln>
-0.73068

> <r_i_glide_ligand_efficiency_sa>
-0.311079

> <r_i_glide_lipo>
-1.88387

> <r_i_glide_metal>
0

> <r_i_glide_rewards>
-0.0290929

> <s_i_glide_gridfile>
wee1_glide-grid

> <s_m_Source_File>
wee1_decoys_glide_SP.sdf

> <s_m_Source_Path>
/Users/zhangxujun/Desktop

> <s_m_entry_id>
5258

> <s_m_entry_name>
wee1_decoys_glide_SP.4983

> <s_m_subgroup_title>
wee1_decoys_glide_SP

> <s_m_subgroupid>
wee1_decoys_glide_SP


$$$$
