ZINC00723944_6085
                    3D
 Schrodinger Suite 2024-2.
 65 69  0  0  1  0            999 V2000
    4.6164   54.8149   29.2815 C   0  0  0  0  0  0
    3.3259   55.2957   29.0614 C   0  0  0  0  0  0
    2.5777   54.7986   28.0017 C   0  0  0  0  0  0
    3.1092   53.7995   27.1743 C   0  0  0  0  0  0
    4.3920   53.2966   27.4376 C   0  0  0  0  0  0
    5.1493   53.8115   28.4815 C   0  0  0  0  0  0
    2.3363   53.2966   26.0857 N   0  0  0  0  0  0
    1.1977   52.5689   26.4570 C   0  0  0  0  0  0
    0.9257   52.2735   27.6259 O   0  0  0  0  0  0
    0.3792   52.2226   25.2973 C   0  0  0  0  0  0
   -0.8431   51.5156   25.2631 C   0  0  0  0  0  0
   -1.3243   51.3788   23.9501 C   0  0  0  0  0  0
   -0.2619   52.0968   22.7812 S   0  0  0  0  0  0
    0.8159   52.6023   24.0356 C   0  0  0  0  0  0
    1.9674   53.2721   23.7715 N   0  0  0  0  0  0
    2.7440   53.5566   24.7599 C   0  0  0  0  0  0
    4.3976   54.2543   24.3854 S   0  0  0  0  0  0
    4.6223   54.3317   22.5574 C   0  0  1  0  0  0
    3.8897   55.0531   22.1949 H   0  0  0  0  0  0
    6.0543   54.8940   22.2719 C   0  0  0  0  0  0
    6.2832   55.4125   20.8411 C   0  0  0  0  0  0
    7.5135   56.0968   20.7540 O   0  0  0  0  0  0
    4.4079   52.9953   21.8049 C   0  0  0  0  0  0
    5.2468   52.0993   21.8886 O   0  0  0  0  0  0
    3.3100   52.8796   21.0382 N   0  0  0  0  0  0
    2.9585   51.7074   20.2343 C   0  0  0  0  0  0
    2.6514   50.4061   21.0258 C   0  0  0  0  0  0
    2.2412   49.2234   20.1280 C   0  0  0  0  0  0
    1.1016   49.5937   19.1678 C   0  0  0  0  0  0
    1.4877   50.8056   18.3047 C   0  0  0  0  0  0
    1.8933   52.0245   19.1575 C   0  0  0  0  0  0
   -2.6516   50.7415   23.5656 C   0  0  0  0  0  0
   -3.1707   49.8939   24.7471 C   0  0  0  0  0  0
   -3.0794   50.6530   26.0835 C   0  0  0  0  0  0
   -1.6220   50.9910   26.4734 C   0  0  0  0  0  0
    5.2168   55.2208   30.0814 H   0  0  0  0  0  0
    2.9152   56.0783   29.6821 H   0  0  0  0  0  0
    1.5849   55.1878   27.8245 H   0  0  0  0  0  0
    4.8125   52.5032   26.8363 H   0  0  0  0  0  0
    6.1460   53.4370   28.6681 H   0  0  0  0  0  0
    6.3044   55.6974   22.9664 H   0  0  0  0  0  0
    6.8014   54.1283   22.4928 H   0  0  0  0  0  0
    6.2075   54.6125   20.1041 H   0  0  0  0  0  0
    5.5043   56.1184   20.5702 H   0  0  0  0  0  0
    8.2272   55.4539   20.7403 H   0  0  0  0  0  0
    2.6253   53.6221   21.0516 H   0  0  0  0  0  0
    3.8595   51.4607   19.6674 H   0  0  0  0  0  0
    1.8358   50.5946   21.7202 H   0  0  0  0  0  0
    3.5044   50.1040   21.6309 H   0  0  0  0  0  0
    1.9499   48.3738   20.7450 H   0  0  0  0  0  0
    3.1043   48.8929   19.5464 H   0  0  0  0  0  0
    0.1990   49.8166   19.7373 H   0  0  0  0  0  0
    0.8639   48.7429   18.5278 H   0  0  0  0  0  0
    0.6621   51.0701   17.6433 H   0  0  0  0  0  0
    2.3174   50.5285   17.6503 H   0  0  0  0  0  0
    2.2475   52.8202   18.5020 H   0  0  0  0  0  0
    0.9949   52.3989   19.6506 H   0  0  0  0  0  0
   -3.3798   51.5184   23.3310 H   0  0  0  0  0  0
   -2.5514   50.1210   22.6745 H   0  0  0  0  0  0
   -4.2029   49.5941   24.5582 H   0  0  0  0  0  0
   -2.5968   48.9684   24.8168 H   0  0  0  0  0  0
   -3.6669   51.5705   26.0193 H   0  0  0  0  0  0
   -3.5330   50.0570   26.8767 H   0  0  0  0  0  0
   -1.1332   50.0986   26.8712 H   0  0  0  0  0  0
   -1.6242   51.7145   27.2906 H   0  0  0  0  0  0
  1  6  2  0  0  0
  1  2  1  0  0  0
  1 36  1  0  0  0
  2  3  2  0  0  0
  2 37  1  0  0  0
  3  4  1  0  0  0
  3 38  1  0  0  0
  4  5  2  0  0  0
  4  7  1  0  0  0
  5  6  1  0  0  0
  5 39  1  0  0  0
  6 40  1  0  0  0
  7 16  1  0  0  0
  7  8  1  0  0  0
  8  9  2  0  0  0
  8 10  1  0  0  0
 10 14  2  0  0  0
 10 11  1  0  0  0
 11 35  1  0  0  0
 11 12  2  0  0  0
 12 13  1  0  0  0
 12 32  1  0  0  0
 13 14  1  0  0  0
 14 15  1  0  0  0
 15 16  2  0  0  0
 16 17  1  0  0  0
 17 18  1  0  0  0
 18 19  1  0  0  0
 18 20  1  0  0  0
 18 23  1  0  0  0
 20 21  1  0  0  0
 20 41  1  0  0  0
 20 42  1  0  0  0
 21 22  1  0  0  0
 21 43  1  0  0  0
 21 44  1  0  0  0
 22 45  1  0  0  0
 23 24  2  0  0  0
 23 25  1  0  0  0
 25 26  1  0  0  0
 25 46  1  0  0  0
 26 31  1  0  0  0
 26 27  1  0  0  0
 26 47  1  0  0  0
 27 28  1  0  0  0
 27 48  1  0  0  0
 27 49  1  0  0  0
 28 29  1  0  0  0
 28 50  1  0  0  0
 28 51  1  0  0  0
 29 30  1  0  0  0
 29 52  1  0  0  0
 29 53  1  0  0  0
 30 31  1  0  0  0
 30 54  1  0  0  0
 30 55  1  0  0  0
 31 56  1  0  0  0
 31 57  1  0  0  0
 32 33  1  0  0  0
 32 58  1  0  0  0
 32 59  1  0  0  0
 33 34  1  0  0  0
 33 60  1  0  0  0
 33 61  1  0  0  0
 34 35  1  0  0  0
 34 62  1  0  0  0
 34 63  1  0  0  0
 35 64  1  0  0  0
 35 65  1  0  0  0
M  END
> <i_i_glide_confnum>
73

> <i_i_glide_lignum>
6086

> <i_i_glide_posenum>
210

> <i_i_glide_rotatable_bonds>
9

> <i_m_Source_File_Index>
1509

> <b_m_subgroup_collapsed>
0

> <r_i_docking_score>
-5.87195

> <r_i_glide_ecoul>
-6.15331

> <r_i_glide_eff_state_penalty>
0

> <r_i_glide_einternal>
3.02576

> <r_i_glide_emodel>
-63.7372

> <r_i_glide_energy>
-47.3805

> <r_i_glide_erotb>
0.576572

> <r_i_glide_esite>
0

> <r_i_glide_evdw>
-41.2272

> <r_i_glide_gscore>
-5.87195

> <r_i_glide_hbond>
-0.262168

> <r_i_glide_ligand_efficiency>
-0.172704

> <r_i_glide_ligand_efficiency_ln>
-1.29728

> <r_i_glide_ligand_efficiency_sa>
-0.559495

> <r_i_glide_lipo>
-2.49176

> <r_i_glide_metal>
0

> <r_i_glide_rewards>
-0.710234

> <s_i_glide_gridfile>
wee1_glide-grid

> <s_m_Source_File>
wee1_decoys_glide_SP.sdf

> <s_m_Source_Path>
/Users/zhangxujun/Desktop

> <s_m_entry_id>
1784

> <s_m_entry_name>
wee1_decoys_glide_SP.1509

> <s_m_subgroup_title>
wee1_decoys_glide_SP

> <s_m_subgroupid>
wee1_decoys_glide_SP


$$$$
