ZINC08670971_5426
                    3D
 Schrodinger Suite 2024-2.
 70 75  0  0  1  0            999 V2000
    1.9246   55.6020   29.6620 C   0  0  0  0  0  0
    1.6924   54.2084   29.0895 C   0  0  0  0  0  0
    0.5658   54.0042   28.2920 C   0  0  0  0  0  0
    0.3074   52.7541   27.6807 C   0  0  0  0  0  0
   -0.8038   52.4971   26.8416 C   0  0  0  0  0  0
   -0.9652   51.2549   26.2168 C   0  0  0  0  0  0
   -0.0073   50.2535   26.4821 C   0  0  0  0  0  0
    1.0570   50.4971   27.2817 N   0  0  0  0  0  0
    1.2210   51.6972   27.8882 C   0  0  0  0  0  0
    2.3370   51.9023   28.7287 C   0  0  0  0  0  0
    2.5798   53.1440   29.3185 C   0  0  0  0  0  0
    3.8372   53.2874   30.1663 C   0  0  0  0  0  0
   -0.1745   49.0196   25.9167 O   0  0  0  0  0  0
   -2.1733   51.0802   25.2657 C   0  0  1  0  0  0
   -2.3745   52.0579   24.8252 H   0  0  0  0  0  0
   -2.0169   50.1586   24.0422 C   0  0  0  0  0  0
   -2.8953   49.2631   23.6452 N   0  0  0  0  0  0
   -2.3859   48.7032   22.4818 N   0  0  0  0  0  0
   -1.1865   49.3007   22.1620 N   0  0  0  0  0  0
   -0.9693   50.1958   23.1368 N   0  0  0  0  0  0
    0.2118   51.0727   23.1110 C   0  0  0  0  0  0
    1.4201   50.5553   22.3064 C   0  0  0  0  0  0
    2.2307   51.8256   22.0635 C   0  0  0  0  0  0
    1.1756   52.8942   21.7757 C   0  0  0  0  0  0
   -0.0889   52.4712   22.5398 C   0  0  0  0  0  0
   -3.4059   49.4968   26.8836 C   0  0  0  0  0  0
   -4.7073   48.7963   27.2374 C   0  0  0  0  0  0
   -4.9897   48.4725   28.5701 C   0  0  0  0  0  0
   -6.1863   47.8252   28.8843 C   0  0  0  0  0  0
   -7.0647   47.5107   27.8449 C   0  0  0  0  0  0
   -6.8030   47.7999   26.5439 N   0  0  0  0  0  0
   -5.6346   48.4289   26.2560 C   0  0  0  0  0  0
   -4.0937   51.9982   26.7543 C   0  0  0  0  0  0
   -5.5742   51.8283   27.0018 C   0  0  0  0  0  0
   -6.7079   51.9576   26.2098 C   0  0  0  0  0  0
   -7.8056   51.6784   27.0249 C   0  0  0  0  0  0
   -7.2957   51.4079   28.2835 C   0  0  0  0  0  0
   -5.9429   51.5093   28.2706 O   0  0  0  0  0  0
    2.8965   55.9856   29.3497 H   0  0  0  0  0  0
    1.9035   55.5828   30.7512 H   0  0  0  0  0  0
    1.1730   56.3183   29.3267 H   0  0  0  0  0  0
   -0.1025   54.8225   28.0837 H   0  0  0  0  0  0
   -1.5139   53.2923   26.6710 H   0  0  0  0  0  0
    3.0229   51.0855   28.8853 H   0  0  0  0  0  0
    4.6868   52.8524   29.6373 H   0  0  0  0  0  0
    4.1084   54.3183   30.3825 H   0  0  0  0  0  0
    3.7295   52.7355   31.0997 H   0  0  0  0  0  0
    0.3201   48.3362   26.3838 H   0  0  0  0  0  0
    0.5617   51.1778   24.1337 H   0  0  0  0  0  0
    1.9894   49.7916   22.8405 H   0  0  0  0  0  0
    1.1245   50.1492   21.3369 H   0  0  0  0  0  0
    2.7845   52.0935   22.9630 H   0  0  0  0  0  0
    2.9497   51.7158   21.2502 H   0  0  0  0  0  0
    1.5181   53.8855   22.0775 H   0  0  0  0  0  0
    0.9736   52.9097   20.7030 H   0  0  0  0  0  0
   -0.9293   52.4483   21.8435 H   0  0  0  0  0  0
   -0.3269   53.1780   23.3376 H   0  0  0  0  0  0
   -2.7497   48.7917   26.3732 H   0  0  0  0  0  0
   -2.8956   49.8440   27.7811 H   0  0  0  0  0  0
   -4.2852   48.7175   29.3543 H   0  0  0  0  0  0
   -6.4225   47.5766   29.9092 H   0  0  0  0  0  0
   -8.0020   47.0119   28.0449 H   0  0  0  0  0  0
   -5.4542   48.6364   25.2118 H   0  0  0  0  0  0
   -3.5071   52.0947   27.6693 H   0  0  0  0  0  0
   -3.9114   52.8719   26.1288 H   0  0  0  0  0  0
   -6.7361   52.2150   25.1602 H   0  0  0  0  0  0
   -8.8458   51.6723   26.7331 H   0  0  0  0  0  0
   -7.7448   51.1388   29.2285 H   0  0  0  0  0  0
   -3.5148   50.7691   25.9998 N   0  3  1  0  0  0
   -4.1700   50.5531   25.2623 H   0  0  0  0  0  0
  1  2  1  0  0  0
  1 39  1  0  0  0
  1 40  1  0  0  0
  1 41  1  0  0  0
  2 11  2  0  0  0
  2  3  1  0  0  0
  3  4  2  0  0  0
  3 42  1  0  0  0
  4  9  1  0  0  0
  4  5  1  0  0  0
  5  6  2  0  0  0
  5 43  1  0  0  0
  6  7  1  0  0  0
  6 14  1  0  0  0
  7  8  2  0  0  0
  7 13  1  0  0  0
  8  9  1  0  0  0
  9 10  2  0  0  0
 10 11  1  0  0  0
 10 44  1  0  0  0
 11 12  1  0  0  0
 12 45  1  0  0  0
 12 46  1  0  0  0
 12 47  1  0  0  0
 13 48  1  0  0  0
 14 15  1  0  0  0
 14 16  1  0  0  0
 14 69  1  0  0  0
 16 20  1  0  0  0
 16 17  2  0  0  0
 17 18  1  0  0  0
 18 19  2  0  0  0
 19 20  1  0  0  0
 20 21  1  0  0  0
 21 25  1  0  0  0
 21 22  1  0  0  0
 21 49  1  0  0  0
 22 23  1  0  0  0
 22 50  1  0  0  0
 22 51  1  0  0  0
 23 24  1  0  0  0
 23 52  1  0  0  0
 23 53  1  0  0  0
 24 25  1  0  0  0
 24 54  1  0  0  0
 24 55  1  0  0  0
 25 56  1  0  0  0
 25 57  1  0  0  0
 26 27  1  0  0  0
 26 58  1  0  0  0
 26 59  1  0  0  0
 26 69  1  0  0  0
 27 32  2  0  0  0
 27 28  1  0  0  0
 28 29  2  0  0  0
 28 60  1  0  0  0
 29 30  1  0  0  0
 29 61  1  0  0  0
 30 31  2  0  0  0
 30 62  1  0  0  0
 31 32  1  0  0  0
 32 63  1  0  0  0
 33 34  1  0  0  0
 33 64  1  0  0  0
 33 65  1  0  0  0
 33 69  1  0  0  0
 34 38  1  0  0  0
 34 35  2  0  0  0
 35 36  1  0  0  0
 35 66  1  0  0  0
 36 37  2  0  0  0
 36 67  1  0  0  0
 37 38  1  0  0  0
 37 68  1  0  0  0
 69 70  1  0  0  0
M  CHG  1  69   1
M  END
> <i_i_glide_confnum>
119

> <i_i_glide_lignum>
5427

> <i_i_glide_posenum>
273

> <i_i_glide_rotatable_bonds>
9

> <i_m_Source_File_Index>
4321

> <b_m_subgroup_collapsed>
0

> <r_i_docking_score>
-3.10103

> <r_i_glide_ecoul>
-2.50255

> <r_i_glide_eff_state_penalty>
0

> <r_i_glide_einternal>
10.9538

> <r_i_glide_emodel>
-30.3047

> <r_i_glide_energy>
-29.6851

> <r_i_glide_erotb>
0.471481

> <r_i_glide_esite>
-0.030808

> <r_i_glide_evdw>
-27.1825

> <r_i_glide_gscore>
-3.10103

> <r_i_glide_hbond>
-0.240456

> <r_i_glide_ligand_efficiency>
-0.0816061

> <r_i_glide_ligand_efficiency_ln>
-0.668673

> <r_i_glide_ligand_efficiency_sa>
-0.274358

> <r_i_glide_lipo>
-1.56674

> <r_i_glide_metal>
0

> <r_i_glide_rewards>
0

> <s_i_glide_gridfile>
wee1_glide-grid

> <s_m_Source_File>
wee1_decoys_glide_SP.sdf

> <s_m_Source_Path>
/Users/zhangxujun/Desktop

> <s_m_entry_id>
4596

> <s_m_entry_name>
wee1_decoys_glide_SP.4321

> <s_m_subgroup_title>
wee1_decoys_glide_SP

> <s_m_subgroupid>
wee1_decoys_glide_SP


$$$$
