ZINC59293490_3549
                    3D
 Schrodinger Suite 2024-2.
 64 68  0  0  1  0            999 V2000
    4.3954   53.8622   28.9591 C   0  0  0  0  0  0
    4.7727   54.0969   27.5087 C   0  0  0  0  0  0
    3.7790   54.2386   26.5365 C   0  0  0  0  0  0
    4.1321   54.4816   25.2116 C   0  0  0  0  0  0
    5.4793   54.5809   24.8482 C   0  0  0  0  0  0
    6.4632   54.4335   25.8274 C   0  0  0  0  0  0
    6.1172   54.1959   27.1527 C   0  0  0  0  0  0
    5.9164   54.8751   23.4667 C   0  0  0  0  0  0
    5.3543   54.4961   22.2913 C   0  0  0  0  0  0
    5.9045   54.9566   21.0366 C   0  0  0  0  0  0
    6.8780   55.7197   20.9649 O   0  0  0  0  0  0
    5.2075   54.4473   19.9663 N   0  0  0  0  0  0
    4.1871   53.5637   20.2423 C   0  0  0  0  0  0
    3.4773   52.8844   19.2950 C   0  0  0  0  0  0
    3.7932   53.0063   17.7844 C   0  0  2  0  0  0
    4.3014   52.0982   17.4519 H   0  0  0  0  0  0
    4.8372   54.1137   17.5785 C   0  0  0  0  0  0
    5.4611   54.7345   18.6133 C   0  0  0  0  0  0
    6.3840   55.7276   18.3303 N   0  0  0  0  0  0
    5.1356   54.4750   16.2242 C   0  0  0  0  0  0
    5.3932   54.7916   15.1419 N   0  0  0  0  0  0
    2.5542   53.1642   16.8914 C   0  0  0  0  0  0
    1.8426   54.3689   16.8812 C   0  0  0  0  0  0
    0.7138   54.5081   16.0802 C   0  0  0  0  0  0
    0.2858   53.4383   15.2902 C   0  0  0  0  0  0
    0.9943   52.2350   15.2969 C   0  0  0  0  0  0
    2.1252   52.0966   16.0962 C   0  0  0  0  0  0
   -0.9381   53.5923   14.4069 C   0  0  0  0  0  0
    2.4241   51.9547   19.6646 C   0  0  0  0  0  0
    1.3754   52.3145   20.2019 O   0  0  0  0  0  0
    2.7047   50.6749   19.3591 N   0  0  0  0  0  0
    1.8186   49.5207   19.5338 C   0  0  0  0  0  0
    1.1142   49.3895   20.8862 C   0  0  0  0  0  0
    1.7824   49.6968   22.0786 C   0  0  0  0  0  0
    1.1016   49.6437   23.2918 C   0  0  0  0  0  0
   -0.2391   49.2652   23.3186 C   0  0  0  0  0  0
   -0.9109   48.9503   22.1376 C   0  0  0  0  0  0
   -0.2348   49.0175   20.9215 C   0  0  0  0  0  0
    3.9614   53.4670   21.9990 S   0  0  0  0  0  0
    4.9956   54.4991   29.6120 H   0  0  0  0  0  0
    3.3490   54.1076   29.1526 H   0  0  0  0  0  0
    4.5797   52.8228   29.2386 H   0  0  0  0  0  0
    2.7353   54.1726   26.8060 H   0  0  0  0  0  0
    3.3508   54.6161   24.4794 H   0  0  0  0  0  0
    7.5044   54.4989   25.5551 H   0  0  0  0  0  0
    6.8902   54.0900   27.8997 H   0  0  0  0  0  0
    6.7976   55.5055   23.4289 H   0  0  0  0  0  0
    6.6067   55.9897   17.3802 H   0  0  0  0  0  0
    6.9066   56.1655   19.0792 H   0  0  0  0  0  0
    2.1616   55.1930   17.5025 H   0  0  0  0  0  0
    0.1742   55.4436   16.0760 H   0  0  0  0  0  0
    0.6732   51.4061   14.6836 H   0  0  0  0  0  0
    2.6623   51.1589   16.1006 H   0  0  0  0  0  0
   -1.0456   54.6236   14.0674 H   0  0  0  0  0  0
   -0.8527   52.9779   13.5100 H   0  0  0  0  0  0
   -1.8394   53.3041   14.9470 H   0  0  0  0  0  0
    3.5787   50.4979   18.8645 H   0  0  0  0  0  0
    2.4190   48.6226   19.3767 H   0  0  0  0  0  0
    1.0920   49.5377   18.7202 H   0  0  0  0  0  0
    2.8212   49.9935   22.0618 H   0  0  0  0  0  0
    1.6141   49.8824   24.2123 H   0  0  0  0  0  0
   -0.7627   49.2176   24.2631 H   0  0  0  0  0  0
   -1.9521   48.6626   22.1656 H   0  0  0  0  0  0
   -0.7642   48.7893   20.0060 H   0  0  0  0  0  0
  1  2  1  0  0  0
  1 40  1  0  0  0
  1 41  1  0  0  0
  1 42  1  0  0  0
  2  7  2  0  0  0
  2  3  1  0  0  0
  3  4  2  0  0  0
  3 43  1  0  0  0
  4  5  1  0  0  0
  4 44  1  0  0  0
  5  6  2  0  0  0
  5  8  1  0  0  0
  6  7  1  0  0  0
  6 45  1  0  0  0
  7 46  1  0  0  0
  8  9  2  0  0  0
  8 47  1  0  0  0
  9 39  1  0  0  0
  9 10  1  0  0  0
 10 11  2  0  0  0
 10 12  1  0  0  0
 12 18  1  0  0  0
 12 13  1  0  0  0
 13 14  2  0  0  0
 13 39  1  0  0  0
 14 15  1  0  0  0
 14 29  1  0  0  0
 15 16  1  0  0  0
 15 17  1  0  0  0
 15 22  1  0  0  0
 17 18  2  0  0  0
 17 20  1  0  0  0
 18 19  1  0  0  0
 19 48  1  0  0  0
 19 49  1  0  0  0
 20 21  3  0  0  0
 22 27  2  0  0  0
 22 23  1  0  0  0
 23 24  2  0  0  0
 23 50  1  0  0  0
 24 25  1  0  0  0
 24 51  1  0  0  0
 25 26  2  0  0  0
 25 28  1  0  0  0
 26 27  1  0  0  0
 26 52  1  0  0  0
 27 53  1  0  0  0
 28 54  1  0  0  0
 28 55  1  0  0  0
 28 56  1  0  0  0
 29 30  2  0  0  0
 29 31  1  0  0  0
 31 32  1  0  0  0
 31 57  1  0  0  0
 32 33  1  0  0  0
 32 58  1  0  0  0
 32 59  1  0  0  0
 33 38  2  0  0  0
 33 34  1  0  0  0
 34 35  2  0  0  0
 34 60  1  0  0  0
 35 36  1  0  0  0
 35 61  1  0  0  0
 36 37  2  0  0  0
 36 62  1  0  0  0
 37 38  1  0  0  0
 37 63  1  0  0  0
 38 64  1  0  0  0
M  END
> <i_i_glide_confnum>
108

> <i_i_glide_lignum>
3550

> <i_i_glide_posenum>
379

> <i_i_glide_rotatable_bonds>
7

> <i_m_Source_File_Index>
3035

> <b_m_subgroup_collapsed>
0

> <r_i_docking_score>
-5.47994

> <r_i_glide_ecoul>
-2.25685

> <r_i_glide_eff_state_penalty>
0

> <r_i_glide_einternal>
4.51536

> <r_i_glide_emodel>
-59.9947

> <r_i_glide_energy>
-45.9359

> <r_i_glide_erotb>
0.381811

> <r_i_glide_esite>
-0.115147

> <r_i_glide_evdw>
-43.679

> <r_i_glide_gscore>
-5.47994

> <r_i_glide_hbond>
-0.16

> <r_i_glide_ligand_efficiency>
-0.144209

> <r_i_glide_ligand_efficiency_ln>
-1.18164

> <r_i_glide_ligand_efficiency_sa>
-0.484827

> <r_i_glide_lipo>
-2.93335

> <r_i_glide_metal>
0

> <r_i_glide_rewards>
-0.130778

> <s_i_glide_gridfile>
wee1_glide-grid

> <s_m_Source_File>
wee1_decoys_glide_SP.sdf

> <s_m_Source_Path>
/Users/zhangxujun/Desktop

> <s_m_entry_id>
3310

> <s_m_entry_name>
wee1_decoys_glide_SP.3035

> <s_m_subgroup_title>
wee1_decoys_glide_SP

> <s_m_subgroupid>
wee1_decoys_glide_SP


$$$$
