ZINC36053266_5960
                    3D
 Schrodinger Suite 2024-2.
 60 63  0  0  1  0            999 V2000
    4.1710   54.1519   25.9091 C   0  0  0  0  0  0
    2.8125   53.7897   25.3384 C   0  0  0  0  0  0
    2.3275   54.4388   24.2121 C   0  0  0  0  0  0
    1.0818   54.0966   23.7040 C   0  0  0  0  0  0
    0.3016   53.0912   24.2834 C   0  0  0  0  0  0
    0.8204   52.3646   25.3785 C   0  0  0  0  0  0
    2.0516   52.7753   25.9113 C   0  0  0  0  0  0
    0.1566   51.1166   26.0211 C   0  0  1  0  0  0
    0.9831   50.4489   26.2705 H   0  0  0  0  0  0
   -0.6085   51.4039   27.3494 C   0  0  0  0  0  0
   -1.9424   51.1172   27.4535 C   0  0  0  0  0  0
   -2.6754   50.5933   26.4302 N   0  0  0  0  0  0
   -2.0529   50.1311   25.4178 C   0  0  0  0  0  0
   -0.6935   50.2757   25.1183 N   0  0  0  0  0  0
   -0.3011   49.6993   23.9136 C   0  0  0  0  0  0
   -1.3350   49.1124   23.2801 C   0  0  0  0  0  0
   -2.8695   49.2514   24.1177 S   0  0  0  0  0  0
    1.0210   49.7628   23.2967 C   0  0  0  0  0  0
    1.2439   50.0801   22.0031 C   0  0  0  0  0  0
    0.3991   50.4457   21.1027 O   0  5  0  0  0  0
    2.5104   50.0040   21.4613 N   0  0  0  0  0  0
    3.1055   50.7209   20.3269 C   0  0  0  0  0  0
    3.6585   52.0889   20.6616 C   0  0  0  0  0  0
    3.8226   52.8157   21.8289 C   0  0  0  0  0  0
    4.4638   54.0090   21.4935 C   0  0  0  0  0  0
    4.6552   53.9659   20.1247 C   0  0  0  0  0  0
    4.1686   52.8027   19.6231 O   0  0  0  0  0  0
   -2.7993   51.1381   28.7167 C   0  0  0  0  0  0
    0.1913   51.8921   28.4813 C   0  0  0  0  0  0
    1.3034   51.4318   28.7555 O   0  0  0  0  0  0
   -0.3731   52.9449   29.1251 O   0  0  0  0  0  0
    0.2905   53.6242   30.1898 C   0  0  0  0  0  0
    1.3846   54.5543   29.6807 C   0  0  0  0  0  0
    1.5032   55.8533   30.0014 C   0  0  0  0  0  0
   -1.1138   52.8978   23.7505 C   0  0  0  0  0  0
    4.8597   54.4377   25.1129 H   0  0  0  0  0  0
    4.0837   54.9815   26.6110 H   0  0  0  0  0  0
    4.6228   53.3012   26.4216 H   0  0  0  0  0  0
    2.8984   55.2268   23.7452 H   0  0  0  0  0  0
    0.7044   54.6725   22.8817 H   0  0  0  0  0  0
    2.4669   52.2551   26.7600 H   0  0  0  0  0  0
   -1.2866   48.6270   22.3169 H   0  0  0  0  0  0
    1.8674   49.5045   23.9165 H   0  0  0  0  0  0
    3.2066   49.5519   22.0312 H   0  0  0  0  0  0
    3.9046   50.1001   19.9277 H   0  0  0  0  0  0
    2.3731   50.8012   19.5228 H   0  0  0  0  0  0
    3.5080   52.4975   22.8104 H   0  0  0  0  0  0
    4.7468   54.8072   22.1628 H   0  0  0  0  0  0
    5.0939   54.6451   19.4095 H   0  0  0  0  0  0
   -2.2217   51.2966   29.6256 H   0  0  0  0  0  0
   -3.5708   51.9012   28.6419 H   0  0  0  0  0  0
   -3.2984   50.1759   28.8518 H   0  0  0  0  0  0
    0.7166   52.9061   30.8931 H   0  0  0  0  0  0
   -0.4589   54.1961   30.7403 H   0  0  0  0  0  0
    2.1034   54.1142   29.0040 H   0  0  0  0  0  0
    0.8053   56.3343   30.6713 H   0  0  0  0  0  0
    2.3026   56.4579   29.5971 H   0  0  0  0  0  0
   -1.5200   53.7954   23.2945 H   0  0  0  0  0  0
   -1.1586   52.0990   23.0123 H   0  0  0  0  0  0
   -1.8020   52.6878   24.5661 H   0  0  0  0  0  0
  1  2  1  0  0  0
  1 36  1  0  0  0
  1 37  1  0  0  0
  1 38  1  0  0  0
  2  7  2  0  0  0
  2  3  1  0  0  0
  3  4  2  0  0  0
  3 39  1  0  0  0
  4  5  1  0  0  0
  4 40  1  0  0  0
  5  6  2  0  0  0
  5 35  1  0  0  0
  6  7  1  0  0  0
  6  8  1  0  0  0
  7 41  1  0  0  0
  8  9  1  0  0  0
  8 14  1  0  0  0
  8 10  1  0  0  0
 10 11  2  0  0  0
 10 29  1  0  0  0
 11 12  1  0  0  0
 11 28  1  0  0  0
 12 13  2  0  0  0
 13 17  1  0  0  0
 13 14  1  0  0  0
 14 15  1  0  0  0
 15 16  2  0  0  0
 15 18  1  0  0  0
 16 17  1  0  0  0
 16 42  1  0  0  0
 18 19  2  0  0  0
 18 43  1  0  0  0
 19 20  1  0  0  0
 19 21  1  0  0  0
 21 22  1  0  0  0
 21 44  1  0  0  0
 22 23  1  0  0  0
 22 45  1  0  0  0
 22 46  1  0  0  0
 23 27  1  0  0  0
 23 24  2  0  0  0
 24 25  1  0  0  0
 24 47  1  0  0  0
 25 26  2  0  0  0
 25 48  1  0  0  0
 26 27  1  0  0  0
 26 49  1  0  0  0
 28 50  1  0  0  0
 28 51  1  0  0  0
 28 52  1  0  0  0
 29 30  2  0  0  0
 29 31  1  0  0  0
 31 32  1  0  0  0
 32 33  1  0  0  0
 32 53  1  0  0  0
 32 54  1  0  0  0
 33 34  2  0  0  0
 33 55  1  0  0  0
 34 56  1  0  0  0
 34 57  1  0  0  0
 35 58  1  0  0  0
 35 59  1  0  0  0
 35 60  1  0  0  0
M  CHG  1  20  -1
M  END
> <i_i_glide_confnum>
89

> <i_i_glide_lignum>
5961

> <i_i_glide_posenum>
169

> <i_i_glide_rotatable_bonds>
9

> <i_m_Source_File_Index>
5300

> <b_m_subgroup_collapsed>
0

> <r_i_docking_score>
-3.88834

> <r_i_glide_ecoul>
0.72133

> <r_i_glide_eff_state_penalty>
0

> <r_i_glide_einternal>
9.28421

> <r_i_glide_emodel>
-45.8771

> <r_i_glide_energy>
-38.4263

> <r_i_glide_erotb>
0.713313

> <r_i_glide_esite>
-0.0743488

> <r_i_glide_evdw>
-39.1477

> <r_i_glide_gscore>
-3.88834

> <r_i_glide_hbond>
0

> <r_i_glide_ligand_efficiency>
-0.114363

> <r_i_glide_ligand_efficiency_ln>
-0.859043

> <r_i_glide_ligand_efficiency_sa>
-0.370491

> <r_i_glide_lipo>
-2.47395

> <r_i_glide_metal>
0

> <r_i_glide_rewards>
-0.20417

> <s_i_glide_gridfile>
wee1_glide-grid

> <s_m_Source_File>
wee1_decoys_glide_SP.sdf

> <s_m_Source_Path>
/Users/zhangxujun/Desktop

> <s_m_entry_id>
5575

> <s_m_entry_name>
wee1_decoys_glide_SP.5300

> <s_m_subgroup_title>
wee1_decoys_glide_SP

> <s_m_subgroupid>
wee1_decoys_glide_SP


$$$$
