ZINC16949341_3539
                    3D
 Schrodinger Suite 2024-2.
 60 64  0  0  1  0            999 V2000
   -4.3500   46.8622   22.5767 C   0  0  0  0  0  0
   -3.4089   47.8315   23.2680 C   0  0  0  0  0  0
   -2.5292   48.6048   22.5109 C   0  0  0  0  0  0
   -1.6621   49.4943   23.1421 C   0  0  0  0  0  0
   -1.6631   49.6216   24.5417 C   0  0  0  0  0  0
   -2.5441   48.8257   25.2873 C   0  0  0  0  0  0
   -3.4121   47.9376   24.6584 C   0  0  0  0  0  0
   -0.7056   50.5813   25.2954 C   0  0  2  0  0  0
    0.3557   49.7760   26.0369 C   0  0  0  0  0  0
    1.0020   50.8969   27.2821 S   0  0  0  0  0  0
   -0.5695   51.7593   27.4401 C   0  0  0  0  0  0
   -0.8920   52.4935   28.4342 N   0  0  0  0  0  0
   -0.0280   52.6587   29.4768 C   0  0  0  0  0  0
    1.2479   53.2327   29.6477 C   0  0  0  0  0  0
    1.6926   53.0349   30.8812 N   0  0  0  0  0  0
    0.7046   52.4922   31.5359 C   0  0  0  0  0  0
   -0.3601   52.2169   30.7267 N   0  0  0  0  0  0
   -1.2200   51.7670   31.0174 H   0  0  0  0  0  0
    1.9803   53.9623   28.6620 C   0  0  0  0  0  0
    1.4627   54.9126   28.0811 O   0  0  0  0  0  0
    3.2328   53.5008   28.4600 N   0  0  0  0  0  0
    4.1068   53.8667   27.4263 C   0  0  0  0  0  0
    5.4768   53.8393   27.6939 C   0  0  0  0  0  0
    6.3863   54.1588   26.6890 C   0  0  0  0  0  0
    5.9264   54.4915   25.4126 C   0  0  0  0  0  0
    4.5588   54.4970   25.1376 C   0  0  0  0  0  0
    3.6485   54.1852   26.1410 C   0  0  0  0  0  0
    6.9182   54.8155   24.3137 C   0  0  0  0  0  0
   -1.3328   51.4531   26.3015 N   0  0  0  0  0  0
   -2.5713   52.0675   26.0078 C   0  0  0  0  0  0
   -2.7106   52.8964   24.8876 C   0  0  0  0  0  0
   -3.9474   53.4471   24.5656 C   0  0  0  0  0  0
   -5.0531   53.1681   25.3648 C   0  0  0  0  0  0
   -4.9290   52.3449   26.4826 C   0  0  0  0  0  0
   -3.6892   51.7962   26.8048 C   0  0  0  0  0  0
    0.0195   51.3746   24.3559 O   0  0  0  0  0  0
   -3.8666   46.4085   21.7097 H   0  0  0  0  0  0
   -4.6407   46.0455   23.2383 H   0  0  0  0  0  0
   -5.2475   47.3790   22.2366 H   0  0  0  0  0  0
   -2.5176   48.5225   21.4333 H   0  0  0  0  0  0
   -0.9975   50.0825   22.5267 H   0  0  0  0  0  0
   -2.5512   48.8943   26.3667 H   0  0  0  0  0  0
   -4.0838   47.3391   25.2581 H   0  0  0  0  0  0
    1.1436   49.3842   25.3934 H   0  0  0  0  0  0
   -0.0703   48.9233   26.5705 H   0  0  0  0  0  0
    0.6749   52.2201   32.5833 H   0  0  0  0  0  0
    3.5646   52.7820   29.0842 H   0  0  0  0  0  0
    5.8441   53.5774   28.6760 H   0  0  0  0  0  0
    7.4444   54.1310   26.9033 H   0  0  0  0  0  0
    4.1955   54.7373   24.1486 H   0  0  0  0  0  0
    2.5935   54.1677   25.9072 H   0  0  0  0  0  0
    6.4328   55.0000   23.3541 H   0  0  0  0  0  0
    7.6074   53.9808   24.1811 H   0  0  0  0  0  0
    7.5014   55.6975   24.5741 H   0  0  0  0  0  0
   -1.8570   53.1147   24.2641 H   0  0  0  0  0  0
   -4.0445   54.0831   23.6973 H   0  0  0  0  0  0
   -6.0162   53.5878   25.1123 H   0  0  0  0  0  0
   -5.7907   52.1272   27.0972 H   0  0  0  0  0  0
   -3.5926   51.1472   27.6634 H   0  0  0  0  0  0
    0.6859   50.8206   23.9449 H   0  0  0  0  0  0
  1  2  1  0  0  0
  1 37  1  0  0  0
  1 38  1  0  0  0
  1 39  1  0  0  0
  2  7  2  0  0  0
  2  3  1  0  0  0
  3  4  2  0  0  0
  3 40  1  0  0  0
  4  5  1  0  0  0
  4 41  1  0  0  0
  5  6  2  0  0  0
  5  8  1  0  0  0
  6  7  1  0  0  0
  6 42  1  0  0  0
  7 43  1  0  0  0
  8 29  1  0  0  0
  8  9  1  0  0  0
  8 36  1  0  0  0
  9 10  1  0  0  0
  9 44  1  0  0  0
  9 45  1  0  0  0
 10 11  1  0  0  0
 11 12  2  0  0  0
 11 29  1  0  0  0
 12 13  1  0  0  0
 13 17  1  0  0  0
 13 14  2  0  0  0
 14 15  1  0  0  0
 14 19  1  0  0  0
 15 16  2  0  0  0
 16 17  1  0  0  0
 16 46  1  0  0  0
 17 18  1  0  0  0
 19 20  2  0  0  0
 19 21  1  0  0  0
 21 22  1  0  0  0
 21 47  1  0  0  0
 22 27  2  0  0  0
 22 23  1  0  0  0
 23 24  2  0  0  0
 23 48  1  0  0  0
 24 25  1  0  0  0
 24 49  1  0  0  0
 25 26  2  0  0  0
 25 28  1  0  0  0
 26 27  1  0  0  0
 26 50  1  0  0  0
 27 51  1  0  0  0
 28 52  1  0  0  0
 28 53  1  0  0  0
 28 54  1  0  0  0
 29 30  1  0  0  0
 30 35  2  0  0  0
 30 31  1  0  0  0
 31 32  2  0  0  0
 31 55  1  0  0  0
 32 33  1  0  0  0
 32 56  1  0  0  0
 33 34  2  0  0  0
 33 57  1  0  0  0
 34 35  1  0  0  0
 34 58  1  0  0  0
 35 59  1  0  0  0
 36 60  1  0  0  0
M  END
> <i_i_glide_confnum>
5

> <i_i_glide_lignum>
3540

> <i_i_glide_posenum>
253

> <i_i_glide_rotatable_bonds>
7

> <i_m_Source_File_Index>
6060

> <b_m_subgroup_collapsed>
0

> <r_i_docking_score>
-5.57495

> <r_i_glide_ecoul>
-5.98844

> <r_i_glide_eff_state_penalty>
0

> <r_i_glide_einternal>
7.69604

> <r_i_glide_emodel>
-57.5507

> <r_i_glide_energy>
-45.7168

> <r_i_glide_erotb>
0.520882

> <r_i_glide_esite>
-0.30855

> <r_i_glide_evdw>
-39.7284

> <r_i_glide_gscore>
-5.57495

> <r_i_glide_hbond>
-0.161246

> <r_i_glide_ligand_efficiency>
-0.159284

> <r_i_glide_ligand_efficiency_ln>
-1.22382

> <r_i_glide_ligand_efficiency_sa>
-0.521029

> <r_i_glide_lipo>
-2.35096

> <r_i_glide_metal>
0

> <r_i_glide_rewards>
-0.390389

> <s_i_glide_gridfile>
wee1_glide-grid

> <s_m_Source_File>
wee1_decoys_glide_SP.sdf

> <s_m_Source_Path>
/Users/zhangxujun/Desktop

> <s_m_entry_id>
6335

> <s_m_entry_name>
wee1_decoys_glide_SP.6060

> <s_m_subgroup_title>
wee1_decoys_glide_SP

> <s_m_subgroupid>
wee1_decoys_glide_SP


$$$$
