ZINC63351175_3192
                    3D
 Schrodinger Suite 2024-2.
 65 70  0  0  1  0            999 V2000
   -2.2662   52.7641   24.5258 C   0  0  0  0  0  0
   -1.1893   51.6956   24.2700 C   0  0  2  0  0  0
   -1.0502   51.1432   25.2026 H   0  0  0  0  0  0
    0.1521   52.3296   23.8945 C   0  0  0  0  0  0
    1.0662   52.7832   24.8602 C   0  0  0  0  0  0
    2.3103   53.2945   24.4482 C   0  0  0  0  0  0
    2.6080   53.3185   23.0655 C   0  0  0  0  0  0
    1.7182   52.8749   22.0848 C   0  0  0  0  0  0
    0.4874   52.3979   22.5287 C   0  0  0  0  0  0
   -0.4079   52.0758   21.5275 O   0  0  0  0  0  0
   -1.4620   51.2380   21.7492 C   0  0  0  0  0  0
   -2.2302   51.0560   20.8056 O   0  0  0  0  0  0
   -1.6196   50.6684   23.1797 C   0  0  1  0  0  0
   -2.6936   50.5008   23.2546 H   0  0  0  0  0  0
   -0.8845   49.2922   23.3007 C   0  0  0  0  0  0
   -1.4987   48.2644   24.2709 C   0  0  0  0  0  0
   -0.8959   47.2119   24.4802 O   0  0  0  0  0  0
   -2.7085   48.5283   24.8065 N   0  0  0  0  0  0
   -3.5626   47.5976   25.5724 C   0  0  1  0  0  0
   -2.9808   47.1833   26.4004 H   0  0  0  0  0  0
   -4.8182   48.3152   26.1381 C   0  0  0  0  0  0
   -4.5211   49.1475   27.3805 C   0  0  0  0  0  0
   -5.0112   49.0462   28.6323 C   0  0  0  0  0  0
   -5.9636   48.0892   29.2161 C   0  0  0  0  0  0
   -6.3180   48.1754   30.5144 C   0  0  0  0  0  0
   -5.7201   49.2329   31.3172 C   0  0  0  0  0  0
   -4.8345   50.1201   30.7957 C   0  0  0  0  0  0
   -4.4756   50.0481   29.4434 C   0  0  0  0  0  0
   -3.6481   50.7983   28.7590 N   0  3  0  0  0  0
   -3.5896   50.3432   27.3603 C   0  0  0  0  0  0
   -4.0245   46.3903   24.6817 C   0  0  0  0  0  0
   -4.3107   46.6647   23.4932 O   0  0  0  0  0  0
   -4.0956   45.2966   25.2824 O   0  5  0  0  0  0
    3.8591   53.8110   22.8362 O   0  0  0  0  0  0
    4.3760   54.0906   24.0629 C   0  0  0  0  0  0
    3.4777   53.8168   25.0924 C   0  0  0  0  0  0
    3.8159   54.0430   26.5615 C   0  0  0  0  0  0
    5.3506   54.2133   26.7222 C   0  0  0  0  0  0
    5.9827   55.1147   25.6383 C   0  0  0  0  0  0
    5.8109   54.5510   24.2081 C   0  0  0  0  0  0
   -3.2541   52.3190   24.6400 H   0  0  0  0  0  0
   -2.0526   53.2961   25.4504 H   0  0  0  0  0  0
   -2.3260   53.4918   23.7156 H   0  0  0  0  0  0
    0.8217   52.7231   25.9109 H   0  0  0  0  0  0
    1.9689   52.8974   21.0350 H   0  0  0  0  0  0
   -0.8578   48.7794   22.3366 H   0  0  0  0  0  0
    0.1585   49.4425   23.5826 H   0  0  0  0  0  0
   -3.1420   49.4079   24.5823 H   0  0  0  0  0  0
   -5.2778   48.9514   25.3794 H   0  0  0  0  0  0
   -5.5800   47.5864   26.4128 H   0  0  0  0  0  0
   -6.4025   47.2970   28.6263 H   0  0  0  0  0  0
   -7.0178   47.4796   30.9517 H   0  0  0  0  0  0
   -5.9683   49.3015   32.3676 H   0  0  0  0  0  0
   -4.4005   50.8625   31.4486 H   0  0  0  0  0  0
   -2.5517   50.0976   27.1342 H   0  0  0  0  0  0
   -3.9304   51.1558   26.7208 H   0  0  0  0  0  0
    3.2998   54.9277   26.9320 H   0  0  0  0  0  0
    3.4760   53.2068   27.1743 H   0  0  0  0  0  0
    5.5732   54.6134   27.7120 H   0  0  0  0  0  0
    5.8267   53.2304   26.6863 H   0  0  0  0  0  0
    5.5149   56.0990   25.6816 H   0  0  0  0  0  0
    7.0428   55.2718   25.8472 H   0  0  0  0  0  0
    6.4935   53.7135   24.0521 H   0  0  0  0  0  0
    6.0627   55.3128   23.4723 H   0  0  0  0  0  0
   -3.1002   51.5650   29.1355 H   0  0  0  0  0  0
  1  2  1  0  0  0
  1 41  1  0  0  0
  1 42  1  0  0  0
  1 43  1  0  0  0
  2  3  1  0  0  0
  2 13  1  0  0  0
  2  4  1  0  0  0
  4  9  2  0  0  0
  4  5  1  0  0  0
  5  6  2  0  0  0
  5 44  1  0  0  0
  6 36  1  0  0  0
  6  7  1  0  0  0
  7  8  2  0  0  0
  7 34  1  0  0  0
  8  9  1  0  0  0
  8 45  1  0  0  0
  9 10  1  0  0  0
 10 11  1  0  0  0
 11 12  2  0  0  0
 11 13  1  0  0  0
 13 14  1  0  0  0
 13 15  1  0  0  0
 15 16  1  0  0  0
 15 46  1  0  0  0
 15 47  1  0  0  0
 16 17  2  0  0  0
 16 18  1  0  0  0
 18 19  1  0  0  0
 18 48  1  0  0  0
 19 20  1  0  0  0
 19 21  1  0  0  0
 19 31  1  0  0  0
 21 22  1  0  0  0
 21 49  1  0  0  0
 21 50  1  0  0  0
 22 30  1  0  0  0
 22 23  2  0  0  0
 23 28  1  0  0  0
 23 24  1  0  0  0
 24 25  2  0  0  0
 24 51  1  0  0  0
 25 26  1  0  0  0
 25 52  1  0  0  0
 26 27  2  0  0  0
 26 53  1  0  0  0
 27 28  1  0  0  0
 27 54  1  0  0  0
 28 29  2  0  0  0
 29 30  1  0  0  0
 29 65  1  0  0  0
 30 55  1  0  0  0
 30 56  1  0  0  0
 31 32  2  0  0  0
 31 33  1  0  0  0
 34 35  1  0  0  0
 35 40  1  0  0  0
 35 36  2  0  0  0
 36 37  1  0  0  0
 37 38  1  0  0  0
 37 57  1  0  0  0
 37 58  1  0  0  0
 38 39  1  0  0  0
 38 59  1  0  0  0
 38 60  1  0  0  0
 39 40  1  0  0  0
 39 61  1  0  0  0
 39 62  1  0  0  0
 40 63  1  0  0  0
 40 64  1  0  0  0
M  CHG  2  29   1  33  -1
M  END
> <i_i_glide_confnum>
10

> <i_i_glide_lignum>
3193

> <i_i_glide_posenum>
156

> <i_i_glide_rotatable_bonds>
7

> <i_m_Source_File_Index>
5680

> <b_m_subgroup_collapsed>
0

> <r_i_docking_score>
-4.9154

> <r_i_glide_ecoul>
-2.97387

> <r_i_glide_eff_state_penalty>
0

> <r_i_glide_einternal>
5.11282

> <r_i_glide_emodel>
-56.428

> <r_i_glide_energy>
-40.9774

> <r_i_glide_erotb>
0.407522

> <r_i_glide_esite>
-0.21416

> <r_i_glide_evdw>
-38.0035

> <r_i_glide_gscore>
-4.9154

> <r_i_glide_hbond>
-0.215946

> <r_i_glide_ligand_efficiency>
-0.132849

> <r_i_glide_ligand_efficiency_ln>
-1.06603

> <r_i_glide_ligand_efficiency_sa>
-0.442681

> <r_i_glide_lipo>
-2.47288

> <r_i_glide_metal>
0

> <r_i_glide_rewards>
-0.0736782

> <s_i_glide_gridfile>
wee1_glide-grid

> <s_m_Source_File>
wee1_decoys_glide_SP.sdf

> <s_m_Source_Path>
/Users/zhangxujun/Desktop

> <s_m_entry_id>
5955

> <s_m_entry_name>
wee1_decoys_glide_SP.5680

> <s_m_subgroup_title>
wee1_decoys_glide_SP

> <s_m_subgroupid>
wee1_decoys_glide_SP


$$$$
