ZINC09281079_4163
                    3D
 Schrodinger Suite 2024-2.
 63 66  0  0  1  0            999 V2000
    2.0308   52.1353   30.3743 C   0  0  0  0  0  0
    0.9073   53.0364   29.8044 C   0  0  0  0  0  0
   -0.4532   52.3972   30.1831 C   0  0  0  0  0  0
    0.9745   54.4168   30.5075 C   0  0  0  0  0  0
    1.0383   53.2292   28.2443 C   0  0  2  0  0  0
    0.3617   54.0445   27.9934 H   0  0  0  0  0  0
    0.6838   51.9722   27.4016 C   0  0  0  0  0  0
    0.5387   52.3040   25.9053 C   0  0  0  0  0  0
    1.7792   53.0663   25.4209 C   0  0  0  0  0  0
    2.6328   53.6966   26.3320 C   0  0  0  0  0  0
    4.0118   54.3909   25.5671 S   0  0  0  0  0  0
    3.4954   53.8116   24.0042 C   0  0  0  0  0  0
    2.2674   53.1161   24.0898 C   0  0  0  0  0  0
    1.5283   52.5703   22.9655 C   0  0  0  0  0  0
    0.2972   52.6015   22.9219 O   0  0  0  0  0  0
    2.2876   52.0001   22.0108 N   0  0  0  0  0  0
    1.7792   51.3670   20.7951 C   0  0  1  0  0  0
    1.2995   52.0921   20.1331 H   0  0  0  0  0  0
    2.9677   50.7504   20.0276 C   0  0  0  0  0  0
    2.4326   49.8676   18.8941 C   0  0  0  0  0  0
    0.9206   49.0459   19.6136 S   0  0  0  0  0  0
    1.2521   47.6968   20.0812 O   0  0  0  0  0  0
   -0.2172   49.2755   18.7199 O   0  0  0  0  0  0
    0.8161   50.1955   21.0864 C   0  0  0  0  0  0
    4.2196   54.0973   22.8440 N   0  0  0  0  0  0
    5.5247   54.4390   22.7485 C   0  0  0  0  0  0
    6.3220   54.4690   23.6879 O   0  0  0  0  0  0
    5.8972   54.8002   21.4045 C   0  0  0  0  0  0
    7.1139   55.2969   21.1002 C   0  0  0  0  0  0
    7.5496   55.7047   19.7844 C   0  0  0  0  0  0
    8.7341   56.2604   19.3223 C   0  0  0  0  0  0
    8.6019   56.4565   17.9465 C   0  0  0  0  0  0
    7.3339   56.0140   17.6197 C   0  0  0  0  0  0
    6.6979   55.5608   18.7296 O   0  0  0  0  0  0
    2.4635   53.7267   27.8422 C   0  0  0  0  0  0
    2.9747   52.6662   30.4854 H   0  0  0  0  0  0
    1.7827   51.7295   31.3564 H   0  0  0  0  0  0
    2.2199   51.2967   29.7059 H   0  0  0  0  0  0
   -1.2888   52.8906   29.6828 H   0  0  0  0  0  0
   -0.4999   51.3352   29.9270 H   0  0  0  0  0  0
   -0.6326   52.4555   31.2580 H   0  0  0  0  0  0
    0.2565   55.1169   30.0841 H   0  0  0  0  0  0
    0.7531   54.3383   31.5753 H   0  0  0  0  0  0
    1.9535   54.8833   30.4145 H   0  0  0  0  0  0
    1.3903   51.1601   27.5825 H   0  0  0  0  0  0
   -0.2760   51.5595   27.7134 H   0  0  0  0  0  0
   -0.3649   52.8908   25.7242 H   0  0  0  0  0  0
    0.4003   51.3772   25.3472 H   0  0  0  0  0  0
    3.2880   51.9821   22.1426 H   0  0  0  0  0  0
    3.5713   50.1426   20.7045 H   0  0  0  0  0  0
    3.6453   51.5166   19.6471 H   0  0  0  0  0  0
    3.1011   49.1113   18.4828 H   0  0  0  0  0  0
    2.1091   50.5063   18.0690 H   0  0  0  0  0  0
   -0.2051   50.4078   21.4067 H   0  0  0  0  0  0
    1.2739   49.6066   21.8818 H   0  0  0  0  0  0
    3.7190   53.9747   21.9771 H   0  0  0  0  0  0
    5.1515   54.6759   20.6313 H   0  0  0  0  0  0
    7.8651   55.4294   21.8711 H   0  0  0  0  0  0
    9.6013   56.4953   19.9198 H   0  0  0  0  0  0
    9.3396   56.8695   17.2762 H   0  0  0  0  0  0
    6.7762   55.9621   16.6954 H   0  0  0  0  0  0
    3.2317   53.0775   28.2588 H   0  0  0  0  0  0
    2.6389   54.7336   28.2201 H   0  0  0  0  0  0
  1  2  1  0  0  0
  1 36  1  0  0  0
  1 37  1  0  0  0
  1 38  1  0  0  0
  2  3  1  0  0  0
  2  4  1  0  0  0
  2  5  1  0  0  0
  3 39  1  0  0  0
  3 40  1  0  0  0
  3 41  1  0  0  0
  4 42  1  0  0  0
  4 43  1  0  0  0
  4 44  1  0  0  0
  5  6  1  0  0  0
  5 35  1  0  0  0
  5  7  1  0  0  0
  7  8  1  0  0  0
  7 45  1  0  0  0
  7 46  1  0  0  0
  8  9  1  0  0  0
  8 47  1  0  0  0
  8 48  1  0  0  0
  9 13  1  0  0  0
  9 10  2  0  0  0
 10 11  1  0  0  0
 10 35  1  0  0  0
 11 12  1  0  0  0
 12 13  2  0  0  0
 12 25  1  0  0  0
 13 14  1  0  0  0
 14 15  2  0  0  0
 14 16  1  0  0  0
 16 17  1  0  0  0
 16 49  1  0  0  0
 17 18  1  0  0  0
 17 24  1  0  0  0
 17 19  1  0  0  0
 19 20  1  0  0  0
 19 50  1  0  0  0
 19 51  1  0  0  0
 20 21  1  0  0  0
 20 52  1  0  0  0
 20 53  1  0  0  0
 21 22  2  0  0  0
 21 23  2  0  0  0
 21 24  1  0  0  0
 24 54  1  0  0  0
 24 55  1  0  0  0
 25 26  1  0  0  0
 25 56  1  0  0  0
 26 27  2  0  0  0
 26 28  1  0  0  0
 28 29  2  0  0  0
 28 57  1  0  0  0
 29 30  1  0  0  0
 29 58  1  0  0  0
 30 34  1  0  0  0
 30 31  2  0  0  0
 31 32  1  0  0  0
 31 59  1  0  0  0
 32 33  2  0  0  0
 32 60  1  0  0  0
 33 34  1  0  0  0
 33 61  1  0  0  0
 35 62  1  0  0  0
 35 63  1  0  0  0
M  END
> <i_i_glide_confnum>
45

> <i_i_glide_lignum>
4164

> <i_i_glide_posenum>
377

> <i_i_glide_rotatable_bonds>
8

> <i_m_Source_File_Index>
5696

> <b_m_subgroup_collapsed>
0

> <r_i_docking_score>
-5.24739

> <r_i_glide_ecoul>
-4.20382

> <r_i_glide_eff_state_penalty>
0

> <r_i_glide_einternal>
5.33793

> <r_i_glide_emodel>
-59.6339

> <r_i_glide_energy>
-46.7274

> <r_i_glide_erotb>
0.507266

> <r_i_glide_esite>
-0.0442243

> <r_i_glide_evdw>
-42.5236

> <r_i_glide_gscore>
-5.24739

> <r_i_glide_hbond>
0

> <r_i_glide_ligand_efficiency>
-0.159012

> <r_i_glide_ligand_efficiency_ln>
-1.16699

> <r_i_glide_ligand_efficiency_sa>
-0.510036

> <r_i_glide_lipo>
-2.47417

> <r_i_glide_metal>
0

> <r_i_glide_rewards>
-0.479506

> <s_i_glide_gridfile>
wee1_glide-grid

> <s_m_Source_File>
wee1_decoys_glide_SP.sdf

> <s_m_Source_Path>
/Users/zhangxujun/Desktop

> <s_m_entry_id>
5971

> <s_m_entry_name>
wee1_decoys_glide_SP.5696

> <s_m_subgroup_title>
wee1_decoys_glide_SP

> <s_m_subgroupid>
wee1_decoys_glide_SP


$$$$
