ZINC20764095_4880
                    3D
 Schrodinger Suite 2024-2.
 59 63  0  0  1  0            999 V2000
    1.5359   47.2311   16.7333 C   0  0  0  0  0  0
    1.0631   47.2233   18.1958 C   0  0  0  0  0  0
    1.6685   48.2626   18.9625 O   0  0  0  0  0  0
    1.4000   49.5927   18.6817 C   0  0  0  0  0  0
    0.2320   50.0268   18.0361 C   0  0  0  0  0  0
    0.0119   51.3832   17.8053 C   0  0  0  0  0  0
    0.9486   52.3252   18.2237 C   0  0  0  0  0  0
    2.1227   51.9223   18.8697 C   0  0  0  0  0  0
    2.3348   50.5533   19.0958 C   0  0  0  0  0  0
    3.5044   50.1494   19.6817 O   0  0  0  0  0  0
    3.1061   52.9887   19.3646 C   0  0  1  0  0  0
    2.7370   53.9601   19.0315 H   0  0  0  0  0  0
    3.3399   52.9778   20.8943 C   0  0  0  0  0  0
    4.5166   53.8582   21.3648 C   0  0  0  0  0  0
    5.3961   54.3071   20.5398 N   0  0  0  0  0  0
    5.3578   54.0740   19.0871 C   0  0  2  0  0  0
    4.8960   54.9465   18.6177 H   0  0  0  0  0  0
    4.4526   52.8967   18.6453 N   0  3  0  0  0  0
    6.7628   54.0009   18.4561 C   0  0  0  0  0  0
    7.7539   54.8970   18.8817 C   0  0  0  0  0  0
    9.0302   54.8715   18.3244 C   0  0  0  0  0  0
    9.3384   53.9483   17.3205 C   0  0  0  0  0  0
    8.3549   53.0586   16.8817 C   0  0  0  0  0  0
    7.0798   53.0881   17.4378 C   0  0  0  0  0  0
   10.7338   53.8991   16.6982 C   0  0  0  0  0  0
   11.6483   54.4960   17.4634 F   0  0  0  0  0  0
   11.1202   52.6379   16.5002 F   0  0  0  0  0  0
   10.7023   54.5237   15.5213 F   0  0  0  0  0  0
    4.6528   54.0967   22.8284 C   0  0  0  0  0  0
    3.5176   54.0968   23.6781 C   0  0  0  0  0  0
    3.6327   54.2839   25.0609 C   0  0  0  0  0  0
    4.9034   54.4725   25.5808 C   0  0  0  0  0  0
    6.0108   54.4967   24.7835 C   0  0  0  0  0  0
    5.9270   54.3173   23.4041 C   0  0  0  0  0  0
    7.1044   54.7286   25.5588 O   0  0  0  0  0  0
    6.6630   54.5554   26.8810 C   0  0  0  0  0  0
    5.2683   54.6731   26.8735 O   0  0  0  0  0  0
    1.1412   46.3741   16.1879 H   0  0  0  0  0  0
    2.6251   47.1886   16.6817 H   0  0  0  0  0  0
    1.2228   48.1326   16.2078 H   0  0  0  0  0  0
   -0.0245   47.2567   18.2666 H   0  0  0  0  0  0
    1.3571   46.2791   18.6551 H   0  0  0  0  0  0
   -0.5181   49.3235   17.7108 H   0  0  0  0  0  0
   -0.8906   51.7049   17.3065 H   0  0  0  0  0  0
    0.7509   53.3738   18.0497 H   0  0  0  0  0  0
    4.1979   50.0967   18.9877 H   0  0  0  0  0  0
    2.4083   53.2925   21.3570 H   0  0  0  0  0  0
    3.5152   51.9782   21.2866 H   0  0  0  0  0  0
    4.8867   51.9894   18.8056 H   0  0  0  0  0  0
    7.5386   55.6201   19.6549 H   0  0  0  0  0  0
    9.7771   55.5679   18.6807 H   0  0  0  0  0  0
    8.5770   52.3396   16.1055 H   0  0  0  0  0  0
    6.3572   52.3793   17.0623 H   0  0  0  0  0  0
    2.5174   53.9624   23.2995 H   0  0  0  0  0  0
    2.7588   54.2752   25.6949 H   0  0  0  0  0  0
    6.8235   54.3373   22.8000 H   0  0  0  0  0  0
    7.1038   55.2884   27.5583 H   0  0  0  0  0  0
    6.9390   53.5567   27.2292 H   0  0  0  0  0  0
    4.2895   52.9389   17.6505 H   0  0  0  0  0  0
  1  2  1  0  0  0
  1 38  1  0  0  0
  1 39  1  0  0  0
  1 40  1  0  0  0
  2  3  1  0  0  0
  2 41  1  0  0  0
  2 42  1  0  0  0
  3  4  1  0  0  0
  4  9  2  0  0  0
  4  5  1  0  0  0
  5  6  2  0  0  0
  5 43  1  0  0  0
  6  7  1  0  0  0
  6 44  1  0  0  0
  7  8  2  0  0  0
  7 45  1  0  0  0
  8  9  1  0  0  0
  8 11  1  0  0  0
  9 10  1  0  0  0
 10 46  1  0  0  0
 11 12  1  0  0  0
 11 18  1  0  0  0
 11 13  1  0  0  0
 13 14  1  0  0  0
 13 47  1  0  0  0
 13 48  1  0  0  0
 14 15  2  0  0  0
 14 29  1  0  0  0
 15 16  1  0  0  0
 16 17  1  0  0  0
 16 18  1  0  0  0
 16 19  1  0  0  0
 18 49  1  0  0  0
 18 59  1  0  0  0
 19 24  2  0  0  0
 19 20  1  0  0  0
 20 21  2  0  0  0
 20 50  1  0  0  0
 21 22  1  0  0  0
 21 51  1  0  0  0
 22 23  2  0  0  0
 22 25  1  0  0  0
 23 24  1  0  0  0
 23 52  1  0  0  0
 24 53  1  0  0  0
 25 26  1  0  0  0
 25 27  1  0  0  0
 25 28  1  0  0  0
 29 34  2  0  0  0
 29 30  1  0  0  0
 30 31  2  0  0  0
 30 54  1  0  0  0
 31 32  1  0  0  0
 31 55  1  0  0  0
 32 37  1  0  0  0
 32 33  2  0  0  0
 33 34  1  0  0  0
 33 35  1  0  0  0
 34 56  1  0  0  0
 35 36  1  0  0  0
 36 37  1  0  0  0
 36 57  1  0  0  0
 36 58  1  0  0  0
M  CHG  1  18   1
M  END
> <i_i_glide_confnum>
10

> <i_i_glide_lignum>
4881

> <i_i_glide_posenum>
350

> <i_i_glide_rotatable_bonds>
7

> <i_m_Source_File_Index>
4563

> <b_m_subgroup_collapsed>
0

> <r_i_docking_score>
-6.939

> <r_i_glide_ecoul>
-12.687

> <r_i_glide_eff_state_penalty>
0

> <r_i_glide_einternal>
11.0275

> <r_i_glide_emodel>
-64.6637

> <r_i_glide_energy>
-46.2934

> <r_i_glide_erotb>
0.344787

> <r_i_glide_esite>
-0.127322

> <r_i_glide_evdw>
-33.6064

> <r_i_glide_gscore>
-6.939

> <r_i_glide_hbond>
-0.495343

> <r_i_glide_ligand_efficiency>
-0.198257

> <r_i_glide_ligand_efficiency_ln>
-1.52327

> <r_i_glide_ligand_efficiency_sa>
-0.648513

> <r_i_glide_lipo>
-2.03854

> <r_i_glide_metal>
0

> <r_i_glide_rewards>
-1.03922

> <s_i_glide_gridfile>
wee1_glide-grid

> <s_m_Source_File>
wee1_decoys_glide_SP.sdf

> <s_m_Source_Path>
/Users/zhangxujun/Desktop

> <s_m_entry_id>
4838

> <s_m_entry_name>
wee1_decoys_glide_SP.4563

> <s_m_subgroup_title>
wee1_decoys_glide_SP

> <s_m_subgroupid>
wee1_decoys_glide_SP


$$$$
