ZINC12314710_208
                    3D
 Schrodinger Suite 2024-2.
 61 64  0  0  1  0            999 V2000
    5.8205   54.3563   28.2095 C   0  0  0  0  0  0
    4.4260   53.8768   27.8231 C   0  0  0  0  0  0
    3.5362   53.5221   28.8460 C   0  0  0  0  0  0
    2.2452   53.0590   28.5751 C   0  0  0  0  0  0
    1.8397   52.9335   27.2385 C   0  0  0  0  0  0
    0.6518   52.4956   26.5611 C   0  0  0  0  0  0
    0.9472   52.6102   25.1973 C   0  0  0  0  0  0
    2.2023   53.1106   24.9876 O   0  0  0  0  0  0
    2.7496   53.3042   26.2227 C   0  0  0  0  0  0
    4.0440   53.7873   26.4719 C   0  0  0  0  0  0
    5.0021   54.1812   25.3544 C   0  0  0  0  0  0
    0.1079   52.3993   24.0393 C   0  0  0  0  0  0
   -1.0114   52.9164   24.0137 O   0  0  0  0  0  0
    0.6117   51.6589   23.0105 N   0  0  0  0  0  0
    1.8118   50.8059   23.1196 C   0  0  0  0  0  0
    2.7576   51.2300   21.9780 C   0  0  0  0  0  0
    2.1419   51.1081   20.5409 C   0  0  0  0  0  0
    0.7558   51.8433   20.5773 C   0  0  0  0  0  0
   -0.1722   51.4892   21.7721 C   0  0  0  0  0  0
    1.9537   49.5813   20.2125 C   0  0  0  0  0  0
    1.1322   48.8952   20.8115 O   0  0  0  0  0  0
    2.7033   48.9957   19.2786 N   0  0  0  0  0  0
    3.8422   53.0617   19.9278 C   0  0  0  0  0  0
    4.8053   53.5449   18.8299 C   0  0  0  0  0  0
    4.1119   53.7656   17.4811 C   0  0  0  0  0  0
    3.3428   52.5106   17.0520 C   0  0  0  0  0  0
    2.3503   52.0638   18.1269 C   0  0  0  0  0  0
   -0.6393   52.0320   27.2046 C   0  0  0  0  0  0
    6.0536   55.2976   27.7106 H   0  0  0  0  0  0
    5.9124   54.5298   29.2816 H   0  0  0  0  0  0
    6.5696   53.6244   27.9111 H   0  0  0  0  0  0
    3.8588   53.5996   29.8740 H   0  0  0  0  0  0
    1.5763   52.7894   29.3827 H   0  0  0  0  0  0
    4.6315   53.8743   24.3761 H   0  0  0  0  0  0
    5.1492   55.2599   25.3452 H   0  0  0  0  0  0
    5.9762   53.7121   25.4969 H   0  0  0  0  0  0
    2.3044   50.8623   24.0822 H   0  0  0  0  0  0
    1.5064   49.7645   23.0153 H   0  0  0  0  0  0
    3.0308   52.2552   22.2283 H   0  0  0  0  0  0
    3.6510   50.6151   22.0596 H   0  0  0  0  0  0
    0.1778   51.5945   19.6857 H   0  0  0  0  0  0
    0.9032   52.9235   20.5599 H   0  0  0  0  0  0
   -0.5033   50.4515   21.7183 H   0  0  0  0  0  0
   -1.0566   52.1256   21.7370 H   0  0  0  0  0  0
    3.3421   49.4969   18.6683 H   0  0  0  0  0  0
    2.5740   48.0139   19.1046 H   0  0  0  0  0  0
    3.1049   53.8077   20.2240 H   0  0  0  0  0  0
    4.4629   52.7948   20.7776 H   0  0  0  0  0  0
    5.2860   54.4680   19.1551 H   0  0  0  0  0  0
    5.6087   52.8137   18.7148 H   0  0  0  0  0  0
    4.8500   54.0305   16.7231 H   0  0  0  0  0  0
    3.4243   54.6098   17.5517 H   0  0  0  0  0  0
    4.0348   51.6983   16.8337 H   0  0  0  0  0  0
    2.8122   52.6981   16.1165 H   0  0  0  0  0  0
    1.8750   51.1372   17.8083 H   0  0  0  0  0  0
    1.5924   52.8261   18.3057 H   0  0  0  0  0  0
   -1.1234   51.2436   26.6258 H   0  0  0  0  0  0
   -0.4837   51.6341   28.2076 H   0  0  0  0  0  0
   -1.3488   52.8562   27.2823 H   0  0  0  0  0  0
    3.1017   51.7768   19.4657 N   0  3  0  0  0  0
    3.8290   51.1051   19.2474 H   0  0  0  0  0  0
  1  2  1  0  0  0
  1 29  1  0  0  0
  1 30  1  0  0  0
  1 31  1  0  0  0
  2 10  2  0  0  0
  2  3  1  0  0  0
  3  4  2  0  0  0
  3 32  1  0  0  0
  4  5  1  0  0  0
  4 33  1  0  0  0
  5  9  2  0  0  0
  5  6  1  0  0  0
  6  7  2  0  0  0
  6 28  1  0  0  0
  7  8  1  0  0  0
  7 12  1  0  0  0
  8  9  1  0  0  0
  9 10  1  0  0  0
 10 11  1  0  0  0
 11 34  1  0  0  0
 11 35  1  0  0  0
 11 36  1  0  0  0
 12 13  2  0  0  0
 12 14  1  0  0  0
 14 19  1  0  0  0
 14 15  1  0  0  0
 15 16  1  0  0  0
 15 37  1  0  0  0
 15 38  1  0  0  0
 16 17  1  0  0  0
 16 39  1  0  0  0
 16 40  1  0  0  0
 17 18  1  0  0  0
 17 20  1  0  0  0
 17 60  1  0  0  0
 18 19  1  0  0  0
 18 41  1  0  0  0
 18 42  1  0  0  0
 19 43  1  0  0  0
 19 44  1  0  0  0
 20 21  2  0  0  0
 20 22  1  0  0  0
 22 45  1  0  0  0
 22 46  1  0  0  0
 23 24  1  0  0  0
 23 47  1  0  0  0
 23 48  1  0  0  0
 23 60  1  0  0  0
 24 25  1  0  0  0
 24 49  1  0  0  0
 24 50  1  0  0  0
 25 26  1  0  0  0
 25 51  1  0  0  0
 25 52  1  0  0  0
 26 27  1  0  0  0
 26 53  1  0  0  0
 26 54  1  0  0  0
 27 55  1  0  0  0
 27 56  1  0  0  0
 27 60  1  0  0  0
 28 57  1  0  0  0
 28 58  1  0  0  0
 28 59  1  0  0  0
 60 61  1  0  0  0
M  CHG  1  60   1
M  END
> <i_i_glide_confnum>
36

> <i_i_glide_lignum>
209

> <i_i_glide_posenum>
387

> <i_i_glide_rotatable_bonds>
4

> <i_m_Source_File_Index>
6087

> <b_m_subgroup_collapsed>
0

> <r_i_docking_score>
-5.4184

> <r_i_glide_ecoul>
-4.45276

> <r_i_glide_eff_state_penalty>
0

> <r_i_glide_einternal>
9.017

> <r_i_glide_emodel>
-48.9221

> <r_i_glide_energy>
-37.3903

> <r_i_glide_erotb>
0.369962

> <r_i_glide_esite>
-0.177114

> <r_i_glide_evdw>
-32.9376

> <r_i_glide_gscore>
-5.4184

> <r_i_glide_hbond>
-0.341616

> <r_i_glide_ligand_efficiency>
-0.186841

> <r_i_glide_ligand_efficiency_ln>
-1.24068

> <r_i_glide_ligand_efficiency_sa>
-0.574036

> <r_i_glide_lipo>
-2.03289

> <r_i_glide_metal>
0

> <r_i_glide_rewards>
-0.921943

> <s_i_glide_gridfile>
wee1_glide-grid

> <s_m_Source_File>
wee1_decoys_glide_SP.sdf

> <s_m_Source_Path>
/Users/zhangxujun/Desktop

> <s_m_entry_id>
6362

> <s_m_entry_name>
wee1_decoys_glide_SP.6087

> <s_m_subgroup_title>
wee1_decoys_glide_SP

> <s_m_subgroupid>
wee1_decoys_glide_SP


$$$$
