ZINC33009449_4541
                    3D
 Schrodinger Suite 2024-2.
 54 57  0  0  1  0            999 V2000
    4.0095   53.9965   28.9418 C   0  0  0  0  0  0
    3.3524   53.6619   27.7634 C   0  0  0  0  0  0
    3.9616   53.9206   26.5394 C   0  0  0  0  0  0
    5.2452   54.4964   26.4867 C   0  0  0  0  0  0
    5.8949   54.8126   27.6817 C   0  0  0  0  0  0
    5.2713   54.5793   28.9000 C   0  0  0  0  0  0
    5.9120   54.8329   25.1752 C   0  0  0  0  0  0
    6.7879   55.6966   25.1196 O   0  0  0  0  0  0
    5.4569   54.1242   24.1280 N   0  0  0  0  0  0
    5.6380   54.3189   22.7556 C   0  0  0  0  0  0
    6.5772   55.1669   22.1619 C   0  0  0  0  0  0
    6.6053   55.2966   20.7745 C   0  0  0  0  0  0
    5.7500   54.5505   19.9384 C   0  0  0  0  0  0
    4.7983   53.6934   20.5558 C   0  0  0  0  0  0
    4.7574   53.6078   21.9533 C   0  0  0  0  0  0
    3.8969   52.9195   19.7880 N   0  0  0  0  0  0
    3.3635   51.7128   20.0810 C   0  0  0  0  0  0
    3.5865   51.0802   21.1140 O   0  0  0  0  0  0
    2.5664   51.2992   19.0761 N   0  0  0  0  0  0
    1.9157   50.0622   18.8956 C   0  0  0  0  0  0
    2.0711   48.9492   19.7379 C   0  0  0  0  0  0
    1.4253   47.7541   19.4403 C   0  0  0  0  0  0
    0.6206   47.6612   18.3099 C   0  0  0  0  0  0
    0.4532   48.7599   17.4712 C   0  0  0  0  0  0
    1.1017   49.9578   17.7639 C   0  0  0  0  0  0
   -0.2426   46.0135   17.9081 Br  0  0  0  0  0  0
    5.8880   54.7035   18.5388 N   0  0  0  0  0  0
    5.3886   53.8174   17.4792 C   0  0  0  0  0  0
    6.1447   54.1382   16.1925 C   0  0  0  0  0  0
    6.4812   55.6010   16.3691 C   0  0  0  0  0  0
    6.7550   55.6785   17.8657 C   0  0  0  0  0  0
    3.5316   53.8149   29.8919 H   0  0  0  0  0  0
    2.3686   53.2171   27.7969 H   0  0  0  0  0  0
    3.4109   53.6759   25.6427 H   0  0  0  0  0  0
    6.8711   55.2770   27.6813 H   0  0  0  0  0  0
    5.7671   54.8965   29.8061 H   0  0  0  0  0  0
    4.7899   53.4061   24.3623 H   0  0  0  0  0  0
    7.2855   55.7294   22.7513 H   0  0  0  0  0  0
    7.3465   55.9581   20.3534 H   0  0  0  0  0  0
    4.0115   52.9939   22.4353 H   0  0  0  0  0  0
    3.8214   53.2094   18.8256 H   0  0  0  0  0  0
    2.4509   51.9407   18.3083 H   0  0  0  0  0  0
    2.7050   48.9690   20.6093 H   0  0  0  0  0  0
    1.5608   46.8975   20.0805 H   0  0  0  0  0  0
   -0.1663   48.6804   16.5904 H   0  0  0  0  0  0
    0.9813   50.7967   17.0941 H   0  0  0  0  0  0
    5.6201   52.7827   17.7397 H   0  0  0  0  0  0
    4.3160   53.9375   17.3196 H   0  0  0  0  0  0
    7.0408   53.5201   16.1091 H   0  0  0  0  0  0
    5.5404   53.9560   15.3034 H   0  0  0  0  0  0
    5.6505   56.2537   16.0924 H   0  0  0  0  0  0
    7.3452   55.9036   15.7761 H   0  0  0  0  0  0
    6.5157   56.6776   18.2328 H   0  0  0  0  0  0
    7.8058   55.4827   18.0857 H   0  0  0  0  0  0
  1  6  2  0  0  0
  1  2  1  0  0  0
  1 32  1  0  0  0
  2  3  2  0  0  0
  2 33  1  0  0  0
  3  4  1  0  0  0
  3 34  1  0  0  0
  4  5  2  0  0  0
  4  7  1  0  0  0
  5  6  1  0  0  0
  5 35  1  0  0  0
  6 36  1  0  0  0
  7  8  2  0  0  0
  7  9  1  0  0  0
  9 10  1  0  0  0
  9 37  1  0  0  0
 10 15  2  0  0  0
 10 11  1  0  0  0
 11 12  2  0  0  0
 11 38  1  0  0  0
 12 13  1  0  0  0
 12 39  1  0  0  0
 13 14  2  0  0  0
 13 27  1  0  0  0
 14 15  1  0  0  0
 14 16  1  0  0  0
 15 40  1  0  0  0
 16 17  1  0  0  0
 16 41  1  0  0  0
 17 18  2  0  0  0
 17 19  1  0  0  0
 19 20  1  0  0  0
 19 42  1  0  0  0
 20 25  2  0  0  0
 20 21  1  0  0  0
 21 22  2  0  0  0
 21 43  1  0  0  0
 22 23  1  0  0  0
 22 44  1  0  0  0
 23 24  2  0  0  0
 23 26  1  0  0  0
 24 25  1  0  0  0
 24 45  1  0  0  0
 25 46  1  0  0  0
 27 31  1  0  0  0
 27 28  1  0  0  0
 28 29  1  0  0  0
 28 47  1  0  0  0
 28 48  1  0  0  0
 29 30  1  0  0  0
 29 49  1  0  0  0
 29 50  1  0  0  0
 30 31  1  0  0  0
 30 51  1  0  0  0
 30 52  1  0  0  0
 31 53  1  0  0  0
 31 54  1  0  0  0
M  END
> <i_i_glide_confnum>
182

> <i_i_glide_lignum>
4542

> <i_i_glide_posenum>
303

> <i_i_glide_rotatable_bonds>
8

> <i_m_Source_File_Index>
4748

> <b_m_subgroup_collapsed>
0

> <r_i_docking_score>
-5.23838

> <r_i_glide_ecoul>
-3.32531

> <r_i_glide_eff_state_penalty>
0

> <r_i_glide_einternal>
8.83985

> <r_i_glide_emodel>
-58.2403

> <r_i_glide_energy>
-46.321

> <r_i_glide_erotb>
0.617503

> <r_i_glide_esite>
-0.139175

> <r_i_glide_evdw>
-42.9957

> <r_i_glide_gscore>
-5.23838

> <r_i_glide_hbond>
-0.256776

> <r_i_glide_ligand_efficiency>
-0.16898

> <r_i_glide_ligand_efficiency_ln>
-1.18142

> <r_i_glide_ligand_efficiency_sa>
-0.530831

> <r_i_glide_lipo>
-2.16448

> <r_i_glide_metal>
0

> <r_i_glide_rewards>
-0.646874

> <s_i_glide_gridfile>
wee1_glide-grid

> <s_m_Source_File>
wee1_decoys_glide_SP.sdf

> <s_m_Source_Path>
/Users/zhangxujun/Desktop

> <s_m_entry_id>
5023

> <s_m_entry_name>
wee1_decoys_glide_SP.4748

> <s_m_subgroup_title>
wee1_decoys_glide_SP

> <s_m_subgroupid>
wee1_decoys_glide_SP


$$$$
