ZINC22364938_4029
                    3D
 Schrodinger Suite 2024-2.
 61 63  0  0  1  0            999 V2000
   11.0925   53.8065   17.3223 C   0  0  0  0  0  0
    9.5718   53.7448   17.2820 C   0  0  0  0  0  0
    8.8265   54.7863   17.8461 C   0  0  0  0  0  0
    7.4279   54.7484   17.8536 C   0  0  0  0  0  0
    6.7777   53.6525   17.2708 C   0  0  0  0  0  0
    7.5110   52.6106   16.7083 C   0  0  0  0  0  0
    8.9037   52.6462   16.7196 C   0  0  0  0  0  0
    9.8585   51.1717   15.9760 Br  0  0  0  0  0  0
    6.7059   55.7598   18.5180 N   0  0  0  0  0  0
    5.6720   55.3970   19.4665 C   0  0  0  0  0  0
    6.2137   55.5002   20.9080 C   0  0  0  0  0  0
    7.2624   56.0972   21.1611 O   0  0  0  0  0  0
    5.5052   54.8912   21.8764 N   0  0  0  0  0  0
    5.9975   54.7492   23.2565 C   0  0  2  0  0  0
    6.4351   55.7082   23.5495 H   0  0  0  0  0  0
    7.1051   53.6856   23.3004 C   0  0  0  0  0  0
    4.9383   54.4746   24.3319 C   0  0  0  0  0  0
    3.6388   54.0524   24.0282 C   0  0  0  0  0  0
    2.7494   53.7310   25.0540 C   0  0  0  0  0  0
    3.1288   53.8593   26.3987 C   0  0  0  0  0  0
    4.4103   54.3365   26.6904 C   0  0  0  0  0  0
    5.3044   54.6391   25.6711 C   0  0  0  0  0  0
    2.2934   53.4905   27.4498 N   0  0  0  0  0  0
    1.1734   52.5497   27.2526 C   0  0  0  0  0  0
    0.7499   51.8464   28.5608 C   0  0  0  0  0  0
    0.4166   52.8481   29.6740 C   0  0  0  0  0  0
    1.5592   53.8587   29.8216 C   0  0  0  0  0  0
    1.9454   54.4974   28.4702 C   0  0  0  0  0  0
    6.8285   57.4721   17.9979 S   0  0  0  0  0  0
    6.7063   58.2973   19.2060 O   0  0  0  0  0  0
    7.9872   57.6022   17.1072 O   0  0  0  0  0  0
    5.2636   57.7095   16.9823 C   0  0  0  0  0  0
   11.4543   54.5823   17.9972 H   0  0  0  0  0  0
   11.4928   53.9809   16.3221 H   0  0  0  0  0  0
   11.5030   52.8622   17.6808 H   0  0  0  0  0  0
    9.3385   55.6185   18.3096 H   0  0  0  0  0  0
    5.6996   53.5870   17.2642 H   0  0  0  0  0  0
    6.9937   51.7613   16.2831 H   0  0  0  0  0  0
    4.7621   55.9875   19.3757 H   0  0  0  0  0  0
    5.3701   54.3522   19.3872 H   0  0  0  0  0  0
    4.6548   54.4040   21.6364 H   0  0  0  0  0  0
    7.4789   53.5034   24.3082 H   0  0  0  0  0  0
    6.7443   52.7455   22.8820 H   0  0  0  0  0  0
    7.9496   54.0037   22.6972 H   0  0  0  0  0  0
    3.3190   53.9288   23.0048 H   0  0  0  0  0  0
    1.7652   53.3737   24.7927 H   0  0  0  0  0  0
    4.7357   54.4363   27.7159 H   0  0  0  0  0  0
    6.2970   54.9763   25.9309 H   0  0  0  0  0  0
    0.3283   53.0688   26.7991 H   0  0  0  0  0  0
    1.4878   51.7760   26.5505 H   0  0  0  0  0  0
   -0.1219   51.2203   28.3680 H   0  0  0  0  0  0
    1.5279   51.1483   28.8735 H   0  0  0  0  0  0
    0.2332   52.3282   30.6165 H   0  0  0  0  0  0
   -0.5033   53.3776   29.4253 H   0  0  0  0  0  0
    2.4367   53.3926   30.2716 H   0  0  0  0  0  0
    1.2541   54.6439   30.5145 H   0  0  0  0  0  0
    2.7910   55.1637   28.6455 H   0  0  0  0  0  0
    1.1342   55.1231   28.0914 H   0  0  0  0  0  0
    5.2530   58.7352   16.6097 H   0  0  0  0  0  0
    5.2732   57.0053   16.1518 H   0  0  0  0  0  0
    4.3954   57.5416   17.6170 H   0  0  0  0  0  0
  1  2  1  0  0  0
  1 33  1  0  0  0
  1 34  1  0  0  0
  1 35  1  0  0  0
  2  7  2  0  0  0
  2  3  1  0  0  0
  3  4  2  0  0  0
  3 36  1  0  0  0
  4  5  1  0  0  0
  4  9  1  0  0  0
  5  6  2  0  0  0
  5 37  1  0  0  0
  6  7  1  0  0  0
  6 38  1  0  0  0
  7  8  1  0  0  0
  9 10  1  0  0  0
  9 29  1  0  0  0
 10 11  1  0  0  0
 10 39  1  0  0  0
 10 40  1  0  0  0
 11 12  2  0  0  0
 11 13  1  0  0  0
 13 14  1  0  0  0
 13 41  1  0  0  0
 14 15  1  0  0  0
 14 16  1  0  0  0
 14 17  1  0  0  0
 16 42  1  0  0  0
 16 43  1  0  0  0
 16 44  1  0  0  0
 17 22  2  0  0  0
 17 18  1  0  0  0
 18 19  2  0  0  0
 18 45  1  0  0  0
 19 20  1  0  0  0
 19 46  1  0  0  0
 20 21  2  0  0  0
 20 23  1  0  0  0
 21 22  1  0  0  0
 21 47  1  0  0  0
 22 48  1  0  0  0
 23 28  1  0  0  0
 23 24  1  0  0  0
 24 25  1  0  0  0
 24 49  1  0  0  0
 24 50  1  0  0  0
 25 26  1  0  0  0
 25 51  1  0  0  0
 25 52  1  0  0  0
 26 27  1  0  0  0
 26 53  1  0  0  0
 26 54  1  0  0  0
 27 28  1  0  0  0
 27 55  1  0  0  0
 27 56  1  0  0  0
 28 57  1  0  0  0
 28 58  1  0  0  0
 29 30  2  0  0  0
 29 31  2  0  0  0
 29 32  1  0  0  0
 32 59  1  0  0  0
 32 60  1  0  0  0
 32 61  1  0  0  0
M  END
> <i_i_glide_confnum>
42

> <i_i_glide_lignum>
4030

> <i_i_glide_posenum>
146

> <i_i_glide_rotatable_bonds>
8

> <i_m_Source_File_Index>
98

> <b_m_subgroup_collapsed>
0

> <r_i_docking_score>
-5.61541

> <r_i_glide_ecoul>
-3.77227

> <r_i_glide_eff_state_penalty>
0

> <r_i_glide_einternal>
6.34677

> <r_i_glide_emodel>
-58.2244

> <r_i_glide_energy>
-46.965

> <r_i_glide_erotb>
0.554314

> <r_i_glide_esite>
-0.0819113

> <r_i_glide_evdw>
-43.1928

> <r_i_glide_gscore>
-5.61541

> <r_i_glide_hbond>
-0.0959986

> <r_i_glide_ligand_efficiency>
-0.181142

> <r_i_glide_ligand_efficiency_ln>
-1.26645

> <r_i_glide_ligand_efficiency_sa>
-0.569037

> <r_i_glide_lipo>
-3.04071

> <r_i_glide_metal>
0

> <r_i_glide_rewards>
-0.22562

> <s_i_glide_gridfile>
wee1_glide-grid

> <s_m_Source_File>
wee1_decoys_glide_SP.sdf

> <s_m_Source_Path>
/Users/zhangxujun/Desktop

> <s_m_entry_id>
373

> <s_m_entry_name>
wee1_decoys_glide_SP.98

> <s_m_subgroup_title>
wee1_decoys_glide_SP

> <s_m_subgroupid>
wee1_decoys_glide_SP


$$$$
