ZINC11752059_4168
                    3D
 Schrodinger Suite 2024-2.
 49 53  0  0  1  0            999 V2000
    5.0785   49.1687   13.3915 C   0  0  0  0  0  0
    6.3089   48.7699   12.8752 C   0  0  0  0  0  0
    7.1689   49.7209   12.3293 C   0  0  0  0  0  0
    6.7927   51.0643   12.2854 C   0  0  0  0  0  0
    5.5527   51.4783   12.7967 C   0  0  0  0  0  0
    4.7054   50.5135   13.3618 C   0  0  0  0  0  0
    5.2313   52.8462   12.6986 N   0  0  0  0  0  0
    3.8429   53.6803   13.4258 S   0  0  0  0  0  0
    2.6749   52.7918   13.3793 O   0  0  0  0  0  0
    3.7948   54.9956   12.7778 O   0  0  0  0  0  0
    4.2873   53.9569   15.1397 C   0  0  0  0  0  0
    4.0267   52.9743   16.0946 C   0  0  0  0  0  0
    4.3553   53.2046   17.4280 C   0  0  0  0  0  0
    4.9490   54.4116   17.8236 C   0  0  0  0  0  0
    5.2177   55.3863   16.8532 C   0  0  0  0  0  0
    4.8859   55.1602   15.5178 C   0  0  0  0  0  0
    5.3197   54.6651   19.2666 C   0  0  0  0  0  0
    6.2815   55.3840   19.5469 O   0  0  0  0  0  0
    4.4964   54.0971   20.1767 N   0  0  0  0  0  0
    4.6269   54.1655   21.5525 C   0  0  0  0  0  0
    5.7266   54.3774   22.2269 N   0  0  0  0  0  0
    5.4945   54.3383   23.5661 C   0  0  0  0  0  0
    6.4709   54.5032   24.5561 C   0  0  0  0  0  0
    6.0779   54.3754   25.8886 C   0  0  0  0  0  0
    4.7339   54.1485   26.2377 C   0  0  0  0  0  0
    3.7431   54.0265   25.2703 C   0  0  0  0  0  0
    4.1392   54.0966   23.9300 C   0  0  0  0  0  0
    3.1718   53.8911   22.4817 S   0  0  0  0  0  0
    4.3307   53.9287   27.5357 O   0  0  0  0  0  0
    5.3147   54.2283   28.5256 C   0  0  0  0  0  0
    6.7340   53.8293   28.0667 C   0  0  0  0  0  0
    7.0627   54.4965   26.8455 O   0  0  0  0  0  0
    7.6441   51.9650   11.7390 F   0  0  0  0  0  0
    4.4168   48.4399   13.8399 H   0  0  0  0  0  0
    6.6053   47.7303   12.9119 H   0  0  0  0  0  0
    8.1324   49.4240   11.9411 H   0  0  0  0  0  0
    3.7511   50.7683   13.7909 H   0  0  0  0  0  0
    5.9231   53.4390   12.2693 H   0  0  0  0  0  0
    3.5779   52.0320   15.8172 H   0  0  0  0  0  0
    4.1629   52.4112   18.1386 H   0  0  0  0  0  0
    5.6817   56.3237   17.1289 H   0  0  0  0  0  0
    5.0963   55.9262   14.7839 H   0  0  0  0  0  0
    3.6057   53.7724   19.8314 H   0  0  0  0  0  0
    7.5025   54.6823   24.2952 H   0  0  0  0  0  0
    2.7193   53.8192   25.5474 H   0  0  0  0  0  0
    5.2952   55.2960   28.7404 H   0  0  0  0  0  0
    5.0481   53.7075   29.4405 H   0  0  0  0  0  0
    7.4718   54.0925   28.8252 H   0  0  0  0  0  0
    6.7773   52.7482   27.9195 H   0  0  0  0  0  0
  1  6  2  0  0  0
  1  2  1  0  0  0
  1 34  1  0  0  0
  2  3  2  0  0  0
  2 35  1  0  0  0
  3  4  1  0  0  0
  3 36  1  0  0  0
  4  5  2  0  0  0
  4 33  1  0  0  0
  5  6  1  0  0  0
  5  7  1  0  0  0
  6 37  1  0  0  0
  7  8  1  0  0  0
  7 38  1  0  0  0
  8  9  2  0  0  0
  8 10  2  0  0  0
  8 11  1  0  0  0
 11 16  2  0  0  0
 11 12  1  0  0  0
 12 13  2  0  0  0
 12 39  1  0  0  0
 13 14  1  0  0  0
 13 40  1  0  0  0
 14 15  2  0  0  0
 14 17  1  0  0  0
 15 16  1  0  0  0
 15 41  1  0  0  0
 16 42  1  0  0  0
 17 18  2  0  0  0
 17 19  1  0  0  0
 19 20  1  0  0  0
 19 43  1  0  0  0
 20 28  1  0  0  0
 20 21  2  0  0  0
 21 22  1  0  0  0
 22 27  2  0  0  0
 22 23  1  0  0  0
 23 24  2  0  0  0
 23 44  1  0  0  0
 24 32  1  0  0  0
 24 25  1  0  0  0
 25 26  2  0  0  0
 25 29  1  0  0  0
 26 27  1  0  0  0
 26 45  1  0  0  0
 27 28  1  0  0  0
 29 30  1  0  0  0
 30 31  1  0  0  0
 30 46  1  0  0  0
 30 47  1  0  0  0
 31 32  1  0  0  0
 31 48  1  0  0  0
 31 49  1  0  0  0
M  END
> <i_i_glide_confnum>
166

> <i_i_glide_lignum>
4169

> <i_i_glide_posenum>
369

> <i_i_glide_rotatable_bonds>
6

> <i_m_Source_File_Index>
1593

> <b_m_subgroup_collapsed>
0

> <r_i_docking_score>
-5.78338

> <r_i_glide_ecoul>
-5.69198

> <r_i_glide_eff_state_penalty>
0

> <r_i_glide_einternal>
3.86154

> <r_i_glide_emodel>
-59.7903

> <r_i_glide_energy>
-46.0933

> <r_i_glide_erotb>
0.517112

> <r_i_glide_esite>
-0.000369341

> <r_i_glide_evdw>
-40.4013

> <r_i_glide_gscore>
-5.78338

> <r_i_glide_hbond>
-0.197402

> <r_i_glide_ligand_efficiency>
-0.175254

> <r_i_glide_ligand_efficiency_ln>
-1.28619

> <r_i_glide_ligand_efficiency_sa>
-0.562133

> <r_i_glide_lipo>
-2.50815

> <r_i_glide_metal>
0

> <r_i_glide_rewards>
-0.720715

> <s_i_glide_gridfile>
wee1_glide-grid

> <s_m_Source_File>
wee1_decoys_glide_SP.sdf

> <s_m_Source_Path>
/Users/zhangxujun/Desktop

> <s_m_entry_id>
1868

> <s_m_entry_name>
wee1_decoys_glide_SP.1593

> <s_m_subgroup_title>
wee1_decoys_glide_SP

> <s_m_subgroupid>
wee1_decoys_glide_SP


$$$$
