ZINC20153335_2021
                    3D
 Schrodinger Suite 2024-2.
 46 48  0  0  1  0            999 V2000
    5.4179   54.6260   25.3106 C   0  0  0  0  0  0
    4.7415   54.4973   26.5164 C   0  0  0  0  0  0
    3.4584   53.9474   26.5729 C   0  0  0  0  0  0
    2.8375   53.4892   25.3807 C   0  0  0  0  0  0
    3.5179   53.6970   24.1635 C   0  0  0  0  0  0
    4.8130   54.2313   24.1146 C   0  0  0  0  0  0
    5.5367   54.3598   22.8247 N   0  3  0  0  0  0
    4.9843   53.9661   21.8024 O   0  0  0  0  0  0
    6.6598   54.8555   22.8299 O   0  5  0  0  0  0
    1.4861   52.7807   25.3787 C   0  0  0  0  0  0
    0.7047   52.8963   26.3224 O   0  0  0  0  0  0
    1.2377   51.9697   24.3163 N   0  0  0  0  0  0
    0.0646   51.4442   23.8366 C   0  0  0  0  0  0
   -1.4771   52.0984   24.0702 S   0  0  0  0  0  0
    0.3012   50.3125   23.1056 N   0  0  0  0  0  0
   -0.6124   49.4764   22.4430 C   0  0  0  0  0  0
   -0.9880   48.2802   23.0615 C   0  0  0  0  0  0
   -1.8580   47.3702   22.4321 C   0  0  0  0  0  0
   -2.3702   47.7125   21.1579 C   0  0  0  0  0  0
   -1.9830   48.9061   20.5439 C   0  0  0  0  0  0
   -1.1015   49.7854   21.1663 C   0  0  0  0  0  0
   -0.6529   51.2390   20.3352 Cl  0  0  0  0  0  0
   -3.5086   46.7393   20.2830 Cl  0  0  0  0  0  0
   -2.2151   46.0965   23.1468 C   0  0  0  0  0  0
   -2.1776   46.0972   24.3983 O   0  0  0  0  0  0
   -2.4956   45.0716   22.4814 O   0  5  0  0  0  0
    2.8666   53.9059   27.8390 N   0  0  0  0  0  0
    1.9610   54.9239   28.3627 C   0  0  0  0  0  0
    1.5850   54.5049   29.7765 C   0  0  0  0  0  0
    1.7112   52.9926   29.7239 C   0  0  0  0  0  0
    2.8767   52.7708   28.7577 C   0  0  0  0  0  0
    6.4153   55.0432   25.3112 H   0  0  0  0  0  0
    5.2241   54.8320   27.4244 H   0  0  0  0  0  0
    3.0599   53.4046   23.2300 H   0  0  0  0  0  0
    2.0287   51.8327   23.7076 H   0  0  0  0  0  0
    1.2622   50.0015   23.0623 H   0  0  0  0  0  0
   -0.5914   48.0549   24.0440 H   0  0  0  0  0  0
   -2.3750   49.1568   19.5676 H   0  0  0  0  0  0
    2.4723   55.8857   28.3756 H   0  0  0  0  0  0
    1.0729   55.0277   27.7381 H   0  0  0  0  0  0
    2.2780   54.9581   30.4817 H   0  0  0  0  0  0
    0.5790   54.8314   30.0479 H   0  0  0  0  0  0
    0.8033   52.5310   29.3301 H   0  0  0  0  0  0
    1.8961   52.5558   30.7051 H   0  0  0  0  0  0
    2.6817   51.8549   28.1993 H   0  0  0  0  0  0
    3.8251   52.6911   29.2918 H   0  0  0  0  0  0
  1  6  2  0  0  0
  1  2  1  0  0  0
  1 32  1  0  0  0
  2  3  2  0  0  0
  2 33  1  0  0  0
  3  4  1  0  0  0
  3 27  1  0  0  0
  4  5  2  0  0  0
  4 10  1  0  0  0
  5  6  1  0  0  0
  5 34  1  0  0  0
  6  7  1  0  0  0
  7  8  2  0  0  0
  7  9  1  0  0  0
 10 11  2  0  0  0
 10 12  1  0  0  0
 12 13  1  0  0  0
 12 35  1  0  0  0
 13 14  2  0  0  0
 13 15  1  0  0  0
 15 16  1  0  0  0
 15 36  1  0  0  0
 16 21  2  0  0  0
 16 17  1  0  0  0
 17 18  2  0  0  0
 17 37  1  0  0  0
 18 19  1  0  0  0
 18 24  1  0  0  0
 19 20  2  0  0  0
 19 23  1  0  0  0
 20 21  1  0  0  0
 20 38  1  0  0  0
 21 22  1  0  0  0
 24 25  2  0  0  0
 24 26  1  0  0  0
 27 31  1  0  0  0
 27 28  1  0  0  0
 28 29  1  0  0  0
 28 39  1  0  0  0
 28 40  1  0  0  0
 29 30  1  0  0  0
 29 41  1  0  0  0
 29 42  1  0  0  0
 30 31  1  0  0  0
 30 43  1  0  0  0
 30 44  1  0  0  0
 31 45  1  0  0  0
 31 46  1  0  0  0
M  CHG  3   7   1   9  -1  26  -1
M  END
> <i_i_glide_confnum>
44

> <i_i_glide_lignum>
2022

> <i_i_glide_posenum>
80

> <i_i_glide_rotatable_bonds>
8

> <i_m_Source_File_Index>
1398

> <b_m_subgroup_collapsed>
0

> <r_i_docking_score>
-5.13909

> <r_i_glide_ecoul>
-2.77446

> <r_i_glide_eff_state_penalty>
0

> <r_i_glide_einternal>
3.75116

> <r_i_glide_emodel>
-55.74

> <r_i_glide_energy>
-39.8808

> <r_i_glide_erotb>
0.523389

> <r_i_glide_esite>
-0.0468531

> <r_i_glide_evdw>
-37.1063

> <r_i_glide_gscore>
-5.13909

> <r_i_glide_hbond>
-0.159419

> <r_i_glide_ligand_efficiency>
-0.165777

> <r_i_glide_ligand_efficiency_ln>
-1.15902

> <r_i_glide_ligand_efficiency_sa>
-0.520769

> <r_i_glide_lipo>
-2.26601

> <r_i_glide_metal>
0

> <r_i_glide_rewards>
-0.918715

> <s_i_glide_gridfile>
wee1_glide-grid

> <s_m_Source_File>
wee1_decoys_glide_SP.sdf

> <s_m_Source_Path>
/Users/zhangxujun/Desktop

> <s_m_entry_id>
1673

> <s_m_entry_name>
wee1_decoys_glide_SP.1398

> <s_m_subgroup_title>
wee1_decoys_glide_SP

> <s_m_subgroupid>
wee1_decoys_glide_SP


$$$$
