ZINC15946704_5082
                    3D
 Schrodinger Suite 2024-2.
 67 70  0  0  1  0            999 V2000
    2.6708   52.6825   30.1455 C   0  0  0  0  0  0
    3.0811   53.8253   29.1769 C   0  0  0  0  0  0
    2.2433   55.0957   29.4931 C   0  0  0  0  0  0
    4.5628   54.1733   29.4603 C   0  0  0  0  0  0
    2.8805   53.3299   27.6906 C   0  0  1  0  0  0
    3.1741   52.2790   27.6666 H   0  0  0  0  0  0
    1.3988   53.3912   27.2551 C   0  0  0  0  0  0
    1.1110   52.6530   25.9347 C   0  0  0  0  0  0
    2.1373   53.0583   24.8707 C   0  0  0  0  0  0
    3.3239   53.7163   25.2379 C   0  0  0  0  0  0
    4.3211   54.0969   23.8866 S   0  0  0  0  0  0
    3.1547   53.4339   22.8091 C   0  0  0  0  0  0
    2.0075   52.9138   23.4578 C   0  0  0  0  0  0
    0.8830   52.2342   22.8148 C   0  0  0  0  0  0
    0.1387   51.4906   23.4518 O   0  0  0  0  0  0
    0.7390   52.4945   21.4971 N   0  0  0  0  0  0
   -0.2004   51.9812   20.5845 C   0  0  0  0  0  0
    0.1221   52.0988   19.2308 C   0  0  0  0  0  0
   -0.7577   51.6441   18.2527 C   0  0  0  0  0  0
   -1.9716   51.0675   18.6186 C   0  0  0  0  0  0
   -2.3246   50.9372   19.9701 C   0  0  0  0  0  0
   -1.4284   51.4021   20.9469 C   0  0  0  0  0  0
   -3.6158   50.3172   20.3561 N   0  3  0  0  0  0
   -4.4195   50.0458   19.4693 O   0  0  0  0  0  0
   -3.8353   50.1086   21.5452 O   0  5  0  0  0  0
    3.5058   53.4942   21.4755 N   0  0  0  0  0  0
    3.9166   52.4213   20.7676 C   0  0  0  0  0  0
    4.0345   51.2965   21.2532 O   0  0  0  0  0  0
    4.2677   52.6108   19.2809 C   0  0  0  0  0  0
    3.6845   54.0255   17.2053 C   0  0  0  0  0  0
    3.8169   55.4973   16.8149 C   0  0  0  0  0  0
    4.7278   56.1481   17.8620 C   0  0  0  0  0  0
    5.0156   55.0808   18.9216 C   0  0  0  0  0  0
    3.7210   54.1223   26.6503 C   0  0  0  0  0  0
    3.2009   51.7590   29.9106 H   0  0  0  0  0  0
    2.8964   52.9009   31.1877 H   0  0  0  0  0  0
    1.6051   52.4613   30.0945 H   0  0  0  0  0  0
    2.4441   55.8977   28.7822 H   0  0  0  0  0  0
    1.1712   54.9009   29.4753 H   0  0  0  0  0  0
    2.4531   55.4924   30.4821 H   0  0  0  0  0  0
    4.9250   54.9995   28.8487 H   0  0  0  0  0  0
    4.7036   54.4958   30.4900 H   0  0  0  0  0  0
    5.2163   53.3184   29.2816 H   0  0  0  0  0  0
    0.7589   52.9474   28.0179 H   0  0  0  0  0  0
    1.1047   54.4373   27.2081 H   0  0  0  0  0  0
    0.0953   52.8854   25.6151 H   0  0  0  0  0  0
    1.1282   51.5743   26.0905 H   0  0  0  0  0  0
    1.4397   53.1001   21.0958 H   0  0  0  0  0  0
    1.0548   52.5488   18.9239 H   0  0  0  0  0  0
   -0.4975   51.7331   17.2082 H   0  0  0  0  0  0
   -2.6336   50.7145   17.8398 H   0  0  0  0  0  0
   -1.7079   51.3172   21.9859 H   0  0  0  0  0  0
    3.6145   54.4123   21.0747 H   0  0  0  0  0  0
    3.6920   51.8915   18.6924 H   0  0  0  0  0  0
    5.3274   52.4420   19.0856 H   0  0  0  0  0  0
    2.7183   53.5672   16.9856 H   0  0  0  0  0  0
    4.4722   53.4006   16.7752 H   0  0  0  0  0  0
    2.8347   55.9758   16.8109 H   0  0  0  0  0  0
    4.2260   55.6006   15.8085 H   0  0  0  0  0  0
    5.6609   56.4965   17.4124 H   0  0  0  0  0  0
    4.2497   57.0232   18.3062 H   0  0  0  0  0  0
    5.9656   54.5770   18.7258 H   0  0  0  0  0  0
    5.0219   55.4294   19.9547 H   0  0  0  0  0  0
    4.7852   53.9294   26.7922 H   0  0  0  0  0  0
    3.5605   55.1936   26.7695 H   0  0  0  0  0  0
    3.9061   54.0216   18.7290 N   0  3  0  0  0  0
    3.0406   54.3359   19.1598 H   0  0  0  0  0  0
  1  2  1  0  0  0
  1 35  1  0  0  0
  1 36  1  0  0  0
  1 37  1  0  0  0
  2  3  1  0  0  0
  2  4  1  0  0  0
  2  5  1  0  0  0
  3 38  1  0  0  0
  3 39  1  0  0  0
  3 40  1  0  0  0
  4 41  1  0  0  0
  4 42  1  0  0  0
  4 43  1  0  0  0
  5  6  1  0  0  0
  5 34  1  0  0  0
  5  7  1  0  0  0
  7  8  1  0  0  0
  7 44  1  0  0  0
  7 45  1  0  0  0
  8  9  1  0  0  0
  8 46  1  0  0  0
  8 47  1  0  0  0
  9 13  1  0  0  0
  9 10  2  0  0  0
 10 11  1  0  0  0
 10 34  1  0  0  0
 11 12  1  0  0  0
 12 13  2  0  0  0
 12 26  1  0  0  0
 13 14  1  0  0  0
 14 15  2  0  0  0
 14 16  1  0  0  0
 16 17  1  0  0  0
 16 48  1  0  0  0
 17 22  2  0  0  0
 17 18  1  0  0  0
 18 19  2  0  0  0
 18 49  1  0  0  0
 19 20  1  0  0  0
 19 50  1  0  0  0
 20 21  2  0  0  0
 20 51  1  0  0  0
 21 22  1  0  0  0
 21 23  1  0  0  0
 22 52  1  0  0  0
 23 24  2  0  0  0
 23 25  1  0  0  0
 26 27  1  0  0  0
 26 53  1  0  0  0
 27 28  2  0  0  0
 27 29  1  0  0  0
 29 54  1  0  0  0
 29 55  1  0  0  0
 29 66  1  0  0  0
 30 31  1  0  0  0
 30 56  1  0  0  0
 30 57  1  0  0  0
 30 66  1  0  0  0
 31 32  1  0  0  0
 31 58  1  0  0  0
 31 59  1  0  0  0
 32 33  1  0  0  0
 32 60  1  0  0  0
 32 61  1  0  0  0
 33 62  1  0  0  0
 33 63  1  0  0  0
 33 66  1  0  0  0
 34 64  1  0  0  0
 34 65  1  0  0  0
 66 67  1  0  0  0
M  CHG  3  23   1  25  -1  66   1
M  END
> <i_i_glide_confnum>
12

> <i_i_glide_lignum>
5083

> <i_i_glide_posenum>
79

> <i_i_glide_rotatable_bonds>
9

> <i_m_Source_File_Index>
5398

> <b_m_subgroup_collapsed>
0

> <r_i_docking_score>
-4.77036

> <r_i_glide_ecoul>
-5.32004

> <r_i_glide_eff_state_penalty>
0

> <r_i_glide_einternal>
14.3889

> <r_i_glide_emodel>
-49.2738

> <r_i_glide_energy>
-42.0093

> <r_i_glide_erotb>
0.516898

> <r_i_glide_esite>
-0.0319781

> <r_i_glide_evdw>
-36.6893

> <r_i_glide_gscore>
-4.77036

> <r_i_glide_hbond>
-0.0471173

> <r_i_glide_ligand_efficiency>
-0.140305

> <r_i_glide_ligand_efficiency_ln>
-1.05391

> <r_i_glide_ligand_efficiency_sa>
-0.454533

> <r_i_glide_lipo>
-2.35981

> <r_i_glide_metal>
0

> <r_i_glide_rewards>
-0.215883

> <s_i_glide_gridfile>
wee1_glide-grid

> <s_m_Source_File>
wee1_decoys_glide_SP.sdf

> <s_m_Source_Path>
/Users/zhangxujun/Desktop

> <s_m_entry_id>
5673

> <s_m_entry_name>
wee1_decoys_glide_SP.5398

> <s_m_subgroup_title>
wee1_decoys_glide_SP

> <s_m_subgroupid>
wee1_decoys_glide_SP


$$$$
