ZINC28227859_5368
                    3D
 Schrodinger Suite 2024-2.
 79 84  0  0  1  0            999 V2000
    4.7088   52.3134   20.4806 C   0  0  0  0  0  0
    3.5796   53.2034   19.9338 C   0  0  0  0  0  0
    2.2115   52.4942   19.9862 N   0  3  0  0  0  0
    1.7811   51.9805   21.3771 C   0  0  2  0  0  0
    2.0005   52.8157   22.0478 H   0  0  0  0  0  0
    2.3019   50.6614   21.8631 C   0  0  0  0  0  0
    1.0721   49.9604   22.3939 C   0  0  0  0  0  0
    1.1051   48.8967   22.9731 O   0  0  0  0  0  0
   -0.0218   50.7000   22.1148 N   0  0  0  0  0  0
    0.2713   51.7724   21.3388 C   0  0  0  0  0  0
   -0.5263   52.4961   20.7510 O   0  0  0  0  0  0
   -1.4332   50.3320   22.4259 C   0  0  1  0  0  0
   -2.0476   51.1091   21.9785 H   0  0  0  0  0  0
   -1.9626   49.0044   21.8390 C   0  0  0  0  0  0
   -2.8287   48.4672   23.0061 C   0  0  1  0  0  0
   -3.5832   47.7474   22.6829 H   0  0  0  0  0  0
   -1.8491   47.8851   24.0567 C   0  0  0  0  0  0
   -1.2997   49.1541   24.7392 C   0  0  0  0  0  0
   -1.9434   50.3146   23.9238 C   0  0  2  0  0  0
   -3.3955   49.7396   23.6986 C   0  0  0  0  0  0
   -4.3610   50.5811   22.8050 C   0  0  0  0  0  0
   -4.2483   49.4169   24.9650 C   0  0  0  0  0  0
   -1.7743   51.7442   24.5170 C   0  0  0  0  0  0
   -2.0313   52.0269   26.3803 S   0  0  0  0  0  0
   -2.7433   53.2975   26.4817 O   0  0  0  0  0  0
   -2.6308   50.8542   27.0143 O   0  0  0  0  0  0
   -0.3800   52.2073   27.0595 N   0  0  0  0  0  0
    0.0282   53.4050   27.8742 C   0  0  0  0  0  0
    0.9136   53.0899   29.0920 C   0  0  0  0  0  0
    2.1225   52.2170   28.6761 C   0  0  0  0  0  0
    3.0451   51.8863   29.8537 C   0  0  0  0  0  0
    4.2035   52.8616   29.8173 C   0  0  0  0  0  0
    4.2324   53.3342   28.3853 C   0  0  0  0  0  0
    3.0637   52.9596   27.7063 C   0  0  0  0  0  0
    2.9087   53.3459   26.3653 C   0  0  0  0  0  0
    3.8969   54.0967   25.7269 C   0  0  0  0  0  0
    5.0412   54.4888   26.4229 C   0  0  0  0  0  0
    5.2063   54.1105   27.7561 C   0  0  0  0  0  0
    1.5065   50.9126   28.1371 C   0  0  0  0  0  0
    0.5466   51.0556   26.9464 C   0  0  0  0  0  0
    5.6655   52.7391   20.1960 H   0  0  0  0  0  0
    4.6772   51.2985   20.0813 H   0  0  0  0  0  0
    4.6875   52.2501   21.5687 H   0  0  0  0  0  0
    3.4841   54.1392   20.4890 H   0  0  0  0  0  0
    3.7162   53.4366   18.8766 H   0  0  0  0  0  0
    1.5157   53.1682   19.6778 H   0  0  0  0  0  0
    2.7538   50.0590   21.0718 H   0  0  0  0  0  0
    3.0339   50.7636   22.6649 H   0  0  0  0  0  0
   -2.5514   49.1791   20.9384 H   0  0  0  0  0  0
   -1.1753   48.3002   21.5711 H   0  0  0  0  0  0
   -2.3684   47.2505   24.7762 H   0  0  0  0  0  0
   -1.0577   47.2786   23.6144 H   0  0  0  0  0  0
   -1.6154   49.1372   25.7764 H   0  0  0  0  0  0
   -0.2200   49.1912   24.8137 H   0  0  0  0  0  0
   -4.5705   51.5410   23.2732 H   0  0  0  0  0  0
   -4.0150   50.7856   21.7946 H   0  0  0  0  0  0
   -5.3214   50.0797   22.6796 H   0  0  0  0  0  0
   -4.5964   50.3256   25.4518 H   0  0  0  0  0  0
   -5.1360   48.8468   24.6949 H   0  0  0  0  0  0
   -3.7479   48.8268   25.7305 H   0  0  0  0  0  0
   -0.7702   52.1190   24.3307 H   0  0  0  0  0  0
   -2.4526   52.4355   24.0198 H   0  0  0  0  0  0
    0.6808   54.0394   27.2708 H   0  0  0  0  0  0
   -0.8527   53.9908   28.1253 H   0  0  0  0  0  0
    1.2567   54.0385   29.5090 H   0  0  0  0  0  0
    0.2996   52.5950   29.8499 H   0  0  0  0  0  0
    2.5364   51.8059   30.8152 H   0  0  0  0  0  0
    3.4949   50.9010   29.6851 H   0  0  0  0  0  0
    5.1041   52.3157   30.0809 H   0  0  0  0  0  0
    4.0464   53.6857   30.5136 H   0  0  0  0  0  0
    2.0254   53.0855   25.8036 H   0  0  0  0  0  0
    3.7683   54.3870   24.6930 H   0  0  0  0  0  0
    5.7982   55.0813   25.9302 H   0  0  0  0  0  0
    6.0944   54.4169   28.2904 H   0  0  0  0  0  0
    0.9088   50.4996   28.9451 H   0  0  0  0  0  0
    2.2834   50.1959   27.8674 H   0  0  0  0  0  0
   -0.0362   50.1436   26.8534 H   0  0  0  0  0  0
    1.1046   51.1715   26.0211 H   0  0  0  0  0  0
    2.2137   51.7279   19.3248 H   0  0  0  0  0  0
  1  2  1  0  0  0
  1 41  1  0  0  0
  1 42  1  0  0  0
  1 43  1  0  0  0
  2  3  1  0  0  0
  2 44  1  0  0  0
  2 45  1  0  0  0
  3  4  1  0  0  0
  3 46  1  0  0  0
  3 79  1  0  0  0
  4  5  1  0  0  0
  4 10  1  0  0  0
  4  6  1  0  0  0
  6  7  1  0  0  0
  6 47  1  0  0  0
  6 48  1  0  0  0
  7  8  2  0  0  0
  7  9  1  0  0  0
  9 10  1  0  0  0
  9 12  1  0  0  0
 10 11  2  0  0  0
 12 13  1  0  0  0
 12 19  1  0  0  0
 12 14  1  0  0  0
 14 15  1  0  0  0
 14 49  1  0  0  0
 14 50  1  0  0  0
 15 16  1  0  0  0
 15 20  1  0  0  0
 15 17  1  0  0  0
 17 18  1  0  0  0
 17 51  1  0  0  0
 17 52  1  0  0  0
 18 19  1  0  0  0
 18 53  1  0  0  0
 18 54  1  0  0  0
 19 20  1  0  0  0
 19 23  1  0  0  0
 20 21  1  0  0  0
 20 22  1  0  0  0
 21 55  1  0  0  0
 21 56  1  0  0  0
 21 57  1  0  0  0
 22 58  1  0  0  0
 22 59  1  0  0  0
 22 60  1  0  0  0
 23 24  1  0  0  0
 23 61  1  0  0  0
 23 62  1  0  0  0
 24 25  2  0  0  0
 24 26  2  0  0  0
 24 27  1  0  0  0
 27 40  1  0  0  0
 27 28  1  0  0  0
 28 29  1  0  0  0
 28 63  1  0  0  0
 28 64  1  0  0  0
 29 30  1  0  0  0
 29 65  1  0  0  0
 29 66  1  0  0  0
 30 34  1  0  0  0
 30 31  1  0  0  0
 30 39  1  0  0  0
 31 32  1  0  0  0
 31 67  1  0  0  0
 31 68  1  0  0  0
 32 33  1  0  0  0
 32 69  1  0  0  0
 32 70  1  0  0  0
 33 38  2  0  0  0
 33 34  1  0  0  0
 34 35  2  0  0  0
 35 36  1  0  0  0
 35 71  1  0  0  0
 36 37  2  0  0  0
 36 72  1  0  0  0
 37 38  1  0  0  0
 37 73  1  0  0  0
 38 74  1  0  0  0
 39 40  1  0  0  0
 39 75  1  0  0  0
 39 76  1  0  0  0
 40 77  1  0  0  0
 40 78  1  0  0  0
M  CHG  1   3   1
M  END
> <i_i_glide_confnum>
394

> <i_i_glide_lignum>
5369

> <i_i_glide_posenum>
276

> <i_i_glide_rotatable_bonds>
6

> <i_m_Source_File_Index>
6005

> <b_m_subgroup_collapsed>
0

> <r_i_docking_score>
-3.79774

> <r_i_glide_ecoul>
-0.847546

> <r_i_glide_eff_state_penalty>
0

> <r_i_glide_einternal>
8.98022

> <r_i_glide_emodel>
-36.3238

> <r_i_glide_energy>
-28.9594

> <r_i_glide_erotb>
0.368504

> <r_i_glide_esite>
-0.152407

> <r_i_glide_evdw>
-28.1119

> <r_i_glide_gscore>
-3.79774

> <r_i_glide_hbond>
0

> <r_i_glide_ligand_efficiency>
-0.102641

> <r_i_glide_ligand_efficiency_ln>
-0.82364

> <r_i_glide_ligand_efficiency_sa>
-0.342024

> <r_i_glide_lipo>
-2.28534

> <r_i_glide_metal>
0

> <r_i_glide_rewards>
-0.195769

> <s_i_glide_gridfile>
wee1_glide-grid

> <s_m_Source_File>
wee1_decoys_glide_SP.sdf

> <s_m_Source_Path>
/Users/zhangxujun/Desktop

> <s_m_entry_id>
6280

> <s_m_entry_name>
wee1_decoys_glide_SP.6005

> <s_m_subgroup_title>
wee1_decoys_glide_SP

> <s_m_subgroupid>
wee1_decoys_glide_SP


$$$$
