ZINC40312465_3029
                    3D
 Schrodinger Suite 2024-2.
 71 74  0  0  1  0            999 V2000
    4.5560   58.4957   16.4774 C   0  0  0  0  0  0
    5.4411   57.2667   16.1400 C   0  0  0  0  0  0
    4.9913   56.7158   14.7623 C   0  0  0  0  0  0
    6.9025   57.7626   15.9794 C   0  0  0  0  0  0
    5.3597   56.1341   17.2383 C   0  0  2  0  0  0
    5.9893   55.3238   16.8638 H   0  0  0  0  0  0
    3.9308   55.5722   17.4692 C   0  0  0  0  0  0
    3.9417   54.2598   18.2801 C   0  0  0  0  0  0
    4.7659   54.4529   19.5575 C   0  0  0  0  0  0
    5.6840   55.5115   19.6684 C   0  0  0  0  0  0
    6.4679   55.5427   21.2055 S   0  0  0  0  0  0
    5.5899   54.1360   21.7213 C   0  0  0  0  0  0
    4.7042   53.6692   20.7426 C   0  0  0  0  0  0
    3.9004   52.4830   20.9207 C   0  0  0  0  0  0
    4.3990   51.4166   21.2807 O   0  0  0  0  0  0
    2.5873   52.6696   20.7154 N   0  0  0  0  0  0
    1.5629   51.6372   20.8240 C   0  0  1  0  0  0
    1.9666   50.6201   20.8471 H   0  0  0  0  0  0
    0.7581   51.8441   22.1284 C   0  0  0  0  0  0
   -0.5194   50.9952   22.0698 C   0  0  0  0  0  0
   -1.0580   51.0754   20.2809 S   0  0  0  0  0  0
   -2.0957   52.0970   20.1045 O   0  0  0  0  0  0
   -1.2713   49.7096   19.7943 O   0  0  0  0  0  0
    0.5742   51.7451   19.6491 C   0  0  0  0  0  0
    5.8495   53.5694   22.9485 N   0  0  0  0  0  0
    6.6400   54.1182   24.0406 C   0  0  0  0  0  0
    5.8021   54.9448   25.0331 C   0  0  1  0  0  0
    5.0818   55.5595   24.4952 H   0  0  0  0  0  0
    5.0657   54.0932   26.0889 C   0  0  0  0  0  0
    4.1259   54.8895   26.8158 O   0  0  0  0  0  0
    3.4635   54.3417   27.9017 C   0  0  0  0  0  0
    2.4551   55.1166   28.4819 C   0  0  0  0  0  0
    1.7201   54.6389   29.5634 C   0  0  0  0  0  0
    2.0001   53.3760   30.0817 C   0  0  0  0  0  0
    3.0133   52.5978   29.5292 C   0  0  0  0  0  0
    3.7411   53.0760   28.4427 C   0  0  0  0  0  0
    6.7050   55.8068   25.6810 O   0  0  0  0  0  0
    5.9513   56.5773   18.6108 C   0  0  0  0  0  0
    4.8811   59.0001   17.3870 H   0  0  0  0  0  0
    4.5961   59.2475   15.6855 H   0  0  0  0  0  0
    3.5076   58.2301   16.6051 H   0  0  0  0  0  0
    5.5155   55.7929   14.5101 H   0  0  0  0  0  0
    3.9226   56.5067   14.7247 H   0  0  0  0  0  0
    5.1916   57.4258   13.9584 H   0  0  0  0  0  0
    7.5892   56.9359   15.7935 H   0  0  0  0  0  0
    6.9986   58.4583   15.1441 H   0  0  0  0  0  0
    7.2560   58.2958   16.8632 H   0  0  0  0  0  0
    3.2768   56.3272   17.9075 H   0  0  0  0  0  0
    3.4625   55.3334   16.5166 H   0  0  0  0  0  0
    4.3709   53.4511   17.6865 H   0  0  0  0  0  0
    2.9116   53.9713   18.4861 H   0  0  0  0  0  0
    2.2692   53.6022   20.4814 H   0  0  0  0  0  0
    0.4996   52.8981   22.2469 H   0  0  0  0  0  0
    1.3664   51.5985   23.0013 H   0  0  0  0  0  0
   -1.3393   51.2519   22.7401 H   0  0  0  0  0  0
   -0.2405   49.9599   22.2671 H   0  0  0  0  0  0
    0.8643   51.3367   18.6821 H   0  0  0  0  0  0
    0.3582   52.8031   19.5036 H   0  0  0  0  0  0
    5.3265   52.7470   23.2178 H   0  0  0  0  0  0
    7.1317   53.2966   24.5573 H   0  0  0  0  0  0
    7.4617   54.7064   23.6250 H   0  0  0  0  0  0
    4.5167   53.2967   25.5902 H   0  0  0  0  0  0
    5.8032   53.6238   26.7438 H   0  0  0  0  0  0
    2.2330   56.0944   28.0818 H   0  0  0  0  0  0
    0.9364   55.2418   29.9970 H   0  0  0  0  0  0
    1.4249   52.9975   30.9147 H   0  0  0  0  0  0
    3.2367   51.6236   29.9343 H   0  0  0  0  0  0
    4.5113   52.4444   28.0315 H   0  0  0  0  0  0
    7.0833   56.3911   25.0188 H   0  0  0  0  0  0
    5.5039   57.5136   18.9354 H   0  0  0  0  0  0
    7.0262   56.7436   18.5278 H   0  0  0  0  0  0
  1  2  1  0  0  0
  1 39  1  0  0  0
  1 40  1  0  0  0
  1 41  1  0  0  0
  2  3  1  0  0  0
  2  4  1  0  0  0
  2  5  1  0  0  0
  3 42  1  0  0  0
  3 43  1  0  0  0
  3 44  1  0  0  0
  4 45  1  0  0  0
  4 46  1  0  0  0
  4 47  1  0  0  0
  5  6  1  0  0  0
  5 38  1  0  0  0
  5  7  1  0  0  0
  7  8  1  0  0  0
  7 48  1  0  0  0
  7 49  1  0  0  0
  8  9  1  0  0  0
  8 50  1  0  0  0
  8 51  1  0  0  0
  9 13  1  0  0  0
  9 10  2  0  0  0
 10 11  1  0  0  0
 10 38  1  0  0  0
 11 12  1  0  0  0
 12 13  2  0  0  0
 12 25  1  0  0  0
 13 14  1  0  0  0
 14 15  2  0  0  0
 14 16  1  0  0  0
 16 17  1  0  0  0
 16 52  1  0  0  0
 17 18  1  0  0  0
 17 24  1  0  0  0
 17 19  1  0  0  0
 19 20  1  0  0  0
 19 53  1  0  0  0
 19 54  1  0  0  0
 20 21  1  0  0  0
 20 55  1  0  0  0
 20 56  1  0  0  0
 21 22  2  0  0  0
 21 23  2  0  0  0
 21 24  1  0  0  0
 24 57  1  0  0  0
 24 58  1  0  0  0
 25 26  1  0  0  0
 25 59  1  0  0  0
 26 27  1  0  0  0
 26 60  1  0  0  0
 26 61  1  0  0  0
 27 28  1  0  0  0
 27 29  1  0  0  0
 27 37  1  0  0  0
 29 30  1  0  0  0
 29 62  1  0  0  0
 29 63  1  0  0  0
 30 31  1  0  0  0
 31 36  2  0  0  0
 31 32  1  0  0  0
 32 33  2  0  0  0
 32 64  1  0  0  0
 33 34  1  0  0  0
 33 65  1  0  0  0
 34 35  2  0  0  0
 34 66  1  0  0  0
 35 36  1  0  0  0
 35 67  1  0  0  0
 36 68  1  0  0  0
 37 69  1  0  0  0
 38 70  1  0  0  0
 38 71  1  0  0  0
M  END
> <i_i_glide_confnum>
164

> <i_i_glide_lignum>
3030

> <i_i_glide_posenum>
3

> <i_i_glide_rotatable_bonds>
11

> <i_m_Source_File_Index>
4505

> <b_m_subgroup_collapsed>
0

> <r_i_docking_score>
-6.72201

> <r_i_glide_ecoul>
-9.17459

> <r_i_glide_eff_state_penalty>
0

> <r_i_glide_einternal>
8.46679

> <r_i_glide_emodel>
-71.1017

> <r_i_glide_energy>
-52.2206

> <r_i_glide_erotb>
0.606425

> <r_i_glide_esite>
-0.0742615

> <r_i_glide_evdw>
-43.046

> <r_i_glide_gscore>
-6.72201

> <r_i_glide_hbond>
-0.304

> <r_i_glide_ligand_efficiency>
-0.192058

> <r_i_glide_ligand_efficiency_ln>
-1.47563

> <r_i_glide_ligand_efficiency_sa>
-0.628233

> <r_i_glide_lipo>
-2.84228

> <r_i_glide_metal>
0

> <r_i_glide_rewards>
-0.579403

> <s_i_glide_gridfile>
wee1_glide-grid

> <s_m_Source_File>
wee1_decoys_glide_SP.sdf

> <s_m_Source_Path>
/Users/zhangxujun/Desktop

> <s_m_entry_id>
4780

> <s_m_entry_name>
wee1_decoys_glide_SP.4505

> <s_m_subgroup_title>
wee1_decoys_glide_SP

> <s_m_subgroupid>
wee1_decoys_glide_SP


$$$$
