ZINC01427192_1028
                    3D
 Schrodinger Suite 2024-2.
 65 70  0  0  1  0            999 V2000
   -1.4389   51.2967   29.7597 C   0  0  0  0  0  0
   -1.7187   51.4217   28.2669 C   0  0  0  0  0  0
   -0.8477   51.8260   27.3046 C   0  0  0  0  0  0
   -1.3241   51.9903   25.8234 C   0  0  2  0  0  0
   -1.2176   53.0361   25.5365 H   0  0  0  0  0  0
   -2.8430   51.7016   25.6660 C   0  0  0  0  0  0
   -3.5821   51.2369   26.7085 C   0  0  0  0  0  0
   -3.0244   51.1271   27.9589 N   0  0  0  0  0  0
   -5.0829   50.9481   26.6396 C   0  0  0  0  0  0
   -5.7332   51.7433   25.4924 C   0  0  0  0  0  0
   -4.9440   51.5639   24.1854 C   0  0  0  0  0  0
   -3.4755   51.9874   24.3536 C   0  0  0  0  0  0
   -2.8955   52.5973   23.4561 O   0  0  0  0  0  0
   -0.4639   51.2216   24.8113 C   0  0  0  0  0  0
   -0.3094   49.8286   24.9616 C   0  0  0  0  0  0
    0.4691   49.0904   24.0620 C   0  0  0  0  0  0
    1.1017   49.7829   23.0357 C   0  0  0  0  0  0
    0.9605   51.1329   22.8862 C   0  0  0  0  0  0
    0.1768   51.8890   23.7483 C   0  0  0  0  0  0
    1.6561   51.5382   21.7939 O   0  0  0  0  0  0
    2.4048   50.4235   21.3813 C   0  0  0  0  0  0
    1.8886   49.2966   22.0399 O   0  0  0  0  0  0
    0.5610   52.0868   27.6147 C   0  0  0  0  0  0
    1.1635   51.5004   28.5115 O   0  0  0  0  0  0
    1.1367   53.0045   26.8152 N   0  0  0  0  0  0
    2.4504   53.4377   26.8277 C   0  0  0  0  0  0
    3.4114   53.6135   27.8496 C   0  0  0  0  0  0
    4.6461   54.0243   27.2799 C   0  0  0  0  0  0
    4.5926   54.1494   25.8809 C   0  0  0  0  0  0
    3.0290   53.8269   25.2505 S   0  0  0  0  0  0
    5.7671   54.4608   24.9698 C   0  0  0  0  0  0
    6.9160   55.0517   25.7993 C   0  0  0  0  0  0
    7.1480   54.2764   27.1091 C   0  0  0  0  0  0
    5.9364   54.3115   28.0505 C   0  0  0  0  0  0
    3.1921   53.4469   29.2878 C   0  0  0  0  0  0
    2.2894   54.0080   29.9156 O   0  0  0  0  0  0
    4.0468   52.5290   29.7970 O   0  0  0  0  0  0
    3.9558   52.1221   31.1539 C   0  0  0  0  0  0
   -0.6101   50.6222   29.9238 H   0  0  0  0  0  0
   -1.1567   52.2610   30.1823 H   0  0  0  0  0  0
   -2.2802   50.8965   30.3313 H   0  0  0  0  0  0
   -3.5125   50.5453   28.6240 H   0  0  0  0  0  0
   -5.2764   49.8743   26.6007 H   0  0  0  0  0  0
   -5.5716   51.3137   27.5445 H   0  0  0  0  0  0
   -6.7679   51.4218   25.3553 H   0  0  0  0  0  0
   -5.7767   52.8039   25.7499 H   0  0  0  0  0  0
   -4.9308   50.5064   23.9126 H   0  0  0  0  0  0
   -5.3933   52.0957   23.3488 H   0  0  0  0  0  0
   -0.7919   49.3165   25.7854 H   0  0  0  0  0  0
    0.5873   48.0263   24.1863 H   0  0  0  0  0  0
    0.0601   52.9516   23.6048 H   0  0  0  0  0  0
    3.4492   50.5627   21.6709 H   0  0  0  0  0  0
    2.3403   50.2983   20.2964 H   0  0  0  0  0  0
    0.6006   53.2601   26.0010 H   0  0  0  0  0  0
    5.4866   55.1503   24.1719 H   0  0  0  0  0  0
    6.1045   53.5439   24.4847 H   0  0  0  0  0  0
    6.7050   56.0974   26.0255 H   0  0  0  0  0  0
    7.8140   55.0381   25.1847 H   0  0  0  0  0  0
    7.9894   54.6938   27.6566 H   0  0  0  0  0  0
    7.4092   53.2420   26.8813 H   0  0  0  0  0  0
    6.1065   53.5987   28.8586 H   0  0  0  0  0  0
    5.8827   55.2944   28.5229 H   0  0  0  0  0  0
    4.6415   51.2973   31.3309 H   0  0  0  0  0  0
    4.2411   52.9305   31.8252 H   0  0  0  0  0  0
    2.9481   51.7927   31.4122 H   0  0  0  0  0  0
  1  2  1  0  0  0
  1 39  1  0  0  0
  1 40  1  0  0  0
  1 41  1  0  0  0
  2  8  1  0  0  0
  2  3  2  0  0  0
  3  4  1  0  0  0
  3 23  1  0  0  0
  4  5  1  0  0  0
  4  6  1  0  0  0
  4 14  1  0  0  0
  6 12  1  0  0  0
  6  7  2  0  0  0
  7  8  1  0  0  0
  7  9  1  0  0  0
  8 42  1  0  0  0
  9 10  1  0  0  0
  9 43  1  0  0  0
  9 44  1  0  0  0
 10 11  1  0  0  0
 10 45  1  0  0  0
 10 46  1  0  0  0
 11 12  1  0  0  0
 11 47  1  0  0  0
 11 48  1  0  0  0
 12 13  2  0  0  0
 14 19  2  0  0  0
 14 15  1  0  0  0
 15 16  2  0  0  0
 15 49  1  0  0  0
 16 17  1  0  0  0
 16 50  1  0  0  0
 17 22  1  0  0  0
 17 18  2  0  0  0
 18 19  1  0  0  0
 18 20  1  0  0  0
 19 51  1  0  0  0
 20 21  1  0  0  0
 21 22  1  0  0  0
 21 52  1  0  0  0
 21 53  1  0  0  0
 23 24  2  0  0  0
 23 25  1  0  0  0
 25 26  1  0  0  0
 25 54  1  0  0  0
 26 30  1  0  0  0
 26 27  2  0  0  0
 27 28  1  0  0  0
 27 35  1  0  0  0
 28 34  1  0  0  0
 28 29  2  0  0  0
 29 30  1  0  0  0
 29 31  1  0  0  0
 31 32  1  0  0  0
 31 55  1  0  0  0
 31 56  1  0  0  0
 32 33  1  0  0  0
 32 57  1  0  0  0
 32 58  1  0  0  0
 33 34  1  0  0  0
 33 59  1  0  0  0
 33 60  1  0  0  0
 34 61  1  0  0  0
 34 62  1  0  0  0
 35 36  2  0  0  0
 35 37  1  0  0  0
 37 38  1  0  0  0
 38 63  1  0  0  0
 38 64  1  0  0  0
 38 65  1  0  0  0
M  END
> <i_i_glide_confnum>
73

> <i_i_glide_lignum>
1029

> <i_i_glide_posenum>
399

> <i_i_glide_rotatable_bonds>
6

> <i_m_Source_File_Index>
5724

> <b_m_subgroup_collapsed>
0

> <r_i_docking_score>
-5.81062

> <r_i_glide_ecoul>
-3.5737

> <r_i_glide_eff_state_penalty>
0

> <r_i_glide_einternal>
11.2896

> <r_i_glide_emodel>
-64.0884

> <r_i_glide_energy>
-52.1132

> <r_i_glide_erotb>
0.379161

> <r_i_glide_esite>
-0.0856155

> <r_i_glide_evdw>
-48.5394

> <r_i_glide_gscore>
-5.81062

> <r_i_glide_hbond>
-0.279596

> <r_i_glide_ligand_efficiency>
-0.157044

> <r_i_glide_ligand_efficiency_ln>
-1.26019

> <r_i_glide_ligand_efficiency_sa>
-0.523305

> <r_i_glide_lipo>
-2.24158

> <r_i_glide_metal>
0

> <r_i_glide_rewards>
-0.619966

> <s_i_glide_gridfile>
wee1_glide-grid

> <s_m_Source_File>
wee1_decoys_glide_SP.sdf

> <s_m_Source_Path>
/Users/zhangxujun/Desktop

> <s_m_entry_id>
5999

> <s_m_entry_name>
wee1_decoys_glide_SP.5724

> <s_m_subgroup_title>
wee1_decoys_glide_SP

> <s_m_subgroupid>
wee1_decoys_glide_SP


$$$$
