ZINC40982589_5060
                    3D
 Schrodinger Suite 2024-2.
 52 55  0  0  1  0            999 V2000
   10.1826   53.6536   16.8065 C   0  0  0  0  0  0
    8.9912   54.5688   17.1217 C   0  0  0  0  0  0
    9.1292   55.2646   18.4870 C   0  0  0  0  0  0
    7.8014   56.4240   18.9452 S   0  0  0  0  0  0
    6.6043   55.3035   19.5900 C   0  0  0  0  0  0
    6.3063   54.1511   19.0033 N   0  0  0  0  0  0
    5.3743   53.6746   19.7790 C   0  0  0  0  0  0
    5.1370   54.5179   20.8315 N   0  0  0  0  0  0
    5.9261   55.5887   20.6847 N   0  0  0  0  0  0
    4.1875   54.3197   21.9362 C   0  0  1  0  0  0
    3.5341   55.1938   21.9488 H   0  0  0  0  0  0
    3.3309   53.0621   21.6092 C   0  0  0  0  0  0
    3.6402   52.2289   20.5625 C   0  0  0  0  0  0
    4.6750   52.4967   19.6824 N   0  0  0  0  0  0
    2.8837   50.9788   20.1128 C   0  0  0  0  0  0
    2.1708   52.8908   22.4800 C   0  0  0  0  0  0
    1.5301   53.8622   22.8827 O   0  0  0  0  0  0
    1.9043   51.6160   22.8279 N   0  0  0  0  0  0
    0.8406   51.0795   23.5719 C   0  0  0  0  0  0
   -0.2137   51.8216   24.1270 C   0  0  0  0  0  0
   -1.2376   51.1690   24.8088 C   0  0  0  0  0  0
   -1.2134   49.7806   24.9433 C   0  0  0  0  0  0
   -0.1546   49.0437   24.4134 C   0  0  0  0  0  0
    0.8616   49.6932   23.7206 C   0  0  0  0  0  0
   -2.3312   49.0721   25.6829 C   0  0  0  0  0  0
    4.9051   54.2273   23.2849 C   0  0  0  0  0  0
    6.2322   54.0982   23.6838 C   0  0  0  0  0  0
    6.2463   54.1413   25.0792 C   0  0  0  0  0  0
    4.9330   54.2996   25.4803 C   0  0  0  0  0  0
    4.1255   54.3573   24.3924 O   0  0  0  0  0  0
    4.1277   54.4350   27.1982 Br  0  0  0  0  0  0
   10.0504   53.1548   15.8458 H   0  0  0  0  0  0
   10.2961   52.8797   17.5667 H   0  0  0  0  0  0
   11.1148   54.2179   16.7627 H   0  0  0  0  0  0
    8.8936   55.3212   16.3375 H   0  0  0  0  0  0
    8.0764   53.9785   17.0848 H   0  0  0  0  0  0
    9.2395   54.5233   19.2799 H   0  0  0  0  0  0
   10.0583   55.8358   18.4870 H   0  0  0  0  0  0
    4.9196   51.8071   18.9663 H   0  0  0  0  0  0
    3.3182   50.0932   20.5738 H   0  0  0  0  0  0
    1.8231   51.0196   20.3551 H   0  0  0  0  0  0
    2.9294   50.8401   19.0305 H   0  0  0  0  0  0
    2.5477   50.9316   22.4640 H   0  0  0  0  0  0
   -0.2728   52.8944   24.0411 H   0  0  0  0  0  0
   -2.0510   51.7423   25.2294 H   0  0  0  0  0  0
   -0.1193   47.9711   24.5342 H   0  0  0  0  0  0
    1.6661   49.1056   23.3004 H   0  0  0  0  0  0
   -3.1895   48.9139   25.0312 H   0  0  0  0  0  0
   -1.9991   48.1115   26.0794 H   0  0  0  0  0  0
   -2.6551   49.6623   26.5411 H   0  0  0  0  0  0
    7.0905   53.9973   23.0340 H   0  0  0  0  0  0
    7.1052   54.0617   25.7268 H   0  0  0  0  0  0
  1  2  1  0  0  0
  1 32  1  0  0  0
  1 33  1  0  0  0
  1 34  1  0  0  0
  2  3  1  0  0  0
  2 35  1  0  0  0
  2 36  1  0  0  0
  3  4  1  0  0  0
  3 37  1  0  0  0
  3 38  1  0  0  0
  4  5  1  0  0  0
  5  9  2  0  0  0
  5  6  1  0  0  0
  6  7  2  0  0  0
  7 14  1  0  0  0
  7  8  1  0  0  0
  8  9  1  0  0  0
  8 10  1  0  0  0
 10 11  1  0  0  0
 10 12  1  0  0  0
 10 26  1  0  0  0
 12 13  2  0  0  0
 12 16  1  0  0  0
 13 14  1  0  0  0
 13 15  1  0  0  0
 14 39  1  0  0  0
 15 40  1  0  0  0
 15 41  1  0  0  0
 15 42  1  0  0  0
 16 17  2  0  0  0
 16 18  1  0  0  0
 18 19  1  0  0  0
 18 43  1  0  0  0
 19 24  2  0  0  0
 19 20  1  0  0  0
 20 21  2  0  0  0
 20 44  1  0  0  0
 21 22  1  0  0  0
 21 45  1  0  0  0
 22 23  2  0  0  0
 22 25  1  0  0  0
 23 24  1  0  0  0
 23 46  1  0  0  0
 24 47  1  0  0  0
 25 48  1  0  0  0
 25 49  1  0  0  0
 25 50  1  0  0  0
 26 30  1  0  0  0
 26 27  2  0  0  0
 27 28  1  0  0  0
 27 51  1  0  0  0
 28 29  2  0  0  0
 28 52  1  0  0  0
 29 30  1  0  0  0
 29 31  1  0  0  0
M  END
> <i_i_glide_confnum>
141

> <i_i_glide_lignum>
5061

> <i_i_glide_posenum>
165

> <i_i_glide_rotatable_bonds>
7

> <i_m_Source_File_Index>
4667

> <b_m_subgroup_collapsed>
0

> <r_i_docking_score>
-4.86989

> <r_i_glide_ecoul>
-5.73297

> <r_i_glide_eff_state_penalty>
0

> <r_i_glide_einternal>
7.82568

> <r_i_glide_emodel>
-56.9779

> <r_i_glide_energy>
-46.4685

> <r_i_glide_erotb>
0.511524

> <r_i_glide_esite>
-0.103116

> <r_i_glide_evdw>
-40.7356

> <r_i_glide_gscore>
-4.86989

> <r_i_glide_hbond>
-0.16

> <r_i_glide_ligand_efficiency>
-0.16233

> <r_i_glide_ligand_efficiency_ln>
-1.10649

> <r_i_glide_ligand_efficiency_sa>
-0.504396

> <r_i_glide_lipo>
-1.70957

> <r_i_glide_metal>
0

> <r_i_glide_rewards>
-0.511999

> <s_i_glide_gridfile>
wee1_glide-grid

> <s_m_Source_File>
wee1_decoys_glide_SP.sdf

> <s_m_Source_Path>
/Users/zhangxujun/Desktop

> <s_m_entry_id>
4942

> <s_m_entry_name>
wee1_decoys_glide_SP.4667

> <s_m_subgroup_title>
wee1_decoys_glide_SP

> <s_m_subgroupid>
wee1_decoys_glide_SP


$$$$
