ZINC12429021_2448
                    3D
 Schrodinger Suite 2024-2.
 61 64  0  0  1  0            999 V2000
    4.5634   54.0968   23.7020 C   0  0  0  0  0  0
    4.7275   54.1981   22.3194 C   0  0  0  0  0  0
    5.8721   54.7928   21.7818 C   0  0  0  0  0  0
    6.8640   55.2604   22.6524 C   0  0  0  0  0  0
    6.7023   55.1488   24.0289 C   0  0  0  0  0  0
    5.5511   54.5767   24.5775 C   0  0  0  0  0  0
    5.4088   54.4980   26.0844 C   0  0  0  0  0  0
    6.3921   54.6193   26.8172 O   0  0  0  0  0  0
    4.1560   54.3521   26.5572 N   0  0  0  0  0  0
    3.7643   54.2417   27.9643 C   0  0  0  0  0  0
    2.2809   54.6245   28.1970 C   0  0  0  0  0  0
    1.7846   54.4093   29.6410 C   0  0  0  0  0  0
    2.1149   53.0041   30.1693 C   0  0  0  0  0  0
    3.6230   52.7226   30.0682 C   0  0  0  0  0  0
    4.1457   52.8969   28.6297 C   0  0  0  0  0  0
    5.9418   54.8832   20.3749 N   0  0  0  0  0  0
    6.9538   55.3238   19.5896 C   0  0  0  0  0  0
    8.0153   55.7861   20.0150 O   0  0  0  0  0  0
    6.7595   55.2681   18.0554 C   0  0  1  0  0  0
    6.7345   56.3128   17.7477 H   0  0  0  0  0  0
    7.9214   54.5245   17.3632 C   0  0  0  0  0  0
    7.2691   53.7014   16.2694 C   0  0  0  0  0  0
    5.9332   53.2993   16.8761 C   0  0  0  0  0  0
    5.5347   54.5194   17.6202 N   0  0  0  0  0  0
    4.1360   55.4517   17.0794 S   0  0  0  0  0  0
    3.9047   56.4952   18.0816 O   0  0  0  0  0  0
    3.0695   54.5111   16.7199 O   0  0  0  0  0  0
    4.6516   56.2790   15.5776 C   0  0  0  0  0  0
    4.6069   55.5897   14.3637 C   0  0  0  0  0  0
    5.0094   56.2297   13.1957 C   0  0  0  0  0  0
    5.4517   57.5506   13.2457 C   0  0  0  0  0  0
    5.4902   58.2406   14.4562 C   0  0  0  0  0  0
    5.0896   57.6055   15.6273 C   0  0  0  0  0  0
    5.8462   58.1671   12.1073 F   0  0  0  0  0  0
    3.6603   53.6334   24.0773 H   0  0  0  0  0  0
    3.9441   53.8222   21.6716 H   0  0  0  0  0  0
    7.7754   55.7221   22.3081 H   0  0  0  0  0  0
    7.4926   55.5284   24.6623 H   0  0  0  0  0  0
    3.4142   54.2235   25.8894 H   0  0  0  0  0  0
    4.3340   54.9973   28.5177 H   0  0  0  0  0  0
    2.1185   55.6649   27.9147 H   0  0  0  0  0  0
    1.6551   54.0083   27.5475 H   0  0  0  0  0  0
    2.2355   55.1642   30.2870 H   0  0  0  0  0  0
    0.7074   54.5781   29.6882 H   0  0  0  0  0  0
    1.7838   52.8986   31.2033 H   0  0  0  0  0  0
    1.5616   52.2557   29.6006 H   0  0  0  0  0  0
    4.1645   53.3977   30.7344 H   0  0  0  0  0  0
    3.8397   51.7137   30.4213 H   0  0  0  0  0  0
    3.7085   52.0964   28.0338 H   0  0  0  0  0  0
    5.2277   52.7515   28.6135 H   0  0  0  0  0  0
    5.1312   54.5475   19.8763 H   0  0  0  0  0  0
    8.4720   53.8708   18.0444 H   0  0  0  0  0  0
    8.6479   55.2220   16.9452 H   0  0  0  0  0  0
    7.8709   52.8374   15.9864 H   0  0  0  0  0  0
    7.1125   54.3002   15.3714 H   0  0  0  0  0  0
    6.1018   52.4973   17.5994 H   0  0  0  0  0  0
    5.1571   52.8975   16.2234 H   0  0  0  0  0  0
    4.2619   54.5622   14.3291 H   0  0  0  0  0  0
    4.9840   55.7054   12.2525 H   0  0  0  0  0  0
    5.8279   59.2667   14.4857 H   0  0  0  0  0  0
    5.1159   58.1533   16.5615 H   0  0  0  0  0  0
  1  6  2  0  0  0
  1  2  1  0  0  0
  1 35  1  0  0  0
  2  3  2  0  0  0
  2 36  1  0  0  0
  3  4  1  0  0  0
  3 16  1  0  0  0
  4  5  2  0  0  0
  4 37  1  0  0  0
  5  6  1  0  0  0
  5 38  1  0  0  0
  6  7  1  0  0  0
  7  8  2  0  0  0
  7  9  1  0  0  0
  9 10  1  0  0  0
  9 39  1  0  0  0
 10 15  1  0  0  0
 10 11  1  0  0  0
 10 40  1  0  0  0
 11 12  1  0  0  0
 11 41  1  0  0  0
 11 42  1  0  0  0
 12 13  1  0  0  0
 12 43  1  0  0  0
 12 44  1  0  0  0
 13 14  1  0  0  0
 13 45  1  0  0  0
 13 46  1  0  0  0
 14 15  1  0  0  0
 14 47  1  0  0  0
 14 48  1  0  0  0
 15 49  1  0  0  0
 15 50  1  0  0  0
 16 17  1  0  0  0
 16 51  1  0  0  0
 17 18  2  0  0  0
 17 19  1  0  0  0
 19 20  1  0  0  0
 19 24  1  0  0  0
 19 21  1  0  0  0
 21 22  1  0  0  0
 21 52  1  0  0  0
 21 53  1  0  0  0
 22 23  1  0  0  0
 22 54  1  0  0  0
 22 55  1  0  0  0
 23 24  1  0  0  0
 23 56  1  0  0  0
 23 57  1  0  0  0
 24 25  1  0  0  0
 25 26  2  0  0  0
 25 27  2  0  0  0
 25 28  1  0  0  0
 28 33  2  0  0  0
 28 29  1  0  0  0
 29 30  2  0  0  0
 29 58  1  0  0  0
 30 31  1  0  0  0
 30 59  1  0  0  0
 31 32  2  0  0  0
 31 34  1  0  0  0
 32 33  1  0  0  0
 32 60  1  0  0  0
 33 61  1  0  0  0
M  END
> <i_i_glide_confnum>
184

> <i_i_glide_lignum>
2449

> <i_i_glide_posenum>
241

> <i_i_glide_rotatable_bonds>
8

> <i_m_Source_File_Index>
1287

> <b_m_subgroup_collapsed>
0

> <r_i_docking_score>
-5.12996

> <r_i_glide_ecoul>
-2.59016

> <r_i_glide_eff_state_penalty>
0

> <r_i_glide_einternal>
5.93023

> <r_i_glide_emodel>
-60.4901

> <r_i_glide_energy>
-46.4551

> <r_i_glide_erotb>
0.721606

> <r_i_glide_esite>
-0.00934882

> <r_i_glide_evdw>
-43.865

> <r_i_glide_gscore>
-5.12996

> <r_i_glide_hbond>
0

> <r_i_glide_ligand_efficiency>
-0.155453

> <r_i_glide_ligand_efficiency_ln>
-1.14088

> <r_i_glide_ligand_efficiency_sa>
-0.498622

> <r_i_glide_lipo>
-2.4851

> <r_i_glide_metal>
0

> <r_i_glide_rewards>
-0.775337

> <s_i_glide_gridfile>
wee1_glide-grid

> <s_m_Source_File>
wee1_decoys_glide_SP.sdf

> <s_m_Source_Path>
/Users/zhangxujun/Desktop

> <s_m_entry_id>
1562

> <s_m_entry_name>
wee1_decoys_glide_SP.1287

> <s_m_subgroup_title>
wee1_decoys_glide_SP

> <s_m_subgroupid>
wee1_decoys_glide_SP


$$$$
