ZINC02377007_3508
                    3D
 Schrodinger Suite 2024-2.
 44 46  0  0  1  0            999 V2000
    4.4800   54.2928   27.3027 C   0  0  0  0  0  0
    4.7740   54.3535   25.8147 C   0  0  0  0  0  0
    3.7667   54.0566   24.8965 C   0  0  0  0  0  0
    4.0350   54.0969   23.5305 C   0  0  0  0  0  0
    5.3019   54.4747   23.0736 C   0  0  0  0  0  0
    6.3051   54.7832   24.0003 C   0  0  0  0  0  0
    6.0447   54.7172   25.3660 C   0  0  0  0  0  0
    5.5737   54.6277   21.6089 C   0  0  0  0  0  0
    6.3041   55.6020   21.1163 N   0  0  0  0  0  0
    6.3401   55.4442   19.7377 N   0  0  0  0  0  0
    5.6371   54.3795   19.4413 C   0  0  0  0  0  0
    5.1285   53.8041   20.5904 N   0  0  0  0  0  0
    4.4221   52.6146   20.6965 N   0  0  0  0  0  0
    5.5931   53.6965   17.8162 S   0  0  0  0  0  0
    3.7969   53.5446   17.5574 C   0  0  0  0  0  0
    3.2828   54.6293   16.6175 C   0  0  0  0  0  0
    3.4235   54.4990   15.4007 O   0  0  0  0  0  0
    2.7011   55.6954   17.1989 N   0  0  0  0  0  0
    2.2624   56.8147   16.4817 C   0  0  0  0  0  0
    0.9317   56.8963   16.0423 C   0  0  0  0  0  0
    0.5057   58.0177   15.3287 C   0  0  0  0  0  0
    1.3878   59.0703   15.0718 C   0  0  0  0  0  0
    2.7065   58.9935   15.5264 C   0  0  0  0  0  0
    3.1461   57.8782   16.2392 C   0  0  0  0  0  0
    4.9450   57.8545   16.8817 Br  0  0  0  0  0  0
    0.9167   60.2914   14.3033 C   0  0  0  0  0  0
   -0.3292   55.5104   16.4149 Br  0  0  0  0  0  0
    3.4825   54.6809   27.5119 H   0  0  0  0  0  0
    4.5253   53.2610   27.6538 H   0  0  0  0  0  0
    5.1821   54.8991   27.8780 H   0  0  0  0  0  0
    2.7800   53.7806   25.2376 H   0  0  0  0  0  0
    3.2436   53.8783   22.8289 H   0  0  0  0  0  0
    7.2892   55.0780   23.6615 H   0  0  0  0  0  0
    6.8245   54.9519   26.0737 H   0  0  0  0  0  0
    3.4740   52.7045   20.3670 H   0  0  0  0  0  0
    4.9106   51.8611   20.2332 H   0  0  0  0  0  0
    3.2392   53.5502   18.4909 H   0  0  0  0  0  0
    3.6140   52.5764   17.0911 H   0  0  0  0  0  0
    2.5837   55.7053   18.2013 H   0  0  0  0  0  0
   -0.5178   58.0756   14.9875 H   0  0  0  0  0  0
    3.3916   59.8110   15.3413 H   0  0  0  0  0  0
    1.7481   60.7865   13.7994 H   0  0  0  0  0  0
    0.4388   61.0053   14.9758 H   0  0  0  0  0  0
    0.2021   60.0088   13.5284 H   0  0  0  0  0  0
  1  2  1  0  0  0
  1 28  1  0  0  0
  1 29  1  0  0  0
  1 30  1  0  0  0
  2  7  2  0  0  0
  2  3  1  0  0  0
  3  4  2  0  0  0
  3 31  1  0  0  0
  4  5  1  0  0  0
  4 32  1  0  0  0
  5  6  2  0  0  0
  5  8  1  0  0  0
  6  7  1  0  0  0
  6 33  1  0  0  0
  7 34  1  0  0  0
  8 12  1  0  0  0
  8  9  2  0  0  0
  9 10  1  0  0  0
 10 11  2  0  0  0
 11 12  1  0  0  0
 11 14  1  0  0  0
 12 13  1  0  0  0
 13 35  1  0  0  0
 13 36  1  0  0  0
 14 15  1  0  0  0
 15 16  1  0  0  0
 15 37  1  0  0  0
 15 38  1  0  0  0
 16 17  2  0  0  0
 16 18  1  0  0  0
 18 19  1  0  0  0
 18 39  1  0  0  0
 19 24  2  0  0  0
 19 20  1  0  0  0
 20 21  2  0  0  0
 20 27  1  0  0  0
 21 22  1  0  0  0
 21 40  1  0  0  0
 22 23  2  0  0  0
 22 26  1  0  0  0
 23 24  1  0  0  0
 23 41  1  0  0  0
 24 25  1  0  0  0
 26 42  1  0  0  0
 26 43  1  0  0  0
 26 44  1  0  0  0
M  END
> <i_i_glide_confnum>
3

> <i_i_glide_lignum>
3509

> <i_i_glide_posenum>
77

> <i_i_glide_rotatable_bonds>
6

> <i_m_Source_File_Index>
5210

> <b_m_subgroup_collapsed>
0

> <r_i_docking_score>
-4.09848

> <r_i_glide_ecoul>
-3.47349

> <r_i_glide_eff_state_penalty>
0

> <r_i_glide_einternal>
1.47136

> <r_i_glide_emodel>
-48.2979

> <r_i_glide_energy>
-37.7928

> <r_i_glide_erotb>
0.470424

> <r_i_glide_esite>
-0.000975987

> <r_i_glide_evdw>
-34.3193

> <r_i_glide_gscore>
-4.09848

> <r_i_glide_hbond>
-0.162369

> <r_i_glide_ligand_efficiency>
-0.151796

> <r_i_glide_ligand_efficiency_ln>
-0.954058

> <r_i_glide_ligand_efficiency_sa>
-0.455387

> <r_i_glide_lipo>
-1.77731

> <r_i_glide_metal>
0

> <r_i_glide_rewards>
-0.391256

> <s_i_glide_gridfile>
wee1_glide-grid

> <s_m_Source_File>
wee1_decoys_glide_SP.sdf

> <s_m_Source_Path>
/Users/zhangxujun/Desktop

> <s_m_entry_id>
5485

> <s_m_entry_name>
wee1_decoys_glide_SP.5210

> <s_m_subgroup_title>
wee1_decoys_glide_SP

> <s_m_subgroupid>
wee1_decoys_glide_SP


$$$$
