ZINC41629223_1745
                    3D
 Schrodinger Suite 2024-2.
 34 36  0  0  1  0            999 V2000
    7.0607   54.0646   27.6092 C   0  0  0  0  0  0
    5.9452   54.0969   26.5747 C   0  0  0  0  0  0
    6.2626   54.2884   25.2247 C   0  0  0  0  0  0
    5.2627   54.3103   24.2410 C   0  0  0  0  0  0
    3.9315   54.1643   24.6488 C   0  0  0  0  0  0
    3.5922   53.9534   25.9839 C   0  0  0  0  0  0
    4.6031   53.9388   26.9496 C   0  0  0  0  0  0
    4.2505   53.7894   28.2946 N   0  0  0  0  0  0
    3.0431   53.9476   28.8664 C   0  0  0  0  0  0
    2.8939   53.9023   30.0817 O   0  0  0  0  0  0
    1.9036   54.2617   27.8648 C   0  0  0  0  0  0
    2.1650   53.6932   26.4419 C   0  0  0  0  0  0
    5.5885   54.4957   22.7826 C   0  0  0  0  0  0
    4.8115   54.0542   21.6850 C   0  0  0  0  0  0
    5.5506   54.6477   20.2216 S   0  0  0  0  0  0
    6.8334   55.2967   21.1675 C   0  0  0  0  0  0
    6.7026   55.1366   22.4538 N   0  0  0  0  0  0
    7.9053   55.8766   20.5587 N   0  0  0  0  0  0
    3.5472   53.2262   21.6078 C   0  0  0  0  0  0
    6.7373   54.4954   28.5564 H   0  0  0  0  0  0
    7.3957   53.0417   27.7846 H   0  0  0  0  0  0
    7.9043   54.6645   27.2856 H   0  0  0  0  0  0
    7.2972   54.4017   24.9322 H   0  0  0  0  0  0
    3.1319   54.2090   23.9277 H   0  0  0  0  0  0
    4.9904   53.6504   28.9643 H   0  0  0  0  0  0
    0.9693   53.8705   28.2685 H   0  0  0  0  0  0
    1.8245   55.3476   27.8187 H   0  0  0  0  0  0
    1.4532   54.0967   25.7238 H   0  0  0  0  0  0
    1.9944   52.6152   26.4527 H   0  0  0  0  0  0
    8.7020   56.1884   21.0978 H   0  0  0  0  0  0
    8.0377   55.8184   19.5585 H   0  0  0  0  0  0
    2.6560   53.8500   21.6676 H   0  0  0  0  0  0
    3.4849   52.6628   20.6766 H   0  0  0  0  0  0
    3.4867   52.4935   22.4114 H   0  0  0  0  0  0
  1  2  1  0  0  0
  1 20  1  0  0  0
  1 21  1  0  0  0
  1 22  1  0  0  0
  2  7  2  0  0  0
  2  3  1  0  0  0
  3  4  2  0  0  0
  3 23  1  0  0  0
  4  5  1  0  0  0
  4 13  1  0  0  0
  5  6  2  0  0  0
  5 24  1  0  0  0
  6 12  1  0  0  0
  6  7  1  0  0  0
  7  8  1  0  0  0
  8  9  1  0  0  0
  8 25  1  0  0  0
  9 10  2  0  0  0
  9 11  1  0  0  0
 11 12  1  0  0  0
 11 26  1  0  0  0
 11 27  1  0  0  0
 12 28  1  0  0  0
 12 29  1  0  0  0
 13 17  1  0  0  0
 13 14  2  0  0  0
 14 15  1  0  0  0
 14 19  1  0  0  0
 15 16  1  0  0  0
 16 17  2  0  0  0
 16 18  1  0  0  0
 18 30  1  0  0  0
 18 31  1  0  0  0
 19 32  1  0  0  0
 19 33  1  0  0  0
 19 34  1  0  0  0
M  END
> <i_i_glide_confnum>
4

> <i_i_glide_lignum>
1746

> <i_i_glide_posenum>
328

> <i_i_glide_rotatable_bonds>
1

> <i_m_Source_File_Index>
4412

> <b_m_subgroup_collapsed>
0

> <r_i_docking_score>
-7.24891

> <r_i_glide_ecoul>
-5.04892

> <r_i_glide_eff_state_penalty>
0

> <r_i_glide_einternal>
0.143586

> <r_i_glide_emodel>
-56.5101

> <r_i_glide_energy>
-39.4388

> <r_i_glide_erotb>
0.240059

> <r_i_glide_esite>
0

> <r_i_glide_evdw>
-34.3899

> <r_i_glide_gscore>
-7.24891

> <r_i_glide_hbond>
-0.32

> <r_i_glide_ligand_efficiency>
-0.381522

> <r_i_glide_ligand_efficiency_ln>
-1.83775

> <r_i_glide_ligand_efficiency_sa>
-1.01805

> <r_i_glide_lipo>
-2.80958

> <r_i_glide_metal>
0

> <r_i_glide_rewards>
-1.88256

> <s_i_glide_gridfile>
wee1_glide-grid

> <s_m_Source_File>
wee1_decoys_glide_SP.sdf

> <s_m_Source_Path>
/Users/zhangxujun/Desktop

> <s_m_entry_id>
4687

> <s_m_entry_name>
wee1_decoys_glide_SP.4412

> <s_m_subgroup_title>
wee1_decoys_glide_SP

> <s_m_subgroupid>
wee1_decoys_glide_SP


$$$$
