ZINC04724125_1925
                    3D
 Schrodinger Suite 2024-2.
 46 48  0  0  1  0            999 V2000
    4.6786   53.2909   19.8844 C   0  0  0  0  0  0
    5.5043   54.2345   20.6391 N   0  0  0  0  0  0
    5.2999   54.2931   22.0347 C   0  0  0  0  0  0
    6.3889   54.5133   22.8820 C   0  0  0  0  0  0
    6.2251   54.5039   24.2657 C   0  0  0  0  0  0
    4.9647   54.2776   24.8388 C   0  0  0  0  0  0
    3.8663   54.0969   23.9802 C   0  0  0  0  0  0
    4.0340   54.0967   22.5988 C   0  0  0  0  0  0
    4.8250   54.2008   26.3507 C   0  0  0  0  0  0
    5.7515   54.5742   27.0729 O   0  0  0  0  0  0
    3.6606   53.6801   26.8028 N   0  0  0  0  0  0
    3.2187   53.2889   28.0899 C   0  0  0  0  0  0
    4.0705   53.3078   29.2094 C   0  0  0  0  0  0
    3.6175   52.8966   30.4607 C   0  0  0  0  0  0
    2.3028   52.4888   30.6269 C   0  0  0  0  0  0
    1.4479   52.4519   29.5327 C   0  0  0  0  0  0
    1.8775   52.8281   28.2464 C   0  0  0  0  0  0
    0.8894   52.7114   27.1058 C   0  0  0  0  0  0
   -0.3122   52.4970   27.3864 O   0  0  0  0  0  0
    6.1197   55.6447   19.7163 S   0  0  0  0  0  0
    5.0127   56.1205   18.8804 O   0  0  0  0  0  0
    6.7990   56.5452   20.6579 O   0  0  0  0  0  0
    7.3521   54.9832   18.5975 C   0  0  0  0  0  0
    6.9474   54.3530   17.4175 C   0  0  0  0  0  0
    7.8979   53.7901   16.5704 C   0  0  0  0  0  0
    9.2483   53.8631   16.9040 C   0  0  0  0  0  0
    9.6555   54.4969   18.0760 C   0  0  0  0  0  0
    8.7062   55.0548   18.9275 C   0  0  0  0  0  0
    4.5694   52.3469   20.4189 H   0  0  0  0  0  0
    3.6854   53.7042   19.7034 H   0  0  0  0  0  0
    5.1232   53.0527   18.9197 H   0  0  0  0  0  0
    7.3776   54.6684   22.4743 H   0  0  0  0  0  0
    7.0973   54.6502   24.8869 H   0  0  0  0  0  0
    2.8667   53.9416   24.3561 H   0  0  0  0  0  0
    3.1668   53.9440   21.9723 H   0  0  0  0  0  0
    2.9530   53.4597   26.1045 H   0  0  0  0  0  0
    5.0999   53.6197   29.1363 H   0  0  0  0  0  0
    4.2858   52.9013   31.3092 H   0  0  0  0  0  0
    1.9468   52.1822   31.6005 H   0  0  0  0  0  0
    0.4361   52.1043   29.6970 H   0  0  0  0  0  0
    5.9002   54.2935   17.1571 H   0  0  0  0  0  0
    7.5882   53.2955   15.6611 H   0  0  0  0  0  0
    9.9861   53.4222   16.2495 H   0  0  0  0  0  0
   10.7038   54.5442   18.3326 H   0  0  0  0  0  0
    9.0303   55.5316   19.8418 H   0  0  0  0  0  0
    1.3033   52.8519   25.9304 O   0  5  0  0  0  0
  1  2  1  0  0  0
  1 29  1  0  0  0
  1 30  1  0  0  0
  1 31  1  0  0  0
  2  3  1  0  0  0
  2 20  1  0  0  0
  3  8  2  0  0  0
  3  4  1  0  0  0
  4  5  2  0  0  0
  4 32  1  0  0  0
  5  6  1  0  0  0
  5 33  1  0  0  0
  6  7  2  0  0  0
  6  9  1  0  0  0
  7  8  1  0  0  0
  7 34  1  0  0  0
  8 35  1  0  0  0
  9 10  2  0  0  0
  9 11  1  0  0  0
 11 12  1  0  0  0
 11 36  1  0  0  0
 12 17  2  0  0  0
 12 13  1  0  0  0
 13 14  2  0  0  0
 13 37  1  0  0  0
 14 15  1  0  0  0
 14 38  1  0  0  0
 15 16  2  0  0  0
 15 39  1  0  0  0
 16 17  1  0  0  0
 16 40  1  0  0  0
 17 18  1  0  0  0
 18 19  2  0  0  0
 18 46  1  0  0  0
 20 21  2  0  0  0
 20 22  2  0  0  0
 20 23  1  0  0  0
 23 28  2  0  0  0
 23 24  1  0  0  0
 24 25  2  0  0  0
 24 41  1  0  0  0
 25 26  1  0  0  0
 25 42  1  0  0  0
 26 27  2  0  0  0
 26 43  1  0  0  0
 27 28  1  0  0  0
 27 44  1  0  0  0
 28 45  1  0  0  0
M  CHG  1  46  -1
M  END
> <i_i_glide_confnum>
106

> <i_i_glide_lignum>
1926

> <i_i_glide_posenum>
224

> <i_i_glide_rotatable_bonds>
7

> <i_m_Source_File_Index>
2534

> <b_m_subgroup_collapsed>
0

> <r_i_docking_score>
-5.90484

> <r_i_glide_ecoul>
-5.90566

> <r_i_glide_eff_state_penalty>
0

> <r_i_glide_einternal>
8.29808

> <r_i_glide_emodel>
-61.851

> <r_i_glide_energy>
-48.974

> <r_i_glide_erotb>
0.70476

> <r_i_glide_esite>
-0.0260062

> <r_i_glide_evdw>
-43.0683

> <r_i_glide_gscore>
-5.90484

> <r_i_glide_hbond>
0

> <r_i_glide_ligand_efficiency>
-0.203615

> <r_i_glide_ligand_efficiency_ln>
-1.35206

> <r_i_glide_ligand_efficiency_sa>
-0.62557

> <r_i_glide_lipo>
-2.62146

> <r_i_glide_metal>
0

> <r_i_glide_rewards>
-0.922868

> <s_i_glide_gridfile>
wee1_glide-grid

> <s_m_Source_File>
wee1_decoys_glide_SP.sdf

> <s_m_Source_Path>
/Users/zhangxujun/Desktop

> <s_m_entry_id>
2809

> <s_m_entry_name>
wee1_decoys_glide_SP.2534

> <s_m_subgroup_title>
wee1_decoys_glide_SP

> <s_m_subgroupid>
wee1_decoys_glide_SP


$$$$
