ZINC58964194_5617
                    3D
 Schrodinger Suite 2024-2.
 55 58  0  0  1  0            999 V2000
    1.6736   50.6653   19.6852 C   0  0  0  0  0  0
    1.5905   51.1277   21.1605 C   0  0  1  0  0  0
    1.7806   50.2463   21.7744 H   0  0  0  0  0  0
    2.6560   52.1620   21.5885 C   0  0  0  0  0  0
    2.7036   52.4986   22.7719 O   0  0  0  0  0  0
    3.4867   52.6300   20.6322 N   0  0  0  0  0  0
    4.5555   53.5402   20.7217 C   0  0  0  0  0  0
    5.1066   53.9516   19.5098 C   0  0  0  0  0  0
    6.1902   54.8261   19.4845 C   0  0  0  0  0  0
    6.7597   55.2964   20.6780 C   0  0  0  0  0  0
    6.2045   54.8967   21.9065 C   0  0  0  0  0  0
    5.1041   54.0204   21.9185 C   0  0  0  0  0  0
    6.7947   55.3907   23.0567 O   0  0  0  0  0  0
    6.3322   54.9631   24.3327 C   0  0  0  0  0  0
    7.8872   56.0965   20.7152 O   0  0  0  0  0  0
    8.6202   56.3231   19.5144 C   0  0  0  0  0  0
   -0.0870   51.6955   21.5890 S   0  0  0  0  0  0
   -0.4242   50.9670   23.1585 C   0  0  0  0  0  0
    0.0159   51.6116   24.2712 N   0  0  0  0  0  0
   -0.2550   51.0285   25.4761 C   0  0  0  0  0  0
   -0.9393   49.8021   25.5423 C   0  0  0  0  0  0
   -1.3562   49.2141   24.3419 C   0  0  0  0  0  0
   -1.1007   49.7913   23.1383 N   0  0  0  0  0  0
   -2.1347   47.9007   24.3184 C   0  0  0  0  0  0
   -1.2955   46.8949   24.0802 F   0  0  0  0  0  0
   -2.7459   47.6675   25.4800 F   0  0  0  0  0  0
   -3.0688   47.9065   23.3661 F   0  0  0  0  0  0
    0.2061   51.7516   26.7059 C   0  0  0  0  0  0
    1.2837   52.6722   26.6682 C   0  0  0  0  0  0
    1.7169   53.3530   27.8169 C   0  0  0  0  0  0
    1.0494   53.0927   29.0095 C   0  0  0  0  0  0
    0.0049   52.2172   29.0649 C   0  0  0  0  0  0
   -0.4429   51.5357   27.9415 C   0  0  0  0  0  0
   -0.4961   52.1908   30.3267 O   0  0  0  0  0  0
    0.4267   52.8927   31.1146 C   0  0  0  0  0  0
    1.2480   53.6319   30.2436 O   0  0  0  0  0  0
    2.6644   50.2815   19.4279 H   0  0  0  0  0  0
    0.9645   49.8606   19.4946 H   0  0  0  0  0  0
    1.4402   51.4745   18.9923 H   0  0  0  0  0  0
    3.3121   52.2891   19.6983 H   0  0  0  0  0  0
    4.7063   53.5874   18.5738 H   0  0  0  0  0  0
    6.5876   55.1090   18.5212 H   0  0  0  0  0  0
    4.7019   53.7014   22.8643 H   0  0  0  0  0  0
    6.9277   55.4458   25.1088 H   0  0  0  0  0  0
    5.2899   55.2416   24.4949 H   0  0  0  0  0  0
    6.4416   53.8844   24.4566 H   0  0  0  0  0  0
    9.5201   56.8959   19.7394 H   0  0  0  0  0  0
    8.0405   56.8979   18.7915 H   0  0  0  0  0  0
    8.9410   55.3858   19.0585 H   0  0  0  0  0  0
   -1.1360   49.3059   26.4817 H   0  0  0  0  0  0
    1.8013   52.8596   25.7362 H   0  0  0  0  0  0
    2.5404   54.0525   27.7696 H   0  0  0  0  0  0
   -1.2817   50.8581   28.0308 H   0  0  0  0  0  0
    1.0297   52.1718   31.6709 H   0  0  0  0  0  0
   -0.0950   53.5333   31.8282 H   0  0  0  0  0  0
  1  2  1  0  0  0
  1 37  1  0  0  0
  1 38  1  0  0  0
  1 39  1  0  0  0
  2  3  1  0  0  0
  2  4  1  0  0  0
  2 17  1  0  0  0
  4  5  2  0  0  0
  4  6  1  0  0  0
  6  7  1  0  0  0
  6 40  1  0  0  0
  7 12  2  0  0  0
  7  8  1  0  0  0
  8  9  2  0  0  0
  8 41  1  0  0  0
  9 10  1  0  0  0
  9 42  1  0  0  0
 10 11  2  0  0  0
 10 15  1  0  0  0
 11 12  1  0  0  0
 11 13  1  0  0  0
 12 43  1  0  0  0
 13 14  1  0  0  0
 14 44  1  0  0  0
 14 45  1  0  0  0
 14 46  1  0  0  0
 15 16  1  0  0  0
 16 47  1  0  0  0
 16 48  1  0  0  0
 16 49  1  0  0  0
 17 18  1  0  0  0
 18 23  2  0  0  0
 18 19  1  0  0  0
 19 20  2  0  0  0
 20 21  1  0  0  0
 20 28  1  0  0  0
 21 22  2  0  0  0
 21 50  1  0  0  0
 22 23  1  0  0  0
 22 24  1  0  0  0
 24 25  1  0  0  0
 24 26  1  0  0  0
 24 27  1  0  0  0
 28 33  2  0  0  0
 28 29  1  0  0  0
 29 30  2  0  0  0
 29 51  1  0  0  0
 30 31  1  0  0  0
 30 52  1  0  0  0
 31 36  1  0  0  0
 31 32  2  0  0  0
 32 33  1  0  0  0
 32 34  1  0  0  0
 33 53  1  0  0  0
 34 35  1  0  0  0
 35 36  1  0  0  0
 35 54  1  0  0  0
 35 55  1  0  0  0
M  END
> <i_i_glide_confnum>
57

> <i_i_glide_lignum>
5618

> <i_i_glide_posenum>
77

> <i_i_glide_rotatable_bonds>
9

> <i_m_Source_File_Index>
1830

> <b_m_subgroup_collapsed>
0

> <r_i_docking_score>
-4.58226

> <r_i_glide_ecoul>
-5.60871

> <r_i_glide_eff_state_penalty>
0

> <r_i_glide_einternal>
10.3782

> <r_i_glide_emodel>
-59.1264

> <r_i_glide_energy>
-49.5327

> <r_i_glide_erotb>
0.476828

> <r_i_glide_esite>
-0.217145

> <r_i_glide_evdw>
-43.924

> <r_i_glide_gscore>
-4.58226

> <r_i_glide_hbond>
-0.0869544

> <r_i_glide_ligand_efficiency>
-0.130922

> <r_i_glide_ligand_efficiency_ln>
-1.00591

> <r_i_glide_ligand_efficiency_sa>
-0.428253

> <r_i_glide_lipo>
-1.65957

> <r_i_glide_metal>
0

> <r_i_glide_rewards>
-0.0579071

> <s_i_glide_gridfile>
wee1_glide-grid

> <s_m_Source_File>
wee1_decoys_glide_SP.sdf

> <s_m_Source_Path>
/Users/zhangxujun/Desktop

> <s_m_entry_id>
2105

> <s_m_entry_name>
wee1_decoys_glide_SP.1830

> <s_m_subgroup_title>
wee1_decoys_glide_SP

> <s_m_subgroupid>
wee1_decoys_glide_SP


$$$$
