ZINC35644316_2821
                    3D
 Schrodinger Suite 2024-2.
 61 65  0  0  1  0            999 V2000
   -0.6533   51.3328   28.3016 C   0  0  0  0  0  0
    0.4777   52.0733   27.6133 C   0  0  0  0  0  0
    0.4637   52.2251   26.2273 C   0  0  0  0  0  0
    1.5054   52.8918   25.5876 C   0  0  0  0  0  0
    2.5877   53.3947   26.3276 C   0  0  0  0  0  0
    2.5857   53.2403   27.7215 C   0  0  0  0  0  0
    1.5391   52.5815   28.3609 C   0  0  0  0  0  0
    3.7492   54.0964   25.6573 C   0  0  0  0  0  0
    4.5150   54.8072   26.3115 O   0  0  0  0  0  0
    3.8994   53.8931   24.3311 N   0  0  0  0  0  0
    4.9347   54.4966   23.4894 C   0  0  2  0  0  0
    4.4265   54.8966   22.0678 C   0  0  0  0  0  0
    5.5042   55.6182   21.1910 C   0  0  0  0  0  0
    6.6908   54.7017   21.0831 C   0  0  2  0  0  0
    7.2755   54.4967   22.5008 C   0  0  0  0  0  0
    6.2745   53.7350   23.3957 C   0  0  0  0  0  0
    7.7287   55.2968   20.2473 N   0  0  0  0  0  0
    7.9690   54.9202   18.9207 C   0  0  0  0  0  0
    7.0467   54.2720   18.0706 C   0  0  0  0  0  0
    5.6844   53.8434   18.0599 C   0  0  0  0  0  0
    5.3753   53.2833   16.9187 N   0  0  0  0  0  0
    6.4873   53.2552   16.1470 N   0  0  0  0  0  0
    7.5364   53.8969   16.7946 C   0  0  0  0  0  0
    8.7749   54.1380   16.3410 N   0  0  0  0  0  0
    9.5527   54.8018   17.2333 C   0  0  0  0  0  0
    9.2143   55.2140   18.4787 N   0  0  0  0  0  0
   10.9688   55.1006   16.7882 C   0  0  0  0  0  0
    6.4579   52.6053   14.8909 C   0  0  0  0  0  0
    5.4091   52.8687   13.9982 C   0  0  0  0  0  0
    5.3794   52.2516   12.7471 C   0  0  0  0  0  0
    6.3965   51.3723   12.3765 C   0  0  0  0  0  0
    7.4440   51.1078   13.2585 C   0  0  0  0  0  0
    7.4809   51.7200   14.5117 C   0  0  0  0  0  0
    8.4960   51.4166   15.3543 F   0  0  0  0  0  0
   -0.9962   50.5011   27.6842 H   0  0  0  0  0  0
   -0.3337   50.9040   29.2520 H   0  0  0  0  0  0
   -1.4984   51.9965   28.4802 H   0  0  0  0  0  0
   -0.3566   51.8304   25.6455 H   0  0  0  0  0  0
    1.4557   53.0010   24.5141 H   0  0  0  0  0  0
    3.4029   53.6198   28.3191 H   0  0  0  0  0  0
    1.5566   52.4633   29.4344 H   0  0  0  0  0  0
    3.2810   53.2381   23.8803 H   0  0  0  0  0  0
    5.2139   55.4031   24.0322 H   0  0  0  0  0  0
    4.1204   53.9861   21.5495 H   0  0  0  0  0  0
    3.5046   55.4704   22.1303 H   0  0  0  0  0  0
    5.8713   56.5667   21.5920 H   0  0  0  0  0  0
    5.1047   55.8046   20.1939 H   0  0  0  0  0  0
    6.3044   53.7792   20.6421 H   0  0  0  0  0  0
    7.5043   55.4604   22.9609 H   0  0  0  0  0  0
    8.2175   53.9526   22.4818 H   0  0  0  0  0  0
    6.7002   53.5860   24.3895 H   0  0  0  0  0  0
    6.0993   52.7513   22.9580 H   0  0  0  0  0  0
    8.4599   55.8170   20.7087 H   0  0  0  0  0  0
    4.9355   53.9384   18.8316 H   0  0  0  0  0  0
   10.9626   55.8282   15.9763 H   0  0  0  0  0  0
   11.5770   55.4955   17.6041 H   0  0  0  0  0  0
   11.4471   54.1909   16.4235 H   0  0  0  0  0  0
    4.6152   53.5499   14.2718 H   0  0  0  0  0  0
    4.5668   52.4562   12.0651 H   0  0  0  0  0  0
    6.3712   50.8945   11.4086 H   0  0  0  0  0  0
    8.2293   50.4215   12.9766 H   0  0  0  0  0  0
  1  2  1  0  0  0
  1 35  1  0  0  0
  1 36  1  0  0  0
  1 37  1  0  0  0
  2  7  2  0  0  0
  2  3  1  0  0  0
  3  4  2  0  0  0
  3 38  1  0  0  0
  4  5  1  0  0  0
  4 39  1  0  0  0
  5  6  2  0  0  0
  5  8  1  0  0  0
  6  7  1  0  0  0
  6 40  1  0  0  0
  7 41  1  0  0  0
  8  9  2  0  0  0
  8 10  1  0  0  0
 10 11  1  0  0  0
 10 42  1  0  0  0
 11 16  1  0  0  0
 11 12  1  0  0  0
 11 43  1  0  0  0
 12 13  1  0  0  0
 12 44  1  0  0  0
 12 45  1  0  0  0
 13 14  1  0  0  0
 13 46  1  0  0  0
 13 47  1  0  0  0
 14 15  1  0  0  0
 14 17  1  0  0  0
 14 48  1  0  0  0
 15 16  1  0  0  0
 15 49  1  0  0  0
 15 50  1  0  0  0
 16 51  1  0  0  0
 16 52  1  0  0  0
 17 18  1  0  0  0
 17 53  1  0  0  0
 18 26  2  0  0  0
 18 19  1  0  0  0
 19 23  2  0  0  0
 19 20  1  0  0  0
 20 21  2  0  0  0
 20 54  1  0  0  0
 21 22  1  0  0  0
 22 23  1  0  0  0
 22 28  1  0  0  0
 23 24  1  0  0  0
 24 25  2  0  0  0
 25 26  1  0  0  0
 25 27  1  0  0  0
 27 55  1  0  0  0
 27 56  1  0  0  0
 27 57  1  0  0  0
 28 33  2  0  0  0
 28 29  1  0  0  0
 29 30  2  0  0  0
 29 58  1  0  0  0
 30 31  1  0  0  0
 30 59  1  0  0  0
 31 32  2  0  0  0
 31 60  1  0  0  0
 32 33  1  0  0  0
 32 61  1  0  0  0
 33 34  1  0  0  0
M  END
> <i_i_glide_confnum>
41

> <i_i_glide_lignum>
2822

> <i_i_glide_posenum>
293

> <i_i_glide_rotatable_bonds>
6

> <i_m_Source_File_Index>
4112

> <b_m_subgroup_collapsed>
0

> <r_i_docking_score>
-3.13881

> <r_i_glide_ecoul>
0.486462

> <r_i_glide_eff_state_penalty>
0

> <r_i_glide_einternal>
5.16346

> <r_i_glide_emodel>
-31.8155

> <r_i_glide_energy>
-26.0115

> <r_i_glide_erotb>
0.573987

> <r_i_glide_esite>
-0.0186801

> <r_i_glide_evdw>
-26.4979

> <r_i_glide_gscore>
-3.13881

> <r_i_glide_hbond>
0

> <r_i_glide_ligand_efficiency>
-0.092318

> <r_i_glide_ligand_efficiency_ln>
-0.693452

> <r_i_glide_ligand_efficiency_sa>
-0.299075

> <r_i_glide_lipo>
-1.70008

> <r_i_glide_metal>
0

> <r_i_glide_rewards>
-0.742112

> <s_i_glide_gridfile>
wee1_glide-grid

> <s_m_Source_File>
wee1_decoys_glide_SP.sdf

> <s_m_Source_Path>
/Users/zhangxujun/Desktop

> <s_m_entry_id>
4387

> <s_m_entry_name>
wee1_decoys_glide_SP.4112

> <s_m_subgroup_title>
wee1_decoys_glide_SP

> <s_m_subgroupid>
wee1_decoys_glide_SP


$$$$
