ZINC44939122_1052
                    3D
 Schrodinger Suite 2024-2.
 68 71  0  0  1  0            999 V2000
    4.2221   58.4736   16.8865 C   0  0  0  0  0  0
    3.4968   57.1897   16.5244 C   0  0  0  0  0  0
    2.1271   57.2118   16.2594 C   0  0  0  0  0  0
    1.4627   56.0369   15.9208 C   0  0  0  0  0  0
    2.1665   54.8372   15.8408 C   0  0  0  0  0  0
    3.5544   54.7852   16.0999 C   0  0  0  0  0  0
    4.1963   55.9799   16.4660 C   0  0  0  0  0  0
    4.2531   53.5477   15.9841 N   0  0  0  0  0  0
    3.4681   52.4145   15.4728 C   0  0  0  0  0  0
    1.9791   52.4770   15.8941 C   0  0  2  0  0  0
    1.4377   51.6678   15.4028 H   0  0  0  0  0  0
    1.4153   53.7316   15.4922 O   0  0  0  0  0  0
    1.7099   52.2187   17.4050 C   0  0  0  0  0  0
    0.9390   52.9444   18.0376 O   0  0  0  0  0  0
    2.3037   51.1296   17.9306 N   0  0  0  0  0  0
    2.1092   50.5883   19.2063 C   0  0  0  0  0  0
    2.1154   49.1962   19.2714 C   0  0  0  0  0  0
    1.9034   48.5516   20.4816 C   0  0  0  0  0  0
    1.7328   49.2957   21.6489 C   0  0  0  0  0  0
    1.7641   50.6944   21.6131 C   0  0  0  0  0  0
    1.9384   51.3473   20.3783 C   0  0  0  0  0  0
    1.6099   51.3343   22.8563 N   0  0  0  0  0  0
    1.9055   52.5992   23.2288 C   0  0  0  0  0  0
    2.3446   53.4734   22.4818 O   0  0  0  0  0  0
    1.7745   52.8594   24.7123 C   0  0  0  0  0  0
    0.7744   52.2399   25.4757 C   0  0  0  0  0  0
    0.7264   52.4178   26.8559 C   0  0  0  0  0  0
    1.6719   53.2206   27.5118 C   0  0  0  0  0  0
    2.6515   53.8589   26.7375 C   0  0  0  0  0  0
    2.6948   53.6956   25.3549 C   0  0  0  0  0  0
    1.6733   53.4073   29.0519 C   0  0  0  0  0  0
    2.9750   52.8083   29.6398 C   0  0  0  0  0  0
    0.4776   52.7095   29.7567 C   0  0  0  0  0  0
    1.5939   54.9145   29.4020 C   0  0  0  0  0  0
    6.0431   53.4061   15.9036 S   0  0  0  0  0  0
    6.3557   52.1016   15.3096 O   0  0  0  0  0  0
    6.5768   54.6256   15.2879 O   0  0  0  0  0  0
    6.5220   53.3718   17.7205 C   0  0  0  0  0  0
    4.7411   58.8845   16.0199 H   0  0  0  0  0  0
    3.5359   59.2292   17.2719 H   0  0  0  0  0  0
    4.9624   58.2878   17.6664 H   0  0  0  0  0  0
    1.5749   58.1384   16.3192 H   0  0  0  0  0  0
    0.4025   56.0545   15.7194 H   0  0  0  0  0  0
    5.2484   55.9983   16.7013 H   0  0  0  0  0  0
    3.9345   51.4672   15.7518 H   0  0  0  0  0  0
    3.5221   52.4495   14.3840 H   0  0  0  0  0  0
    2.8974   50.5668   17.3268 H   0  0  0  0  0  0
    2.2735   48.6073   18.3775 H   0  0  0  0  0  0
    1.9042   47.4730   20.5003 H   0  0  0  0  0  0
    1.6021   48.7769   22.5888 H   0  0  0  0  0  0
    1.9508   52.4256   20.3185 H   0  0  0  0  0  0
    1.3239   50.7242   23.6052 H   0  0  0  0  0  0
    0.0339   51.6013   25.0154 H   0  0  0  0  0  0
   -0.0523   51.9026   27.3974 H   0  0  0  0  0  0
    3.3972   54.4826   27.2065 H   0  0  0  0  0  0
    3.4749   54.1892   24.7915 H   0  0  0  0  0  0
    2.9973   52.8791   30.7281 H   0  0  0  0  0  0
    3.8656   53.3167   29.2680 H   0  0  0  0  0  0
    3.0753   51.7526   29.3810 H   0  0  0  0  0  0
   -0.4811   53.0883   29.3982 H   0  0  0  0  0  0
    0.4871   51.6297   29.6018 H   0  0  0  0  0  0
    0.4951   52.8679   30.8364 H   0  0  0  0  0  0
    0.7122   55.3738   28.9554 H   0  0  0  0  0  0
    1.5319   55.0794   30.4780 H   0  0  0  0  0  0
    2.4628   55.4712   29.0508 H   0  0  0  0  0  0
    7.6055   53.2986   17.7879 H   0  0  0  0  0  0
    6.1696   54.2831   18.1992 H   0  0  0  0  0  0
    6.0559   52.4994   18.1788 H   0  0  0  0  0  0
  1  2  1  0  0  0
  1 39  1  0  0  0
  1 40  1  0  0  0
  1 41  1  0  0  0
  2  7  2  0  0  0
  2  3  1  0  0  0
  3  4  2  0  0  0
  3 42  1  0  0  0
  4  5  1  0  0  0
  4 43  1  0  0  0
  5 12  1  0  0  0
  5  6  2  0  0  0
  6  7  1  0  0  0
  6  8  1  0  0  0
  7 44  1  0  0  0
  8  9  1  0  0  0
  8 35  1  0  0  0
  9 10  1  0  0  0
  9 45  1  0  0  0
  9 46  1  0  0  0
 10 11  1  0  0  0
 10 12  1  0  0  0
 10 13  1  0  0  0
 13 14  2  0  0  0
 13 15  1  0  0  0
 15 16  1  0  0  0
 15 47  1  0  0  0
 16 21  2  0  0  0
 16 17  1  0  0  0
 17 18  2  0  0  0
 17 48  1  0  0  0
 18 19  1  0  0  0
 18 49  1  0  0  0
 19 20  2  0  0  0
 19 50  1  0  0  0
 20 21  1  0  0  0
 20 22  1  0  0  0
 21 51  1  0  0  0
 22 23  1  0  0  0
 22 52  1  0  0  0
 23 24  2  0  0  0
 23 25  1  0  0  0
 25 30  2  0  0  0
 25 26  1  0  0  0
 26 27  2  0  0  0
 26 53  1  0  0  0
 27 28  1  0  0  0
 27 54  1  0  0  0
 28 29  2  0  0  0
 28 31  1  0  0  0
 29 30  1  0  0  0
 29 55  1  0  0  0
 30 56  1  0  0  0
 31 32  1  0  0  0
 31 33  1  0  0  0
 31 34  1  0  0  0
 32 57  1  0  0  0
 32 58  1  0  0  0
 32 59  1  0  0  0
 33 60  1  0  0  0
 33 61  1  0  0  0
 33 62  1  0  0  0
 34 63  1  0  0  0
 34 64  1  0  0  0
 34 65  1  0  0  0
 35 36  2  0  0  0
 35 37  2  0  0  0
 35 38  1  0  0  0
 38 66  1  0  0  0
 38 67  1  0  0  0
 38 68  1  0  0  0
M  END
> <i_i_glide_confnum>
169

> <i_i_glide_lignum>
1053

> <i_i_glide_posenum>
273

> <i_i_glide_rotatable_bonds>
8

> <i_m_Source_File_Index>
2389

> <b_m_subgroup_collapsed>
0

> <r_i_docking_score>
-4.44347

> <r_i_glide_ecoul>
-4.05966

> <r_i_glide_eff_state_penalty>
0

> <r_i_glide_einternal>
14.3038

> <r_i_glide_emodel>
-46.0546

> <r_i_glide_energy>
-42.8508

> <r_i_glide_erotb>
0.453341

> <r_i_glide_esite>
-0.186363

> <r_i_glide_evdw>
-38.7911

> <r_i_glide_gscore>
-4.44347

> <r_i_glide_hbond>
-0.16

> <r_i_glide_ligand_efficiency>
-0.120094

> <r_i_glide_ligand_efficiency_ln>
-0.963685

> <r_i_glide_ligand_efficiency_sa>
-0.400179

> <r_i_glide_lipo>
-1.93729

> <r_i_glide_metal>
0

> <r_i_glide_rewards>
-0.0646568

> <s_i_glide_gridfile>
wee1_glide-grid

> <s_m_Source_File>
wee1_decoys_glide_SP.sdf

> <s_m_Source_Path>
/Users/zhangxujun/Desktop

> <s_m_entry_id>
2664

> <s_m_entry_name>
wee1_decoys_glide_SP.2389

> <s_m_subgroup_title>
wee1_decoys_glide_SP

> <s_m_subgroupid>
wee1_decoys_glide_SP


$$$$
