ZINC44164431_5254
                    3D
 Schrodinger Suite 2024-2.
 83 87  0  0  1  0            999 V2000
   -3.8643   50.6095   27.6227 C   0  0  0  0  0  0
   -2.4017   51.0665   27.7807 C   0  0  0  0  0  0
   -1.4924   50.9832   26.5411 C   0  0  0  0  0  0
   -1.9167   50.2464   25.4341 C   0  0  0  0  0  0
   -1.2123   50.1865   24.2257 C   0  0  0  0  0  0
    0.0023   50.9137   24.1275 C   0  0  0  0  0  0
    0.4622   51.5891   25.2728 C   0  0  0  0  0  0
   -0.2425   51.6316   26.4873 C   0  0  0  0  0  0
    0.2992   52.4223   27.7043 C   0  0  1  0  0  0
   -0.4858   53.1302   27.9736 H   0  0  0  0  0  0
    0.7455   51.5596   28.9121 C   0  0  0  0  0  0
    1.3005   52.4965   30.3842 S   0  0  0  0  0  0
    1.1942   54.1979   29.7329 C   0  0  0  0  0  0
    1.9138   54.4041   28.3675 C   0  0  2  0  0  0
    1.6464   55.3677   27.9326 H   0  0  0  0  0  0
    1.5156   53.3050   27.3422 N   0  3  0  0  0  0
    3.4755   54.3856   28.4648 C   0  0  0  0  0  0
    3.9702   54.1960   29.5786 O   0  0  0  0  0  0
    4.2650   54.4921   27.3551 N   0  0  0  0  0  0
    3.7583   55.0404   26.0862 C   0  0  0  0  0  0
    4.4898   54.4042   24.8973 C   0  0  0  0  0  0
    5.9394   54.5790   25.0013 N   0  0  0  0  0  0
    6.4269   53.9662   26.2455 C   0  0  0  0  0  0
    5.7367   54.5007   27.5251 C   0  0  0  0  0  0
    6.6296   53.9509   23.8637 C   0  0  0  0  0  0
    6.3044   54.5158   22.4830 C   0  0  0  0  0  0
    7.0854   55.5385   21.9373 C   0  0  0  0  0  0
    6.8370   55.9846   20.6411 C   0  0  0  0  0  0
    5.7891   55.4334   19.9083 C   0  0  0  0  0  0
    4.9728   54.4519   20.4650 C   0  0  0  0  0  0
    5.2277   53.9964   21.7546 C   0  0  0  0  0  0
    0.7780   51.0381   22.7875 C   0  0  0  0  0  0
    0.4205   49.8615   21.8434 C   0  0  0  0  0  0
   -1.0876   49.6353   21.7322 C   0  0  0  0  0  0
   -1.7476   49.2764   23.0881 C   0  0  0  0  0  0
   -1.3874   47.8146   23.4564 C   0  0  0  0  0  0
   -3.2745   49.4698   22.8790 C   0  0  0  0  0  0
    0.3798   52.3777   22.1231 C   0  0  0  0  0  0
    2.3044   50.9517   23.0021 C   0  0  0  0  0  0
   -4.4261   50.8154   28.5349 H   0  0  0  0  0  0
   -4.3644   51.1252   26.8022 H   0  0  0  0  0  0
   -3.9284   49.5334   27.4532 H   0  0  0  0  0  0
   -1.9756   50.4989   28.6006 H   0  0  0  0  0  0
   -2.4327   52.0965   28.1086 H   0  0  0  0  0  0
   -2.8286   49.6803   25.5119 H   0  0  0  0  0  0
    1.3943   52.1203   25.1862 H   0  0  0  0  0  0
    1.5644   50.8978   28.6258 H   0  0  0  0  0  0
   -0.0411   50.9049   29.2782 H   0  0  0  0  0  0
    1.5911   54.8711   30.4930 H   0  0  0  0  0  0
    0.1356   54.4502   29.6594 H   0  0  0  0  0  0
    1.3186   53.7390   26.4505 H   0  0  0  0  0  0
    3.9951   56.0967   26.0518 H   0  0  0  0  0  0
    2.7012   54.8966   25.9176 H   0  0  0  0  0  0
    4.1197   54.8874   23.9917 H   0  0  0  0  0  0
    4.2535   53.3390   24.8589 H   0  0  0  0  0  0
    6.2165   52.8972   26.1994 H   0  0  0  0  0  0
    7.5027   54.1141   26.3425 H   0  0  0  0  0  0
    6.0724   53.8863   28.3631 H   0  0  0  0  0  0
    6.0773   55.5289   27.6556 H   0  0  0  0  0  0
    6.3764   52.8968   23.8325 H   0  0  0  0  0  0
    7.7074   54.0227   24.0173 H   0  0  0  0  0  0
    7.9046   55.9599   22.4992 H   0  0  0  0  0  0
    7.4601   56.7407   20.1887 H   0  0  0  0  0  0
    5.6018   55.7783   18.9018 H   0  0  0  0  0  0
    4.1540   54.0380   19.8932 H   0  0  0  0  0  0
    4.6087   53.2164   22.1722 H   0  0  0  0  0  0
    0.8348   50.0353   20.8482 H   0  0  0  0  0  0
    0.8914   48.9409   22.1911 H   0  0  0  0  0  0
   -1.5457   50.5297   21.3083 H   0  0  0  0  0  0
   -1.2823   48.8516   20.9981 H   0  0  0  0  0  0
   -1.6427   47.1183   22.6554 H   0  0  0  0  0  0
   -0.3243   47.6949   23.6743 H   0  0  0  0  0  0
   -1.9290   47.4900   24.3462 H   0  0  0  0  0  0
   -3.6268   48.9418   21.9905 H   0  0  0  0  0  0
   -3.8625   49.0803   23.7089 H   0  0  0  0  0  0
   -3.5336   50.5234   22.7576 H   0  0  0  0  0  0
    0.8242   52.4840   21.1335 H   0  0  0  0  0  0
   -0.6972   52.4785   22.0096 H   0  0  0  0  0  0
    0.7177   53.2274   22.7150 H   0  0  0  0  0  0
    2.8383   50.8547   22.0547 H   0  0  0  0  0  0
    2.7026   51.8519   23.4728 H   0  0  0  0  0  0
    2.5771   50.0915   23.6167 H   0  0  0  0  0  0
    2.3012   52.6871   27.1878 H   0  0  0  0  0  0
  1  2  1  0  0  0
  1 40  1  0  0  0
  1 41  1  0  0  0
  1 42  1  0  0  0
  2  3  1  0  0  0
  2 43  1  0  0  0
  2 44  1  0  0  0
  3  8  2  0  0  0
  3  4  1  0  0  0
  4  5  2  0  0  0
  4 45  1  0  0  0
  5 35  1  0  0  0
  5  6  1  0  0  0
  6  7  2  0  0  0
  6 32  1  0  0  0
  7  8  1  0  0  0
  7 46  1  0  0  0
  8  9  1  0  0  0
  9 10  1  0  0  0
  9 16  1  0  0  0
  9 11  1  0  0  0
 11 12  1  0  0  0
 11 47  1  0  0  0
 11 48  1  0  0  0
 12 13  1  0  0  0
 13 14  1  0  0  0
 13 49  1  0  0  0
 13 50  1  0  0  0
 14 15  1  0  0  0
 14 16  1  0  0  0
 14 17  1  0  0  0
 16 51  1  0  0  0
 16 83  1  0  0  0
 17 18  2  0  0  0
 17 19  1  0  0  0
 19 24  1  0  0  0
 19 20  1  0  0  0
 20 21  1  0  0  0
 20 52  1  0  0  0
 20 53  1  0  0  0
 21 22  1  0  0  0
 21 54  1  0  0  0
 21 55  1  0  0  0
 22 23  1  0  0  0
 22 25  1  0  0  0
 23 24  1  0  0  0
 23 56  1  0  0  0
 23 57  1  0  0  0
 24 58  1  0  0  0
 24 59  1  0  0  0
 25 26  1  0  0  0
 25 60  1  0  0  0
 25 61  1  0  0  0
 26 31  2  0  0  0
 26 27  1  0  0  0
 27 28  2  0  0  0
 27 62  1  0  0  0
 28 29  1  0  0  0
 28 63  1  0  0  0
 29 30  2  0  0  0
 29 64  1  0  0  0
 30 31  1  0  0  0
 30 65  1  0  0  0
 31 66  1  0  0  0
 32 33  1  0  0  0
 32 38  1  0  0  0
 32 39  1  0  0  0
 33 34  1  0  0  0
 33 67  1  0  0  0
 33 68  1  0  0  0
 34 35  1  0  0  0
 34 69  1  0  0  0
 34 70  1  0  0  0
 35 36  1  0  0  0
 35 37  1  0  0  0
 36 71  1  0  0  0
 36 72  1  0  0  0
 36 73  1  0  0  0
 37 74  1  0  0  0
 37 75  1  0  0  0
 37 76  1  0  0  0
 38 77  1  0  0  0
 38 78  1  0  0  0
 38 79  1  0  0  0
 39 80  1  0  0  0
 39 81  1  0  0  0
 39 82  1  0  0  0
M  CHG  1  16   1
M  END
> <i_i_glide_confnum>
785

> <i_i_glide_lignum>
5255

> <i_i_glide_posenum>
259

> <i_i_glide_rotatable_bonds>
6

> <i_m_Source_File_Index>
3132

> <b_m_subgroup_collapsed>
0

> <r_i_docking_score>
-5.82506

> <r_i_glide_ecoul>
-1.41389

> <r_i_glide_eff_state_penalty>
0

> <r_i_glide_einternal>
23.5866

> <r_i_glide_emodel>
-46.7887

> <r_i_glide_energy>
-46.6164

> <r_i_glide_erotb>
0.378899

> <r_i_glide_esite>
0

> <r_i_glide_evdw>
-45.2025

> <r_i_glide_gscore>
-5.82506

> <r_i_glide_hbond>
-0.00542784

> <r_i_glide_ligand_efficiency>
-0.157434

> <r_i_glide_ligand_efficiency_ln>
-1.26332

> <r_i_glide_ligand_efficiency_sa>
-0.524605

> <r_i_glide_lipo>
-3.05443

> <r_i_glide_metal>
0

> <r_i_glide_rewards>
-0.671887

> <s_i_glide_gridfile>
wee1_glide-grid

> <s_m_Source_File>
wee1_decoys_glide_SP.sdf

> <s_m_Source_Path>
/Users/zhangxujun/Desktop

> <s_m_entry_id>
3407

> <s_m_entry_name>
wee1_decoys_glide_SP.3132

> <s_m_subgroup_title>
wee1_decoys_glide_SP

> <s_m_subgroupid>
wee1_decoys_glide_SP


$$$$
