ZINC04038051_3810
                    3D
 Schrodinger Suite 2024-2.
 47 49  0  0  1  0            999 V2000
    4.2843   54.1310   24.1143 C   0  0  0  0  0  0
    3.4812   53.6975   25.3225 C   0  0  0  0  0  0
    3.9125   53.7072   26.6478 C   0  0  0  0  0  0
    2.8643   53.3132   27.4785 N   0  0  0  0  0  0
    1.8034   52.9801   26.6496 C   0  0  0  0  0  0
    2.1437   53.2870   25.3468 C   0  0  0  0  0  0
    1.0300   53.1849   23.9231 S   0  0  0  0  0  0
   -0.2564   52.6489   24.3857 O   0  0  0  0  0  0
    1.1052   54.4967   23.2816 O   0  0  0  0  0  0
    1.7358   51.9849   22.8026 C   0  0  0  0  0  0
    1.6137   50.6252   23.0932 C   0  0  0  0  0  0
    2.1033   49.6845   22.1921 C   0  0  0  0  0  0
    2.7042   50.1067   21.0080 C   0  0  0  0  0  0
    2.8421   51.4625   20.7226 C   0  0  0  0  0  0
    2.3526   52.4067   21.6209 C   0  0  0  0  0  0
    0.6235   52.4676   27.0943 N   0  0  0  0  0  0
    2.9256   53.3305   28.9663 C   0  0  0  0  0  0
    2.9240   54.7725   29.5203 C   0  0  0  0  0  0
    1.5045   55.3275   29.6993 C   0  0  0  0  0  0
    0.6768   54.4329   30.6430 C   0  0  0  0  0  0
    0.6188   52.9605   30.1896 C   0  0  0  0  0  0
    2.0023   52.3755   29.7818 C   0  0  0  0  0  0
    5.2923   54.0767   27.1802 C   0  0  0  0  0  0
    4.8203   53.2982   23.6608 H   0  0  0  0  0  0
    3.6626   54.5800   23.3414 H   0  0  0  0  0  0
    5.0183   54.8959   24.3677 H   0  0  0  0  0  0
    1.1334   50.2986   24.0051 H   0  0  0  0  0  0
    2.0163   48.6309   22.4110 H   0  0  0  0  0  0
    3.0745   49.3760   20.3031 H   0  0  0  0  0  0
    3.3137   51.7760   19.8014 H   0  0  0  0  0  0
    2.4371   53.4584   21.3854 H   0  0  0  0  0  0
   -0.1232   52.2697   26.4367 H   0  0  0  0  0  0
    0.4731   52.2051   28.0576 H   0  0  0  0  0  0
    3.9214   52.9188   29.1316 H   0  0  0  0  0  0
    3.5103   55.4447   28.8951 H   0  0  0  0  0  0
    3.4673   54.7828   30.4636 H   0  0  0  0  0  0
    1.0133   55.3960   28.7275 H   0  0  0  0  0  0
    1.5479   56.3442   30.0929 H   0  0  0  0  0  0
   -0.3320   54.8347   30.7347 H   0  0  0  0  0  0
    1.0954   54.4742   31.6458 H   0  0  0  0  0  0
   -0.1174   52.8851   29.3957 H   0  0  0  0  0  0
    0.1998   52.3554   30.9967 H   0  0  0  0  0  0
    2.5318   52.1228   30.7021 H   0  0  0  0  0  0
    1.9073   51.4089   29.2836 H   0  0  0  0  0  0
    6.0301   54.1334   26.3788 H   0  0  0  0  0  0
    5.3102   55.0460   27.6780 H   0  0  0  0  0  0
    5.6848   53.3386   27.8808 H   0  0  0  0  0  0
  1  2  1  0  0  0
  1 24  1  0  0  0
  1 25  1  0  0  0
  1 26  1  0  0  0
  2  6  1  0  0  0
  2  3  2  0  0  0
  3  4  1  0  0  0
  3 23  1  0  0  0
  4  5  1  0  0  0
  4 17  1  0  0  0
  5  6  2  0  0  0
  5 16  1  0  0  0
  6  7  1  0  0  0
  7  8  2  0  0  0
  7  9  2  0  0  0
  7 10  1  0  0  0
 10 15  2  0  0  0
 10 11  1  0  0  0
 11 12  2  0  0  0
 11 27  1  0  0  0
 12 13  1  0  0  0
 12 28  1  0  0  0
 13 14  2  0  0  0
 13 29  1  0  0  0
 14 15  1  0  0  0
 14 30  1  0  0  0
 15 31  1  0  0  0
 16 32  1  0  0  0
 16 33  1  0  0  0
 17 22  1  0  0  0
 17 18  1  0  0  0
 17 34  1  0  0  0
 18 19  1  0  0  0
 18 35  1  0  0  0
 18 36  1  0  0  0
 19 20  1  0  0  0
 19 37  1  0  0  0
 19 38  1  0  0  0
 20 21  1  0  0  0
 20 39  1  0  0  0
 20 40  1  0  0  0
 21 22  1  0  0  0
 21 41  1  0  0  0
 21 42  1  0  0  0
 22 43  1  0  0  0
 22 44  1  0  0  0
 23 45  1  0  0  0
 23 46  1  0  0  0
 23 47  1  0  0  0
M  END
> <i_i_glide_confnum>
17

> <i_i_glide_lignum>
3811

> <i_i_glide_posenum>
323

> <i_i_glide_rotatable_bonds>
3

> <i_m_Source_File_Index>
5432

> <b_m_subgroup_collapsed>
0

> <r_i_docking_score>
-5.96101

> <r_i_glide_ecoul>
-1.05977

> <r_i_glide_eff_state_penalty>
0

> <r_i_glide_einternal>
0.884684

> <r_i_glide_emodel>
-52.5855

> <r_i_glide_energy>
-38.7435

> <r_i_glide_erotb>
0.511209

> <r_i_glide_esite>
0

> <r_i_glide_evdw>
-37.6838

> <r_i_glide_gscore>
-5.96101

> <r_i_glide_hbond>
0

> <r_i_glide_ligand_efficiency>
-0.259174

> <r_i_glide_ligand_efficiency_ln>
-1.44143

> <r_i_glide_ligand_efficiency_sa>
-0.737058

> <r_i_glide_lipo>
-2.78161

> <r_i_glide_metal>
0

> <r_i_glide_rewards>
-1.64746

> <s_i_glide_gridfile>
wee1_glide-grid

> <s_m_Source_File>
wee1_decoys_glide_SP.sdf

> <s_m_Source_Path>
/Users/zhangxujun/Desktop

> <s_m_entry_id>
5707

> <s_m_entry_name>
wee1_decoys_glide_SP.5432

> <s_m_subgroup_title>
wee1_decoys_glide_SP

> <s_m_subgroupid>
wee1_decoys_glide_SP


$$$$
