ZINC13389883_5943
                    3D
 Schrodinger Suite 2024-2.
 64 66  0  0  1  0            999 V2000
    2.5122   54.0747   22.9989 C   0  0  0  0  0  0
    2.6014   53.8851   24.5058 C   0  0  0  0  0  0
    3.6746   54.4938   25.1623 C   0  0  0  0  0  0
    3.8187   54.4026   26.5430 C   0  0  0  0  0  0
    2.8889   53.6948   27.3160 C   0  0  0  0  0  0
    1.8259   53.0675   26.6482 C   0  0  0  0  0  0
    1.6650   53.1430   25.2567 C   0  0  0  0  0  0
    0.2158   52.3182   24.5357 S   0  0  0  0  0  0
   -0.5074   51.6857   25.6450 O   0  0  0  0  0  0
   -0.4597   53.2967   23.6818 O   0  0  0  0  0  0
    0.8637   51.0367   23.4962 N   0  0  0  0  0  0
    1.0060   51.2255   22.0308 C   0  0  0  0  0  0
   -0.0131   50.3720   21.2512 C   0  0  0  0  0  0
    0.0428   48.8965   21.7365 C   0  0  0  0  0  0
   -0.1304   48.7610   23.2814 C   0  0  0  0  0  0
    0.9318   49.6425   23.9832 C   0  0  0  0  0  0
   -0.8957   48.0251   20.8652 C   0  0  0  0  0  0
   -0.7711   48.0670   19.6411 O   0  0  0  0  0  0
   -1.8516   47.2821   21.4572 N   0  0  0  0  0  0
   -2.8613   46.4568   20.7603 C   0  0  2  0  0  0
   -3.4821   46.0663   21.5688 H   0  0  0  0  0  0
   -2.2608   45.2297   19.9871 C   0  0  0  0  0  0
   -1.6938   44.1286   20.8990 C   0  0  0  0  0  0
   -2.0957   44.0853   22.0817 O   0  0  0  0  0  0
   -3.8535   47.2962   19.9410 C   0  0  0  0  0  0
   -4.0771   48.6799   19.9525 C   0  0  0  0  0  0
   -5.0892   49.1256   19.0990 C   0  0  0  0  0  0
   -5.6893   48.0905   18.4118 C   0  0  0  0  0  0
   -4.9948   46.5643   18.8334 S   0  0  0  0  0  0
    2.9939   53.5948   28.8600 C   0  0  0  0  0  0
    4.2114   54.3595   29.4440 C   0  0  0  0  0  0
    3.1463   52.1148   29.2822 C   0  0  0  0  0  0
    1.7137   54.1823   29.5045 C   0  0  0  0  0  0
    3.1418   54.8965   22.6564 H   0  0  0  0  0  0
    2.8337   53.1724   22.4823 H   0  0  0  0  0  0
    1.5045   54.3300   22.6793 H   0  0  0  0  0  0
    4.4085   55.0528   24.6006 H   0  0  0  0  0  0
    4.6623   54.9023   26.9919 H   0  0  0  0  0  0
    1.1061   52.5138   27.2320 H   0  0  0  0  0  0
    0.8460   52.2748   21.7864 H   0  0  0  0  0  0
    2.0333   50.9880   21.7511 H   0  0  0  0  0  0
   -0.9919   50.8119   21.4530 H   0  0  0  0  0  0
    0.2486   50.4700   20.1955 H   0  0  0  0  0  0
    1.0211   48.5118   21.4417 H   0  0  0  0  0  0
    0.0343   47.7442   23.6429 H   0  0  0  0  0  0
   -1.1038   49.1321   23.6082 H   0  0  0  0  0  0
    1.9480   49.2967   23.8081 H   0  0  0  0  0  0
    0.7784   49.6288   25.0629 H   0  0  0  0  0  0
   -1.9251   47.3205   22.4622 H   0  0  0  0  0  0
   -3.0260   44.7337   19.3935 H   0  0  0  0  0  0
   -1.4922   45.5498   19.2838 H   0  0  0  0  0  0
   -3.5075   49.3557   20.5725 H   0  0  0  0  0  0
   -5.3727   50.1627   18.9924 H   0  0  0  0  0  0
   -6.4946   48.1473   17.6944 H   0  0  0  0  0  0
    4.3027   54.2193   30.5204 H   0  0  0  0  0  0
    4.1324   55.4318   29.2721 H   0  0  0  0  0  0
    5.1533   54.0163   29.0137 H   0  0  0  0  0  0
    2.3213   51.4917   28.9340 H   0  0  0  0  0  0
    4.0693   51.6963   28.8817 H   0  0  0  0  0  0
    3.1897   52.0113   30.3670 H   0  0  0  0  0  0
    0.8143   53.6439   29.2040 H   0  0  0  0  0  0
    1.7496   54.1367   30.5922 H   0  0  0  0  0  0
    1.5725   55.2283   29.2272 H   0  0  0  0  0  0
   -0.9019   43.2968   20.3986 O   0  5  0  0  0  0
  1  2  1  0  0  0
  1 34  1  0  0  0
  1 35  1  0  0  0
  1 36  1  0  0  0
  2  7  2  0  0  0
  2  3  1  0  0  0
  3  4  2  0  0  0
  3 37  1  0  0  0
  4  5  1  0  0  0
  4 38  1  0  0  0
  5  6  2  0  0  0
  5 30  1  0  0  0
  6  7  1  0  0  0
  6 39  1  0  0  0
  7  8  1  0  0  0
  8  9  2  0  0  0
  8 10  2  0  0  0
  8 11  1  0  0  0
 11 16  1  0  0  0
 11 12  1  0  0  0
 12 13  1  0  0  0
 12 40  1  0  0  0
 12 41  1  0  0  0
 13 14  1  0  0  0
 13 42  1  0  0  0
 13 43  1  0  0  0
 14 15  1  0  0  0
 14 17  1  0  0  0
 14 44  1  0  0  0
 15 16  1  0  0  0
 15 45  1  0  0  0
 15 46  1  0  0  0
 16 47  1  0  0  0
 16 48  1  0  0  0
 17 18  2  0  0  0
 17 19  1  0  0  0
 19 20  1  0  0  0
 19 49  1  0  0  0
 20 21  1  0  0  0
 20 22  1  0  0  0
 20 25  1  0  0  0
 22 23  1  0  0  0
 22 50  1  0  0  0
 22 51  1  0  0  0
 23 24  2  0  0  0
 23 64  1  0  0  0
 25 29  1  0  0  0
 25 26  2  0  0  0
 26 27  1  0  0  0
 26 52  1  0  0  0
 27 28  2  0  0  0
 27 53  1  0  0  0
 28 29  1  0  0  0
 28 54  1  0  0  0
 30 31  1  0  0  0
 30 32  1  0  0  0
 30 33  1  0  0  0
 31 55  1  0  0  0
 31 56  1  0  0  0
 31 57  1  0  0  0
 32 58  1  0  0  0
 32 59  1  0  0  0
 32 60  1  0  0  0
 33 61  1  0  0  0
 33 62  1  0  0  0
 33 63  1  0  0  0
M  CHG  1  64  -1
M  END
> <i_i_glide_confnum>
183

> <i_i_glide_lignum>
5944

> <i_i_glide_posenum>
131

> <i_i_glide_rotatable_bonds>
9

> <i_m_Source_File_Index>
3552

> <b_m_subgroup_collapsed>
0

> <r_i_docking_score>
-4.26002

> <r_i_glide_ecoul>
-5.97464

> <r_i_glide_eff_state_penalty>
0

> <r_i_glide_einternal>
10.3296

> <r_i_glide_emodel>
-45.4436

> <r_i_glide_energy>
-36.4508

> <r_i_glide_erotb>
0.505364

> <r_i_glide_esite>
-0.0595664

> <r_i_glide_evdw>
-30.4761

> <r_i_glide_gscore>
-4.26002

> <r_i_glide_hbond>
-0.4

> <r_i_glide_ligand_efficiency>
-0.129091

> <r_i_glide_ligand_efficiency_ln>
-0.947405

> <r_i_glide_ligand_efficiency_sa>
-0.414065

> <r_i_glide_lipo>
-2.20241

> <r_i_glide_metal>
0

> <r_i_glide_rewards>
0.316604

> <s_i_glide_gridfile>
wee1_glide-grid

> <s_m_Source_File>
wee1_decoys_glide_SP.sdf

> <s_m_Source_Path>
/Users/zhangxujun/Desktop

> <s_m_entry_id>
3827

> <s_m_entry_name>
wee1_decoys_glide_SP.3552

> <s_m_subgroup_title>
wee1_decoys_glide_SP

> <s_m_subgroupid>
wee1_decoys_glide_SP


$$$$
