ZINC39923297_793
                    3D
 Schrodinger Suite 2024-2.
 58 62  0  0  1  0            999 V2000
   -2.0854   52.8946   24.2778 C   0  0  0  0  0  0
   -1.3546   52.3756   25.5094 C   0  0  0  0  0  0
   -2.1251   52.1050   26.6446 C   0  0  0  0  0  0
   -1.5286   51.6878   27.8303 C   0  0  0  0  0  0
   -0.1488   51.5475   27.9034 C   0  0  0  0  0  0
    0.6336   51.8107   26.7840 C   0  0  0  0  0  0
    0.0497   52.2148   25.5672 C   0  0  0  0  0  0
    0.8803   52.4188   24.4292 N   0  0  0  0  0  0
    0.6400   51.5286   23.2455 C   0  0  1  0  0  0
   -0.4212   51.3468   23.1116 H   0  0  0  0  0  0
    1.0371   52.1710   21.9883 N   0  0  0  0  0  0
    2.2800   52.8176   22.0022 C   0  0  0  0  0  0
    3.0545   52.8773   20.8400 C   0  0  0  0  0  0
    4.3075   53.4902   20.8642 C   0  0  0  0  0  0
    4.7922   54.0362   22.0519 C   0  0  0  0  0  0
    4.0393   53.9453   23.2220 C   0  0  0  0  0  0
    2.7948   53.2960   23.2143 C   0  0  0  0  0  0
    2.0140   53.1967   24.5063 C   0  0  0  0  0  0
    2.3446   53.8144   25.5235 O   0  0  0  0  0  0
    1.3710   49.8664   23.3938 S   0  0  0  0  0  0
    0.3553   48.9694   24.6384 C   0  0  0  0  0  0
   -1.1631   48.9511   24.4005 C   0  0  0  0  0  0
   -1.6120   49.0411   23.2550 O   0  0  0  0  0  0
   -1.9362   48.8479   25.5015 N   0  0  0  0  0  0
   -3.2640   49.1019   25.4714 N   0  0  0  0  0  0
   -3.7992   49.0110   26.6212 C   0  0  0  0  0  0
   -5.1584   49.3630   26.9089 C   0  0  0  0  0  0
   -5.8831   50.3551   26.3403 C   0  0  0  0  0  0
   -5.5792   51.3107   25.2582 C   0  0  0  0  0  0
   -6.4801   52.2394   24.8800 C   0  0  0  0  0  0
   -7.7663   52.2646   25.5599 C   0  0  0  0  0  0
   -8.0703   51.3945   26.5581 C   0  0  0  0  0  0
   -7.1340   50.4329   26.9697 C   0  0  0  0  0  0
   -7.2371   49.5334   27.9197 N   0  3  0  0  0  0
   -5.9929   48.7492   28.0128 C   0  0  0  0  0  0
   -2.4718   52.0732   23.6758 H   0  0  0  0  0  0
   -2.9329   53.5192   24.5646 H   0  0  0  0  0  0
   -1.4450   53.5282   23.6657 H   0  0  0  0  0  0
   -3.1970   52.2262   26.6154 H   0  0  0  0  0  0
   -2.1336   51.4639   28.6957 H   0  0  0  0  0  0
    0.3113   51.2276   28.8286 H   0  0  0  0  0  0
    1.7040   51.6957   26.8723 H   0  0  0  0  0  0
    0.7459   51.6769   21.1570 H   0  0  0  0  0  0
    2.6851   52.4666   19.9115 H   0  0  0  0  0  0
    4.8972   53.5433   19.9589 H   0  0  0  0  0  0
    5.7594   54.5204   22.0702 H   0  0  0  0  0  0
    4.4454   54.3601   24.1330 H   0  0  0  0  0  0
    0.7039   47.9381   24.6659 H   0  0  0  0  0  0
    0.5753   49.3783   25.6229 H   0  0  0  0  0  0
   -1.5450   48.6873   26.4230 H   0  0  0  0  0  0
   -3.2956   48.6612   27.5162 H   0  0  0  0  0  0
   -4.6331   51.2896   24.7360 H   0  0  0  0  0  0
   -6.2635   52.9362   24.0819 H   0  0  0  0  0  0
   -8.5058   52.9926   25.2533 H   0  0  0  0  0  0
   -9.0439   51.4579   27.0255 H   0  0  0  0  0  0
   -6.2352   47.6988   27.8512 H   0  0  0  0  0  0
   -5.5721   48.8904   29.0094 H   0  0  0  0  0  0
   -8.0475   49.3940   28.5193 H   0  0  0  0  0  0
  1  2  1  0  0  0
  1 36  1  0  0  0
  1 37  1  0  0  0
  1 38  1  0  0  0
  2  7  2  0  0  0
  2  3  1  0  0  0
  3  4  2  0  0  0
  3 39  1  0  0  0
  4  5  1  0  0  0
  4 40  1  0  0  0
  5  6  2  0  0  0
  5 41  1  0  0  0
  6  7  1  0  0  0
  6 42  1  0  0  0
  7  8  1  0  0  0
  8 18  1  0  0  0
  8  9  1  0  0  0
  9 10  1  0  0  0
  9 11  1  0  0  0
  9 20  1  0  0  0
 11 12  1  0  0  0
 11 43  1  0  0  0
 12 17  2  0  0  0
 12 13  1  0  0  0
 13 14  2  0  0  0
 13 44  1  0  0  0
 14 15  1  0  0  0
 14 45  1  0  0  0
 15 16  2  0  0  0
 15 46  1  0  0  0
 16 17  1  0  0  0
 16 47  1  0  0  0
 17 18  1  0  0  0
 18 19  2  0  0  0
 20 21  1  0  0  0
 21 22  1  0  0  0
 21 48  1  0  0  0
 21 49  1  0  0  0
 22 23  2  0  0  0
 22 24  1  0  0  0
 24 25  1  0  0  0
 24 50  1  0  0  0
 25 26  2  0  0  0
 26 27  1  0  0  0
 26 51  1  0  0  0
 27 35  1  0  0  0
 27 28  2  0  0  0
 28 33  1  0  0  0
 28 29  1  0  0  0
 29 30  2  0  0  0
 29 52  1  0  0  0
 30 31  1  0  0  0
 30 53  1  0  0  0
 31 32  2  0  0  0
 31 54  1  0  0  0
 32 33  1  0  0  0
 32 55  1  0  0  0
 33 34  2  0  0  0
 34 35  1  0  0  0
 34 58  1  0  0  0
 35 56  1  0  0  0
 35 57  1  0  0  0
M  CHG  1  34   1
M  END
> <i_i_glide_confnum>
24

> <i_i_glide_lignum>
794

> <i_i_glide_posenum>
262

> <i_i_glide_rotatable_bonds>
7

> <i_m_Source_File_Index>
2927

> <b_m_subgroup_collapsed>
0

> <r_i_docking_score>
-3.96054

> <r_i_glide_ecoul>
-5.64972

> <r_i_glide_eff_state_penalty>
0

> <r_i_glide_einternal>
8.72683

> <r_i_glide_emodel>
-43.2507

> <r_i_glide_energy>
-36.5466

> <r_i_glide_erotb>
0.547506

> <r_i_glide_esite>
-0.224783

> <r_i_glide_evdw>
-30.8969

> <r_i_glide_gscore>
-3.96054

> <r_i_glide_hbond>
-0.16

> <r_i_glide_ligand_efficiency>
-0.116486

> <r_i_glide_ligand_efficiency_ln>
-0.874994

> <r_i_glide_ligand_efficiency_sa>
-0.377371

> <r_i_glide_lipo>
-0.963931

> <r_i_glide_metal>
0

> <r_i_glide_rewards>
-0.767028

> <s_i_glide_gridfile>
wee1_glide-grid

> <s_m_Source_File>
wee1_decoys_glide_SP.sdf

> <s_m_Source_Path>
/Users/zhangxujun/Desktop

> <s_m_entry_id>
3202

> <s_m_entry_name>
wee1_decoys_glide_SP.2927

> <s_m_subgroup_title>
wee1_decoys_glide_SP

> <s_m_subgroupid>
wee1_decoys_glide_SP


$$$$
