ZINC17045028_968
                    3D
 Schrodinger Suite 2024-2.
 42 45  0  0  1  0            999 V2000
    5.7583   53.3787   15.7254 C   0  0  0  0  0  0
    6.0717   53.8258   17.0077 C   0  0  0  0  0  0
    5.1126   53.7869   18.0238 C   0  0  0  0  0  0
    3.8336   53.2947   17.7364 C   0  0  0  0  0  0
    3.5006   52.8392   16.4513 C   0  0  0  0  0  0
    4.4824   52.8893   15.4495 C   0  0  0  0  0  0
    2.1467   52.3058   16.1630 N   0  3  0  0  0  0
    1.8867   51.9536   15.0152 O   0  0  0  0  0  0
    1.3258   52.2566   17.0770 O   0  5  0  0  0  0
    5.4561   54.2660   19.3919 C   0  0  0  0  0  0
    6.5169   54.9857   19.9188 C   0  0  0  0  0  0
    6.2500   55.1555   21.2760 C   0  0  0  0  0  0
    5.0560   54.4966   21.5568 C   0  0  0  0  0  0
    4.5839   53.9765   20.3942 O   0  0  0  0  0  0
    4.2150   54.3373   22.7400 C   0  0  0  0  0  0
    4.4835   54.2022   24.0754 C   0  0  0  0  0  0
    5.8475   54.1532   24.6361 C   0  0  0  0  0  0
    6.8093   54.1000   23.8774 O   0  0  0  0  0  0
    5.9860   54.1321   25.9473 N   0  5  0  0  0  0
    5.0048   54.0433   26.8040 C   0  0  0  0  0  0
    5.5044   53.9242   28.3951 S   0  0  0  0  0  0
    3.6725   54.0145   26.3533 N   0  0  0  0  0  0
    3.3405   54.0964   25.0065 C   0  0  0  0  0  0
    2.1705   54.0962   24.5989 O   0  0  0  0  0  0
    2.5758   53.8880   27.2713 C   0  0  0  0  0  0
    1.7521   52.7507   27.2732 C   0  0  0  0  0  0
    0.7280   52.6131   28.2125 C   0  0  0  0  0  0
    0.5190   53.6093   29.1667 C   0  0  0  0  0  0
    1.3239   54.7473   29.1671 C   0  0  0  0  0  0
    2.3262   54.8936   28.2145 C   0  0  0  0  0  0
    1.1045   56.0971   30.4817 Br  0  0  0  0  0  0
    6.5063   53.4073   14.9463 H   0  0  0  0  0  0
    7.0657   54.1954   17.2100 H   0  0  0  0  0  0
    3.0930   53.2595   18.5241 H   0  0  0  0  0  0
    4.2631   52.5376   14.4517 H   0  0  0  0  0  0
    7.3745   55.3618   19.3801 H   0  0  0  0  0  0
    6.8651   55.6951   21.9807 H   0  0  0  0  0  0
    3.1805   54.3249   22.4223 H   0  0  0  0  0  0
    1.9043   51.9715   26.5444 H   0  0  0  0  0  0
    0.1059   51.7290   28.2099 H   0  0  0  0  0  0
   -0.2576   53.4942   29.9085 H   0  0  0  0  0  0
    2.9544   55.7654   28.2523 H   0  0  0  0  0  0
  1  6  2  0  0  0
  1  2  1  0  0  0
  1 32  1  0  0  0
  2  3  2  0  0  0
  2 33  1  0  0  0
  3  4  1  0  0  0
  3 10  1  0  0  0
  4  5  2  0  0  0
  4 34  1  0  0  0
  5  6  1  0  0  0
  5  7  1  0  0  0
  6 35  1  0  0  0
  7  8  2  0  0  0
  7  9  1  0  0  0
 10 14  1  0  0  0
 10 11  2  0  0  0
 11 12  1  0  0  0
 11 36  1  0  0  0
 12 13  2  0  0  0
 12 37  1  0  0  0
 13 14  1  0  0  0
 13 15  1  0  0  0
 15 16  2  0  0  0
 15 38  1  0  0  0
 16 23  1  0  0  0
 16 17  1  0  0  0
 17 18  2  0  0  0
 17 19  1  0  0  0
 19 20  1  0  0  0
 20 21  2  0  0  0
 20 22  1  0  0  0
 22 23  1  0  0  0
 22 25  1  0  0  0
 23 24  2  0  0  0
 25 30  2  0  0  0
 25 26  1  0  0  0
 26 27  2  0  0  0
 26 39  1  0  0  0
 27 28  1  0  0  0
 27 40  1  0  0  0
 28 29  2  0  0  0
 28 41  1  0  0  0
 29 30  1  0  0  0
 29 31  1  0  0  0
 30 42  1  0  0  0
M  CHG  3   7   1   9  -1  19  -1
M  END
> <i_i_glide_confnum>
7

> <i_i_glide_lignum>
969

> <i_i_glide_posenum>
346

> <i_i_glide_rotatable_bonds>
4

> <i_m_Source_File_Index>
1788

> <b_m_subgroup_collapsed>
0

> <r_i_docking_score>
-6.34973

> <r_i_glide_ecoul>
-0.713915

> <r_i_glide_eff_state_penalty>
0

> <r_i_glide_einternal>
4.11892

> <r_i_glide_emodel>
-64.8032

> <r_i_glide_energy>
-47.4054

> <r_i_glide_erotb>
0.247444

> <r_i_glide_esite>
-0.0677521

> <r_i_glide_evdw>
-46.6915

> <r_i_glide_gscore>
-6.34973

> <r_i_glide_hbond>
0

> <r_i_glide_ligand_efficiency>
-0.20483

> <r_i_glide_ligand_efficiency_ln>
-1.43206

> <r_i_glide_ligand_efficiency_sa>
-0.643449

> <r_i_glide_lipo>
-2.26934

> <r_i_glide_metal>
0

> <r_i_glide_rewards>
-1.81841

> <s_i_glide_gridfile>
wee1_glide-grid

> <s_m_Source_File>
wee1_decoys_glide_SP.sdf

> <s_m_Source_Path>
/Users/zhangxujun/Desktop

> <s_m_entry_id>
2063

> <s_m_entry_name>
wee1_decoys_glide_SP.1788

> <s_m_subgroup_title>
wee1_decoys_glide_SP

> <s_m_subgroupid>
wee1_decoys_glide_SP


$$$$
