ZINC59382349_5169
                    3D
 Schrodinger Suite 2024-2.
 64 69  0  0  1  0            999 V2000
    5.3510   54.0997   26.7987 C   0  0  0  0  0  0
    5.3569   54.2046   25.2844 C   0  0  0  0  0  0
    6.5559   54.4160   24.6056 C   0  0  0  0  0  0
    6.5618   54.5139   23.2185 C   0  0  0  0  0  0
    5.3655   54.4249   22.4852 C   0  0  0  0  0  0
    4.1668   54.1920   23.1817 C   0  0  0  0  0  0
    4.1620   54.0970   24.5706 C   0  0  0  0  0  0
    5.3613   54.6162   21.0711 N   0  0  0  0  0  0
    6.1141   55.5874   20.4303 C   0  0  0  0  0  0
    6.9782   56.3451   20.8794 O   0  0  0  0  0  0
    5.5343   55.6521   19.0417 C   0  0  2  0  0  0
    4.7047   56.3242   19.2817 H   0  0  0  0  0  0
    5.0916   54.2495   18.8129 C   0  0  1  0  0  0
    5.9236   53.5314   18.8030 H   0  0  0  0  0  0
    4.5697   53.8920   20.1926 C   0  0  0  0  0  0
    3.7014   53.0525   20.4328 O   0  0  0  0  0  0
    4.4917   54.1221   17.3377 C   0  0  2  0  0  0
    5.8368   54.0958   16.5311 C   0  0  0  0  0  0
    6.3008   53.0798   15.6823 C   0  0  0  0  0  0
    7.5651   53.1656   15.1001 C   0  0  0  0  0  0
    8.3850   54.2642   15.3573 C   0  0  0  0  0  0
    7.9435   55.2861   16.1973 C   0  0  0  0  0  0
    6.6795   55.2130   16.7856 C   0  0  0  0  0  0
    6.0674   56.2940   17.7054 C   0  0  1  0  0  0
    4.7263   56.6068   17.0017 C   0  0  0  0  0  0
    3.8486   55.4899   16.8858 C   0  0  0  0  0  0
    2.5487   55.7207   16.4115 C   0  0  0  0  0  0
    2.1407   57.0019   16.0373 C   0  0  0  0  0  0
    3.0229   58.0775   16.1262 C   0  0  0  0  0  0
    4.3128   57.8807   16.6100 C   0  0  0  0  0  0
    3.6560   52.8312   17.1814 C   0  0  0  0  0  0
    2.8134   52.6127   16.2496 N   0  0  0  0  0  0
    2.3690   51.3378   16.2447 N   0  0  0  0  0  0
    1.4724   50.8739   15.3545 C   0  0  0  0  0  0
    0.9210   51.5677   14.4917 O   0  0  0  0  0  0
    1.1374   49.3760   15.4501 C   0  0  0  0  0  0
    1.2822   48.6085   14.1114 C   0  0  0  0  0  0
    2.7226   48.4532   13.5802 C   0  0  0  0  0  0
    3.5043   47.6967   14.4817 O   0  0  0  0  0  0
    6.1261   54.7286   27.2403 H   0  0  0  0  0  0
    4.4018   54.4392   27.2139 H   0  0  0  0  0  0
    5.5205   53.0685   27.1089 H   0  0  0  0  0  0
    7.4851   54.4970   25.1482 H   0  0  0  0  0  0
    7.5049   54.6778   22.7213 H   0  0  0  0  0  0
    3.2221   54.1366   22.6609 H   0  0  0  0  0  0
    3.2279   53.9399   25.0910 H   0  0  0  0  0  0
    5.6941   52.2084   15.4830 H   0  0  0  0  0  0
    7.9129   52.3732   14.4528 H   0  0  0  0  0  0
    9.3633   54.3241   14.9051 H   0  0  0  0  0  0
    8.5796   56.1403   16.3852 H   0  0  0  0  0  0
    6.6969   57.1732   17.8553 H   0  0  0  0  0  0
    1.8329   54.9187   16.3345 H   0  0  0  0  0  0
    1.1346   57.1624   15.6771 H   0  0  0  0  0  0
    2.7026   59.0709   15.8470 H   0  0  0  0  0  0
    4.9750   58.7295   16.7151 H   0  0  0  0  0  0
    3.9156   52.0954   17.9384 H   0  0  0  0  0  0
    2.8381   50.7027   16.8858 H   0  0  0  0  0  0
    0.1003   49.3145   15.7841 H   0  0  0  0  0  0
    1.7283   48.8877   16.2289 H   0  0  0  0  0  0
    0.6758   49.0968   13.3471 H   0  0  0  0  0  0
    0.8443   47.6148   14.2236 H   0  0  0  0  0  0
    3.2028   49.4269   13.4763 H   0  0  0  0  0  0
    2.7247   47.9758   12.5999 H   0  0  0  0  0  0
    3.7732   48.2742   15.2201 H   0  0  0  0  0  0
  1  2  1  0  0  0
  1 40  1  0  0  0
  1 41  1  0  0  0
  1 42  1  0  0  0
  2  7  2  0  0  0
  2  3  1  0  0  0
  3  4  2  0  0  0
  3 43  1  0  0  0
  4  5  1  0  0  0
  4 44  1  0  0  0
  5  6  2  0  0  0
  5  8  1  0  0  0
  6  7  1  0  0  0
  6 45  1  0  0  0
  7 46  1  0  0  0
  8 15  1  0  0  0
  8  9  1  0  0  0
  9 10  2  0  0  0
  9 11  1  0  0  0
 11 12  1  0  0  0
 11 24  1  0  0  0
 11 13  1  0  0  0
 13 14  1  0  0  0
 13 15  1  0  0  0
 13 17  1  0  0  0
 15 16  2  0  0  0
 17 26  1  0  0  0
 17 18  1  0  0  0
 17 31  1  0  0  0
 18 23  2  0  0  0
 18 19  1  0  0  0
 19 20  2  0  0  0
 19 47  1  0  0  0
 20 21  1  0  0  0
 20 48  1  0  0  0
 21 22  2  0  0  0
 21 49  1  0  0  0
 22 23  1  0  0  0
 22 50  1  0  0  0
 23 24  1  0  0  0
 24 25  1  0  0  0
 24 51  1  0  0  0
 25 30  2  0  0  0
 25 26  1  0  0  0
 26 27  2  0  0  0
 27 28  1  0  0  0
 27 52  1  0  0  0
 28 29  2  0  0  0
 28 53  1  0  0  0
 29 30  1  0  0  0
 29 54  1  0  0  0
 30 55  1  0  0  0
 31 32  2  0  0  0
 31 56  1  0  0  0
 32 33  1  0  0  0
 33 34  1  0  0  0
 33 57  1  0  0  0
 34 35  2  0  0  0
 34 36  1  0  0  0
 36 37  1  0  0  0
 36 58  1  0  0  0
 36 59  1  0  0  0
 37 38  1  0  0  0
 37 60  1  0  0  0
 37 61  1  0  0  0
 38 39  1  0  0  0
 38 62  1  0  0  0
 38 63  1  0  0  0
 39 64  1  0  0  0
M  END
> <i_i_glide_confnum>
90

> <i_i_glide_lignum>
5170

> <i_i_glide_posenum>
170

> <i_i_glide_rotatable_bonds>
8

> <i_m_Source_File_Index>
5188

> <b_m_subgroup_collapsed>
0

> <r_i_docking_score>
-5.84709

> <r_i_glide_ecoul>
-10.602

> <r_i_glide_eff_state_penalty>
0

> <r_i_glide_einternal>
2.21656

> <r_i_glide_emodel>
-60.8217

> <r_i_glide_energy>
-43.5929

> <r_i_glide_erotb>
0.585424

> <r_i_glide_esite>
-0.197397

> <r_i_glide_evdw>
-32.9909

> <r_i_glide_gscore>
-5.84709

> <r_i_glide_hbond>
-0.438353

> <r_i_glide_ligand_efficiency>
-0.158029

> <r_i_glide_ligand_efficiency_ln>
-1.2681

> <r_i_glide_ligand_efficiency_sa>
-0.526589

> <r_i_glide_lipo>
-2.02297

> <r_i_glide_metal>
0

> <r_i_glide_rewards>
-0.533951

> <s_i_glide_gridfile>
wee1_glide-grid

> <s_m_Source_File>
wee1_decoys_glide_SP.sdf

> <s_m_Source_Path>
/Users/zhangxujun/Desktop

> <s_m_entry_id>
5463

> <s_m_entry_name>
wee1_decoys_glide_SP.5188

> <s_m_subgroup_title>
wee1_decoys_glide_SP

> <s_m_subgroupid>
wee1_decoys_glide_SP


$$$$
