ZINC59857083_5821
                    3D
 Schrodinger Suite 2024-2.
 62 64  0  0  1  0            999 V2000
   -0.0069   52.7313   30.1496 C   0  0  0  0  0  0
    0.8877   51.9933   29.1296 C   0  0  0  0  0  0
    0.0967   51.6399   27.8562 C   0  0  0  0  0  0
    2.2206   52.7221   28.7903 C   0  0  2  0  0  0
    2.7391   52.0984   28.0620 H   0  0  0  0  0  0
    3.1807   52.7884   30.0071 C   0  0  0  0  0  0
    3.5543   51.6967   30.4829 O   0  0  0  0  0  0
    3.5332   53.8903   30.4805 O   0  5  0  0  0  0
    2.0478   54.4068   28.0803 S   0  0  0  0  0  0
    3.4137   54.3283   26.9642 C   0  0  0  0  0  0
    4.6602   54.4963   27.3214 N   0  0  0  0  0  0
    5.4313   54.4292   26.1694 N   0  0  0  0  0  0
    4.6267   54.2279   25.1495 C   0  0  0  0  0  0
    3.3227   54.1005   25.6074 N   0  0  0  0  0  0
    2.0952   53.8927   24.8445 C   0  0  0  0  0  0
    5.0942   54.2515   23.7169 C   0  0  0  0  0  0
    6.3022   54.8968   23.4180 C   0  0  0  0  0  0
    6.7037   55.0731   22.0986 C   0  0  0  0  0  0
    5.9045   54.5856   21.0531 C   0  0  0  0  0  0
    4.7431   53.8773   21.3447 C   0  0  0  0  0  0
    4.3476   53.7047   22.6649 C   0  0  0  0  0  0
    6.2706   54.6592   19.6994 N   0  0  0  0  0  0
    7.1936   55.4585   19.1234 C   0  0  0  0  0  0
    7.6362   56.4822   19.6538 O   0  0  0  0  0  0
    7.6744   55.0198   17.7546 C   0  0  0  0  0  0
    7.4303   53.7240   17.2672 C   0  0  0  0  0  0
    7.9161   53.3286   16.0257 C   0  0  0  0  0  0
    8.6656   54.2102   15.2322 C   0  0  0  0  0  0
    8.9077   55.5015   15.7227 C   0  0  0  0  0  0
    8.4201   55.9021   16.9643 C   0  0  0  0  0  0
    9.2406   53.7960   13.8522 C   0  0  0  0  0  0
   10.7873   53.8262   13.9087 C   0  0  0  0  0  0
    8.7492   54.7747   12.7562 C   0  0  0  0  0  0
    8.8161   52.3684   13.4136 C   0  0  0  0  0  0
   -0.3490   53.6926   29.7653 H   0  0  0  0  0  0
   -0.8903   52.1404   30.3991 H   0  0  0  0  0  0
    0.5216   52.9176   31.0842 H   0  0  0  0  0  0
    1.1514   51.0340   29.5743 H   0  0  0  0  0  0
   -0.2341   52.5362   27.3289 H   0  0  0  0  0  0
    0.7013   51.0513   27.1656 H   0  0  0  0  0  0
   -0.7874   51.0455   28.0942 H   0  0  0  0  0  0
    1.2200   54.0967   25.4546 H   0  0  0  0  0  0
    2.0719   54.5598   23.9821 H   0  0  0  0  0  0
    2.0433   52.8474   24.5356 H   0  0  0  0  0  0
    6.9200   55.3089   24.2035 H   0  0  0  0  0  0
    7.6417   55.5761   21.9161 H   0  0  0  0  0  0
    4.1368   53.4576   20.5548 H   0  0  0  0  0  0
    3.4466   53.1446   22.8397 H   0  0  0  0  0  0
    5.8359   53.9734   19.1024 H   0  0  0  0  0  0
    6.8775   52.9924   17.8406 H   0  0  0  0  0  0
    7.7004   52.3197   15.7054 H   0  0  0  0  0  0
    9.4902   56.2042   15.1461 H   0  0  0  0  0  0
    8.6384   56.9037   17.3096 H   0  0  0  0  0  0
   11.2289   53.5278   12.9563 H   0  0  0  0  0  0
   11.1697   53.1426   14.6693 H   0  0  0  0  0  0
   11.1718   54.8205   14.1401 H   0  0  0  0  0  0
    7.6590   54.8031   12.7098 H   0  0  0  0  0  0
    9.0944   55.7955   12.9257 H   0  0  0  0  0  0
    9.1086   54.4818   11.7677 H   0  0  0  0  0  0
    7.7310   52.2750   13.3389 H   0  0  0  0  0  0
    9.2258   52.1127   12.4353 H   0  0  0  0  0  0
    9.1731   51.6056   14.1083 H   0  0  0  0  0  0
  1  2  1  0  0  0
  1 35  1  0  0  0
  1 36  1  0  0  0
  1 37  1  0  0  0
  2  3  1  0  0  0
  2  4  1  0  0  0
  2 38  1  0  0  0
  3 39  1  0  0  0
  3 40  1  0  0  0
  3 41  1  0  0  0
  4  5  1  0  0  0
  4  6  1  0  0  0
  4  9  1  0  0  0
  6  7  2  0  0  0
  6  8  1  0  0  0
  9 10  1  0  0  0
 10 14  1  0  0  0
 10 11  2  0  0  0
 11 12  1  0  0  0
 12 13  2  0  0  0
 13 14  1  0  0  0
 13 16  1  0  0  0
 14 15  1  0  0  0
 15 42  1  0  0  0
 15 43  1  0  0  0
 15 44  1  0  0  0
 16 21  2  0  0  0
 16 17  1  0  0  0
 17 18  2  0  0  0
 17 45  1  0  0  0
 18 19  1  0  0  0
 18 46  1  0  0  0
 19 20  2  0  0  0
 19 22  1  0  0  0
 20 21  1  0  0  0
 20 47  1  0  0  0
 21 48  1  0  0  0
 22 23  1  0  0  0
 22 49  1  0  0  0
 23 24  2  0  0  0
 23 25  1  0  0  0
 25 30  2  0  0  0
 25 26  1  0  0  0
 26 27  2  0  0  0
 26 50  1  0  0  0
 27 28  1  0  0  0
 27 51  1  0  0  0
 28 29  2  0  0  0
 28 31  1  0  0  0
 29 30  1  0  0  0
 29 52  1  0  0  0
 30 53  1  0  0  0
 31 32  1  0  0  0
 31 33  1  0  0  0
 31 34  1  0  0  0
 32 54  1  0  0  0
 32 55  1  0  0  0
 32 56  1  0  0  0
 33 57  1  0  0  0
 33 58  1  0  0  0
 33 59  1  0  0  0
 34 60  1  0  0  0
 34 61  1  0  0  0
 34 62  1  0  0  0
M  CHG  1   8  -1
M  END
> <i_i_glide_confnum>
83

> <i_i_glide_lignum>
5822

> <i_i_glide_posenum>
259

> <i_i_glide_rotatable_bonds>
9

> <i_m_Source_File_Index>
200

> <b_m_subgroup_collapsed>
0

> <r_i_docking_score>
-7.00354

> <r_i_glide_ecoul>
-10.4284

> <r_i_glide_eff_state_penalty>
0

> <r_i_glide_einternal>
11.7344

> <r_i_glide_emodel>
-70.6037

> <r_i_glide_energy>
-49.9021

> <r_i_glide_erotb>
0.558231

> <r_i_glide_esite>
0

> <r_i_glide_evdw>
-39.4737

> <r_i_glide_gscore>
-7.00354

> <r_i_glide_hbond>
-0.392375

> <r_i_glide_ligand_efficiency>
-0.212229

> <r_i_glide_ligand_efficiency_ln>
-1.55755

> <r_i_glide_ligand_efficiency_sa>
-0.68073

> <r_i_glide_lipo>
-2.1061

> <r_i_glide_metal>
0

> <r_i_glide_rewards>
-1.52535

> <s_i_glide_gridfile>
wee1_glide-grid

> <s_m_Source_File>
wee1_decoys_glide_SP.sdf

> <s_m_Source_Path>
/Users/zhangxujun/Desktop

> <s_m_entry_id>
475

> <s_m_entry_name>
wee1_decoys_glide_SP.200

> <s_m_subgroup_title>
wee1_decoys_glide_SP

> <s_m_subgroupid>
wee1_decoys_glide_SP


$$$$
