ZINC09135601_107
                    3D
 Schrodinger Suite 2024-2.
 61 64  0  0  1  0            999 V2000
   -0.9154   51.5276   25.1382 C   0  0  0  0  0  0
   -0.3075   51.1539   23.8581 N   0  0  0  0  0  0
   -0.4718   49.7020   23.6959 C   0  0  0  0  0  0
    0.0468   49.2139   22.3357 C   0  0  0  0  0  0
    1.5232   49.5938   22.1776 C   0  0  0  0  0  0
    1.7064   51.0852   22.4520 C   0  0  0  0  0  0
    0.8170   51.7879   23.3054 C   0  0  0  0  0  0
    1.0043   53.1644   23.4882 C   0  0  0  0  0  0
    2.0617   53.8318   22.8825 C   0  0  0  0  0  0
    2.9804   53.1388   22.0933 C   0  0  0  0  0  0
    2.7822   51.7717   21.8771 C   0  0  0  0  0  0
    4.1949   53.8925   21.5277 C   0  0  1  0  0  0
    3.8535   54.8963   21.2814 H   0  0  0  0  0  0
    5.3775   53.9946   22.5472 C   0  0  0  0  0  0
    4.9376   54.0966   23.9435 N   0  0  0  0  0  0
    5.6775   54.4970   25.0038 C   0  0  0  0  0  0
    6.8386   54.8910   24.8819 O   0  0  0  0  0  0
    5.0066   54.4548   26.3530 C   0  0  0  0  0  0
    5.5826   54.8967   27.3487 O   0  0  0  0  0  0
    3.7690   53.8939   26.3939 N   0  0  0  0  0  0
    2.8461   53.8900   27.4542 C   0  0  0  0  0  0
    1.8848   52.8734   27.4576 C   0  0  0  0  0  0
    0.9031   52.8311   28.4497 C   0  0  0  0  0  0
    0.8587   53.8226   29.4286 C   0  0  0  0  0  0
    1.7957   54.8552   29.4196 C   0  0  0  0  0  0
    2.7961   54.8825   28.4474 C   0  0  0  0  0  0
    1.7324   55.8395   30.3453 F   0  0  0  0  0  0
   -0.0956   53.7840   30.3838 F   0  0  0  0  0  0
    3.6435   53.3328   19.0315 C   0  0  0  0  0  0
    4.4260   53.2967   17.7170 C   0  0  0  0  0  0
    5.8606   53.6952   18.0598 C   0  0  0  0  0  0
    5.8144   54.2087   19.4962 C   0  0  0  0  0  0
   -0.3550   51.1036   25.9759 H   0  0  0  0  0  0
   -0.9658   52.6080   25.2809 H   0  0  0  0  0  0
   -1.9440   51.1651   25.2047 H   0  0  0  0  0  0
    0.1619   49.2522   24.4649 H   0  0  0  0  0  0
   -1.4659   49.3402   23.9653 H   0  0  0  0  0  0
   -0.0958   48.1378   22.2467 H   0  0  0  0  0  0
   -0.5458   49.6595   21.5346 H   0  0  0  0  0  0
    1.8781   49.3304   21.1794 H   0  0  0  0  0  0
    2.1310   49.0257   22.8816 H   0  0  0  0  0  0
    0.3169   53.7461   24.0824 H   0  0  0  0  0  0
    2.1775   54.8933   23.0492 H   0  0  0  0  0  0
    3.4800   51.2193   21.2638 H   0  0  0  0  0  0
    6.0195   54.8439   22.2987 H   0  0  0  0  0  0
    5.9971   53.0978   22.4821 H   0  0  0  0  0  0
    3.9851   53.8011   24.0869 H   0  0  0  0  0  0
    3.4537   53.3977   25.5779 H   0  0  0  0  0  0
    1.8950   52.1030   26.6992 H   0  0  0  0  0  0
    0.1719   52.0345   28.4577 H   0  0  0  0  0  0
    3.5039   55.6962   28.4714 H   0  0  0  0  0  0
    2.9553   52.5025   19.1923 H   0  0  0  0  0  0
    3.1044   54.2711   19.1286 H   0  0  0  0  0  0
    4.3851   52.3026   17.2684 H   0  0  0  0  0  0
    3.9861   53.9882   16.9968 H   0  0  0  0  0  0
    6.2512   54.4482   17.3737 H   0  0  0  0  0  0
    6.5177   52.8260   17.9944 H   0  0  0  0  0  0
    5.4994   55.2539   19.5656 H   0  0  0  0  0  0
    6.7367   54.0971   20.0558 H   0  0  0  0  0  0
    4.7035   53.3670   20.1539 N   0  3  0  0  0  0
    5.0423   52.4234   20.2872 H   0  0  0  0  0  0
  1  2  1  0  0  0
  1 33  1  0  0  0
  1 34  1  0  0  0
  1 35  1  0  0  0
  2  7  1  0  0  0
  2  3  1  0  0  0
  3  4  1  0  0  0
  3 36  1  0  0  0
  3 37  1  0  0  0
  4  5  1  0  0  0
  4 38  1  0  0  0
  4 39  1  0  0  0
  5  6  1  0  0  0
  5 40  1  0  0  0
  5 41  1  0  0  0
  6 11  2  0  0  0
  6  7  1  0  0  0
  7  8  2  0  0  0
  8  9  1  0  0  0
  8 42  1  0  0  0
  9 10  2  0  0  0
  9 43  1  0  0  0
 10 11  1  0  0  0
 10 12  1  0  0  0
 11 44  1  0  0  0
 12 13  1  0  0  0
 12 14  1  0  0  0
 12 60  1  0  0  0
 14 15  1  0  0  0
 14 45  1  0  0  0
 14 46  1  0  0  0
 15 16  1  0  0  0
 15 47  1  0  0  0
 16 17  2  0  0  0
 16 18  1  0  0  0
 18 19  2  0  0  0
 18 20  1  0  0  0
 20 21  1  0  0  0
 20 48  1  0  0  0
 21 26  2  0  0  0
 21 22  1  0  0  0
 22 23  2  0  0  0
 22 49  1  0  0  0
 23 24  1  0  0  0
 23 50  1  0  0  0
 24 25  2  0  0  0
 24 28  1  0  0  0
 25 26  1  0  0  0
 25 27  1  0  0  0
 26 51  1  0  0  0
 29 30  1  0  0  0
 29 52  1  0  0  0
 29 53  1  0  0  0
 29 60  1  0  0  0
 30 31  1  0  0  0
 30 54  1  0  0  0
 30 55  1  0  0  0
 31 32  1  0  0  0
 31 56  1  0  0  0
 31 57  1  0  0  0
 32 58  1  0  0  0
 32 59  1  0  0  0
 32 60  1  0  0  0
 60 61  1  0  0  0
M  CHG  1  60   1
M  END
> <i_i_glide_confnum>
39

> <i_i_glide_lignum>
108

> <i_i_glide_posenum>
56

> <i_i_glide_rotatable_bonds>
8

> <i_m_Source_File_Index>
2390

> <b_m_subgroup_collapsed>
0

> <r_i_docking_score>
-5.86896

> <r_i_glide_ecoul>
-2.24338

> <r_i_glide_eff_state_penalty>
0

> <r_i_glide_einternal>
7.30971

> <r_i_glide_emodel>
-62.0577

> <r_i_glide_energy>
-45.4442

> <r_i_glide_erotb>
0.711466

> <r_i_glide_esite>
-0.0127082

> <r_i_glide_evdw>
-43.2008

> <r_i_glide_gscore>
-5.86896

> <r_i_glide_hbond>
-0.0533189

> <r_i_glide_ligand_efficiency>
-0.183405

> <r_i_glide_ligand_efficiency_ln>
-1.31422

> <r_i_glide_ligand_efficiency_sa>
-0.582274

> <r_i_glide_lipo>
-2.42429

> <r_i_glide_metal>
0

> <r_i_glide_rewards>
-1.59355

> <s_i_glide_gridfile>
wee1_glide-grid

> <s_m_Source_File>
wee1_decoys_glide_SP.sdf

> <s_m_Source_Path>
/Users/zhangxujun/Desktop

> <s_m_entry_id>
2665

> <s_m_entry_name>
wee1_decoys_glide_SP.2390

> <s_m_subgroup_title>
wee1_decoys_glide_SP

> <s_m_subgroupid>
wee1_decoys_glide_SP


$$$$
