ZINC24787470_1999
                    3D
 Schrodinger Suite 2024-2.
 52 55  0  0  1  0            999 V2000
    0.1323   53.7352   31.0099 C   0  0  0  0  0  0
    0.8351   52.4850   30.4535 C   0  0  0  0  0  0
    1.6589   52.7914   29.2435 N   0  0  0  0  0  0
    2.9910   53.2177   29.2997 C   0  0  0  0  0  0
    3.5049   53.1588   30.4816 O   0  5  0  0  0  0
    3.7064   53.6488   28.2302 C   0  0  0  0  0  0
    5.1077   54.0912   28.2765 C   0  0  0  0  0  0
    5.7497   54.4762   27.1529 C   0  0  0  0  0  0
    5.0585   54.4707   25.8535 C   0  0  0  0  0  0
    3.7452   54.0929   25.8032 C   0  0  0  0  0  0
    3.0065   53.6422   26.9535 C   0  0  0  0  0  0
    1.7951   53.2147   26.8859 N   0  0  0  0  0  0
    1.0656   52.7259   27.9744 C   0  0  0  0  0  0
   -0.4453   52.0956   27.6195 S   0  0  0  0  0  0
    5.7900   54.8792   24.6640 C   0  0  0  0  0  0
    6.7065   55.6967   24.7333 O   0  0  0  0  0  0
    5.3738   54.2852   23.5189 N   0  0  0  0  0  0
    5.7562   54.4967   22.1835 C   0  0  0  0  0  0
    5.0930   53.7276   21.2249 C   0  0  0  0  0  0
    5.3994   53.8653   19.8734 C   0  0  0  0  0  0
    6.3709   54.7795   19.4687 C   0  0  0  0  0  0
    7.0350   55.5551   20.4212 C   0  0  0  0  0  0
    6.7245   55.4216   21.7719 C   0  0  0  0  0  0
    6.7268   54.8253   18.1169 N   0  0  0  0  0  0
    6.7983   56.3293   17.1768 S   0  0  0  0  0  0
    7.3763   57.3817   18.0200 O   0  0  0  0  0  0
    7.4103   55.9694   15.8935 O   0  0  0  0  0  0
    5.1064   56.7727   16.8127 C   0  0  0  0  0  0
    4.7191   58.1144   16.8263 C   0  0  0  0  0  0
    3.4146   58.4590   16.4843 C   0  0  0  0  0  0
    2.5045   57.4633   16.1351 C   0  0  0  0  0  0
    2.8860   56.1246   16.1305 C   0  0  0  0  0  0
    4.1922   55.7769   16.4633 C   0  0  0  0  0  0
    1.2400   57.7968   15.7983 F   0  0  0  0  0  0
   -0.4940   53.4739   31.8617 H   0  0  0  0  0  0
   -0.4971   54.2021   30.2533 H   0  0  0  0  0  0
    0.8507   54.4795   31.3519 H   0  0  0  0  0  0
    1.4626   52.0650   31.2403 H   0  0  0  0  0  0
    0.1006   51.6961   30.2835 H   0  0  0  0  0  0
    5.6375   54.1163   29.2181 H   0  0  0  0  0  0
    6.7801   54.7924   27.2277 H   0  0  0  0  0  0
    3.2122   54.1122   24.8625 H   0  0  0  0  0  0
    4.6536   53.5917   23.6428 H   0  0  0  0  0  0
    4.3399   53.0103   21.5153 H   0  0  0  0  0  0
    4.8932   53.2432   19.1482 H   0  0  0  0  0  0
    7.8229   56.2326   20.1295 H   0  0  0  0  0  0
    7.2726   56.0308   22.4716 H   0  0  0  0  0  0
    6.6298   53.9797   17.5780 H   0  0  0  0  0  0
    5.4246   58.8926   17.0867 H   0  0  0  0  0  0
    3.1119   59.4974   16.4874 H   0  0  0  0  0  0
    2.1735   55.3599   15.8587 H   0  0  0  0  0  0
    4.4917   54.7390   16.4391 H   0  0  0  0  0  0
  1  2  1  0  0  0
  1 35  1  0  0  0
  1 36  1  0  0  0
  1 37  1  0  0  0
  2  3  1  0  0  0
  2 38  1  0  0  0
  2 39  1  0  0  0
  3 13  1  0  0  0
  3  4  1  0  0  0
  4  5  1  0  0  0
  4  6  2  0  0  0
  6 11  1  0  0  0
  6  7  1  0  0  0
  7  8  2  0  0  0
  7 40  1  0  0  0
  8  9  1  0  0  0
  8 41  1  0  0  0
  9 10  2  0  0  0
  9 15  1  0  0  0
 10 11  1  0  0  0
 10 42  1  0  0  0
 11 12  2  0  0  0
 12 13  1  0  0  0
 13 14  2  0  0  0
 15 16  2  0  0  0
 15 17  1  0  0  0
 17 18  1  0  0  0
 17 43  1  0  0  0
 18 23  2  0  0  0
 18 19  1  0  0  0
 19 20  2  0  0  0
 19 44  1  0  0  0
 20 21  1  0  0  0
 20 45  1  0  0  0
 21 22  2  0  0  0
 21 24  1  0  0  0
 22 23  1  0  0  0
 22 46  1  0  0  0
 23 47  1  0  0  0
 24 25  1  0  0  0
 24 48  1  0  0  0
 25 26  2  0  0  0
 25 27  2  0  0  0
 25 28  1  0  0  0
 28 33  2  0  0  0
 28 29  1  0  0  0
 29 30  2  0  0  0
 29 49  1  0  0  0
 30 31  1  0  0  0
 30 50  1  0  0  0
 31 32  2  0  0  0
 31 34  1  0  0  0
 32 33  1  0  0  0
 32 51  1  0  0  0
 33 52  1  0  0  0
M  CHG  1   5  -1
M  END
> <i_i_glide_confnum>
51

> <i_i_glide_lignum>
2000

> <i_i_glide_posenum>
357

> <i_i_glide_rotatable_bonds>
7

> <i_m_Source_File_Index>
2462

> <b_m_subgroup_collapsed>
0

> <r_i_docking_score>
-5.56791

> <r_i_glide_ecoul>
-1.89014

> <r_i_glide_eff_state_penalty>
0

> <r_i_glide_einternal>
8.63765

> <r_i_glide_emodel>
-68.5011

> <r_i_glide_energy>
-53.9352

> <r_i_glide_erotb>
0.494443

> <r_i_glide_esite>
-0.0535892

> <r_i_glide_evdw>
-52.0451

> <r_i_glide_gscore>
-5.56791

> <r_i_glide_hbond>
-0.195718

> <r_i_glide_ligand_efficiency>
-0.163762

> <r_i_glide_ligand_efficiency_ln>
-1.23011

> <r_i_glide_ligand_efficiency_sa>
-0.530525

> <r_i_glide_lipo>
-2.48045

> <r_i_glide_metal>
0

> <r_i_glide_rewards>
-0.446817

> <s_i_glide_gridfile>
wee1_glide-grid

> <s_m_Source_File>
wee1_decoys_glide_SP.sdf

> <s_m_Source_Path>
/Users/zhangxujun/Desktop

> <s_m_entry_id>
2737

> <s_m_entry_name>
wee1_decoys_glide_SP.2462

> <s_m_subgroup_title>
wee1_decoys_glide_SP

> <s_m_subgroupid>
wee1_decoys_glide_SP


$$$$
