ZINC39666295_178
                    3D
 Schrodinger Suite 2024-2.
 72 75  0  0  1  0            999 V2000
    4.9239   54.5761   28.1211 C   0  0  0  0  0  0
    5.1778   54.4133   26.6309 C   0  0  0  0  0  0
    4.1110   54.3979   25.7295 C   0  0  0  0  0  0
    4.3463   54.2313   24.3645 C   0  0  0  0  0  0
    5.6625   54.1018   23.8909 C   0  0  0  0  0  0
    6.7177   54.1192   24.8032 C   0  0  0  0  0  0
    6.4862   54.2865   26.1657 C   0  0  0  0  0  0
    6.0251   53.9318   22.5685 O   0  0  0  0  0  0
    5.1431   54.2791   21.4955 C   0  0  1  0  0  0
    4.1941   54.7031   21.8208 H   0  0  0  0  0  0
    5.8647   55.3705   20.6886 C   0  0  0  0  0  0
    4.8747   53.0339   20.6168 C   0  0  0  0  0  0
    4.1855   51.9113   21.2647 N   0  0  0  0  0  0
    2.9006   51.8952   21.6618 C   0  0  0  0  0  0
    2.1952   52.9013   21.6914 O   0  0  0  0  0  0
    2.3493   50.5431   22.1581 C   0  0  1  0  0  0
    3.1567   49.8456   22.3335 H   0  0  0  0  0  0
    1.6260   50.7491   23.5015 C   0  0  0  0  0  0
    0.2147   50.5019   23.2324 N   0  0  0  0  0  0
    0.1649   49.4708   22.1944 C   0  0  0  0  0  0
    1.2947   49.8590   21.2094 C   0  0  0  0  0  0
    0.5743   50.7388   20.1190 C   0  0  0  0  0  0
    1.3975   51.0492   18.8463 C   0  0  0  0  0  0
    1.9982   49.7399   18.3030 N   0  3  0  0  0  0
    2.8282   49.0019   19.3594 C   0  0  0  0  0  0
    1.8577   48.6058   20.4822 C   0  0  0  0  0  0
   -0.7013   51.5028   23.2713 C   0  0  0  0  0  0
   -1.7106   51.5104   22.5634 O   0  0  0  0  0  0
   -0.5025   52.6660   24.2574 C   0  0  0  0  0  0
   -0.4639   52.2377   25.7222 C   0  0  0  0  0  0
   -1.5817   51.6436   26.3200 C   0  0  0  0  0  0
   -1.5529   51.2979   27.6703 C   0  0  0  0  0  0
   -0.4146   51.5507   28.4351 C   0  0  0  0  0  0
    0.7069   52.1429   27.8506 C   0  0  0  0  0  0
    0.6771   52.4817   26.4945 C   0  0  0  0  0  0
    1.9582   52.4011   28.6675 C   0  0  0  0  0  0
    3.9718   55.0704   28.3130 H   0  0  0  0  0  0
    4.9264   53.6074   28.6188 H   0  0  0  0  0  0
    5.6968   55.1968   28.5780 H   0  0  0  0  0  0
    3.0973   54.5077   26.0851 H   0  0  0  0  0  0
    3.4937   54.1952   23.7042 H   0  0  0  0  0  0
    7.7292   54.0230   24.4418 H   0  0  0  0  0  0
    7.3171   54.2981   26.8585 H   0  0  0  0  0  0
    5.2683   55.6892   19.8355 H   0  0  0  0  0  0
    6.0576   56.2525   21.2954 H   0  0  0  0  0  0
    6.8269   55.0199   20.3110 H   0  0  0  0  0  0
    5.8277   52.6581   20.2341 H   0  0  0  0  0  0
    4.3044   53.3273   19.7345 H   0  0  0  0  0  0
    4.7302   51.0709   21.3821 H   0  0  0  0  0  0
    1.9068   51.6251   24.0828 H   0  0  0  0  0  0
    1.9357   49.9224   24.1354 H   0  0  0  0  0  0
    0.4229   48.5361   22.6962 H   0  0  0  0  0  0
   -0.8078   49.2612   21.7445 H   0  0  0  0  0  0
   -0.3241   50.2215   19.7759 H   0  0  0  0  0  0
    0.1876   51.6625   20.5497 H   0  0  0  0  0  0
    0.7855   51.4644   18.0453 H   0  0  0  0  0  0
    2.2411   51.7198   19.0093 H   0  0  0  0  0  0
    1.2734   49.1317   17.9502 H   0  0  0  0  0  0
    3.3806   48.1803   18.8831 H   0  0  0  0  0  0
    3.5685   49.7307   19.6774 H   0  0  0  0  0  0
    2.3577   47.9511   21.1940 H   0  0  0  0  0  0
    1.0416   48.0098   20.0655 H   0  0  0  0  0  0
   -1.3192   53.3792   24.1365 H   0  0  0  0  0  0
    0.3957   53.2163   23.9764 H   0  0  0  0  0  0
   -2.4718   51.4496   25.7368 H   0  0  0  0  0  0
   -2.4063   50.8171   28.1275 H   0  0  0  0  0  0
   -0.4086   51.2689   29.4797 H   0  0  0  0  0  0
    1.5420   52.9386   26.0425 H   0  0  0  0  0  0
    2.0666   53.4679   28.8633 H   0  0  0  0  0  0
    1.9455   51.8625   29.6179 H   0  0  0  0  0  0
    2.8449   52.0742   28.1198 H   0  0  0  0  0  0
    2.6256   49.9232   17.5208 H   0  0  0  0  0  0
  1  2  1  0  0  0
  1 37  1  0  0  0
  1 38  1  0  0  0
  1 39  1  0  0  0
  2  7  2  0  0  0
  2  3  1  0  0  0
  3  4  2  0  0  0
  3 40  1  0  0  0
  4  5  1  0  0  0
  4 41  1  0  0  0
  5  6  2  0  0  0
  5  8  1  0  0  0
  6  7  1  0  0  0
  6 42  1  0  0  0
  7 43  1  0  0  0
  8  9  1  0  0  0
  9 10  1  0  0  0
  9 11  1  0  0  0
  9 12  1  0  0  0
 11 44  1  0  0  0
 11 45  1  0  0  0
 11 46  1  0  0  0
 12 13  1  0  0  0
 12 47  1  0  0  0
 12 48  1  0  0  0
 13 14  1  0  0  0
 13 49  1  0  0  0
 14 15  2  0  0  0
 14 16  1  0  0  0
 16 17  1  0  0  0
 16 21  1  0  0  0
 16 18  1  0  0  0
 18 19  1  0  0  0
 18 50  1  0  0  0
 18 51  1  0  0  0
 19 20  1  0  0  0
 19 27  1  0  0  0
 20 21  1  0  0  0
 20 52  1  0  0  0
 20 53  1  0  0  0
 21 26  1  0  0  0
 21 22  1  0  0  0
 22 23  1  0  0  0
 22 54  1  0  0  0
 22 55  1  0  0  0
 23 24  1  0  0  0
 23 56  1  0  0  0
 23 57  1  0  0  0
 24 25  1  0  0  0
 24 58  1  0  0  0
 24 72  1  0  0  0
 25 26  1  0  0  0
 25 59  1  0  0  0
 25 60  1  0  0  0
 26 61  1  0  0  0
 26 62  1  0  0  0
 27 28  2  0  0  0
 27 29  1  0  0  0
 29 30  1  0  0  0
 29 63  1  0  0  0
 29 64  1  0  0  0
 30 35  2  0  0  0
 30 31  1  0  0  0
 31 32  2  0  0  0
 31 65  1  0  0  0
 32 33  1  0  0  0
 32 66  1  0  0  0
 33 34  2  0  0  0
 33 67  1  0  0  0
 34 35  1  0  0  0
 34 36  1  0  0  0
 35 68  1  0  0  0
 36 69  1  0  0  0
 36 70  1  0  0  0
 36 71  1  0  0  0
M  CHG  1  24   1
M  END
> <i_i_glide_confnum>
504

> <i_i_glide_lignum>
179

> <i_i_glide_posenum>
281

> <i_i_glide_rotatable_bonds>
9

> <i_m_Source_File_Index>
2239

> <b_m_subgroup_collapsed>
0

> <r_i_docking_score>
-4.79595

> <r_i_glide_ecoul>
-0.880701

> <r_i_glide_eff_state_penalty>
0

> <r_i_glide_einternal>
3.43036

> <r_i_glide_emodel>
-44.1281

> <r_i_glide_energy>
-43.0161

> <r_i_glide_erotb>
0.840534

> <r_i_glide_esite>
-0.1

> <r_i_glide_evdw>
-42.1354

> <r_i_glide_gscore>
-4.79595

> <r_i_glide_hbond>
-0.164935

> <r_i_glide_ligand_efficiency>
-0.141057

> <r_i_glide_ligand_efficiency_ln>
-1.05956

> <r_i_glide_ligand_efficiency_sa>
-0.456971

> <r_i_glide_lipo>
-2.96912

> <r_i_glide_metal>
0

> <r_i_glide_rewards>
-0.163558

> <s_i_glide_gridfile>
wee1_glide-grid

> <s_m_Source_File>
wee1_decoys_glide_SP.sdf

> <s_m_Source_Path>
/Users/zhangxujun/Desktop

> <s_m_entry_id>
2514

> <s_m_entry_name>
wee1_decoys_glide_SP.2239

> <s_m_subgroup_title>
wee1_decoys_glide_SP

> <s_m_subgroupid>
wee1_decoys_glide_SP


$$$$
