ZINC63773013_1161
                    3D
 Schrodinger Suite 2024-2.
 49 53  0  0  1  0            999 V2000
    0.5774   52.4972   29.2641 C   0  0  0  0  0  0
    1.7400   53.1601   29.6357 C   0  0  0  0  0  0
    2.6235   53.6312   28.6671 C   0  0  0  0  0  0
    2.3422   53.4460   27.2899 C   0  0  0  0  0  0
    1.1369   52.7874   26.8875 C   0  0  0  0  0  0
    0.2712   52.3035   27.9195 C   0  0  0  0  0  0
    0.9047   52.6446   25.4714 C   0  0  0  0  0  0
    1.8970   53.0897   24.5882 C   0  0  0  0  0  0
    3.0672   53.6946   25.0583 C   0  0  0  0  0  0
    3.2623   53.8900   26.3903 N   0  0  0  0  0  0
    4.1979   54.0986   24.1433 C   0  0  0  0  0  0
    4.0519   54.0967   22.7416 C   0  0  0  0  0  0
    5.0951   54.4907   21.9052 C   0  0  0  0  0  0
    6.3080   54.8962   22.4518 C   0  0  0  0  0  0
    6.4881   54.8905   23.8297 C   0  0  0  0  0  0
    5.4448   54.4984   24.6638 C   0  0  0  0  0  0
    7.7192   55.4771   21.3118 Br  0  0  0  0  0  0
   -0.3575   52.0583   24.8794 C   0  0  0  0  0  0
   -0.2948   51.3008   23.9061 O   0  0  0  0  0  0
   -1.5094   52.4962   25.4218 N   0  0  0  0  0  0
   -2.7193   52.1017   24.9837 N   0  0  0  0  0  0
   -3.6709   52.7077   25.5646 C   0  0  0  0  0  0
   -5.0343   52.3884   25.2588 C   0  0  0  0  0  0
   -6.1154   53.0797   25.6763 C   0  0  0  0  0  0
   -6.2540   54.2931   26.5047 C   0  0  0  0  0  0
   -7.4670   54.8213   26.7598 C   0  0  0  0  0  0
   -8.6362   54.1546   26.2038 C   0  0  0  0  0  0
   -8.5311   53.0356   25.4418 C   0  0  0  0  0  0
   -7.2757   52.4830   25.1627 C   0  0  0  0  0  0
   -6.9769   51.4265   24.4439 N   0  3  0  0  0  0
   -5.5213   51.2217   24.4208 C   0  0  0  0  0  0
   -0.0879   52.1205   30.0303 H   0  0  0  0  0  0
    1.9580   53.2932   30.6863 H   0  0  0  0  0  0
    3.5383   54.1269   28.9600 H   0  0  0  0  0  0
   -0.6238   51.7509   27.6803 H   0  0  0  0  0  0
    1.7425   52.9510   23.5283 H   0  0  0  0  0  0
    3.1280   53.8123   22.2629 H   0  0  0  0  0  0
    4.9576   54.4909   20.8331 H   0  0  0  0  0  0
    7.4327   55.2013   24.2494 H   0  0  0  0  0  0
    5.6181   54.5204   25.7307 H   0  0  0  0  0  0
   -1.5102   53.1649   26.1776 H   0  0  0  0  0  0
   -3.5489   53.4887   26.3138 H   0  0  0  0  0  0
   -5.3940   54.8025   26.9153 H   0  0  0  0  0  0
   -7.5715   55.7283   27.3356 H   0  0  0  0  0  0
   -9.6183   54.5624   26.4019 H   0  0  0  0  0  0
   -9.4363   52.5864   25.0559 H   0  0  0  0  0  0
   -5.3047   50.2456   24.8584 H   0  0  0  0  0  0
   -5.1862   51.2497   23.3832 H   0  0  0  0  0  0
   -7.6440   50.8312   23.9620 H   0  0  0  0  0  0
  1  6  2  0  0  0
  1  2  1  0  0  0
  1 32  1  0  0  0
  2  3  2  0  0  0
  2 33  1  0  0  0
  3  4  1  0  0  0
  3 34  1  0  0  0
  4 10  2  0  0  0
  4  5  1  0  0  0
  5  6  1  0  0  0
  5  7  2  0  0  0
  6 35  1  0  0  0
  7  8  1  0  0  0
  7 18  1  0  0  0
  8  9  2  0  0  0
  8 36  1  0  0  0
  9 10  1  0  0  0
  9 11  1  0  0  0
 11 16  2  0  0  0
 11 12  1  0  0  0
 12 13  2  0  0  0
 12 37  1  0  0  0
 13 14  1  0  0  0
 13 38  1  0  0  0
 14 15  2  0  0  0
 14 17  1  0  0  0
 15 16  1  0  0  0
 15 39  1  0  0  0
 16 40  1  0  0  0
 18 19  2  0  0  0
 18 20  1  0  0  0
 20 21  1  0  0  0
 20 41  1  0  0  0
 21 22  2  0  0  0
 22 23  1  0  0  0
 22 42  1  0  0  0
 23 31  1  0  0  0
 23 24  2  0  0  0
 24 29  1  0  0  0
 24 25  1  0  0  0
 25 26  2  0  0  0
 25 43  1  0  0  0
 26 27  1  0  0  0
 26 44  1  0  0  0
 27 28  2  0  0  0
 27 45  1  0  0  0
 28 29  1  0  0  0
 28 46  1  0  0  0
 29 30  2  0  0  0
 30 31  1  0  0  0
 30 49  1  0  0  0
 31 47  1  0  0  0
 31 48  1  0  0  0
M  CHG  1  30   1
M  END
> <i_i_glide_confnum>
18

> <i_i_glide_lignum>
1162

> <i_i_glide_posenum>
342

> <i_i_glide_rotatable_bonds>
5

> <i_m_Source_File_Index>
5482

> <b_m_subgroup_collapsed>
0

> <r_i_docking_score>
-4.82944

> <r_i_glide_ecoul>
2.6463

> <r_i_glide_eff_state_penalty>
0

> <r_i_glide_einternal>
1.80731

> <r_i_glide_emodel>
-51.3262

> <r_i_glide_energy>
-37.4706

> <r_i_glide_erotb>
0.365325

> <r_i_glide_esite>
-0.00528187

> <r_i_glide_evdw>
-40.1169

> <r_i_glide_gscore>
-4.82944

> <r_i_glide_hbond>
0

> <r_i_glide_ligand_efficiency>
-0.155788

> <r_i_glide_ligand_efficiency_ln>
-1.08919

> <r_i_glide_ligand_efficiency_sa>
-0.489391

> <r_i_glide_lipo>
-3.16016

> <r_i_glide_metal>
0

> <r_i_glide_rewards>
-0.420428

> <s_i_glide_gridfile>
wee1_glide-grid

> <s_m_Source_File>
wee1_decoys_glide_SP.sdf

> <s_m_Source_Path>
/Users/zhangxujun/Desktop

> <s_m_entry_id>
5757

> <s_m_entry_name>
wee1_decoys_glide_SP.5482

> <s_m_subgroup_title>
wee1_decoys_glide_SP

> <s_m_subgroupid>
wee1_decoys_glide_SP


$$$$
