ZINC20800105_1431
                    3D
 Schrodinger Suite 2024-2.
 53 55  0  0  1  0            999 V2000
    4.1950   57.1230   17.2157 C   0  0  0  0  0  0
    3.5679   55.7662   16.9194 C   0  0  0  0  0  0
    2.7994   55.6384   15.7589 C   0  0  0  0  0  0
    2.1155   54.4557   15.4851 C   0  0  0  0  0  0
    2.2070   53.3656   16.3512 C   0  0  0  0  0  0
    2.9817   53.4832   17.5115 C   0  0  0  0  0  0
    3.6613   54.6689   17.8022 C   0  0  0  0  0  0
    4.3039   54.7216   19.0458 N   0  0  0  0  0  0
    5.6016   55.0342   19.2806 C   0  0  0  0  0  0
    6.4242   55.2600   18.3891 O   0  0  0  0  0  0
    5.9759   55.1557   20.7227 C   0  0  0  0  0  0
    6.8664   55.9351   21.0765 O   0  0  0  0  0  0
    5.2731   54.3622   21.5757 N   0  0  0  0  0  0
    5.3599   54.3310   22.9758 C   0  0  0  0  0  0
    4.1818   54.0985   23.6842 C   0  0  0  0  0  0
    4.1941   54.0969   25.0779 C   0  0  0  0  0  0
    5.3877   54.2827   25.7962 C   0  0  0  0  0  0
    6.5633   54.4956   25.0607 C   0  0  0  0  0  0
    6.5593   54.5189   23.6699 C   0  0  0  0  0  0
    5.4099   54.2563   27.2199 N   0  0  0  0  0  0
    6.6854   54.0946   27.9219 C   0  0  0  0  0  0
    4.2190   53.8281   27.9552 C   0  0  0  0  0  0
    1.4210   52.2311   16.0820 N   0  0  0  0  0  0
    1.9917   50.9051   16.3005 C   0  0  0  0  0  0
    1.5477   50.3698   17.6833 C   0  0  0  0  0  0
    0.4058   51.2486   18.2353 C   0  0  0  0  0  0
   -0.2318   52.1488   16.7210 S   0  0  0  0  0  0
   -0.7538   53.4682   17.0961 O   0  0  0  0  0  0
   -1.0554   51.1880   15.9782 O   0  0  0  0  0  0
    5.1975   57.1848   16.7889 H   0  0  0  0  0  0
    3.5924   57.9402   16.8135 H   0  0  0  0  0  0
    4.2562   57.2949   18.2879 H   0  0  0  0  0  0
    2.7030   56.4724   15.0784 H   0  0  0  0  0  0
    1.5011   54.3921   14.5978 H   0  0  0  0  0  0
    3.0371   52.6578   18.2055 H   0  0  0  0  0  0
    3.6890   54.5395   19.8234 H   0  0  0  0  0  0
    4.5639   53.7626   21.1857 H   0  0  0  0  0  0
    3.2458   53.9500   23.1638 H   0  0  0  0  0  0
    3.2572   53.9257   25.5833 H   0  0  0  0  0  0
    7.5050   54.6431   25.5547 H   0  0  0  0  0  0
    7.4911   54.6812   23.1459 H   0  0  0  0  0  0
    7.3836   54.8944   27.6774 H   0  0  0  0  0  0
    6.5604   54.0928   29.0050 H   0  0  0  0  0  0
    7.1505   53.1494   27.6404 H   0  0  0  0  0  0
    3.9930   52.7832   27.7335 H   0  0  0  0  0  0
    4.3505   53.9238   29.0336 H   0  0  0  0  0  0
    3.3463   54.4203   27.6771 H   0  0  0  0  0  0
    3.0850   50.9533   16.3269 H   0  0  0  0  0  0
    1.8277   50.2028   15.4833 H   0  0  0  0  0  0
    1.2319   49.3311   17.5771 H   0  0  0  0  0  0
    2.3927   50.3398   18.3740 H   0  0  0  0  0  0
   -0.4103   50.6690   18.6642 H   0  0  0  0  0  0
    0.7378   51.9864   18.9648 H   0  0  0  0  0  0
  1  2  1  0  0  0
  1 30  1  0  0  0
  1 31  1  0  0  0
  1 32  1  0  0  0
  2  7  2  0  0  0
  2  3  1  0  0  0
  3  4  2  0  0  0
  3 33  1  0  0  0
  4  5  1  0  0  0
  4 34  1  0  0  0
  5  6  2  0  0  0
  5 23  1  0  0  0
  6  7  1  0  0  0
  6 35  1  0  0  0
  7  8  1  0  0  0
  8  9  1  0  0  0
  8 36  1  0  0  0
  9 10  2  0  0  0
  9 11  1  0  0  0
 11 12  2  0  0  0
 11 13  1  0  0  0
 13 14  1  0  0  0
 13 37  1  0  0  0
 14 19  2  0  0  0
 14 15  1  0  0  0
 15 16  2  0  0  0
 15 38  1  0  0  0
 16 17  1  0  0  0
 16 39  1  0  0  0
 17 18  2  0  0  0
 17 20  1  0  0  0
 18 19  1  0  0  0
 18 40  1  0  0  0
 19 41  1  0  0  0
 20 21  1  0  0  0
 20 22  1  0  0  0
 21 42  1  0  0  0
 21 43  1  0  0  0
 21 44  1  0  0  0
 22 45  1  0  0  0
 22 46  1  0  0  0
 22 47  1  0  0  0
 23 27  1  0  0  0
 23 24  1  0  0  0
 24 25  1  0  0  0
 24 48  1  0  0  0
 24 49  1  0  0  0
 25 26  1  0  0  0
 25 50  1  0  0  0
 25 51  1  0  0  0
 26 27  1  0  0  0
 26 52  1  0  0  0
 26 53  1  0  0  0
 27 28  2  0  0  0
 27 29  2  0  0  0
M  END
> <i_i_glide_confnum>
293

> <i_i_glide_lignum>
1432

> <i_i_glide_posenum>
314

> <i_i_glide_rotatable_bonds>
7

> <i_m_Source_File_Index>
653

> <b_m_subgroup_collapsed>
0

> <r_i_docking_score>
-5.21789

> <r_i_glide_ecoul>
-4.4282

> <r_i_glide_eff_state_penalty>
0

> <r_i_glide_einternal>
7.58477

> <r_i_glide_emodel>
-47.7162

> <r_i_glide_energy>
-39.4566

> <r_i_glide_erotb>
0.683347

> <r_i_glide_esite>
-0.0233216

> <r_i_glide_evdw>
-35.0284

> <r_i_glide_gscore>
-5.21789

> <r_i_glide_hbond>
-0.0139209

> <r_i_glide_ligand_efficiency>
-0.179927

> <r_i_glide_ligand_efficiency_ln>
-1.19476

> <r_i_glide_ligand_efficiency_sa>
-0.552793

> <r_i_glide_lipo>
-2.2353

> <r_i_glide_metal>
0

> <r_i_glide_rewards>
-1.21304

> <s_i_glide_gridfile>
wee1_glide-grid

> <s_m_Source_File>
wee1_decoys_glide_SP.sdf

> <s_m_Source_Path>
/Users/zhangxujun/Desktop

> <s_m_entry_id>
928

> <s_m_entry_name>
wee1_decoys_glide_SP.653

> <s_m_subgroup_title>
wee1_decoys_glide_SP

> <s_m_subgroupid>
wee1_decoys_glide_SP


$$$$
