ZINC59821777_4006
                    3D
 Schrodinger Suite 2024-2.
 50 53  0  0  1  0            999 V2000
    2.7041   58.7240   15.4738 C   0  0  0  0  0  0
    4.0623   58.4963   15.6709 C   0  0  0  0  0  0
    4.4998   57.2430   16.0885 C   0  0  0  0  0  0
    3.5771   56.2174   16.3332 C   0  0  0  0  0  0
    2.2105   56.4551   16.1128 C   0  0  0  0  0  0
    1.7770   57.7062   15.6823 C   0  0  0  0  0  0
    4.0660   54.9057   16.8958 C   0  0  0  0  0  0
    5.1676   54.4476   16.5810 O   0  0  0  0  0  0
    3.2546   54.3724   17.8345 N   0  0  0  0  0  0
    3.7011   53.3674   18.6987 N   0  0  0  0  0  0
    4.3024   53.7570   19.8458 C   0  0  0  0  0  0
    4.7375   54.8967   20.0270 O   0  0  0  0  0  0
    4.4002   52.7228   20.9695 C   0  0  0  0  0  0
    4.9696   53.4467   22.5522 S   0  0  0  0  0  0
    3.5045   53.5381   23.5715 C   0  0  0  0  0  0
    2.2878   53.2550   23.1763 N   0  0  0  0  0  0
    1.4736   53.2329   24.3035 N   0  0  0  0  0  0
    2.2177   53.5251   25.3453 C   0  0  0  0  0  0
    3.5218   53.7760   24.9415 N   0  0  0  0  0  0
    4.6491   54.0970   25.7358 C   0  0  0  0  0  0
    4.8968   53.4133   26.9334 C   0  0  0  0  0  0
    6.0397   53.6931   27.6725 C   0  0  0  0  0  0
    6.9432   54.6343   27.1975 C   0  0  0  0  0  0
    6.7043   55.3188   26.0086 C   0  0  0  0  0  0
    5.5491   55.0652   25.2896 C   0  0  0  0  0  0
    1.7050   53.5114   26.7611 C   0  0  0  0  0  0
    0.8310   52.4964   27.1712 C   0  0  0  0  0  0
    0.3642   52.4554   28.4841 C   0  0  0  0  0  0
    0.7596   53.4402   29.3881 C   0  0  0  0  0  0
    1.6120   54.4651   28.9895 C   0  0  0  0  0  0
    2.0846   54.4965   27.6821 C   0  0  0  0  0  0
    0.1421   53.3898   31.1866 Br  0  0  0  0  0  0
    2.3712   59.7055   15.1689 H   0  0  0  0  0  0
    4.7684   59.3023   15.5261 H   0  0  0  0  0  0
    5.5559   57.0887   16.2604 H   0  0  0  0  0  0
    1.4744   55.6839   16.2860 H   0  0  0  0  0  0
    0.7251   57.8958   15.5305 H   0  0  0  0  0  0
    2.2719   54.5796   17.9368 H   0  0  0  0  0  0
    3.3444   52.4452   18.4881 H   0  0  0  0  0  0
    3.4522   52.2009   21.0937 H   0  0  0  0  0  0
    5.1318   51.9765   20.6607 H   0  0  0  0  0  0
    4.2252   52.6436   27.2849 H   0  0  0  0  0  0
    6.2369   53.1652   28.5932 H   0  0  0  0  0  0
    7.8400   54.8402   27.7604 H   0  0  0  0  0  0
    7.3894   56.0612   25.6308 H   0  0  0  0  0  0
    5.3799   55.6061   24.3731 H   0  0  0  0  0  0
    0.5245   51.7269   26.4771 H   0  0  0  0  0  0
   -0.2975   51.6603   28.7995 H   0  0  0  0  0  0
    1.9087   55.2308   29.6907 H   0  0  0  0  0  0
    2.7482   55.2953   27.3846 H   0  0  0  0  0  0
  1  6  2  0  0  0
  1  2  1  0  0  0
  1 33  1  0  0  0
  2  3  2  0  0  0
  2 34  1  0  0  0
  3  4  1  0  0  0
  3 35  1  0  0  0
  4  5  2  0  0  0
  4  7  1  0  0  0
  5  6  1  0  0  0
  5 36  1  0  0  0
  6 37  1  0  0  0
  7  8  2  0  0  0
  7  9  1  0  0  0
  9 10  1  0  0  0
  9 38  1  0  0  0
 10 11  1  0  0  0
 10 39  1  0  0  0
 11 12  2  0  0  0
 11 13  1  0  0  0
 13 14  1  0  0  0
 13 40  1  0  0  0
 13 41  1  0  0  0
 14 15  1  0  0  0
 15 19  1  0  0  0
 15 16  2  0  0  0
 16 17  1  0  0  0
 17 18  2  0  0  0
 18 19  1  0  0  0
 18 26  1  0  0  0
 19 20  1  0  0  0
 20 25  2  0  0  0
 20 21  1  0  0  0
 21 22  2  0  0  0
 21 42  1  0  0  0
 22 23  1  0  0  0
 22 43  1  0  0  0
 23 24  2  0  0  0
 23 44  1  0  0  0
 24 25  1  0  0  0
 24 45  1  0  0  0
 25 46  1  0  0  0
 26 31  2  0  0  0
 26 27  1  0  0  0
 27 28  2  0  0  0
 27 47  1  0  0  0
 28 29  1  0  0  0
 28 48  1  0  0  0
 29 30  2  0  0  0
 29 32  1  0  0  0
 30 31  1  0  0  0
 30 49  1  0  0  0
 31 50  1  0  0  0
M  END
> <i_i_glide_confnum>
27

> <i_i_glide_lignum>
4007

> <i_i_glide_posenum>
74

> <i_i_glide_rotatable_bonds>
9

> <i_m_Source_File_Index>
2600

> <b_m_subgroup_collapsed>
0

> <r_i_docking_score>
-5.01582

> <r_i_glide_ecoul>
-0.704756

> <r_i_glide_eff_state_penalty>
0

> <r_i_glide_einternal>
6.76141

> <r_i_glide_emodel>
-57.4949

> <r_i_glide_energy>
-43.4788

> <r_i_glide_erotb>
0.633687

> <r_i_glide_esite>
-0.0463971

> <r_i_glide_evdw>
-42.774

> <r_i_glide_gscore>
-5.01582

> <r_i_glide_hbond>
-0.0153491

> <r_i_glide_ligand_efficiency>
-0.156744

> <r_i_glide_ligand_efficiency_ln>
-1.12318

> <r_i_glide_ligand_efficiency_sa>
-0.497633

> <r_i_glide_lipo>
-2.54747

> <r_i_glide_metal>
0

> <r_i_glide_rewards>
-0.795876

> <s_i_glide_gridfile>
wee1_glide-grid

> <s_m_Source_File>
wee1_decoys_glide_SP.sdf

> <s_m_Source_Path>
/Users/zhangxujun/Desktop

> <s_m_entry_id>
2875

> <s_m_entry_name>
wee1_decoys_glide_SP.2600

> <s_m_subgroup_title>
wee1_decoys_glide_SP

> <s_m_subgroupid>
wee1_decoys_glide_SP


$$$$
