ZINC00930006_2643
                    3D
 Schrodinger Suite 2024-2.
 48 51  0  0  1  0            999 V2000
    4.1237   57.2194   17.0773 C   0  0  0  0  0  0
    5.6304   57.1732   17.2961 C   0  0  0  0  0  0
    6.3039   58.3637   17.5715 C   0  0  0  0  0  0
    7.7031   58.3591   17.7758 C   0  0  0  0  0  0
    8.4287   59.5447   18.0815 C   0  0  0  0  0  0
    9.7981   59.4319   18.2807 C   0  0  0  0  0  0
   10.4514   58.2361   18.1942 C   0  0  0  0  0  0
    9.7963   57.0478   17.8941 C   0  0  0  0  0  0
    8.3910   57.1034   17.6708 C   0  0  0  0  0  0
    7.7290   55.9520   17.3711 N   0  0  0  0  0  0
    6.3814   55.9895   17.2094 C   0  0  0  0  0  0
    5.6187   54.4169   16.8929 S   0  0  0  0  0  0
    4.5111   54.0333   18.3015 C   0  0  0  0  0  0
    5.1163   54.2299   19.7002 C   0  0  0  0  0  0
    6.3079   54.4988   19.8199 O   0  0  0  0  0  0
    4.2654   54.0920   20.7404 N   0  0  0  0  0  0
    4.5364   54.1341   22.1259 C   0  0  0  0  0  0
    5.8238   54.2114   22.6821 C   0  0  0  0  0  0
    5.9994   54.2299   24.0586 C   0  0  0  0  0  0
    4.8870   54.1728   24.9107 C   0  0  0  0  0  0
    3.6042   54.0971   24.3610 C   0  0  0  0  0  0
    3.4301   54.0800   22.9778 C   0  0  0  0  0  0
    4.9796   54.1359   26.3151 N   0  0  0  0  0  0
    6.0315   54.4472   27.1004 C   0  0  0  0  0  0
    7.1042   54.8960   26.7062 O   0  0  0  0  0  0
    5.8290   54.2280   28.5915 C   0  0  0  0  0  0
   11.7674   58.4241   18.4804 O   0  0  0  0  0  0
   11.9501   59.8134   18.5315 C   0  0  0  0  0  0
   10.6820   60.4073   18.6224 O   0  0  0  0  0  0
    3.7869   58.2265   16.8203 H   0  0  0  0  0  0
    3.8327   56.5746   16.2472 H   0  0  0  0  0  0
    3.5978   56.8908   17.9733 H   0  0  0  0  0  0
    5.7614   59.2967   17.6358 H   0  0  0  0  0  0
    7.9047   60.4874   18.1554 H   0  0  0  0  0  0
   10.3170   56.1026   17.8438 H   0  0  0  0  0  0
    4.2314   52.9824   18.2055 H   0  0  0  0  0  0
    3.5941   54.6144   18.2052 H   0  0  0  0  0  0
    3.2920   53.9643   20.5032 H   0  0  0  0  0  0
    6.7164   54.2514   22.0820 H   0  0  0  0  0  0
    7.0123   54.2612   24.4307 H   0  0  0  0  0  0
    2.7347   54.0438   25.0005 H   0  0  0  0  0  0
    2.4288   54.0225   22.5744 H   0  0  0  0  0  0
    4.1369   53.8524   26.7879 H   0  0  0  0  0  0
    5.2249   53.3400   28.7867 H   0  0  0  0  0  0
    5.3429   55.0952   29.0408 H   0  0  0  0  0  0
    6.7957   54.0961   29.0797 H   0  0  0  0  0  0
   12.5663   60.0814   19.3917 H   0  0  0  0  0  0
   12.4378   60.1437   17.6111 H   0  0  0  0  0  0
  1  2  1  0  0  0
  1 30  1  0  0  0
  1 31  1  0  0  0
  1 32  1  0  0  0
  2 11  2  0  0  0
  2  3  1  0  0  0
  3  4  2  0  0  0
  3 33  1  0  0  0
  4  9  1  0  0  0
  4  5  1  0  0  0
  5  6  2  0  0  0
  5 34  1  0  0  0
  6 29  1  0  0  0
  6  7  1  0  0  0
  7  8  2  0  0  0
  7 27  1  0  0  0
  8  9  1  0  0  0
  8 35  1  0  0  0
  9 10  2  0  0  0
 10 11  1  0  0  0
 11 12  1  0  0  0
 12 13  1  0  0  0
 13 14  1  0  0  0
 13 36  1  0  0  0
 13 37  1  0  0  0
 14 15  2  0  0  0
 14 16  1  0  0  0
 16 17  1  0  0  0
 16 38  1  0  0  0
 17 22  2  0  0  0
 17 18  1  0  0  0
 18 19  2  0  0  0
 18 39  1  0  0  0
 19 20  1  0  0  0
 19 40  1  0  0  0
 20 21  2  0  0  0
 20 23  1  0  0  0
 21 22  1  0  0  0
 21 41  1  0  0  0
 22 42  1  0  0  0
 23 24  1  0  0  0
 23 43  1  0  0  0
 24 25  2  0  0  0
 24 26  1  0  0  0
 26 44  1  0  0  0
 26 45  1  0  0  0
 26 46  1  0  0  0
 27 28  1  0  0  0
 28 29  1  0  0  0
 28 47  1  0  0  0
 28 48  1  0  0  0
M  END
> <i_i_glide_confnum>
58

> <i_i_glide_lignum>
2644

> <i_i_glide_posenum>
120

> <i_i_glide_rotatable_bonds>
7

> <i_m_Source_File_Index>
1365

> <b_m_subgroup_collapsed>
0

> <r_i_docking_score>
-5.51143

> <r_i_glide_ecoul>
-8.22877

> <r_i_glide_eff_state_penalty>
0

> <r_i_glide_einternal>
4.76689

> <r_i_glide_emodel>
-60.8949

> <r_i_glide_energy>
-45.2156

> <r_i_glide_erotb>
0.704688

> <r_i_glide_esite>
-0.017452

> <r_i_glide_evdw>
-36.9868

> <r_i_glide_gscore>
-5.51143

> <r_i_glide_hbond>
-0.492281

> <r_i_glide_ligand_efficiency>
-0.190049

> <r_i_glide_ligand_efficiency_ln>
-1.26198

> <r_i_glide_ligand_efficiency_sa>
-0.583891

> <r_i_glide_lipo>
-1.5565

> <r_i_glide_metal>
0

> <r_i_glide_rewards>
-1.06623

> <s_i_glide_gridfile>
wee1_glide-grid

> <s_m_Source_File>
wee1_decoys_glide_SP.sdf

> <s_m_Source_Path>
/Users/zhangxujun/Desktop

> <s_m_entry_id>
1640

> <s_m_entry_name>
wee1_decoys_glide_SP.1365

> <s_m_subgroup_title>
wee1_decoys_glide_SP

> <s_m_subgroupid>
wee1_decoys_glide_SP


$$$$
