ZINC14667142_5189
                    3D
 Schrodinger Suite 2024-2.
 51 53  0  0  1  0            999 V2000
    2.9061   52.0989   29.5918 C   0  0  0  0  0  0
    1.3954   52.3956   29.5101 C   0  0  0  0  0  0
    1.0982   53.8714   29.8345 C   0  0  0  0  0  0
    0.8043   51.9803   28.1464 C   0  0  0  0  0  0
    1.5209   52.6385   27.1041 O   0  0  0  0  0  0
    1.0990   52.5605   25.7904 C   0  0  0  0  0  0
   -0.0256   51.8075   25.4116 C   0  0  0  0  0  0
   -0.4256   51.7390   24.0810 C   0  0  0  0  0  0
    0.2786   52.4351   23.1067 C   0  0  0  0  0  0
    1.3829   53.2012   23.4647 C   0  0  0  0  0  0
    1.8361   53.2495   24.7978 C   0  0  0  0  0  0
    3.1044   54.0117   25.1434 C   0  0  0  0  0  0
    3.2646   54.4976   26.2643 O   0  0  0  0  0  0
    4.0057   54.0967   24.1310 N   0  0  0  0  0  0
    5.3390   54.4279   24.0840 C   0  0  0  0  0  0
    6.3041   54.8950   25.3641 S   0  0  0  0  0  0
    5.9488   54.4076   22.8587 N   0  0  0  0  0  0
    5.3572   54.0704   21.6387 C   0  0  0  0  0  0
    5.4867   54.7522   20.4212 C   0  0  0  0  0  0
    4.7123   54.1703   19.3923 C   0  0  0  0  0  0
    4.0256   53.0277   19.8240 C   0  0  0  0  0  0
    4.4128   52.6150   21.4546 S   0  0  0  0  0  0
    2.9958   52.2544   19.0115 C   0  0  0  0  0  0
    3.1189   52.6425   17.5241 C   0  0  0  0  0  0
    3.2503   54.1625   17.3256 C   0  0  0  0  0  0
    4.5324   54.7279   17.9756 C   0  0  0  0  0  0
    6.3017   55.9467   20.2332 C   0  0  0  0  0  0
    6.9419   56.8968   20.0826 N   0  0  0  0  0  0
   -0.2302   52.2778   21.2788 Br  0  0  0  0  0  0
    3.4758   52.7551   28.9316 H   0  0  0  0  0  0
    3.1245   51.0747   29.2822 H   0  0  0  0  0  0
    3.2843   52.2356   30.6064 H   0  0  0  0  0  0
    0.8960   51.7880   30.2671 H   0  0  0  0  0  0
    1.5835   54.5441   29.1252 H   0  0  0  0  0  0
    0.0280   54.0765   29.8060 H   0  0  0  0  0  0
    1.4466   54.1325   30.8333 H   0  0  0  0  0  0
    0.8734   50.8976   28.0181 H   0  0  0  0  0  0
   -0.2565   52.2389   28.1209 H   0  0  0  0  0  0
   -0.5969   51.2462   26.1339 H   0  0  0  0  0  0
   -1.2754   51.1325   23.8059 H   0  0  0  0  0  0
    1.8939   53.7332   22.6739 H   0  0  0  0  0  0
    3.6661   53.6963   23.2722 H   0  0  0  0  0  0
    6.8233   54.9130   22.7974 H   0  0  0  0  0  0
    3.1152   51.1764   19.1267 H   0  0  0  0  0  0
    1.9935   52.5058   19.3623 H   0  0  0  0  0  0
    3.9822   52.1386   17.0862 H   0  0  0  0  0  0
    2.2528   52.2666   16.9780 H   0  0  0  0  0  0
    3.2438   54.4026   16.2609 H   0  0  0  0  0  0
    2.3761   54.6596   17.7490 H   0  0  0  0  0  0
    4.4889   55.8173   17.9767 H   0  0  0  0  0  0
    5.4002   54.4648   17.3693 H   0  0  0  0  0  0
  1  2  1  0  0  0
  1 30  1  0  0  0
  1 31  1  0  0  0
  1 32  1  0  0  0
  2  3  1  0  0  0
  2  4  1  0  0  0
  2 33  1  0  0  0
  3 34  1  0  0  0
  3 35  1  0  0  0
  3 36  1  0  0  0
  4  5  1  0  0  0
  4 37  1  0  0  0
  4 38  1  0  0  0
  5  6  1  0  0  0
  6 11  2  0  0  0
  6  7  1  0  0  0
  7  8  2  0  0  0
  7 39  1  0  0  0
  8  9  1  0  0  0
  8 40  1  0  0  0
  9 10  2  0  0  0
  9 29  1  0  0  0
 10 11  1  0  0  0
 10 41  1  0  0  0
 11 12  1  0  0  0
 12 13  2  0  0  0
 12 14  1  0  0  0
 14 15  1  0  0  0
 14 42  1  0  0  0
 15 16  2  0  0  0
 15 17  1  0  0  0
 17 18  1  0  0  0
 17 43  1  0  0  0
 18 22  1  0  0  0
 18 19  2  0  0  0
 19 20  1  0  0  0
 19 27  1  0  0  0
 20 26  1  0  0  0
 20 21  2  0  0  0
 21 22  1  0  0  0
 21 23  1  0  0  0
 23 24  1  0  0  0
 23 44  1  0  0  0
 23 45  1  0  0  0
 24 25  1  0  0  0
 24 46  1  0  0  0
 24 47  1  0  0  0
 25 26  1  0  0  0
 25 48  1  0  0  0
 25 49  1  0  0  0
 26 50  1  0  0  0
 26 51  1  0  0  0
 27 28  3  0  0  0
M  END
> <i_i_glide_confnum>
233

> <i_i_glide_lignum>
5190

> <i_i_glide_posenum>
104

> <i_i_glide_rotatable_bonds>
9

> <i_m_Source_File_Index>
1535

> <b_m_subgroup_collapsed>
0

> <r_i_docking_score>
-5.74751

> <r_i_glide_ecoul>
-4.83826

> <r_i_glide_eff_state_penalty>
0

> <r_i_glide_einternal>
6.20272

> <r_i_glide_emodel>
-68.9179

> <r_i_glide_energy>
-53.1555

> <r_i_glide_erotb>
0.587819

> <r_i_glide_esite>
0

> <r_i_glide_evdw>
-48.3172

> <r_i_glide_gscore>
-5.74751

> <r_i_glide_hbond>
-0.32

> <r_i_glide_ligand_efficiency>
-0.19819

> <r_i_glide_ligand_efficiency_ln>
-1.31603

> <r_i_glide_ligand_efficiency_sa>
-0.608903

> <r_i_glide_lipo>
-1.58806

> <r_i_glide_metal>
0

> <r_i_glide_rewards>
-1.28567

> <s_i_glide_gridfile>
wee1_glide-grid

> <s_m_Source_File>
wee1_decoys_glide_SP.sdf

> <s_m_Source_Path>
/Users/zhangxujun/Desktop

> <s_m_entry_id>
1810

> <s_m_entry_name>
wee1_decoys_glide_SP.1535

> <s_m_subgroup_title>
wee1_decoys_glide_SP

> <s_m_subgroupid>
wee1_decoys_glide_SP


$$$$
