ZINC02399267_1964
                    3D
 Schrodinger Suite 2024-2.
 42 44  0  0  1  0            999 V2000
    4.4448   54.1227   26.8307 C   0  0  0  0  0  0
    5.5649   54.5438   26.0601 O   0  0  0  0  0  0
    5.4893   54.4991   24.6818 C   0  0  0  0  0  0
    6.6318   54.8953   23.9928 C   0  0  0  0  0  0
    6.6615   54.8949   22.6030 C   0  0  0  0  0  0
    5.5330   54.4859   21.8794 C   0  0  0  0  0  0
    4.3804   54.0829   22.5628 C   0  0  0  0  0  0
    4.3570   54.0967   23.9567 C   0  0  0  0  0  0
    5.5559   54.4876   20.4660 N   0  0  0  0  0  0
    5.9218   55.5483   19.7115 C   0  0  0  0  0  0
    6.3075   56.6614   20.0849 O   0  0  0  0  0  0
    5.7617   55.0667   18.2607 C   0  0  2  0  0  0
    5.3741   53.6954   18.3806 N   0  0  0  0  0  0
    5.3035   53.4512   19.6172 C   0  0  0  0  0  0
    5.0522   52.1818   20.0817 O   0  0  0  0  0  0
    7.1425   55.1675   17.5065 C   0  0  0  0  0  0
    7.0102   54.8321   16.2216 F   0  0  0  0  0  0
    7.6871   56.3849   17.5223 F   0  0  0  0  0  0
    8.0621   54.3466   18.0252 F   0  0  0  0  0  0
    4.6469   55.7564   17.5772 N   0  0  0  0  0  0
    4.5320   57.0343   17.1636 C   0  0  0  0  0  0
    5.4172   57.8721   17.3284 O   0  0  0  0  0  0
    3.2257   57.4064   16.4883 C   0  0  0  0  0  0
    3.1017   58.6640   15.8794 C   0  0  0  0  0  0
    1.9064   59.0485   15.2786 C   0  0  0  0  0  0
    0.8204   58.1799   15.2821 C   0  0  0  0  0  0
    0.9214   56.9277   15.8807 C   0  0  0  0  0  0
    2.1170   56.5404   16.4813 C   0  0  0  0  0  0
   -0.3441   58.5556   14.7065 F   0  0  0  0  0  0
    4.6852   54.2092   27.8904 H   0  0  0  0  0  0
    3.5701   54.7464   26.6390 H   0  0  0  0  0  0
    4.1927   53.0792   26.6353 H   0  0  0  0  0  0
    7.5046   55.2126   24.5407 H   0  0  0  0  0  0
    7.5635   55.2080   22.0970 H   0  0  0  0  0  0
    3.5012   53.7704   22.0169 H   0  0  0  0  0  0
    3.4531   53.7863   24.4574 H   0  0  0  0  0  0
    5.1039   51.5573   19.3356 H   0  0  0  0  0  0
    3.9298   55.1245   17.2616 H   0  0  0  0  0  0
    3.9283   59.3635   15.8795 H   0  0  0  0  0  0
    1.8227   60.0248   14.8244 H   0  0  0  0  0  0
    0.0705   56.2631   15.8844 H   0  0  0  0  0  0
    2.1496   55.5686   16.9523 H   0  0  0  0  0  0
  1  2  1  0  0  0
  1 30  1  0  0  0
  1 31  1  0  0  0
  1 32  1  0  0  0
  2  3  1  0  0  0
  3  8  2  0  0  0
  3  4  1  0  0  0
  4  5  2  0  0  0
  4 33  1  0  0  0
  5  6  1  0  0  0
  5 34  1  0  0  0
  6  7  2  0  0  0
  6  9  1  0  0  0
  7  8  1  0  0  0
  7 35  1  0  0  0
  8 36  1  0  0  0
  9 14  1  0  0  0
  9 10  1  0  0  0
 10 11  2  0  0  0
 10 12  1  0  0  0
 12 13  1  0  0  0
 12 16  1  0  0  0
 12 20  1  0  0  0
 13 14  2  0  0  0
 14 15  1  0  0  0
 15 37  1  0  0  0
 16 17  1  0  0  0
 16 18  1  0  0  0
 16 19  1  0  0  0
 20 21  1  0  0  0
 20 38  1  0  0  0
 21 22  2  0  0  0
 21 23  1  0  0  0
 23 28  2  0  0  0
 23 24  1  0  0  0
 24 25  2  0  0  0
 24 39  1  0  0  0
 25 26  1  0  0  0
 25 40  1  0  0  0
 26 27  2  0  0  0
 26 29  1  0  0  0
 27 28  1  0  0  0
 27 41  1  0  0  0
 28 42  1  0  0  0
M  END
> <i_i_glide_confnum>
48

> <i_i_glide_lignum>
1965

> <i_i_glide_posenum>
346

> <i_i_glide_rotatable_bonds>
7

> <i_m_Source_File_Index>
4608

> <b_m_subgroup_collapsed>
0

> <r_i_docking_score>
-5.1004

> <r_i_glide_ecoul>
-6.74945

> <r_i_glide_eff_state_penalty>
0

> <r_i_glide_einternal>
7.26707

> <r_i_glide_emodel>
-48.1644

> <r_i_glide_energy>
-39.299

> <r_i_glide_erotb>
0.465991

> <r_i_glide_esite>
-0.0448727

> <r_i_glide_evdw>
-32.5495

> <r_i_glide_gscore>
-5.1004

> <r_i_glide_hbond>
-0.16

> <r_i_glide_ligand_efficiency>
-0.175876

> <r_i_glide_ligand_efficiency_ln>
-1.16786

> <r_i_glide_ligand_efficiency_sa>
-0.540346

> <r_i_glide_lipo>
-1.69302

> <r_i_glide_metal>
0

> <r_i_glide_rewards>
-1.02861

> <s_i_glide_gridfile>
wee1_glide-grid

> <s_m_Source_File>
wee1_decoys_glide_SP.sdf

> <s_m_Source_Path>
/Users/zhangxujun/Desktop

> <s_m_entry_id>
4883

> <s_m_entry_name>
wee1_decoys_glide_SP.4608

> <s_m_subgroup_title>
wee1_decoys_glide_SP

> <s_m_subgroupid>
wee1_decoys_glide_SP


$$$$
