ZINC62353513_1916
                    3D
 Schrodinger Suite 2024-2.
 27 28  0  0  1  0            999 V2000
    6.3024   54.8961   27.6947 C   0  0  0  0  0  0
    5.4962   54.5407   26.4574 C   0  0  0  0  0  0
    6.1281   54.7052   25.2220 C   0  0  0  0  0  0
    5.4360   54.4967   24.0363 C   0  0  0  0  0  0
    4.1024   54.1018   24.0692 C   0  0  0  0  0  0
    3.4513   53.9249   25.2899 C   0  0  0  0  0  0
    4.1415   54.1360   26.5029 C   0  0  0  0  0  0
    3.4160   54.0055   27.7082 N   0  0  0  0  0  0
    3.6873   53.1725   28.7364 C   0  0  0  0  0  0
    4.7514   52.5665   28.8813 O   0  0  0  0  0  0
    2.5901   53.0113   29.6736 C   0  0  0  0  0  0
    1.2531   53.4140   29.5035 C   0  0  0  0  0  0
    0.3041   52.9059   30.8675 S   0  0  0  0  0  0
    1.7384   52.2010   31.5196 C   0  0  0  0  0  0
    2.8183   52.3387   30.7935 N   0  0  0  0  0  0
    2.1085   53.5330   25.2563 N   0  0  0  0  0  0
    6.3054   54.8140   22.3752 Br  0  0  0  0  0  0
    7.0189   55.6812   27.4618 H   0  0  0  0  0  0
    5.6736   55.2915   28.4926 H   0  0  0  0  0  0
    6.8468   54.0285   28.0679 H   0  0  0  0  0  0
    7.1581   55.0253   25.1696 H   0  0  0  0  0  0
    3.5758   53.9497   23.1382 H   0  0  0  0  0  0
    2.4918   54.4059   27.6867 H   0  0  0  0  0  0
    0.7844   53.9391   28.6835 H   0  0  0  0  0  0
    1.7169   51.6968   32.4751 H   0  0  0  0  0  0
    1.7170   53.4432   24.3297 H   0  0  0  0  0  0
    1.8667   52.8026   25.9100 H   0  0  0  0  0  0
  1  2  1  0  0  0
  1 18  1  0  0  0
  1 19  1  0  0  0
  1 20  1  0  0  0
  2  7  2  0  0  0
  2  3  1  0  0  0
  3  4  2  0  0  0
  3 21  1  0  0  0
  4  5  1  0  0  0
  4 17  1  0  0  0
  5  6  2  0  0  0
  5 22  1  0  0  0
  6  7  1  0  0  0
  6 16  1  0  0  0
  7  8  1  0  0  0
  8  9  1  0  0  0
  8 23  1  0  0  0
  9 10  2  0  0  0
  9 11  1  0  0  0
 11 15  1  0  0  0
 11 12  2  0  0  0
 12 13  1  0  0  0
 12 24  1  0  0  0
 13 14  1  0  0  0
 14 15  2  0  0  0
 14 25  1  0  0  0
 16 26  1  0  0  0
 16 27  1  0  0  0
M  END
> <i_i_glide_confnum>
2

> <i_i_glide_lignum>
1917

> <i_i_glide_posenum>
260

> <i_i_glide_rotatable_bonds>
3

> <i_m_Source_File_Index>
4557

> <b_m_subgroup_collapsed>
0

> <r_i_docking_score>
-5.47888

> <r_i_glide_ecoul>
-0.744128

> <r_i_glide_eff_state_penalty>
0

> <r_i_glide_einternal>
3.67054

> <r_i_glide_emodel>
-46.4771

> <r_i_glide_energy>
-36.2484

> <r_i_glide_erotb>
0.571188

> <r_i_glide_esite>
0

> <r_i_glide_evdw>
-35.5043

> <r_i_glide_gscore>
-5.47888

> <r_i_glide_hbond>
-0.247453

> <r_i_glide_ligand_efficiency>
-0.322287

> <r_i_glide_ligand_efficiency_ln>
-1.42932

> <r_i_glide_ligand_efficiency_sa>
-0.82869

> <r_i_glide_lipo>
-2.26394

> <r_i_glide_metal>
0

> <r_i_glide_rewards>
-1.65184

> <s_i_glide_gridfile>
wee1_glide-grid

> <s_m_Source_File>
wee1_decoys_glide_SP.sdf

> <s_m_Source_Path>
/Users/zhangxujun/Desktop

> <s_m_entry_id>
4832

> <s_m_entry_name>
wee1_decoys_glide_SP.4557

> <s_m_subgroup_title>
wee1_decoys_glide_SP

> <s_m_subgroupid>
wee1_decoys_glide_SP


$$$$
