ZINC63704771_2435
                    3D
 Schrodinger Suite 2024-2.
 58 62  0  0  1  0            999 V2000
    4.6062   54.1823   24.6477 C   0  0  0  0  0  0
    5.5667   54.4973   23.6926 C   0  0  0  0  0  0
    5.2832   54.3252   22.3319 C   0  0  0  0  0  0
    4.0876   53.7036   21.9197 C   0  0  0  0  0  0
    3.1101   53.4677   22.8982 C   0  0  0  0  0  0
    3.3460   53.7009   24.2626 C   0  0  0  0  0  0
    2.2417   53.4479   25.2685 C   0  0  0  0  0  0
    1.1026   53.1761   24.8850 O   0  0  0  0  0  0
    2.5541   53.5706   26.5755 N   0  0  0  0  0  0
    1.6050   53.4509   27.6842 C   0  0  0  0  0  0
    1.1372   52.0091   28.0076 C   0  0  0  0  0  0
    0.1236   51.9462   29.1691 C   0  0  0  0  0  0
    0.6176   52.6953   30.4189 C   0  0  0  0  0  0
    0.9760   54.1507   30.0798 C   0  0  0  0  0  0
    2.0167   54.2451   28.9452 C   0  0  0  0  0  0
    3.9124   53.4202   20.5275 N   0  0  0  0  0  0
    4.8180   54.0050   19.6367 C   0  0  0  0  0  0
    5.8573   54.6828   19.9713 N   0  0  0  0  0  0
    6.2271   54.9063   21.2943 C   0  0  0  0  0  0
    7.2164   55.5438   21.6517 O   0  0  0  0  0  0
    4.5085   53.6927   18.1880 C   0  0  1  0  0  0
    5.3275   53.1266   17.7417 H   0  0  0  0  0  0
    3.0786   52.5939   18.1467 S   0  0  0  0  0  0
    3.0711   52.4421   19.8998 C   0  0  0  0  0  0
    2.0925   51.2598   20.5499 S   0  0  0  0  0  0
    4.3493   54.9667   17.3317 C   0  0  0  0  0  0
    5.3312   55.3920   16.7261 O   0  0  0  0  0  0
    3.1379   55.5602   17.2828 N   0  0  0  0  0  0
    2.7223   56.7505   16.5183 C   0  0  0  0  0  0
    3.5937   57.9996   16.7281 C   0  0  0  0  0  0
    4.4675   58.1435   15.4687 C   0  0  0  0  0  0
    3.9849   57.0901   14.4540 C   0  0  0  0  0  0
    2.6619   56.5409   15.0001 C   0  0  0  0  0  0
    4.8463   54.3689   25.6840 H   0  0  0  0  0  0
    6.5013   54.9372   24.0179 H   0  0  0  0  0  0
    2.1355   53.1147   22.6032 H   0  0  0  0  0  0
    3.5241   53.6641   26.8307 H   0  0  0  0  0  0
    0.7046   53.9653   27.3492 H   0  0  0  0  0  0
    0.6926   51.5471   27.1246 H   0  0  0  0  0  0
    2.0050   51.4028   28.2714 H   0  0  0  0  0  0
   -0.8252   52.3750   28.8430 H   0  0  0  0  0  0
   -0.0947   50.9062   29.4139 H   0  0  0  0  0  0
   -0.1478   52.6668   31.1968 H   0  0  0  0  0  0
    1.4894   52.1884   30.8344 H   0  0  0  0  0  0
    0.0684   54.6754   29.7829 H   0  0  0  0  0  0
    1.3370   54.6707   30.9653 H   0  0  0  0  0  0
    2.9685   53.8601   29.3139 H   0  0  0  0  0  0
    2.1783   55.2944   28.6916 H   0  0  0  0  0  0
    2.4045   55.1189   17.8199 H   0  0  0  0  0  0
    1.7125   56.9204   16.8968 H   0  0  0  0  0  0
    4.1653   57.9752   17.6565 H   0  0  0  0  0  0
    2.9487   58.8789   16.7885 H   0  0  0  0  0  0
    5.5209   57.9919   15.7090 H   0  0  0  0  0  0
    4.3815   59.1525   15.0600 H   0  0  0  0  0  0
    4.7168   56.2855   14.3694 H   0  0  0  0  0  0
    3.8665   57.5136   13.4556 H   0  0  0  0  0  0
    1.8483   57.1457   14.5963 H   0  0  0  0  0  0
    2.4477   55.5115   14.7099 H   0  0  0  0  0  0
  1  6  2  0  0  0
  1  2  1  0  0  0
  1 34  1  0  0  0
  2  3  2  0  0  0
  2 35  1  0  0  0
  3 19  1  0  0  0
  3  4  1  0  0  0
  4  5  2  0  0  0
  4 16  1  0  0  0
  5  6  1  0  0  0
  5 36  1  0  0  0
  6  7  1  0  0  0
  7  8  2  0  0  0
  7  9  1  0  0  0
  9 10  1  0  0  0
  9 37  1  0  0  0
 10 15  1  0  0  0
 10 11  1  0  0  0
 10 38  1  0  0  0
 11 12  1  0  0  0
 11 39  1  0  0  0
 11 40  1  0  0  0
 12 13  1  0  0  0
 12 41  1  0  0  0
 12 42  1  0  0  0
 13 14  1  0  0  0
 13 43  1  0  0  0
 13 44  1  0  0  0
 14 15  1  0  0  0
 14 45  1  0  0  0
 14 46  1  0  0  0
 15 47  1  0  0  0
 15 48  1  0  0  0
 16 24  1  0  0  0
 16 17  1  0  0  0
 17 18  2  0  0  0
 17 21  1  0  0  0
 18 19  1  0  0  0
 19 20  2  0  0  0
 21 22  1  0  0  0
 21 23  1  0  0  0
 21 26  1  0  0  0
 23 24  1  0  0  0
 24 25  2  0  0  0
 26 27  2  0  0  0
 26 28  1  0  0  0
 28 29  1  0  0  0
 28 49  1  0  0  0
 29 33  1  0  0  0
 29 30  1  0  0  0
 29 50  1  0  0  0
 30 31  1  0  0  0
 30 51  1  0  0  0
 30 52  1  0  0  0
 31 32  1  0  0  0
 31 53  1  0  0  0
 31 54  1  0  0  0
 32 33  1  0  0  0
 32 55  1  0  0  0
 32 56  1  0  0  0
 33 57  1  0  0  0
 33 58  1  0  0  0
M  END
> <i_i_glide_confnum>
227

> <i_i_glide_lignum>
2436

> <i_i_glide_posenum>
346

> <i_i_glide_rotatable_bonds>
6

> <i_m_Source_File_Index>
1782

> <b_m_subgroup_collapsed>
0

> <r_i_docking_score>
-4.79589

> <r_i_glide_ecoul>
-1.88729

> <r_i_glide_eff_state_penalty>
0

> <r_i_glide_einternal>
11.638

> <r_i_glide_emodel>
-55.507

> <r_i_glide_energy>
-49.0753

> <r_i_glide_erotb>
0.547416

> <r_i_glide_esite>
-0.0386128

> <r_i_glide_evdw>
-47.188

> <r_i_glide_gscore>
-4.79589

> <r_i_glide_hbond>
0

> <r_i_glide_ligand_efficiency>
-0.149871

> <r_i_glide_ligand_efficiency_ln>
-1.07393

> <r_i_glide_ligand_efficiency_sa>
-0.475812

> <r_i_glide_lipo>
-2.17344

> <r_i_glide_metal>
0

> <r_i_glide_rewards>
-0.488763

> <s_i_glide_gridfile>
wee1_glide-grid

> <s_m_Source_File>
wee1_decoys_glide_SP.sdf

> <s_m_Source_Path>
/Users/zhangxujun/Desktop

> <s_m_entry_id>
2057

> <s_m_entry_name>
wee1_decoys_glide_SP.1782

> <s_m_subgroup_title>
wee1_decoys_glide_SP

> <s_m_subgroupid>
wee1_decoys_glide_SP


$$$$
