ZINC42027150_1844
                    3D
 Schrodinger Suite 2024-2.
 31 33  0  0  1  0            999 V2000
    2.6767   53.8027   24.8951 C   0  0  0  0  0  0
    3.8781   54.4592   24.6364 C   0  0  0  0  0  0
    4.8500   54.5521   25.6318 C   0  0  0  0  0  0
    4.6358   53.9808   26.8838 C   0  0  0  0  0  0
    3.4403   53.3161   27.1446 C   0  0  0  0  0  0
    2.4490   53.2392   26.1568 C   0  0  0  0  0  0
    1.2295   52.5711   26.4366 N   0  0  0  0  0  0
    0.4032   52.6303   27.5517 C   0  0  0  0  0  0
   -0.5971   51.7926   27.4057 N   0  0  0  0  0  0
   -0.4322   51.2128   26.1546 N   0  0  0  0  0  0
    0.7044   51.7085   25.5523 N   0  0  0  0  0  0
    0.5617   53.5363   28.7310 C   0  0  0  0  0  0
    1.1137   54.8076   28.5481 C   0  0  0  0  0  0
    1.3019   55.6667   29.6183 C   0  0  0  0  0  0
    0.8771   55.2967   30.8817 C   0  0  0  0  0  0
    0.3044   54.0455   31.0858 C   0  0  0  0  0  0
    0.1482   53.1609   30.0166 C   0  0  0  0  0  0
   -0.0956   53.6967   32.3683 N   0  0  0  0  0  0
    1.9044   56.8967   29.4133 N   0  0  0  0  0  0
    6.4838   55.4678   25.2818 Br  0  0  0  0  0  0
    1.9269   53.7414   24.1189 H   0  0  0  0  0  0
    4.0535   54.8966   23.6646 H   0  0  0  0  0  0
    5.3967   54.0461   27.6479 H   0  0  0  0  0  0
    3.2884   52.8640   28.1143 H   0  0  0  0  0  0
    1.4121   55.1364   27.5696 H   0  0  0  0  0  0
    1.0378   55.9727   31.7074 H   0  0  0  0  0  0
   -0.2924   52.1876   30.1841 H   0  0  0  0  0  0
   -0.0315   54.3768   33.1090 H   0  0  0  0  0  0
   -0.6430   52.8334   32.5279 H   0  0  0  0  0  0
    2.2473   57.1224   28.4928 H   0  0  0  0  0  0
    2.1011   57.5112   30.1931 H   0  0  0  0  0  0
  1  6  2  0  0  0
  1  2  1  0  0  0
  1 21  1  0  0  0
  2  3  2  0  0  0
  2 22  1  0  0  0
  3  4  1  0  0  0
  3 20  1  0  0  0
  4  5  2  0  0  0
  4 23  1  0  0  0
  5  6  1  0  0  0
  5 24  1  0  0  0
  6  7  1  0  0  0
  7 11  1  0  0  0
  7  8  1  0  0  0
  8  9  2  0  0  0
  8 12  1  0  0  0
  9 10  1  0  0  0
 10 11  2  0  0  0
 12 17  2  0  0  0
 12 13  1  0  0  0
 13 14  2  0  0  0
 13 25  1  0  0  0
 14 15  1  0  0  0
 14 19  1  0  0  0
 15 16  2  0  0  0
 15 26  1  0  0  0
 16 17  1  0  0  0
 16 18  1  0  0  0
 17 27  1  0  0  0
 18 28  1  0  0  0
 18 29  1  0  0  0
 19 30  1  0  0  0
 19 31  1  0  0  0
M  END
> <i_i_glide_confnum>
1

> <i_i_glide_lignum>
1845

> <i_i_glide_posenum>
225

> <i_i_glide_rotatable_bonds>
2

> <i_m_Source_File_Index>
429

> <b_m_subgroup_collapsed>
0

> <r_i_docking_score>
-6.52348

> <r_i_glide_ecoul>
-5.69673

> <r_i_glide_eff_state_penalty>
0

> <r_i_glide_einternal>
0.0895469

> <r_i_glide_emodel>
-48.1115

> <r_i_glide_energy>
-33.472

> <r_i_glide_erotb>
0.343159

> <r_i_glide_esite>
-0.172172

> <r_i_glide_evdw>
-27.7753

> <r_i_glide_gscore>
-6.52348

> <r_i_glide_hbond>
-0.285307

> <r_i_glide_ligand_efficiency>
-0.326174

> <r_i_glide_ligand_efficiency_ln>
-1.63261

> <r_i_glide_ligand_efficiency_sa>
-0.885372

> <r_i_glide_lipo>
-2.68446

> <r_i_glide_metal>
0

> <r_i_glide_rewards>
-1.48143

> <s_i_glide_gridfile>
wee1_glide-grid

> <s_m_Source_File>
wee1_decoys_glide_SP.sdf

> <s_m_Source_Path>
/Users/zhangxujun/Desktop

> <s_m_entry_id>
704

> <s_m_entry_name>
wee1_decoys_glide_SP.429

> <s_m_subgroup_title>
wee1_decoys_glide_SP

> <s_m_subgroupid>
wee1_decoys_glide_SP


$$$$
