ZINC62828704_1665
                    3D
 Schrodinger Suite 2024-2.
 40 41  0  0  1  0            999 V2000
    5.9015   54.2813   22.8711 C   0  0  0  0  0  0
    4.9015   54.2062   24.0172 C   0  0  0  0  0  0
    3.5552   53.8705   23.8213 C   0  0  0  0  0  0
    2.7319   53.6968   25.3328 S   0  0  0  0  0  0
    4.1407   54.1434   26.2487 C   0  0  0  0  0  0
    5.2253   54.3625   25.3938 C   0  0  0  0  0  0
    6.5504   54.7547   25.8805 C   0  0  0  0  0  0
    7.1044   55.6967   25.2814 O   0  0  0  0  0  0
    7.0046   54.1696   26.8886 O   0  5  0  0  0  0
    4.1931   54.2110   27.6493 N   0  0  0  0  0  0
    3.2206   54.1948   28.5856 C   0  0  0  0  0  0
    3.5040   54.0893   29.7793 O   0  0  0  0  0  0
    1.9501   54.3102   28.1681 N   0  0  0  0  0  0
    0.8288   53.5990   28.7713 C   0  0  0  0  0  0
    0.7210   52.1243   28.2958 C   0  0  2  0  0  0
    1.7322   51.7293   28.1828 H   0  0  0  0  0  0
   -0.0191   51.9072   26.9555 C   0  0  0  0  0  0
   -1.5267   52.1781   27.0765 C   0  0  0  0  0  0
   -2.1241   51.4600   28.3003 C   0  0  0  0  0  0
   -1.2516   51.5820   29.5742 C   0  0  0  0  0  0
    0.1127   51.2968   29.2811 O   0  0  0  0  0  0
    2.7925   53.6323   22.5358 C   0  0  0  0  0  0
    5.6274   53.6368   22.0362 H   0  0  0  0  0  0
    6.0104   55.2959   22.4899 H   0  0  0  0  0  0
    6.8942   53.9438   23.1710 H   0  0  0  0  0  0
    5.1373   54.2684   28.0102 H   0  0  0  0  0  0
    1.7850   54.7344   27.2682 H   0  0  0  0  0  0
    0.9224   53.6268   29.8594 H   0  0  0  0  0  0
   -0.0880   54.1444   28.5512 H   0  0  0  0  0  0
    0.3965   52.5342   26.1722 H   0  0  0  0  0  0
    0.1445   50.8793   26.6264 H   0  0  0  0  0  0
   -1.6953   53.2515   27.1376 H   0  0  0  0  0  0
   -2.0379   51.8536   26.1692 H   0  0  0  0  0  0
   -3.1416   51.7954   28.4958 H   0  0  0  0  0  0
   -2.2304   50.4126   28.0443 H   0  0  0  0  0  0
   -1.2955   52.5877   29.9868 H   0  0  0  0  0  0
   -1.6043   50.8979   30.3485 H   0  0  0  0  0  0
    3.3606   53.9102   21.6481 H   0  0  0  0  0  0
    2.5155   52.5843   22.4240 H   0  0  0  0  0  0
    1.8701   54.2134   22.5047 H   0  0  0  0  0  0
  1  2  1  0  0  0
  1 23  1  0  0  0
  1 24  1  0  0  0
  1 25  1  0  0  0
  2  6  1  0  0  0
  2  3  2  0  0  0
  3  4  1  0  0  0
  3 22  1  0  0  0
  4  5  1  0  0  0
  5  6  2  0  0  0
  5 10  1  0  0  0
  6  7  1  0  0  0
  7  8  2  0  0  0
  7  9  1  0  0  0
 10 11  1  0  0  0
 10 26  1  0  0  0
 11 12  2  0  0  0
 11 13  1  0  0  0
 13 14  1  0  0  0
 13 27  1  0  0  0
 14 15  1  0  0  0
 14 28  1  0  0  0
 14 29  1  0  0  0
 15 16  1  0  0  0
 15 21  1  0  0  0
 15 17  1  0  0  0
 17 18  1  0  0  0
 17 30  1  0  0  0
 17 31  1  0  0  0
 18 19  1  0  0  0
 18 32  1  0  0  0
 18 33  1  0  0  0
 19 20  1  0  0  0
 19 34  1  0  0  0
 19 35  1  0  0  0
 20 21  1  0  0  0
 20 36  1  0  0  0
 20 37  1  0  0  0
 22 38  1  0  0  0
 22 39  1  0  0  0
 22 40  1  0  0  0
M  CHG  1   9  -1
M  END
> <i_i_glide_confnum>
24

> <i_i_glide_lignum>
1666

> <i_i_glide_posenum>
306

> <i_i_glide_rotatable_bonds>
6

> <i_m_Source_File_Index>
788

> <b_m_subgroup_collapsed>
0

> <r_i_docking_score>
-4.86724

> <r_i_glide_ecoul>
-6.36176

> <r_i_glide_eff_state_penalty>
0

> <r_i_glide_einternal>
8.68855

> <r_i_glide_emodel>
-43.0802

> <r_i_glide_energy>
-37.506

> <r_i_glide_erotb>
0.765064

> <r_i_glide_esite>
0

> <r_i_glide_evdw>
-31.1443

> <r_i_glide_gscore>
-4.86724

> <r_i_glide_hbond>
-0.429622

> <r_i_glide_ligand_efficiency>
-0.231773

> <r_i_glide_ligand_efficiency_ln>
-1.20342

> <r_i_glide_ligand_efficiency_sa>
-0.639445

> <r_i_glide_lipo>
-1.85279

> <r_i_glide_metal>
0

> <r_i_glide_rewards>
-0.838419

> <s_i_glide_gridfile>
wee1_glide-grid

> <s_m_Source_File>
wee1_decoys_glide_SP.sdf

> <s_m_Source_Path>
/Users/zhangxujun/Desktop

> <s_m_entry_id>
1063

> <s_m_entry_name>
wee1_decoys_glide_SP.788

> <s_m_subgroup_title>
wee1_decoys_glide_SP

> <s_m_subgroupid>
wee1_decoys_glide_SP


$$$$
