ZINC59293552_6128
                    3D
 Schrodinger Suite 2024-2.
 63 66  0  0  1  0            999 V2000
    2.5825   52.4042   29.7102 C   0  0  0  0  0  0
    2.1633   52.7407   28.2744 C   0  0  0  0  0  0
    3.3202   52.6671   27.2414 C   0  0  0  0  0  0
    3.8576   53.9250   26.7010 N   0  0  0  0  0  0
    4.3250   54.7656   27.7884 C   0  0  0  0  0  0
    5.4869   54.2227   28.6104 C   0  0  0  0  0  0
    5.5042   55.0488   29.8733 C   0  0  0  0  0  0
    4.1114   54.2982   25.3974 C   0  0  0  0  0  0
    4.8009   55.2959   25.1826 O   0  0  0  0  0  0
    3.6155   53.5378   24.2372 C   0  0  0  0  0  0
    2.3516   53.0200   24.1447 C   0  0  0  0  0  0
    1.8432   52.2229   23.1369 N   0  0  0  0  0  0
    0.5223   51.8425   23.2071 C   0  0  0  0  0  0
   -0.0895   51.2015   22.3472 O   0  0  0  0  0  0
   -0.0660   52.3064   24.4379 C   0  0  0  0  0  0
   -1.3214   52.0489   24.8806 C   0  0  0  0  0  0
   -2.3805   51.1838   24.3270 C   0  0  0  0  0  0
   -3.6666   51.7052   24.1669 C   0  0  0  0  0  0
   -4.6918   50.8980   23.6800 C   0  0  0  0  0  0
   -4.4312   49.5676   23.3591 C   0  0  0  0  0  0
   -3.1552   49.0368   23.5271 C   0  0  0  0  0  0
   -2.1317   49.8425   24.0182 C   0  0  0  0  0  0
    1.0837   53.2967   25.2800 S   0  0  0  0  0  0
    2.7257   51.8681   22.1217 C   0  0  0  0  0  0
    3.9969   52.3146   22.0816 C   0  0  0  0  0  0
    4.6217   53.2966   23.0824 C   0  0  1  0  0  0
    5.4713   52.7679   23.5145 H   0  0  0  0  0  0
    5.3632   54.4498   22.3705 C   0  0  0  0  0  0
    6.6014   54.8848   22.8497 C   0  0  0  0  0  0
    7.3912   55.7124   22.0657 C   0  0  0  0  0  0
    6.9854   56.0929   20.7934 C   0  0  0  0  0  0
    5.7530   55.6871   20.3113 C   0  0  0  0  0  0
    4.9329   54.8966   21.1113 C   0  0  0  0  0  0
    4.8032   52.0476   20.9718 C   0  0  0  0  0  0
    5.5044   52.0966   20.0816 N   0  0  0  0  0  0
    2.2745   51.0341   21.1112 N   0  0  0  0  0  0
    1.7137   52.3813   30.3714 H   0  0  0  0  0  0
    3.2816   53.1313   30.1121 H   0  0  0  0  0  0
    3.0584   51.4235   29.7541 H   0  0  0  0  0  0
    1.3995   52.0164   27.9843 H   0  0  0  0  0  0
    1.6682   53.7115   28.2439 H   0  0  0  0  0  0
    4.1446   52.0967   27.6513 H   0  0  0  0  0  0
    2.9522   52.0969   26.4094 H   0  0  0  0  0  0
    4.6843   55.6966   27.4044 H   0  0  0  0  0  0
    3.4740   55.0137   28.4242 H   0  0  0  0  0  0
    5.3938   53.1730   28.8825 H   0  0  0  0  0  0
    6.4241   54.3334   28.0625 H   0  0  0  0  0  0
    6.3998   54.8967   30.4505 H   0  0  0  0  0  0
    5.5043   56.0965   29.6822 H   0  0  0  0  0  0
    4.6248   54.8739   30.4816 H   0  0  0  0  0  0
   -1.6014   52.5207   25.8125 H   0  0  0  0  0  0
   -3.8776   52.7346   24.4197 H   0  0  0  0  0  0
   -5.6864   51.3001   23.5521 H   0  0  0  0  0  0
   -5.2266   48.9409   22.9835 H   0  0  0  0  0  0
   -2.9605   48.0022   23.2853 H   0  0  0  0  0  0
   -1.1466   49.4222   24.1626 H   0  0  0  0  0  0
    6.9697   54.5609   23.8119 H   0  0  0  0  0  0
    8.3120   56.0969   22.4572 H   0  0  0  0  0  0
    7.6238   56.7086   20.1770 H   0  0  0  0  0  0
    5.4271   55.9850   19.3250 H   0  0  0  0  0  0
    3.9839   54.5737   20.7060 H   0  0  0  0  0  0
    2.8557   50.7914   20.3185 H   0  0  0  0  0  0
    1.3097   50.7248   21.1043 H   0  0  0  0  0  0
  1  2  1  0  0  0
  1 37  1  0  0  0
  1 38  1  0  0  0
  1 39  1  0  0  0
  2  3  1  0  0  0
  2 40  1  0  0  0
  2 41  1  0  0  0
  3  4  1  0  0  0
  3 42  1  0  0  0
  3 43  1  0  0  0
  4  5  1  0  0  0
  4  8  1  0  0  0
  5  6  1  0  0  0
  5 44  1  0  0  0
  5 45  1  0  0  0
  6  7  1  0  0  0
  6 46  1  0  0  0
  6 47  1  0  0  0
  7 48  1  0  0  0
  7 49  1  0  0  0
  7 50  1  0  0  0
  8  9  2  0  0  0
  8 10  1  0  0  0
 10 26  1  0  0  0
 10 11  2  0  0  0
 11 23  1  0  0  0
 11 12  1  0  0  0
 12 13  1  0  0  0
 12 24  1  0  0  0
 13 14  2  0  0  0
 13 15  1  0  0  0
 15 16  2  0  0  0
 15 23  1  0  0  0
 16 17  1  0  0  0
 16 51  1  0  0  0
 17 22  2  0  0  0
 17 18  1  0  0  0
 18 19  2  0  0  0
 18 52  1  0  0  0
 19 20  1  0  0  0
 19 53  1  0  0  0
 20 21  2  0  0  0
 20 54  1  0  0  0
 21 22  1  0  0  0
 21 55  1  0  0  0
 22 56  1  0  0  0
 24 25  2  0  0  0
 24 36  1  0  0  0
 25 26  1  0  0  0
 25 34  1  0  0  0
 26 27  1  0  0  0
 26 28  1  0  0  0
 28 33  2  0  0  0
 28 29  1  0  0  0
 29 30  2  0  0  0
 29 57  1  0  0  0
 30 31  1  0  0  0
 30 58  1  0  0  0
 31 32  2  0  0  0
 31 59  1  0  0  0
 32 33  1  0  0  0
 32 60  1  0  0  0
 33 61  1  0  0  0
 34 35  3  0  0  0
 36 62  1  0  0  0
 36 63  1  0  0  0
M  END
> <i_i_glide_confnum>
176

> <i_i_glide_lignum>
6129

> <i_i_glide_posenum>
197

> <i_i_glide_rotatable_bonds>
9

> <i_m_Source_File_Index>
3244

> <b_m_subgroup_collapsed>
0

> <r_i_docking_score>
-3.34772

> <r_i_glide_ecoul>
-1.79797

> <r_i_glide_eff_state_penalty>
0

> <r_i_glide_einternal>
10.4923

> <r_i_glide_emodel>
-22.8195

> <r_i_glide_energy>
-10.0634

> <r_i_glide_erotb>
0.432386

> <r_i_glide_esite>
0

> <r_i_glide_evdw>
-8.2654

> <r_i_glide_gscore>
-3.34772

> <r_i_glide_hbond>
-0.0605135

> <r_i_glide_ligand_efficiency>
-0.0956491

> <r_i_glide_ligand_efficiency_ln>
-0.734898

> <r_i_glide_ligand_efficiency_sa>
-0.312874

> <r_i_glide_lipo>
-2.44557

> <r_i_glide_metal>
0

> <r_i_glide_rewards>
-0.591051

> <s_i_glide_gridfile>
wee1_glide-grid

> <s_m_Source_File>
wee1_decoys_glide_SP.sdf

> <s_m_Source_Path>
/Users/zhangxujun/Desktop

> <s_m_entry_id>
3519

> <s_m_entry_name>
wee1_decoys_glide_SP.3244

> <s_m_subgroup_title>
wee1_decoys_glide_SP

> <s_m_subgroupid>
wee1_decoys_glide_SP


$$$$
