ZINC04428097_3957
                    3D
 Schrodinger Suite 2024-2.
 57 59  0  0  1  0            999 V2000
   -0.3762   52.1984   30.0986 C   0  0  0  0  0  0
   -0.4059   51.8832   28.6145 C   0  0  0  0  0  0
   -1.5397   51.2970   28.0498 C   0  0  0  0  0  0
   -1.5501   50.9639   26.6990 C   0  0  0  0  0  0
   -0.4166   51.1919   25.9120 C   0  0  0  0  0  0
    0.7035   51.8115   26.4737 C   0  0  0  0  0  0
    0.7122   52.1504   27.8237 C   0  0  0  0  0  0
   -0.3932   50.8160   24.5513 N   0  0  0  0  0  0
   -0.3768   49.4440   24.1258 C   0  0  0  0  0  0
   -0.1353   49.1421   22.9549 O   0  0  0  0  0  0
   -0.6879   48.5298   25.0786 N   0  0  0  0  0  0
   -1.4672   47.4430   24.8903 C   0  0  0  0  0  0
   -1.7052   46.8981   23.8104 O   0  0  0  0  0  0
   -2.0862   47.0120   26.0807 N   0  0  0  0  0  0
   -3.7840   46.5972   26.1707 S   0  0  0  0  0  0
   -4.0925   45.6581   25.0848 O   0  0  0  0  0  0
   -4.0946   46.2626   27.5642 O   0  0  0  0  0  0
   -4.5850   48.1555   25.8028 C   0  0  0  0  0  0
   -4.8918   48.4881   24.4817 C   0  0  0  0  0  0
   -5.4263   49.7409   24.1916 C   0  0  0  0  0  0
   -5.6502   50.6583   25.2203 C   0  0  0  0  0  0
   -5.3546   50.3177   26.5421 C   0  0  0  0  0  0
   -4.8186   49.0662   26.8348 C   0  0  0  0  0  0
   -6.2178   52.0311   24.9071 C   0  0  0  0  0  0
   -0.5737   52.1512   23.3632 S   0  0  0  0  0  0
   -1.1505   53.2964   24.0784 O   0  0  0  0  0  0
   -1.2244   51.6281   22.1555 O   0  0  0  0  0  0
    1.0979   52.6074   22.9069 C   0  0  0  0  0  0
    1.7227   53.6909   23.5290 C   0  0  0  0  0  0
    3.0221   54.0383   23.1702 C   0  0  0  0  0  0
    3.6995   53.2968   22.2005 C   0  0  0  0  0  0
    3.0783   52.2053   21.5896 C   0  0  0  0  0  0
    1.7793   51.8547   21.9487 C   0  0  0  0  0  0
    5.1084   53.6916   21.7982 C   0  0  0  0  0  0
   -0.9995   51.5015   30.6618 H   0  0  0  0  0  0
    0.6322   52.0979   30.5005 H   0  0  0  0  0  0
   -0.7233   53.2135   30.2851 H   0  0  0  0  0  0
   -2.4026   51.0714   28.6599 H   0  0  0  0  0  0
   -2.4275   50.5008   26.2727 H   0  0  0  0  0  0
    1.5727   52.0224   25.8692 H   0  0  0  0  0  0
    1.5903   52.6098   28.2533 H   0  0  0  0  0  0
   -0.6256   48.8547   26.0321 H   0  0  0  0  0  0
   -1.7470   47.4068   26.9788 H   0  0  0  0  0  0
   -4.6927   47.7908   23.6802 H   0  0  0  0  0  0
   -5.6517   49.9995   23.1670 H   0  0  0  0  0  0
   -5.5245   51.0246   27.3411 H   0  0  0  0  0  0
   -4.5604   48.8168   27.8549 H   0  0  0  0  0  0
   -6.6196   52.0897   23.8944 H   0  0  0  0  0  0
   -7.0327   52.2662   25.5926 H   0  0  0  0  0  0
   -5.4499   52.7960   25.0280 H   0  0  0  0  0  0
    1.2034   54.2709   24.2784 H   0  0  0  0  0  0
    3.4975   54.8863   23.6411 H   0  0  0  0  0  0
    3.5961   51.6299   20.8347 H   0  0  0  0  0  0
    1.3017   51.0077   21.4753 H   0  0  0  0  0  0
    5.3358   53.3683   20.7810 H   0  0  0  0  0  0
    5.8372   53.2582   22.4832 H   0  0  0  0  0  0
    5.2222   54.7765   21.8126 H   0  0  0  0  0  0
  1  2  1  0  0  0
  1 35  1  0  0  0
  1 36  1  0  0  0
  1 37  1  0  0  0
  2  7  2  0  0  0
  2  3  1  0  0  0
  3  4  2  0  0  0
  3 38  1  0  0  0
  4  5  1  0  0  0
  4 39  1  0  0  0
  5  6  2  0  0  0
  5  8  1  0  0  0
  6  7  1  0  0  0
  6 40  1  0  0  0
  7 41  1  0  0  0
  8  9  1  0  0  0
  8 25  1  0  0  0
  9 10  2  0  0  0
  9 11  1  0  0  0
 11 12  1  0  0  0
 11 42  1  0  0  0
 12 13  2  0  0  0
 12 14  1  0  0  0
 14 15  1  0  0  0
 14 43  1  0  0  0
 15 16  2  0  0  0
 15 17  2  0  0  0
 15 18  1  0  0  0
 18 23  2  0  0  0
 18 19  1  0  0  0
 19 20  2  0  0  0
 19 44  1  0  0  0
 20 21  1  0  0  0
 20 45  1  0  0  0
 21 22  2  0  0  0
 21 24  1  0  0  0
 22 23  1  0  0  0
 22 46  1  0  0  0
 23 47  1  0  0  0
 24 48  1  0  0  0
 24 49  1  0  0  0
 24 50  1  0  0  0
 25 26  2  0  0  0
 25 27  2  0  0  0
 25 28  1  0  0  0
 28 33  2  0  0  0
 28 29  1  0  0  0
 29 30  2  0  0  0
 29 51  1  0  0  0
 30 31  1  0  0  0
 30 52  1  0  0  0
 31 32  2  0  0  0
 31 34  1  0  0  0
 32 33  1  0  0  0
 32 53  1  0  0  0
 33 54  1  0  0  0
 34 55  1  0  0  0
 34 56  1  0  0  0
 34 57  1  0  0  0
M  END
> <i_i_glide_confnum>
158

> <i_i_glide_lignum>
3958

> <i_i_glide_posenum>
78

> <i_i_glide_rotatable_bonds>
9

> <i_m_Source_File_Index>
2183

> <b_m_subgroup_collapsed>
0

> <r_i_docking_score>
-2.5451

> <r_i_glide_ecoul>
-11.1022

> <r_i_glide_eff_state_penalty>
0

> <r_i_glide_einternal>
8.91484

> <r_i_glide_emodel>
-48.6155

> <r_i_glide_energy>
-49.4544

> <r_i_glide_erotb>
0.730768

> <r_i_glide_esite>
-0.482069

> <r_i_glide_evdw>
-38.3521

> <r_i_glide_gscore>
-2.5451

> <r_i_glide_hbond>
-0.16

> <r_i_glide_ligand_efficiency>
-0.0748559

> <r_i_glide_ligand_efficiency_ln>
-0.562284

> <r_i_glide_ligand_efficiency_sa>
-0.242504

> <r_i_glide_lipo>
-1.12537

> <r_i_glide_metal>
0

> <r_i_glide_rewards>
2.07451

> <s_i_glide_gridfile>
wee1_glide-grid

> <s_m_Source_File>
wee1_decoys_glide_SP.sdf

> <s_m_Source_Path>
/Users/zhangxujun/Desktop

> <s_m_entry_id>
2458

> <s_m_entry_name>
wee1_decoys_glide_SP.2183

> <s_m_subgroup_title>
wee1_decoys_glide_SP

> <s_m_subgroupid>
wee1_decoys_glide_SP


$$$$
