ZINC05946680_5718
                    3D
 Schrodinger Suite 2024-2.
 67 71  0  0  1  0            999 V2000
    2.1863   59.1167   15.6812 C   0  0  0  0  0  0
    3.3799   58.1931   15.9607 C   0  0  0  0  0  0
    3.2642   56.8312   15.2401 C   0  0  0  0  0  0
    4.4814   55.8908   15.4167 C   0  0  0  0  0  0
    4.6854   55.4531   16.8592 C   0  0  0  0  0  0
    5.6574   55.8647   17.5536 N   0  0  0  0  0  0
    5.5605   55.3857   18.8211 N   0  0  0  0  0  0
    6.5487   55.8058   19.8460 C   0  0  0  0  0  0
    7.4985   56.5312   19.5473 O   0  0  0  0  0  0
    6.1816   55.2978   21.1440 C   0  0  0  0  0  0
    5.1115   54.5023   21.3914 C   0  0  0  0  0  0
    4.3051   54.1272   20.3300 N   0  3  0  0  0  0
    4.5074   54.5949   19.0885 C   0  0  0  0  0  0
    3.5445   54.3492   17.6818 S   0  0  0  0  0  0
    4.6822   54.0981   22.6494 N   0  0  0  0  0  0
    3.2849   53.8304   23.0221 C   0  0  0  0  0  0
    2.8470   54.6112   24.2838 C   0  0  0  0  0  0
    3.7600   54.4686   25.4353 N   0  0  0  0  0  0
    5.1417   54.7582   25.0128 C   0  0  0  0  0  0
    5.5919   53.9421   23.7878 C   0  0  0  0  0  0
    3.4104   53.9419   26.6856 C   0  0  0  0  0  0
    4.3111   53.9295   27.7561 C   0  0  0  0  0  0
    3.9625   53.3810   28.9824 C   0  0  0  0  0  0
    2.6918   52.8362   29.2102 C   0  0  0  0  0  0
    1.7621   52.8302   28.1439 C   0  0  0  0  0  0
    2.1401   53.4016   26.9229 C   0  0  0  0  0  0
    0.4930   52.2257   28.2825 N   0  0  0  0  0  0
   -0.5822   52.2572   27.2819 C   0  0  0  0  0  0
   -0.2761   51.4436   26.0228 C   0  0  0  0  0  0
   -0.0275   50.0740   26.1199 C   0  0  0  0  0  0
    0.2999   49.3342   24.9880 C   0  0  0  0  0  0
    0.3531   49.9657   23.7472 C   0  0  0  0  0  0
    0.0657   51.3252   23.6303 C   0  0  0  0  0  0
   -0.2599   52.0615   24.7659 C   0  0  0  0  0  0
    2.3895   52.3035   30.5651 N   0  3  0  0  0  0
    1.2282   52.0972   30.8937 O   0  0  0  0  0  0
    3.3299   52.0964   31.3268 O   0  5  0  0  0  0
    2.3047   60.0751   16.1909 H   0  0  0  0  0  0
    1.2521   58.6758   16.0301 H   0  0  0  0  0  0
    2.0841   59.3249   14.6163 H   0  0  0  0  0  0
    4.2973   58.7001   15.6540 H   0  0  0  0  0  0
    3.4615   58.0454   17.0392 H   0  0  0  0  0  0
    2.3539   56.3238   15.5678 H   0  0  0  0  0  0
    3.1249   57.0098   14.1727 H   0  0  0  0  0  0
    4.3463   55.0043   14.7951 H   0  0  0  0  0  0
    5.3791   56.3786   15.0328 H   0  0  0  0  0  0
    6.8047   55.6371   21.9579 H   0  0  0  0  0  0
    2.6227   54.1604   22.2210 H   0  0  0  0  0  0
    3.0961   52.7601   23.1139 H   0  0  0  0  0  0
    2.7936   55.6802   24.0807 H   0  0  0  0  0  0
    1.8128   54.3571   24.4885 H   0  0  0  0  0  0
    5.8748   54.5757   25.7923 H   0  0  0  0  0  0
    5.2048   55.8272   24.8156 H   0  0  0  0  0  0
    5.7198   52.8967   24.0367 H   0  0  0  0  0  0
    6.5996   54.2619   23.5291 H   0  0  0  0  0  0
    5.2990   54.3497   27.6819 H   0  0  0  0  0  0
    4.7043   53.4047   29.7664 H   0  0  0  0  0  0
    1.4208   53.3966   26.1362 H   0  0  0  0  0  0
    0.2491   51.8909   29.2085 H   0  0  0  0  0  0
   -1.4830   51.8464   27.7422 H   0  0  0  0  0  0
   -0.8184   53.2915   27.0331 H   0  0  0  0  0  0
   -0.0943   49.5844   27.0794 H   0  0  0  0  0  0
    0.5124   48.2781   25.0787 H   0  0  0  0  0  0
    0.6144   49.3927   22.8700 H   0  0  0  0  0  0
    0.0993   51.8043   22.6625 H   0  0  0  0  0  0
   -0.4760   53.1144   24.6709 H   0  0  0  0  0  0
    3.5049   53.5360   20.5078 H   0  0  0  0  0  0
  1  2  1  0  0  0
  1 38  1  0  0  0
  1 39  1  0  0  0
  1 40  1  0  0  0
  2  3  1  0  0  0
  2 41  1  0  0  0
  2 42  1  0  0  0
  3  4  1  0  0  0
  3 43  1  0  0  0
  3 44  1  0  0  0
  4  5  1  0  0  0
  4 45  1  0  0  0
  4 46  1  0  0  0
  5 14  1  0  0  0
  5  6  2  0  0  0
  6  7  1  0  0  0
  7 13  1  0  0  0
  7  8  1  0  0  0
  8  9  2  0  0  0
  8 10  1  0  0  0
 10 11  2  0  0  0
 10 47  1  0  0  0
 11 12  1  0  0  0
 11 15  1  0  0  0
 12 13  2  0  0  0
 12 67  1  0  0  0
 13 14  1  0  0  0
 15 20  1  0  0  0
 15 16  1  0  0  0
 16 17  1  0  0  0
 16 48  1  0  0  0
 16 49  1  0  0  0
 17 18  1  0  0  0
 17 50  1  0  0  0
 17 51  1  0  0  0
 18 19  1  0  0  0
 18 21  1  0  0  0
 19 20  1  0  0  0
 19 52  1  0  0  0
 19 53  1  0  0  0
 20 54  1  0  0  0
 20 55  1  0  0  0
 21 26  2  0  0  0
 21 22  1  0  0  0
 22 23  2  0  0  0
 22 56  1  0  0  0
 23 24  1  0  0  0
 23 57  1  0  0  0
 24 25  2  0  0  0
 24 35  1  0  0  0
 25 26  1  0  0  0
 25 27  1  0  0  0
 26 58  1  0  0  0
 27 28  1  0  0  0
 27 59  1  0  0  0
 28 29  1  0  0  0
 28 60  1  0  0  0
 28 61  1  0  0  0
 29 34  2  0  0  0
 29 30  1  0  0  0
 30 31  2  0  0  0
 30 62  1  0  0  0
 31 32  1  0  0  0
 31 63  1  0  0  0
 32 33  2  0  0  0
 32 64  1  0  0  0
 33 34  1  0  0  0
 33 65  1  0  0  0
 34 66  1  0  0  0
 35 36  2  0  0  0
 35 37  1  0  0  0
M  CHG  3  12   1  35   1  37  -1
M  END
> <i_i_glide_confnum>
105

> <i_i_glide_lignum>
5719

> <i_i_glide_posenum>
281

> <i_i_glide_rotatable_bonds>
9

> <i_m_Source_File_Index>
5779

> <b_m_subgroup_collapsed>
0

> <r_i_docking_score>
-5.85889

> <r_i_glide_ecoul>
-2.27347

> <r_i_glide_eff_state_penalty>
0

> <r_i_glide_einternal>
3.06363

> <r_i_glide_emodel>
-68.4827

> <r_i_glide_energy>
-49.6221

> <r_i_glide_erotb>
0.53077

> <r_i_glide_esite>
-0.0971335

> <r_i_glide_evdw>
-47.3487

> <r_i_glide_gscore>
-5.85889

> <r_i_glide_hbond>
-0.0548893

> <r_i_glide_ligand_efficiency>
-0.158348

> <r_i_glide_ligand_efficiency_ln>
-1.27066

> <r_i_glide_ligand_efficiency_sa>
-0.527652

> <r_i_glide_lipo>
-2.81348

> <r_i_glide_metal>
0

> <r_i_glide_rewards>
-0.715708

> <s_i_glide_gridfile>
wee1_glide-grid

> <s_m_Source_File>
wee1_decoys_glide_SP.sdf

> <s_m_Source_Path>
/Users/zhangxujun/Desktop

> <s_m_entry_id>
6054

> <s_m_entry_name>
wee1_decoys_glide_SP.5779

> <s_m_subgroup_title>
wee1_decoys_glide_SP

> <s_m_subgroupid>
wee1_decoys_glide_SP


$$$$
