ZINC12274462_3964
                    3D
 Schrodinger Suite 2024-2.
 58 63  0  0  1  0            999 V2000
    3.4303   54.3758   23.9356 C   0  0  0  0  0  0
    4.8406   54.3744   24.5132 C   0  0  0  0  0  0
    6.0868   54.5211   23.8879 C   0  0  0  0  0  0
    7.0406   54.5003   24.8048 N   0  0  0  0  0  0
    6.4709   54.3106   26.0407 N   0  0  0  0  0  0
    5.1472   54.2209   25.8598 N   0  0  0  0  0  0
    4.2921   54.0117   26.9758 C   0  0  0  0  0  0
    4.6415   54.4963   28.2425 C   0  0  0  0  0  0
    3.8155   54.3022   29.3474 C   0  0  0  0  0  0
    2.5906   53.6449   29.1693 C   0  0  0  0  0  0
    2.2182   53.1584   27.8891 C   0  0  0  0  0  0
    3.0965   53.3021   26.8089 C   0  0  0  0  0  0
    0.9196   52.6191   28.0911 C   0  0  0  0  0  0
    0.6056   52.7569   29.4103 O   0  0  0  0  0  0
    1.6378   53.3882   30.1103 N   0  0  0  0  0  0
   -0.1179   52.0531   27.1777 C   0  0  0  0  0  0
   -0.0406   52.2781   25.7976 C   0  0  0  0  0  0
   -1.0257   51.7860   24.9461 C   0  0  0  0  0  0
   -2.0883   51.0581   25.4739 C   0  0  0  0  0  0
   -2.1666   50.8141   26.8408 C   0  0  0  0  0  0
   -1.1767   51.2974   27.6903 C   0  0  0  0  0  0
    6.3035   54.6051   22.4590 C   0  0  0  0  0  0
    5.4576   54.1790   21.6679 O   0  0  0  0  0  0
    7.4493   55.2155   22.0814 N   0  0  0  0  0  0
    7.7680   55.2973   20.7218 N   0  0  0  0  0  0
    7.3768   56.3722   20.0067 C   0  0  0  0  0  0
    6.7043   57.2965   20.4705 O   0  0  0  0  0  0
    7.8420   56.3947   18.6333 C   0  0  0  0  0  0
    9.0406   55.8086   18.2086 C   0  0  0  0  0  0
    9.3708   56.0579   16.5326 S   0  0  0  0  0  0
    7.9466   57.0299   16.3767 C   0  0  0  0  0  0
    7.2409   57.1460   17.5870 C   0  0  0  0  0  0
    5.9405   57.9522   17.6774 C   0  0  0  0  0  0
    5.3673   58.2450   16.2750 C   0  0  0  0  0  0
    6.4539   58.7226   15.2956 C   0  0  0  0  0  0
    7.5142   57.6282   15.0457 C   0  0  0  0  0  0
    3.3812   54.8970   22.9786 H   0  0  0  0  0  0
    3.0696   53.3657   23.7377 H   0  0  0  0  0  0
    2.7084   54.8811   24.5766 H   0  0  0  0  0  0
    5.5697   55.0310   28.3877 H   0  0  0  0  0  0
    4.1167   54.6708   30.3117 H   0  0  0  0  0  0
    2.8421   52.8686   25.8608 H   0  0  0  0  0  0
    0.7551   52.8665   25.3725 H   0  0  0  0  0  0
   -0.9659   51.9717   23.8828 H   0  0  0  0  0  0
   -2.8499   50.6659   24.8175 H   0  0  0  0  0  0
   -2.9727   50.2239   27.2499 H   0  0  0  0  0  0
   -1.2425   51.0819   28.7500 H   0  0  0  0  0  0
    8.2084   55.4579   22.7058 H   0  0  0  0  0  0
    8.3597   54.5502   20.3876 H   0  0  0  0  0  0
    9.7503   55.2398   18.7944 H   0  0  0  0  0  0
    6.1369   58.8964   18.1873 H   0  0  0  0  0  0
    5.1887   57.4345   18.2765 H   0  0  0  0  0  0
    4.8836   57.3505   15.8753 H   0  0  0  0  0  0
    4.5840   59.0013   16.3527 H   0  0  0  0  0  0
    6.0023   59.0218   14.3511 H   0  0  0  0  0  0
    6.9297   59.6183   15.6979 H   0  0  0  0  0  0
    7.0825   56.8478   14.4143 H   0  0  0  0  0  0
    8.3619   58.0438   14.4979 H   0  0  0  0  0  0
  1  2  1  0  0  0
  1 37  1  0  0  0
  1 38  1  0  0  0
  1 39  1  0  0  0
  2  6  1  0  0  0
  2  3  2  0  0  0
  3  4  1  0  0  0
  3 22  1  0  0  0
  4  5  2  0  0  0
  5  6  1  0  0  0
  6  7  1  0  0  0
  7 12  2  0  0  0
  7  8  1  0  0  0
  8  9  2  0  0  0
  8 40  1  0  0  0
  9 10  1  0  0  0
  9 41  1  0  0  0
 10 15  2  0  0  0
 10 11  1  0  0  0
 11 12  1  0  0  0
 11 13  2  0  0  0
 12 42  1  0  0  0
 13 14  1  0  0  0
 13 16  1  0  0  0
 14 15  1  0  0  0
 16 21  2  0  0  0
 16 17  1  0  0  0
 17 18  2  0  0  0
 17 43  1  0  0  0
 18 19  1  0  0  0
 18 44  1  0  0  0
 19 20  2  0  0  0
 19 45  1  0  0  0
 20 21  1  0  0  0
 20 46  1  0  0  0
 21 47  1  0  0  0
 22 23  2  0  0  0
 22 24  1  0  0  0
 24 25  1  0  0  0
 24 48  1  0  0  0
 25 26  1  0  0  0
 25 49  1  0  0  0
 26 27  2  0  0  0
 26 28  1  0  0  0
 28 32  1  0  0  0
 28 29  2  0  0  0
 29 30  1  0  0  0
 29 50  1  0  0  0
 30 31  1  0  0  0
 31 36  1  0  0  0
 31 32  2  0  0  0
 32 33  1  0  0  0
 33 34  1  0  0  0
 33 51  1  0  0  0
 33 52  1  0  0  0
 34 35  1  0  0  0
 34 53  1  0  0  0
 34 54  1  0  0  0
 35 36  1  0  0  0
 35 55  1  0  0  0
 35 56  1  0  0  0
 36 57  1  0  0  0
 36 58  1  0  0  0
M  END
> <i_i_glide_confnum>
49

> <i_i_glide_lignum>
3965

> <i_i_glide_posenum>
257

> <i_i_glide_rotatable_bonds>
7

> <i_m_Source_File_Index>
1786

> <b_m_subgroup_collapsed>
0

> <r_i_docking_score>
-6.49699

> <r_i_glide_ecoul>
-8.75986

> <r_i_glide_eff_state_penalty>
0

> <r_i_glide_einternal>
1.89494

> <r_i_glide_emodel>
-78.8805

> <r_i_glide_energy>
-55.4206

> <r_i_glide_erotb>
0.492602

> <r_i_glide_esite>
-0.020542

> <r_i_glide_evdw>
-46.6607

> <r_i_glide_gscore>
-6.49699

> <r_i_glide_hbond>
-0.608

> <r_i_glide_ligand_efficiency>
-0.180472

> <r_i_glide_ligand_efficiency_ln>
-1.41747

> <r_i_glide_ligand_efficiency_sa>
-0.595905

> <r_i_glide_lipo>
-1.99859

> <r_i_glide_metal>
0

> <r_i_glide_rewards>
-0.715442

> <s_i_glide_gridfile>
wee1_glide-grid

> <s_m_Source_File>
wee1_decoys_glide_SP.sdf

> <s_m_Source_Path>
/Users/zhangxujun/Desktop

> <s_m_entry_id>
2061

> <s_m_entry_name>
wee1_decoys_glide_SP.1786

> <s_m_subgroup_title>
wee1_decoys_glide_SP

> <s_m_subgroupid>
wee1_decoys_glide_SP


$$$$
