ZINC12487491_2383
                    3D
 Schrodinger Suite 2024-2.
 50 52  0  0  1  0            999 V2000
    6.4717   54.8341   23.3218 C   0  0  0  0  0  0
    5.8232   54.4967   24.5062 C   0  0  0  0  0  0
    4.4785   54.0967   24.4859 C   0  0  0  0  0  0
    3.7993   54.0475   23.2675 C   0  0  0  0  0  0
    4.4488   54.3827   22.0819 C   0  0  0  0  0  0
    5.7918   54.7960   22.0967 C   0  0  0  0  0  0
    6.4795   55.2975   20.8462 C   0  0  0  0  0  0
    7.4857   56.0061   20.9455 O   0  0  0  0  0  0
    5.9074   54.9357   19.6632 N   0  0  0  0  0  0
    6.1040   55.4121   18.3804 N   0  0  0  0  0  0
    6.5633   56.5901   18.1677 C   0  0  0  0  0  0
    6.8023   57.1659   16.8315 C   0  0  0  0  0  0
    6.5739   56.4020   15.6748 C   0  0  0  0  0  0
    6.7755   56.9384   14.4049 C   0  0  0  0  0  0
    7.2117   58.2522   14.2666 C   0  0  0  0  0  0
    7.4502   59.0321   15.3959 C   0  0  0  0  0  0
    7.2466   58.4980   16.6767 C   0  0  0  0  0  0
    7.4996   59.2967   17.7689 O   0  0  0  0  0  0
    8.0010   60.6589   15.1775 Cl  0  0  0  0  0  0
    6.4832   55.9749   13.0042 Cl  0  0  0  0  0  0
    3.7377   53.7238   25.6278 N   0  0  0  0  0  0
    4.1854   53.3686   26.8542 C   0  0  0  0  0  0
    5.3814   53.3060   27.1463 O   0  0  0  0  0  0
    3.1235   52.8966   27.8961 C   0  0  0  0  0  0
    3.6881   53.0151   29.3343 C   0  0  0  0  0  0
    3.8880   54.4794   29.7614 C   0  0  0  0  0  0
    2.5548   55.2589   29.6816 C   0  0  0  0  0  0
    1.9269   55.1587   28.2858 C   0  0  0  0  0  0
    1.7922   53.6964   27.8181 C   0  0  0  0  0  0
    7.5040   55.1566   23.3702 H   0  0  0  0  0  0
    6.3835   54.5682   25.4242 H   0  0  0  0  0  0
    2.7616   53.7486   23.2266 H   0  0  0  0  0  0
    3.8710   54.3588   21.1680 H   0  0  0  0  0  0
    5.3409   54.1004   19.6788 H   0  0  0  0  0  0
    6.7884   57.2700   18.9837 H   0  0  0  0  0  0
    6.2318   55.3792   15.7529 H   0  0  0  0  0  0
    7.3667   58.6683   13.2819 H   0  0  0  0  0  0
    7.0517   60.1651   17.6819 H   0  0  0  0  0  0
    2.7473   53.6219   25.4754 H   0  0  0  0  0  0
    2.9355   51.8514   27.6605 H   0  0  0  0  0  0
    2.9948   52.5187   30.0154 H   0  0  0  0  0  0
    4.5824   52.4011   29.4598 H   0  0  0  0  0  0
    4.3023   54.4967   30.7678 H   0  0  0  0  0  0
    4.6397   54.9651   29.1377 H   0  0  0  0  0  0
    1.8540   54.8688   30.4213 H   0  0  0  0  0  0
    2.7045   56.3091   29.9325 H   0  0  0  0  0  0
    0.9580   55.6584   28.2647 H   0  0  0  0  0  0
    2.5718   55.6966   27.5950 H   0  0  0  0  0  0
    1.3176   53.5943   26.8415 H   0  0  0  0  0  0
    1.0628   53.1837   28.4479 H   0  0  0  0  0  0
  1  6  2  0  0  0
  1  2  1  0  0  0
  1 30  1  0  0  0
  2  3  2  0  0  0
  2 31  1  0  0  0
  3  4  1  0  0  0
  3 21  1  0  0  0
  4  5  2  0  0  0
  4 32  1  0  0  0
  5  6  1  0  0  0
  5 33  1  0  0  0
  6  7  1  0  0  0
  7  8  2  0  0  0
  7  9  1  0  0  0
  9 10  1  0  0  0
  9 34  1  0  0  0
 10 11  2  0  0  0
 11 12  1  0  0  0
 11 35  1  0  0  0
 12 17  2  0  0  0
 12 13  1  0  0  0
 13 14  2  0  0  0
 13 36  1  0  0  0
 14 15  1  0  0  0
 14 20  1  0  0  0
 15 16  2  0  0  0
 15 37  1  0  0  0
 16 17  1  0  0  0
 16 19  1  0  0  0
 17 18  1  0  0  0
 18 38  1  0  0  0
 21 22  1  0  0  0
 21 39  1  0  0  0
 22 23  2  0  0  0
 22 24  1  0  0  0
 24 29  1  0  0  0
 24 25  1  0  0  0
 24 40  1  0  0  0
 25 26  1  0  0  0
 25 41  1  0  0  0
 25 42  1  0  0  0
 26 27  1  0  0  0
 26 43  1  0  0  0
 26 44  1  0  0  0
 27 28  1  0  0  0
 27 45  1  0  0  0
 27 46  1  0  0  0
 28 29  1  0  0  0
 28 47  1  0  0  0
 28 48  1  0  0  0
 29 49  1  0  0  0
 29 50  1  0  0  0
M  END
> <i_i_glide_confnum>
257

> <i_i_glide_lignum>
2384

> <i_i_glide_posenum>
284

> <i_i_glide_rotatable_bonds>
8

> <i_m_Source_File_Index>
590

> <b_m_subgroup_collapsed>
0

> <r_i_docking_score>
-5.15593

> <r_i_glide_ecoul>
-6.06871

> <r_i_glide_eff_state_penalty>
0

> <r_i_glide_einternal>
15.5659

> <r_i_glide_emodel>
-44.7741

> <r_i_glide_energy>
-37.6769

> <r_i_glide_erotb>
0.739029

> <r_i_glide_esite>
0

> <r_i_glide_evdw>
-31.6082

> <r_i_glide_gscore>
-5.15593

> <r_i_glide_hbond>
-0.230535

> <r_i_glide_ligand_efficiency>
-0.177791

> <r_i_glide_ligand_efficiency_ln>
-1.18058

> <r_i_glide_ligand_efficiency_sa>
-0.54623

> <r_i_glide_lipo>
-2.27388

> <r_i_glide_metal>
0

> <r_i_glide_rewards>
-0.899831

> <s_i_glide_gridfile>
wee1_glide-grid

> <s_m_Source_File>
wee1_decoys_glide_SP.sdf

> <s_m_Source_Path>
/Users/zhangxujun/Desktop

> <s_m_entry_id>
865

> <s_m_entry_name>
wee1_decoys_glide_SP.590

> <s_m_subgroup_title>
wee1_decoys_glide_SP

> <s_m_subgroupid>
wee1_decoys_glide_SP


$$$$
