ZINC18210519_1054
                    3D
 Schrodinger Suite 2024-2.
 61 64  0  0  1  0            999 V2000
    3.4698   52.1480   15.6928 C   0  0  0  0  0  0
    2.7333   53.3635   16.2723 C   0  0  0  0  0  0
    1.4989   52.9577   17.0767 C   0  0  0  0  0  0
    0.2195   52.9978   16.4994 C   0  0  0  0  0  0
   -0.9929   52.5232   17.6234 S   0  0  0  0  0  0
    0.1816   52.2416   18.8692 C   0  0  0  0  0  0
    1.5035   52.4948   18.4357 C   0  0  0  0  0  0
    2.7258   52.3505   19.2682 C   0  0  0  0  0  0
    3.8006   52.9000   19.0172 O   0  0  0  0  0  0
    2.5274   51.5598   20.3540 O   0  0  0  0  0  0
    3.5916   51.2992   21.2586 C   0  0  0  0  0  0
   -0.1953   51.8625   20.1591 N   0  0  0  0  0  0
   -1.4299   51.6963   20.6844 C   0  0  0  0  0  0
   -2.4941   51.8274   20.0752 O   0  0  0  0  0  0
   -1.4241   51.4307   22.1038 C   0  0  0  0  0  0
   -0.3779   50.8608   22.8607 C   0  0  0  0  0  0
   -0.8179   50.8553   24.1684 C   0  0  0  0  0  0
   -2.1062   51.3389   24.1305 N   0  0  0  0  0  0
   -2.4656   51.6622   22.8785 N   0  0  0  0  0  0
   -2.9907   51.4480   25.2971 C   0  0  1  0  0  0
   -3.3015   50.4359   25.5624 H   0  0  0  0  0  0
   -2.0568   51.9370   26.4266 C   0  0  0  0  0  0
   -0.8016   51.0387   26.6323 C   0  0  1  0  0  0
   -1.1151   50.1497   27.1837 H   0  0  0  0  0  0
   -0.2369   50.5144   25.3715 N   0  0  0  0  0  0
    0.2089   51.7583   27.5237 C   0  0  0  0  0  0
    0.0569   51.7061   28.9103 C   0  0  0  0  0  0
    0.9657   52.3627   29.7347 C   0  0  0  0  0  0
    2.0396   53.0645   29.1887 C   0  0  0  0  0  0
    2.1776   53.1378   27.7956 C   0  0  0  0  0  0
    1.2613   52.4962   26.9695 C   0  0  0  0  0  0
    2.9110   53.6473   30.0841 O   0  0  0  0  0  0
    4.1061   54.2455   29.6015 C   0  0  0  0  0  0
   -4.2687   52.3072   25.1115 C   0  0  0  0  0  0
   -4.9472   52.4028   26.2561 F   0  0  0  0  0  0
   -3.9861   53.5531   24.7256 F   0  0  0  0  0  0
   -5.0933   51.7760   24.2082 F   0  0  0  0  0  0
   -0.2073   53.3883   15.0993 C   0  0  0  0  0  0
    4.3852   52.4458   15.1801 H   0  0  0  0  0  0
    3.7449   51.4440   16.4761 H   0  0  0  0  0  0
    2.8461   51.6086   14.9799 H   0  0  0  0  0  0
    2.4729   54.0379   15.4574 H   0  0  0  0  0  0
    3.4175   53.9686   16.8647 H   0  0  0  0  0  0
    3.2675   50.5962   22.0279 H   0  0  0  0  0  0
    3.9164   52.2175   21.7494 H   0  0  0  0  0  0
    4.4470   50.8664   20.7392 H   0  0  0  0  0  0
    0.5846   51.7352   20.7876 H   0  0  0  0  0  0
    0.5926   50.5359   22.5150 H   0  0  0  0  0  0
   -1.7636   52.9680   26.2164 H   0  0  0  0  0  0
   -2.6109   51.9977   27.3647 H   0  0  0  0  0  0
    0.4180   49.7523   25.4783 H   0  0  0  0  0  0
   -0.7602   51.1511   29.3517 H   0  0  0  0  0  0
    0.8433   52.3117   30.8070 H   0  0  0  0  0  0
    2.9885   53.6828   27.3371 H   0  0  0  0  0  0
    1.3791   52.5664   25.8981 H   0  0  0  0  0  0
    4.7051   54.5252   30.4633 H   0  0  0  0  0  0
    4.6990   53.5523   29.0015 H   0  0  0  0  0  0
    3.9000   55.1465   29.0212 H   0  0  0  0  0  0
    0.6191   53.4237   14.3915 H   0  0  0  0  0  0
   -0.9260   52.6798   14.6877 H   0  0  0  0  0  0
   -0.6839   54.3683   15.0875 H   0  0  0  0  0  0
  1  2  1  0  0  0
  1 39  1  0  0  0
  1 40  1  0  0  0
  1 41  1  0  0  0
  2  3  1  0  0  0
  2 42  1  0  0  0
  2 43  1  0  0  0
  3  7  1  0  0  0
  3  4  2  0  0  0
  4  5  1  0  0  0
  4 38  1  0  0  0
  5  6  1  0  0  0
  6  7  2  0  0  0
  6 12  1  0  0  0
  7  8  1  0  0  0
  8  9  2  0  0  0
  8 10  1  0  0  0
 10 11  1  0  0  0
 11 44  1  0  0  0
 11 45  1  0  0  0
 11 46  1  0  0  0
 12 13  1  0  0  0
 12 47  1  0  0  0
 13 14  2  0  0  0
 13 15  1  0  0  0
 15 19  2  0  0  0
 15 16  1  0  0  0
 16 17  2  0  0  0
 16 48  1  0  0  0
 17 25  1  0  0  0
 17 18  1  0  0  0
 18 19  1  0  0  0
 18 20  1  0  0  0
 20 21  1  0  0  0
 20 22  1  0  0  0
 20 34  1  0  0  0
 22 23  1  0  0  0
 22 49  1  0  0  0
 22 50  1  0  0  0
 23 24  1  0  0  0
 23 25  1  0  0  0
 23 26  1  0  0  0
 25 51  1  0  0  0
 26 31  2  0  0  0
 26 27  1  0  0  0
 27 28  2  0  0  0
 27 52  1  0  0  0
 28 29  1  0  0  0
 28 53  1  0  0  0
 29 30  2  0  0  0
 29 32  1  0  0  0
 30 31  1  0  0  0
 30 54  1  0  0  0
 31 55  1  0  0  0
 32 33  1  0  0  0
 33 56  1  0  0  0
 33 57  1  0  0  0
 33 58  1  0  0  0
 34 35  1  0  0  0
 34 36  1  0  0  0
 34 37  1  0  0  0
 38 59  1  0  0  0
 38 60  1  0  0  0
 38 61  1  0  0  0
M  END
> <i_i_glide_confnum>
16

> <i_i_glide_lignum>
1055

> <i_i_glide_posenum>
125

> <i_i_glide_rotatable_bonds>
9

> <i_m_Source_File_Index>
1490

> <b_m_subgroup_collapsed>
0

> <r_i_docking_score>
-3.774

> <r_i_glide_ecoul>
-5.57385

> <r_i_glide_eff_state_penalty>
0

> <r_i_glide_einternal>
3.31948

> <r_i_glide_emodel>
-48.0072

> <r_i_glide_energy>
-40.5526

> <r_i_glide_erotb>
0.376572

> <r_i_glide_esite>
-0.0989819

> <r_i_glide_evdw>
-34.9788

> <r_i_glide_gscore>
-3.774

> <r_i_glide_hbond>
-0.559465

> <r_i_glide_ligand_efficiency>
-0.104833

> <r_i_glide_ligand_efficiency_ln>
-0.823384

> <r_i_glide_ligand_efficiency_sa>
-0.346152

> <r_i_glide_lipo>
-0.673662

> <r_i_glide_metal>
0

> <r_i_glide_rewards>
-0.233444

> <s_i_glide_gridfile>
wee1_glide-grid

> <s_m_Source_File>
wee1_decoys_glide_SP.sdf

> <s_m_Source_Path>
/Users/zhangxujun/Desktop

> <s_m_entry_id>
1765

> <s_m_entry_name>
wee1_decoys_glide_SP.1490

> <s_m_subgroup_title>
wee1_decoys_glide_SP

> <s_m_subgroupid>
wee1_decoys_glide_SP


$$$$
