ZINC16121166_2456
                    3D
 Schrodinger Suite 2024-2.
 58 61  0  0  1  0            999 V2000
   -1.6842   53.2053   23.7048 C   0  0  0  0  0  0
   -1.2704   52.1315   22.6667 C   0  0  2  0  0  0
   -0.9933   52.6126   21.7299 H   0  0  0  0  0  0
   -2.4527   51.1873   22.4233 C   0  0  0  0  0  0
   -2.2256   50.1051   23.4321 C   0  0  0  0  0  0
   -3.0867   49.1138   23.9038 C   0  0  0  0  0  0
   -2.6293   48.2008   24.8591 C   0  0  0  0  0  0
   -1.2961   48.2476   25.2821 C   0  0  0  0  0  0
   -0.4220   49.2046   24.7635 C   0  0  0  0  0  0
   -0.8845   50.1182   23.8089 C   0  0  0  0  0  0
   -0.2415   51.2312   23.2214 N   0  0  0  0  0  0
    1.1012   51.3760   23.0249 C   0  0  0  0  0  0
    1.9036   50.5121   23.3741 O   0  0  0  0  0  0
    1.6882   52.6214   22.3348 C   0  0  0  0  0  0
    1.7261   54.0967   23.4010 S   0  0  0  0  0  0
    3.3591   54.0306   24.0717 C   0  0  0  0  0  0
    4.4377   54.0972   23.3215 N   0  0  0  0  0  0
    5.4540   54.1509   24.1602 C   0  0  0  0  0  0
    5.0267   54.0968   25.4746 C   0  0  0  0  0  0
    3.6586   53.9723   25.4266 N   0  0  0  0  0  0
    2.7875   53.8310   26.5323 C   0  0  0  0  0  0
    2.9810   54.5946   27.6863 C   0  0  0  0  0  0
    2.0922   54.4837   28.7537 C   0  0  0  0  0  0
    1.0164   53.5849   28.7007 C   0  0  0  0  0  0
    0.8490   52.8090   27.5448 C   0  0  0  0  0  0
    1.7280   52.9239   26.4760 C   0  0  0  0  0  0
    0.0205   53.4591   29.8749 C   0  0  0  0  0  0
   -0.6562   52.0754   29.9495 C   0  0  0  0  0  0
    0.6194   53.8113   31.2539 C   0  0  0  0  0  0
   -3.7502   47.0049   25.5784 S   0  0  0  0  0  0
   -3.0200   45.7369   25.6820 O   0  0  0  0  0  0
   -5.0204   47.0813   24.8503 O   0  0  0  0  0  0
   -4.0415   47.5853   27.1969 N   0  0  0  0  0  0
   -2.4119   53.8983   23.2832 H   0  0  0  0  0  0
   -2.1640   52.7548   24.5755 H   0  0  0  0  0  0
   -0.8492   53.7881   24.0797 H   0  0  0  0  0  0
   -2.4141   50.7767   21.4133 H   0  0  0  0  0  0
   -3.4187   51.6857   22.4930 H   0  0  0  0  0  0
   -4.1146   49.0833   23.5726 H   0  0  0  0  0  0
   -0.9383   47.5660   26.0423 H   0  0  0  0  0  0
    0.5962   49.2283   25.1253 H   0  0  0  0  0  0
    2.6891   52.3990   21.9634 H   0  0  0  0  0  0
    1.1137   52.8520   21.4392 H   0  0  0  0  0  0
    6.4759   54.2192   23.8147 H   0  0  0  0  0  0
    5.5566   54.0861   26.4153 H   0  0  0  0  0  0
    3.7999   55.2958   27.7531 H   0  0  0  0  0  0
    2.2544   55.1126   29.6144 H   0  0  0  0  0  0
    0.0358   52.1062   27.4502 H   0  0  0  0  0  0
    1.5763   52.2998   25.6096 H   0  0  0  0  0  0
   -0.7664   54.1851   29.6824 H   0  0  0  0  0  0
   -1.3732   51.9241   29.1436 H   0  0  0  0  0  0
    0.0949   51.2966   29.8769 H   0  0  0  0  0  0
   -1.1991   51.9196   30.8814 H   0  0  0  0  0  0
    0.8947   54.8632   31.3138 H   0  0  0  0  0  0
   -0.0965   53.6375   32.0590 H   0  0  0  0  0  0
    1.4990   53.2048   31.4691 H   0  0  0  0  0  0
   -3.1608   47.6946   27.7281 H   0  0  0  0  0  0
   -4.5855   48.4491   27.2131 H   0  0  0  0  0  0
  1  2  1  0  0  0
  1 34  1  0  0  0
  1 35  1  0  0  0
  1 36  1  0  0  0
  2  3  1  0  0  0
  2 11  1  0  0  0
  2  4  1  0  0  0
  4  5  1  0  0  0
  4 37  1  0  0  0
  4 38  1  0  0  0
  5 10  2  0  0  0
  5  6  1  0  0  0
  6  7  2  0  0  0
  6 39  1  0  0  0
  7  8  1  0  0  0
  7 30  1  0  0  0
  8  9  2  0  0  0
  8 40  1  0  0  0
  9 10  1  0  0  0
  9 41  1  0  0  0
 10 11  1  0  0  0
 11 12  1  0  0  0
 12 13  2  0  0  0
 12 14  1  0  0  0
 14 15  1  0  0  0
 14 42  1  0  0  0
 14 43  1  0  0  0
 15 16  1  0  0  0
 16 20  1  0  0  0
 16 17  2  0  0  0
 17 18  1  0  0  0
 18 19  2  0  0  0
 18 44  1  0  0  0
 19 20  1  0  0  0
 19 45  1  0  0  0
 20 21  1  0  0  0
 21 26  2  0  0  0
 21 22  1  0  0  0
 22 23  2  0  0  0
 22 46  1  0  0  0
 23 24  1  0  0  0
 23 47  1  0  0  0
 24 25  2  0  0  0
 24 27  1  0  0  0
 25 26  1  0  0  0
 25 48  1  0  0  0
 26 49  1  0  0  0
 27 28  1  0  0  0
 27 29  1  0  0  0
 27 50  1  0  0  0
 28 51  1  0  0  0
 28 52  1  0  0  0
 28 53  1  0  0  0
 29 54  1  0  0  0
 29 55  1  0  0  0
 29 56  1  0  0  0
 30 31  2  0  0  0
 30 32  2  0  0  0
 30 33  1  0  0  0
 33 57  1  0  0  0
 33 58  1  0  0  0
M  END
> <i_i_glide_confnum>
165

> <i_i_glide_lignum>
2457

> <i_i_glide_posenum>
146

> <i_i_glide_rotatable_bonds>
7

> <i_m_Source_File_Index>
4665

> <b_m_subgroup_collapsed>
0

> <r_i_docking_score>
-6.01896

> <r_i_glide_ecoul>
-6.77941

> <r_i_glide_eff_state_penalty>
0

> <r_i_glide_einternal>
7.23517

> <r_i_glide_emodel>
-63.5783

> <r_i_glide_energy>
-47.8823

> <r_i_glide_erotb>
0.45618

> <r_i_glide_esite>
-0.255181

> <r_i_glide_evdw>
-41.1028

> <r_i_glide_gscore>
-6.01896

> <r_i_glide_hbond>
-0.16

> <r_i_glide_ligand_efficiency>
-0.188093

> <r_i_glide_ligand_efficiency_ln>
-1.34781

> <r_i_glide_ligand_efficiency_sa>
-0.597157

> <r_i_glide_lipo>
-2.19257

> <r_i_glide_metal>
0

> <r_i_glide_rewards>
-0.795336

> <s_i_glide_gridfile>
wee1_glide-grid

> <s_m_Source_File>
wee1_decoys_glide_SP.sdf

> <s_m_Source_Path>
/Users/zhangxujun/Desktop

> <s_m_entry_id>
4940

> <s_m_entry_name>
wee1_decoys_glide_SP.4665

> <s_m_subgroup_title>
wee1_decoys_glide_SP

> <s_m_subgroupid>
wee1_decoys_glide_SP


$$$$
