ZINC22131567_1998
                    3D
 Schrodinger Suite 2024-2.
 51 55  0  0  1  0            999 V2000
    1.0756   53.0739   30.4493 C   0  0  0  0  0  0
    1.9822   53.3705   29.2809 C   0  0  0  0  0  0
    1.6398   53.3935   28.0103 N   0  0  0  0  0  0
    2.8137   53.6793   27.3694 C   0  0  0  0  0  0
    3.1046   53.8235   26.0060 C   0  0  0  0  0  0
    4.4261   54.0969   25.6301 C   0  0  0  0  0  0
    5.4314   54.2599   26.6078 C   0  0  0  0  0  0
    5.1614   54.1349   27.9741 C   0  0  0  0  0  0
    3.8384   53.8332   28.3178 C   0  0  0  0  0  0
    3.2955   53.6455   29.5541 O   0  0  0  0  0  0
    4.6538   54.2268   24.2478 N   0  0  0  0  0  0
    5.8112   54.0967   23.5662 C   0  0  0  0  0  0
    6.8975   53.8025   24.0705 O   0  0  0  0  0  0
    5.6830   54.4067   22.1546 C   0  0  0  0  0  0
    6.5075   55.3807   21.6785 C   0  0  0  0  0  0
    6.4868   55.9047   20.3294 C   0  0  0  0  0  0
    5.6665   55.2391   19.4959 N   0  0  0  0  0  0
    4.8137   54.1807   19.8366 C   0  0  0  0  0  0
    4.7700   53.7333   21.1718 C   0  0  0  0  0  0
    3.9309   52.6580   21.4855 C   0  0  0  0  0  0
    3.1539   52.0398   20.5023 C   0  0  0  0  0  0
    3.1935   52.5142   19.1878 C   0  0  0  0  0  0
    4.0214   53.5877   18.8552 C   0  0  0  0  0  0
    2.1034   50.6418   20.9170 S   0  0  0  0  0  0
    2.1218   49.7906   19.7263 O   0  0  0  0  0  0
    2.6925   50.0837   22.1400 O   0  0  0  0  0  0
    0.7271   51.3841   21.0923 N   0  5  0  0  0  0
    0.1279   51.7393   22.2749 C   0  0  0  0  0  0
   -1.2292   52.0759   22.1951 C   0  0  0  0  0  0
   -1.9608   52.4376   23.3224 C   0  0  0  0  0  0
   -1.3362   52.4691   24.5630 C   0  0  0  0  0  0
    0.0158   52.1572   24.6744 C   0  0  0  0  0  0
    0.7429   51.8047   23.5385 C   0  0  0  0  0  0
   -2.0466   52.8065   25.6635 F   0  0  0  0  0  0
    7.1045   56.9007   19.9809 O   0  0  0  0  0  0
    0.0764   52.7721   30.1302 H   0  0  0  0  0  0
    0.9562   53.9426   31.0978 H   0  0  0  0  0  0
    1.4656   52.2624   31.0643 H   0  0  0  0  0  0
    2.3216   53.7085   25.2681 H   0  0  0  0  0  0
    6.4435   54.5001   26.3167 H   0  0  0  0  0  0
    5.9295   54.2662   28.7241 H   0  0  0  0  0  0
    3.8270   54.3865   23.6930 H   0  0  0  0  0  0
    7.2072   55.8710   22.3423 H   0  0  0  0  0  0
    3.8874   52.2679   22.4838 H   0  0  0  0  0  0
    2.5964   52.0322   18.4253 H   0  0  0  0  0  0
    4.0547   53.9326   17.8315 H   0  0  0  0  0  0
   -1.7312   52.0405   21.2385 H   0  0  0  0  0  0
   -3.0094   52.6813   23.2403 H   0  0  0  0  0  0
    0.4946   52.1843   25.6413 H   0  0  0  0  0  0
    1.7892   51.5815   23.6666 H   0  0  0  0  0  0
    5.6632   55.5991   18.5565 H   0  0  0  0  0  0
  1  2  1  0  0  0
  1 36  1  0  0  0
  1 37  1  0  0  0
  1 38  1  0  0  0
  2 10  1  0  0  0
  2  3  2  0  0  0
  3  4  1  0  0  0
  4  9  2  0  0  0
  4  5  1  0  0  0
  5  6  2  0  0  0
  5 39  1  0  0  0
  6  7  1  0  0  0
  6 11  1  0  0  0
  7  8  2  0  0  0
  7 40  1  0  0  0
  8  9  1  0  0  0
  8 41  1  0  0  0
  9 10  1  0  0  0
 11 12  1  0  0  0
 11 42  1  0  0  0
 12 13  2  0  0  0
 12 14  1  0  0  0
 14 19  1  0  0  0
 14 15  2  0  0  0
 15 16  1  0  0  0
 15 43  1  0  0  0
 16 17  1  0  0  0
 16 35  2  0  0  0
 17 18  1  0  0  0
 17 51  1  0  0  0
 18 23  2  0  0  0
 18 19  1  0  0  0
 19 20  2  0  0  0
 20 21  1  0  0  0
 20 44  1  0  0  0
 21 22  2  0  0  0
 21 24  1  0  0  0
 22 23  1  0  0  0
 22 45  1  0  0  0
 23 46  1  0  0  0
 24 25  2  0  0  0
 24 26  2  0  0  0
 24 27  1  0  0  0
 27 28  1  0  0  0
 28 33  2  0  0  0
 28 29  1  0  0  0
 29 30  2  0  0  0
 29 47  1  0  0  0
 30 31  1  0  0  0
 30 48  1  0  0  0
 31 32  2  0  0  0
 31 34  1  0  0  0
 32 33  1  0  0  0
 32 49  1  0  0  0
 33 50  1  0  0  0
M  CHG  1  27  -1
M  END
> <i_i_glide_confnum>
118

> <i_i_glide_lignum>
1999

> <i_i_glide_posenum>
4

> <i_i_glide_rotatable_bonds>
6

> <i_m_Source_File_Index>
4413

> <b_m_subgroup_collapsed>
0

> <r_i_docking_score>
-6.04221

> <r_i_glide_ecoul>
-2.34306

> <r_i_glide_eff_state_penalty>
0

> <r_i_glide_einternal>
5.98199

> <r_i_glide_emodel>
-74.2694

> <r_i_glide_energy>
-53.4043

> <r_i_glide_erotb>
0.50569

> <r_i_glide_esite>
-0.0491239

> <r_i_glide_evdw>
-51.0613

> <r_i_glide_gscore>
-6.04221

> <r_i_glide_hbond>
-0.307646

> <r_i_glide_ligand_efficiency>
-0.172634

> <r_i_glide_ligand_efficiency_ln>
-1.3264

> <r_i_glide_ligand_efficiency_sa>
-0.564699

> <r_i_glide_lipo>
-2.71975

> <r_i_glide_metal>
0

> <r_i_glide_rewards>
-0.566853

> <s_i_glide_gridfile>
wee1_glide-grid

> <s_m_Source_File>
wee1_decoys_glide_SP.sdf

> <s_m_Source_Path>
/Users/zhangxujun/Desktop

> <s_m_entry_id>
4688

> <s_m_entry_name>
wee1_decoys_glide_SP.4413

> <s_m_subgroup_title>
wee1_decoys_glide_SP

> <s_m_subgroupid>
wee1_decoys_glide_SP


$$$$
