ZINC58131059_6207
                    3D
 Schrodinger Suite 2024-2.
 61 62  0  0  1  0            999 V2000
   -4.7525   49.1207   29.7634 C   0  0  0  0  0  0
   -5.8428   48.3702   28.9779 C   0  0  0  0  0  0
   -6.1914   48.9795   27.6026 C   0  0  0  0  0  0
   -5.0341   49.0385   26.7044 N   0  0  0  0  0  0
   -4.3390   50.1436   26.4007 C   0  0  0  0  0  0
   -4.6466   51.2736   26.7899 O   0  0  0  0  0  0
   -3.1057   49.9381   25.5069 C   0  0  0  0  0  0
   -2.0279   51.0116   25.8173 N   0  3  1  0  0  0
   -1.3255   50.6351   27.1415 C   0  0  0  0  0  0
   -0.3778   51.7663   27.5319 C   0  0  0  0  0  0
    0.6799   52.0013   26.4408 C   0  0  1  0  0  0
    0.0736   52.1477   25.0235 C   0  0  0  0  0  0
   -0.9805   51.0741   24.6812 C   0  0  0  0  0  0
    1.6686   53.0207   26.7665 N   0  0  0  0  0  0
    2.6249   52.9426   27.7184 C   0  0  0  0  0  0
    2.7041   51.9773   28.4822 O   0  0  0  0  0  0
    3.4934   54.2325   27.9497 C   0  0  0  0  0  0
    4.7294   53.9251   28.8642 C   0  0  0  0  0  0
    5.9363   53.2185   28.2165 C   0  0  0  0  0  0
    6.3343   53.7971   26.8519 C   0  0  0  0  0  0
    5.1295   53.8884   25.9095 C   0  0  0  0  0  0
    4.0035   54.7081   26.5464 C   0  0  0  0  0  0
    2.6833   55.2967   28.5866 N   0  0  0  0  0  0
    1.9008   55.2248   29.6817 C   0  0  0  0  0  0
    1.5768   54.1827   30.2428 O   0  0  0  0  0  0
    1.4671   56.5499   30.2779 C   0  0  0  0  0  0
   -4.5922   48.6702   30.7421 H   0  0  0  0  0  0
   -5.0168   50.1683   29.9144 H   0  0  0  0  0  0
   -3.7916   49.0897   29.2479 H   0  0  0  0  0  0
   -5.5352   47.3300   28.8467 H   0  0  0  0  0  0
   -6.7466   48.3373   29.5866 H   0  0  0  0  0  0
   -6.9778   48.3944   27.1221 H   0  0  0  0  0  0
   -6.6016   49.9814   27.7544 H   0  0  0  0  0  0
   -4.7113   48.1523   26.3459 H   0  0  0  0  0  0
   -2.6430   48.9541   25.6110 H   0  0  0  0  0  0
   -3.3918   50.0896   24.4655 H   0  0  0  0  0  0
   -2.0826   50.4972   27.9163 H   0  0  0  0  0  0
   -0.7890   49.6995   26.9552 H   0  0  0  0  0  0
   -0.9435   52.6809   27.7105 H   0  0  0  0  0  0
    0.0991   51.5041   28.4789 H   0  0  0  0  0  0
    1.2163   51.0543   26.4141 H   0  0  0  0  0  0
    0.8719   52.1024   24.2799 H   0  0  0  0  0  0
   -0.3951   53.1289   24.9203 H   0  0  0  0  0  0
   -0.5383   50.0785   24.5838 H   0  0  0  0  0  0
   -1.5110   51.3311   23.7610 H   0  0  0  0  0  0
    1.6663   53.8415   26.1816 H   0  0  0  0  0  0
    5.0926   54.8781   29.2559 H   0  0  0  0  0  0
    4.4174   53.4411   29.7902 H   0  0  0  0  0  0
    6.7949   53.2974   28.8828 H   0  0  0  0  0  0
    5.7051   52.1604   28.1142 H   0  0  0  0  0  0
    6.7673   54.7893   26.9906 H   0  0  0  0  0  0
    7.1138   53.1858   26.3991 H   0  0  0  0  0  0
    5.4311   54.3308   24.9585 H   0  0  0  0  0  0
    4.7510   52.8999   25.6835 H   0  0  0  0  0  0
    3.1888   54.9003   25.8468 H   0  0  0  0  0  0
    4.4027   55.6968   26.6566 H   0  0  0  0  0  0
    3.0085   56.2260   28.3753 H   0  0  0  0  0  0
    0.5475   56.8932   29.8168 H   0  0  0  0  0  0
    1.3036   56.4527   31.3509 H   0  0  0  0  0  0
    2.2408   57.2969   30.1302 H   0  0  0  0  0  0
   -2.5047   51.8990   25.9281 H   0  0  0  0  0  0
  1  2  1  0  0  0
  1 27  1  0  0  0
  1 28  1  0  0  0
  1 29  1  0  0  0
  2  3  1  0  0  0
  2 30  1  0  0  0
  2 31  1  0  0  0
  3  4  1  0  0  0
  3 32  1  0  0  0
  3 33  1  0  0  0
  4  5  1  0  0  0
  4 34  1  0  0  0
  5  6  2  0  0  0
  5  7  1  0  0  0
  7  8  1  0  0  0
  7 35  1  0  0  0
  7 36  1  0  0  0
  8 13  1  0  0  0
  8  9  1  0  0  0
  8 61  1  0  0  0
  9 10  1  0  0  0
  9 37  1  0  0  0
  9 38  1  0  0  0
 10 11  1  0  0  0
 10 39  1  0  0  0
 10 40  1  0  0  0
 11 12  1  0  0  0
 11 14  1  0  0  0
 11 41  1  0  0  0
 12 13  1  0  0  0
 12 42  1  0  0  0
 12 43  1  0  0  0
 13 44  1  0  0  0
 13 45  1  0  0  0
 14 15  1  0  0  0
 14 46  1  0  0  0
 15 16  2  0  0  0
 15 17  1  0  0  0
 17 22  1  0  0  0
 17 18  1  0  0  0
 17 23  1  0  0  0
 18 19  1  0  0  0
 18 47  1  0  0  0
 18 48  1  0  0  0
 19 20  1  0  0  0
 19 49  1  0  0  0
 19 50  1  0  0  0
 20 21  1  0  0  0
 20 51  1  0  0  0
 20 52  1  0  0  0
 21 22  1  0  0  0
 21 53  1  0  0  0
 21 54  1  0  0  0
 22 55  1  0  0  0
 22 56  1  0  0  0
 23 24  1  0  0  0
 23 57  1  0  0  0
 24 25  2  0  0  0
 24 26  1  0  0  0
 26 58  1  0  0  0
 26 59  1  0  0  0
 26 60  1  0  0  0
M  CHG  1   8   1
M  END
> <i_i_glide_confnum>
138

> <i_i_glide_lignum>
6208

> <i_i_glide_posenum>
379

> <i_i_glide_rotatable_bonds>
10

> <i_m_Source_File_Index>
4601

> <b_m_subgroup_collapsed>
0

> <r_i_docking_score>
-4.79492

> <r_i_glide_ecoul>
-4.89816

> <r_i_glide_eff_state_penalty>
0

> <r_i_glide_einternal>
15.5454

> <r_i_glide_emodel>
-36.743

> <r_i_glide_energy>
-32.9933

> <r_i_glide_erotb>
1.14079

> <r_i_glide_esite>
-0.0833787

> <r_i_glide_evdw>
-28.0952

> <r_i_glide_gscore>
-4.79492

> <r_i_glide_hbond>
-0.16121

> <r_i_glide_ligand_efficiency>
-0.18442

> <r_i_glide_ligand_efficiency_ln>
-1.12607

> <r_i_glide_ligand_efficiency_sa>
-0.546344

> <r_i_glide_lipo>
-2.05654

> <r_i_glide_metal>
0

> <r_i_glide_rewards>
-1.4951

> <s_i_glide_gridfile>
wee1_glide-grid

> <s_m_Source_File>
wee1_decoys_glide_SP.sdf

> <s_m_Source_Path>
/Users/zhangxujun/Desktop

> <s_m_entry_id>
4876

> <s_m_entry_name>
wee1_decoys_glide_SP.4601

> <s_m_subgroup_title>
wee1_decoys_glide_SP

> <s_m_subgroupid>
wee1_decoys_glide_SP


$$$$
