ZINC02431986_2233
                    3D
 Schrodinger Suite 2024-2.
 55 59  0  0  1  0            999 V2000
    7.1048   55.5172   25.5955 C   0  0  0  0  0  0
    5.9272   54.7694   25.0530 C   0  0  0  0  0  0
    5.7478   54.6289   23.6719 C   0  0  0  0  0  0
    4.5503   54.1080   23.1750 C   0  0  0  0  0  0
    3.5567   53.6967   24.0642 C   0  0  0  0  0  0
    3.8337   53.6967   25.4301 C   0  0  0  0  0  0
    4.9928   54.2442   25.9448 C   0  0  0  0  0  0
    5.1822   54.2796   27.4595 C   0  0  0  0  0  0
    1.9217   53.2886   23.4605 S   0  0  0  0  0  0
    2.0736   52.6575   22.1442 O   0  0  0  0  0  0
    1.1123   54.4952   23.6436 O   0  0  0  0  0  0
    1.1921   52.0623   24.5681 C   0  0  0  0  0  0
    0.8540   52.2476   25.9440 C   0  0  0  0  0  0
    0.2699   51.0564   26.4183 C   0  0  0  0  0  0
   -0.1624   50.9255   27.6788 N   0  0  0  0  0  0
    0.0262   51.9714   28.5383 C   0  0  0  0  0  0
   -0.3816   51.8977   29.8897 C   0  0  0  0  0  0
   -0.0956   52.9529   30.7583 C   0  0  0  0  0  0
    0.5414   54.1045   30.3095 C   0  0  0  0  0  0
    0.9150   54.2264   28.9757 C   0  0  0  0  0  0
    0.6601   53.1624   28.0820 C   0  0  0  0  0  0
    1.0259   53.2713   26.7833 N   0  0  0  0  0  0
    0.2930   50.1388   25.3741 N   0  0  0  0  0  0
    0.8480   50.7581   24.2583 C   0  0  0  0  0  0
    1.0157   50.0953   23.0752 N   0  0  0  0  0  0
   -0.1664   48.7513   25.4394 C   0  0  0  0  0  0
   -1.4980   48.5410   24.6916 C   0  0  1  0  0  0
   -1.4087   48.7571   23.6260 H   0  0  0  0  0  0
   -2.0747   47.1300   24.8832 C   0  0  0  0  0  0
   -3.5530   47.3872   25.0602 C   0  0  0  0  0  0
   -3.5351   48.6824   25.8583 C   0  0  0  0  0  0
   -2.4821   49.4205   25.2478 O   0  0  0  0  0  0
    6.7851   56.4963   25.9408 H   0  0  0  0  0  0
    7.5045   54.9675   26.4455 H   0  0  0  0  0  0
    7.9025   55.6291   24.8662 H   0  0  0  0  0  0
    6.4901   55.0053   22.9828 H   0  0  0  0  0  0
    4.3691   54.0906   22.1093 H   0  0  0  0  0  0
    3.1873   53.2476   26.1381 H   0  0  0  0  0  0
    5.9644   53.5812   27.7598 H   0  0  0  0  0  0
    5.4787   55.2756   27.7912 H   0  0  0  0  0  0
    4.2663   54.0281   27.9968 H   0  0  0  0  0  0
   -0.8958   51.0147   30.2488 H   0  0  0  0  0  0
   -0.3962   52.8967   31.7920 H   0  0  0  0  0  0
    0.7300   54.9144   30.9994 H   0  0  0  0  0  0
    1.3982   55.1248   28.6181 H   0  0  0  0  0  0
    1.4148   50.5880   22.2840 H   0  0  0  0  0  0
    0.8556   49.1058   22.9727 H   0  0  0  0  0  0
    0.6184   48.1068   25.0419 H   0  0  0  0  0  0
   -0.2795   48.4783   26.4818 H   0  0  0  0  0  0
   -1.8488   46.4651   24.0490 H   0  0  0  0  0  0
   -1.6926   46.6719   25.7992 H   0  0  0  0  0  0
   -4.0446   47.5374   24.0974 H   0  0  0  0  0  0
   -4.0654   46.5821   25.5874 H   0  0  0  0  0  0
   -4.4782   49.2271   25.8106 H   0  0  0  0  0  0
   -3.3039   48.5178   26.9116 H   0  0  0  0  0  0
  1  2  1  0  0  0
  1 33  1  0  0  0
  1 34  1  0  0  0
  1 35  1  0  0  0
  2  7  2  0  0  0
  2  3  1  0  0  0
  3  4  2  0  0  0
  3 36  1  0  0  0
  4  5  1  0  0  0
  4 37  1  0  0  0
  5  6  2  0  0  0
  5  9  1  0  0  0
  6  7  1  0  0  0
  6 38  1  0  0  0
  7  8  1  0  0  0
  8 39  1  0  0  0
  8 40  1  0  0  0
  8 41  1  0  0  0
  9 10  2  0  0  0
  9 11  2  0  0  0
  9 12  1  0  0  0
 12 24  2  0  0  0
 12 13  1  0  0  0
 13 22  2  0  0  0
 13 14  1  0  0  0
 14 15  2  0  0  0
 14 23  1  0  0  0
 15 16  1  0  0  0
 16 21  2  0  0  0
 16 17  1  0  0  0
 17 18  2  0  0  0
 17 42  1  0  0  0
 18 19  1  0  0  0
 18 43  1  0  0  0
 19 20  2  0  0  0
 19 44  1  0  0  0
 20 21  1  0  0  0
 20 45  1  0  0  0
 21 22  1  0  0  0
 23 24  1  0  0  0
 23 26  1  0  0  0
 24 25  1  0  0  0
 25 46  1  0  0  0
 25 47  1  0  0  0
 26 27  1  0  0  0
 26 48  1  0  0  0
 26 49  1  0  0  0
 27 28  1  0  0  0
 27 32  1  0  0  0
 27 29  1  0  0  0
 29 30  1  0  0  0
 29 50  1  0  0  0
 29 51  1  0  0  0
 30 31  1  0  0  0
 30 52  1  0  0  0
 30 53  1  0  0  0
 31 32  1  0  0  0
 31 54  1  0  0  0
 31 55  1  0  0  0
M  END
> <i_i_glide_confnum>
51

> <i_i_glide_lignum>
2234

> <i_i_glide_posenum>
314

> <i_i_glide_rotatable_bonds>
4

> <i_m_Source_File_Index>
1469

> <b_m_subgroup_collapsed>
0

> <r_i_docking_score>
-5.34536

> <r_i_glide_ecoul>
-3.18621

> <r_i_glide_eff_state_penalty>
0

> <r_i_glide_einternal>
3.8743

> <r_i_glide_emodel>
-52.7599

> <r_i_glide_energy>
-40.308

> <r_i_glide_erotb>
0.418429

> <r_i_glide_esite>
-0.0570181

> <r_i_glide_evdw>
-37.1218

> <r_i_glide_gscore>
-5.34536

> <r_i_glide_hbond>
0

> <r_i_glide_ligand_efficiency>
-0.172431

> <r_i_glide_ligand_efficiency_ln>
-1.20554

> <r_i_glide_ligand_efficiency_sa>
-0.541671

> <r_i_glide_lipo>
-2.55516

> <r_i_glide_metal>
0

> <r_i_glide_rewards>
-0.81759

> <s_i_glide_gridfile>
wee1_glide-grid

> <s_m_Source_File>
wee1_decoys_glide_SP.sdf

> <s_m_Source_Path>
/Users/zhangxujun/Desktop

> <s_m_entry_id>
1744

> <s_m_entry_name>
wee1_decoys_glide_SP.1469

> <s_m_subgroup_title>
wee1_decoys_glide_SP

> <s_m_subgroupid>
wee1_decoys_glide_SP


$$$$
