ZINC02170042_444
                    3D
 Schrodinger Suite 2024-2.
 65 68  0  0  1  0            999 V2000
   -5.2884   51.2750   24.0580 C   0  0  0  0  0  0
   -4.6124   51.6039   25.4153 C   0  0  0  0  0  0
   -3.6928   50.4265   25.8404 C   0  0  0  0  0  0
   -2.3998   50.3523   24.9980 C   0  0  0  0  0  0
   -1.8709   51.4135   24.3152 C   0  0  0  0  0  0
   -0.5725   51.3100   23.4656 C   0  0  2  0  0  0
   -0.8534   51.5878   22.4468 H   0  0  0  0  0  0
   -0.0183   49.8866   23.4708 C   0  0  0  0  0  0
   -0.5182   48.9062   24.2452 C   0  0  0  0  0  0
   -1.7320   49.1016   24.9344 N   0  0  0  0  0  0
   -2.2657   47.9582   25.6919 N   0  0  0  0  0  0
   -3.2511   47.0786   25.2272 C   0  0  0  0  0  0
   -3.6352   47.0344   23.8814 C   0  0  0  0  0  0
   -4.6193   46.1434   23.4649 C   0  0  0  0  0  0
   -5.2217   45.2940   24.3912 C   0  0  0  0  0  0
   -4.8380   45.3231   25.7310 C   0  0  0  0  0  0
   -3.8494   46.2128   26.1457 C   0  0  0  0  0  0
    0.1190   47.7167   24.4817 N   0  0  0  0  0  0
    1.1775   49.6459   22.7216 C   0  0  0  0  0  0
    2.1241   49.4634   22.0806 N   0  0  0  0  0  0
    0.5600   52.2845   23.8277 C   0  0  0  0  0  0
    0.8671   52.5491   25.1662 C   0  0  0  0  0  0
    1.9920   53.3013   25.4964 C   0  0  0  0  0  0
    2.8420   53.7909   24.4926 C   0  0  0  0  0  0
    2.5453   53.5299   23.1479 C   0  0  0  0  0  0
    1.3916   52.7979   22.8270 C   0  0  0  0  0  0
    3.4481   53.9722   22.1988 O   0  0  0  0  0  0
    3.5808   53.2300   20.9887 C   0  0  0  0  0  0
    4.0021   54.4951   24.7498 O   0  0  0  0  0  0
    4.6039   54.4340   26.0407 C   0  0  0  0  0  0
    6.0509   54.8976   25.9816 C   0  0  0  0  0  0
    6.6958   55.2857   24.8664 C   0  0  0  0  0  0
   -2.5414   52.7316   24.3585 C   0  0  0  0  0  0
   -2.1713   53.6880   23.6817 O   0  0  0  0  0  0
   -3.7504   52.8835   25.2926 C   0  0  0  0  0  0
   -5.6409   51.8470   26.5397 C   0  0  0  0  0  0
   -5.9198   52.0967   23.7201 H   0  0  0  0  0  0
   -4.5723   51.0683   23.2622 H   0  0  0  0  0  0
   -5.9295   50.3965   24.1422 H   0  0  0  0  0  0
   -4.2790   49.5080   25.8060 H   0  0  0  0  0  0
   -3.3466   50.5461   26.8689 H   0  0  0  0  0  0
   -2.1154   48.0967   26.6977 H   0  0  0  0  0  0
   -3.1714   47.6924   23.1607 H   0  0  0  0  0  0
   -4.9172   46.1176   22.4268 H   0  0  0  0  0  0
   -5.9940   44.6113   24.0698 H   0  0  0  0  0  0
   -5.3041   44.6625   26.4468 H   0  0  0  0  0  0
   -3.5540   46.2323   27.1862 H   0  0  0  0  0  0
    1.1095   47.6647   24.2823 H   0  0  0  0  0  0
   -0.2068   47.1541   25.2567 H   0  0  0  0  0  0
    0.2524   52.1418   25.9548 H   0  0  0  0  0  0
    2.2046   53.4821   26.5392 H   0  0  0  0  0  0
    1.1635   52.5756   21.7954 H   0  0  0  0  0  0
    4.4256   53.6214   20.4221 H   0  0  0  0  0  0
    3.7816   52.1760   21.1915 H   0  0  0  0  0  0
    2.7025   53.2978   20.3491 H   0  0  0  0  0  0
    4.5956   53.4151   26.4336 H   0  0  0  0  0  0
    4.0559   55.0747   26.7320 H   0  0  0  0  0  0
    6.5760   54.9057   26.9263 H   0  0  0  0  0  0
    6.2010   55.2904   23.9047 H   0  0  0  0  0  0
    7.7229   55.6060   24.8816 H   0  0  0  0  0  0
   -4.3345   53.7531   24.9871 H   0  0  0  0  0  0
   -3.3285   53.1209   26.2688 H   0  0  0  0  0  0
   -6.3038   52.6778   26.2938 H   0  0  0  0  0  0
   -6.2668   50.9669   26.6976 H   0  0  0  0  0  0
   -5.1618   52.0844   27.4917 H   0  0  0  0  0  0
  1  2  1  0  0  0
  1 37  1  0  0  0
  1 38  1  0  0  0
  1 39  1  0  0  0
  2 35  1  0  0  0
  2  3  1  0  0  0
  2 36  1  0  0  0
  3  4  1  0  0  0
  3 40  1  0  0  0
  3 41  1  0  0  0
  4 10  1  0  0  0
  4  5  2  0  0  0
  5  6  1  0  0  0
  5 33  1  0  0  0
  6  7  1  0  0  0
  6  8  1  0  0  0
  6 21  1  0  0  0
  8  9  2  0  0  0
  8 19  1  0  0  0
  9 10  1  0  0  0
  9 18  1  0  0  0
 10 11  1  0  0  0
 11 12  1  0  0  0
 11 42  1  0  0  0
 12 17  2  0  0  0
 12 13  1  0  0  0
 13 14  2  0  0  0
 13 43  1  0  0  0
 14 15  1  0  0  0
 14 44  1  0  0  0
 15 16  2  0  0  0
 15 45  1  0  0  0
 16 17  1  0  0  0
 16 46  1  0  0  0
 17 47  1  0  0  0
 18 48  1  0  0  0
 18 49  1  0  0  0
 19 20  3  0  0  0
 21 26  2  0  0  0
 21 22  1  0  0  0
 22 23  2  0  0  0
 22 50  1  0  0  0
 23 24  1  0  0  0
 23 51  1  0  0  0
 24 25  2  0  0  0
 24 29  1  0  0  0
 25 26  1  0  0  0
 25 27  1  0  0  0
 26 52  1  0  0  0
 27 28  1  0  0  0
 28 53  1  0  0  0
 28 54  1  0  0  0
 28 55  1  0  0  0
 29 30  1  0  0  0
 30 31  1  0  0  0
 30 56  1  0  0  0
 30 57  1  0  0  0
 31 32  2  0  0  0
 31 58  1  0  0  0
 32 59  1  0  0  0
 32 60  1  0  0  0
 33 34  2  0  0  0
 33 35  1  0  0  0
 35 61  1  0  0  0
 35 62  1  0  0  0
 36 63  1  0  0  0
 36 64  1  0  0  0
 36 65  1  0  0  0
M  END
> <i_i_glide_confnum>
106

> <i_i_glide_lignum>
445

> <i_i_glide_posenum>
365

> <i_i_glide_rotatable_bonds>
8

> <i_m_Source_File_Index>
3938

> <b_m_subgroup_collapsed>
0

> <r_i_docking_score>
-5.95241

> <r_i_glide_ecoul>
-9.44637

> <r_i_glide_eff_state_penalty>
0

> <r_i_glide_einternal>
7.91872

> <r_i_glide_emodel>
-57.7667

> <r_i_glide_energy>
-45.5462

> <r_i_glide_erotb>
0.547515

> <r_i_glide_esite>
-0.20487

> <r_i_glide_evdw>
-36.0999

> <r_i_glide_gscore>
-5.95241

> <r_i_glide_hbond>
-0.623725

> <r_i_glide_ligand_efficiency>
-0.170069

> <r_i_glide_ligand_efficiency_ln>
-1.30669

> <r_i_glide_ligand_efficiency_sa>
-0.556306

> <r_i_glide_lipo>
-2.00524

> <r_i_glide_metal>
0

> <r_i_glide_rewards>
-0.444137

> <s_i_glide_gridfile>
wee1_glide-grid

> <s_m_Source_File>
wee1_decoys_glide_SP.sdf

> <s_m_Source_Path>
/Users/zhangxujun/Desktop

> <s_m_entry_id>
4213

> <s_m_entry_name>
wee1_decoys_glide_SP.3938

> <s_m_subgroup_title>
wee1_decoys_glide_SP

> <s_m_subgroupid>
wee1_decoys_glide_SP


$$$$
