ZINC32534144_1671
                    3D
 Schrodinger Suite 2024-2.
 35 37  0  0  1  0            999 V2000
    1.4562   52.5232   24.1407 C   0  0  0  0  0  0
    2.0849   52.1708   22.8149 C   0  0  0  0  0  0
    3.0263   52.7945   21.9960 C   0  0  0  0  0  0
    3.1236   51.9271   20.8947 C   0  0  0  0  0  0
    2.3837   50.8509   20.9864 N   0  0  0  0  0  0
    1.7623   51.0094   22.1554 N   0  0  0  0  0  0
    1.1105   50.3209   22.5025 H   0  0  0  0  0  0
    3.9047   52.1287   19.7868 O   0  0  0  0  0  0
    4.6395   53.2715   19.7881 C   0  0  0  0  0  0
    4.6999   54.1901   20.7806 C   0  0  0  0  0  0
    3.8846   54.0636   22.0893 C   0  0  2  0  0  0
    3.2182   54.9267   22.1226 H   0  0  0  0  0  0
    4.7024   54.1608   23.3863 C   0  0  0  0  0  0
    4.0734   54.4963   24.5887 C   0  0  0  0  0  0
    4.8063   54.5899   25.7694 C   0  0  0  0  0  0
    6.1919   54.3712   25.7570 C   0  0  0  0  0  0
    6.8217   54.0987   24.5468 C   0  0  0  0  0  0
    6.0865   53.9627   23.3816 C   0  0  0  0  0  0
    6.9912   54.3981   26.8807 O   0  0  0  0  0  0
    6.3669   54.3338   28.1595 C   0  0  0  0  0  0
    5.5740   55.3109   20.6337 C   0  0  0  0  0  0
    6.3050   56.2057   20.5382 N   0  0  0  0  0  0
    5.3474   53.2964   18.6154 N   0  0  0  0  0  0
    1.1255   53.5599   24.1633 H   0  0  0  0  0  0
    0.5791   51.9138   24.3612 H   0  0  0  0  0  0
    2.1562   52.3837   24.9647 H   0  0  0  0  0  0
    3.0153   54.7003   24.6110 H   0  0  0  0  0  0
    4.2876   54.8373   26.6824 H   0  0  0  0  0  0
    7.8888   53.9471   24.4859 H   0  0  0  0  0  0
    6.6155   53.7074   22.4810 H   0  0  0  0  0  0
    7.1211   54.0968   28.9113 H   0  0  0  0  0  0
    5.6163   53.5418   28.2103 H   0  0  0  0  0  0
    5.9036   55.2866   28.4197 H   0  0  0  0  0  0
    5.9299   54.0811   18.3643 H   0  0  0  0  0  0
    5.4949   52.4160   18.1248 H   0  0  0  0  0  0
  1  2  1  0  0  0
  1 24  1  0  0  0
  1 25  1  0  0  0
  1 26  1  0  0  0
  2  6  1  0  0  0
  2  3  2  0  0  0
  3 11  1  0  0  0
  3  4  1  0  0  0
  4  5  2  0  0  0
  4  8  1  0  0  0
  5  6  1  0  0  0
  6  7  1  0  0  0
  8  9  1  0  0  0
  9 10  2  0  0  0
  9 23  1  0  0  0
 10 11  1  0  0  0
 10 21  1  0  0  0
 11 12  1  0  0  0
 11 13  1  0  0  0
 13 18  2  0  0  0
 13 14  1  0  0  0
 14 15  2  0  0  0
 14 27  1  0  0  0
 15 16  1  0  0  0
 15 28  1  0  0  0
 16 17  2  0  0  0
 16 19  1  0  0  0
 17 18  1  0  0  0
 17 29  1  0  0  0
 18 30  1  0  0  0
 19 20  1  0  0  0
 20 31  1  0  0  0
 20 32  1  0  0  0
 20 33  1  0  0  0
 21 22  3  0  0  0
 23 34  1  0  0  0
 23 35  1  0  0  0
M  END
> <i_i_glide_confnum>
2

> <i_i_glide_lignum>
1672

> <i_i_glide_posenum>
328

> <i_i_glide_rotatable_bonds>
3

> <i_m_Source_File_Index>
5596

> <b_m_subgroup_collapsed>
0

> <r_i_docking_score>
-6.28714

> <r_i_glide_ecoul>
-4.29966

> <r_i_glide_eff_state_penalty>
0

> <r_i_glide_einternal>
4.25875

> <r_i_glide_emodel>
-47.7216

> <r_i_glide_energy>
-35.7187

> <r_i_glide_erotb>
0.227017

> <r_i_glide_esite>
-0.0821431

> <r_i_glide_evdw>
-31.419

> <r_i_glide_gscore>
-6.28714

> <r_i_glide_hbond>
-0.272918

> <r_i_glide_ligand_efficiency>
-0.299388

> <r_i_glide_ligand_efficiency_ln>
-1.55448

> <r_i_glide_ligand_efficiency_sa>
-0.825988

> <r_i_glide_lipo>
-2.28823

> <r_i_glide_metal>
0

> <r_i_glide_rewards>
-1.65497

> <s_i_glide_gridfile>
wee1_glide-grid

> <s_m_Source_File>
wee1_decoys_glide_SP.sdf

> <s_m_Source_Path>
/Users/zhangxujun/Desktop

> <s_m_entry_id>
5871

> <s_m_entry_name>
wee1_decoys_glide_SP.5596

> <s_m_subgroup_title>
wee1_decoys_glide_SP

> <s_m_subgroupid>
wee1_decoys_glide_SP


$$$$
