ZINC39657124_3677
                    3D
 Schrodinger Suite 2024-2.
 62 66  0  0  1  0            999 V2000
   -3.8235   50.4949   22.3104 C   0  0  0  0  0  0
   -3.9487   50.3794   23.8450 C   0  0  2  0  0  0
   -4.3454   49.3886   24.0784 H   0  0  0  0  0  0
   -4.9452   51.4262   24.3678 C   0  0  0  0  0  0
   -4.5084   52.6593   24.8790 C   0  0  0  0  0  0
   -5.4197   53.5688   25.4038 C   0  0  0  0  0  0
   -6.7760   53.2580   25.4127 C   0  0  0  0  0  0
   -7.2265   52.0435   24.8992 C   0  0  0  0  0  0
   -6.3121   51.1274   24.3825 C   0  0  0  0  0  0
   -8.0177   54.5021   26.1435 Br  0  0  0  0  0  0
   -2.6812   50.4903   24.5731 N   0  0  0  0  0  0
   -1.4207   50.1619   24.2373 C   0  0  0  0  0  0
   -1.1324   49.5801   23.1940 O   0  0  0  0  0  0
   -0.2739   50.5498   25.2109 C   0  0  2  0  0  0
    0.3135   49.6458   25.3865 H   0  0  0  0  0  0
   -0.8435   50.9435   26.5951 C   0  0  0  0  0  0
    0.1484   51.8377   27.1725 N   0  0  0  0  0  0
    1.1071   52.2772   26.1559 C   0  0  0  0  0  0
    0.5949   51.7687   24.7732 C   0  0  0  0  0  0
   -0.1813   52.9182   24.0821 C   0  0  0  0  0  0
    0.7809   54.0929   23.7786 C   0  0  0  0  0  0
    1.8268   53.6645   22.7474 N   0  3  0  0  0  0
    2.6360   52.4959   23.2967 C   0  0  0  0  0  0
    1.6561   51.3583   23.6979 C   0  0  0  0  0  0
   -0.0063   52.2793   28.4531 C   0  0  0  0  0  0
   -0.9413   51.9092   29.1634 O   0  0  0  0  0  0
    0.8669   53.3114   28.9644 C   0  0  0  0  0  0
    0.3826   54.3357   29.7598 C   0  0  0  0  0  0
    1.5044   55.6200   30.0815 S   0  0  0  0  0  0
    2.7743   54.6528   29.3600 C   0  0  0  0  0  0
    2.2921   53.4094   28.8597 C   0  0  0  0  0  0
    3.2515   52.5022   28.3824 C   0  0  0  0  0  0
    4.5916   52.8790   28.2831 C   0  0  0  0  0  0
    5.0277   54.1091   28.7168 C   0  0  0  0  0  0
    4.1273   54.9876   29.2817 C   0  0  0  0  0  0
   -4.8026   50.4993   21.8303 H   0  0  0  0  0  0
   -3.2959   51.4037   22.0219 H   0  0  0  0  0  0
   -3.2799   49.6507   21.8876 H   0  0  0  0  0  0
   -3.4608   52.9205   24.8789 H   0  0  0  0  0  0
   -5.0719   54.5061   25.8098 H   0  0  0  0  0  0
   -8.2811   51.8090   24.9096 H   0  0  0  0  0  0
   -6.6691   50.1833   23.9979 H   0  0  0  0  0  0
   -2.8090   50.7682   25.5336 H   0  0  0  0  0  0
   -1.7245   51.5803   26.5086 H   0  0  0  0  0  0
   -1.0707   50.0967   27.2404 H   0  0  0  0  0  0
    1.9879   51.6971   26.3405 H   0  0  0  0  0  0
    1.3879   53.3242   26.2043 H   0  0  0  0  0  0
   -0.6814   52.5851   23.1708 H   0  0  0  0  0  0
   -0.9807   53.2738   24.7338 H   0  0  0  0  0  0
    0.3044   54.8967   23.2817 H   0  0  0  0  0  0
    1.3227   54.5045   24.6246 H   0  0  0  0  0  0
    1.3766   53.3955   21.8815 H   0  0  0  0  0  0
    3.3088   52.2020   22.4861 H   0  0  0  0  0  0
    3.2130   52.8963   24.1344 H   0  0  0  0  0  0
    2.2512   50.5302   24.0816 H   0  0  0  0  0  0
    1.1691   50.9472   22.8114 H   0  0  0  0  0  0
   -0.6404   54.4610   30.0818 H   0  0  0  0  0  0
    2.9552   51.5092   28.0931 H   0  0  0  0  0  0
    5.3182   52.1836   27.8919 H   0  0  0  0  0  0
    6.0767   54.3682   28.6594 H   0  0  0  0  0  0
    4.4882   55.9124   29.6817 H   0  0  0  0  0  0
    2.4391   54.4374   22.5193 H   0  0  0  0  0  0
  1  2  1  0  0  0
  1 36  1  0  0  0
  1 37  1  0  0  0
  1 38  1  0  0  0
  2  3  1  0  0  0
  2  4  1  0  0  0
  2 11  1  0  0  0
  4  9  2  0  0  0
  4  5  1  0  0  0
  5  6  2  0  0  0
  5 39  1  0  0  0
  6  7  1  0  0  0
  6 40  1  0  0  0
  7  8  2  0  0  0
  7 10  1  0  0  0
  8  9  1  0  0  0
  8 41  1  0  0  0
  9 42  1  0  0  0
 11 12  1  0  0  0
 11 43  1  0  0  0
 12 13  2  0  0  0
 12 14  1  0  0  0
 14 15  1  0  0  0
 14 19  1  0  0  0
 14 16  1  0  0  0
 16 17  1  0  0  0
 16 44  1  0  0  0
 16 45  1  0  0  0
 17 18  1  0  0  0
 17 25  1  0  0  0
 18 19  1  0  0  0
 18 46  1  0  0  0
 18 47  1  0  0  0
 19 24  1  0  0  0
 19 20  1  0  0  0
 20 21  1  0  0  0
 20 48  1  0  0  0
 20 49  1  0  0  0
 21 22  1  0  0  0
 21 50  1  0  0  0
 21 51  1  0  0  0
 22 23  1  0  0  0
 22 52  1  0  0  0
 22 62  1  0  0  0
 23 24  1  0  0  0
 23 53  1  0  0  0
 23 54  1  0  0  0
 24 55  1  0  0  0
 24 56  1  0  0  0
 25 26  2  0  0  0
 25 27  1  0  0  0
 27 31  1  0  0  0
 27 28  2  0  0  0
 28 29  1  0  0  0
 28 57  1  0  0  0
 29 30  1  0  0  0
 30 35  2  0  0  0
 30 31  1  0  0  0
 31 32  2  0  0  0
 32 33  1  0  0  0
 32 58  1  0  0  0
 33 34  2  0  0  0
 33 59  1  0  0  0
 34 35  1  0  0  0
 34 60  1  0  0  0
 35 61  1  0  0  0
M  CHG  1  22   1
M  END
> <i_i_glide_confnum>
230

> <i_i_glide_lignum>
3678

> <i_i_glide_posenum>
327

> <i_i_glide_rotatable_bonds>
6

> <i_m_Source_File_Index>
1371

> <b_m_subgroup_collapsed>
0

> <r_i_docking_score>
-3.80642

> <r_i_glide_ecoul>
-0.199606

> <r_i_glide_eff_state_penalty>
0

> <r_i_glide_einternal>
9.64524

> <r_i_glide_emodel>
-36.8856

> <r_i_glide_energy>
-28.1175

> <r_i_glide_erotb>
0.370087

> <r_i_glide_esite>
-0.0210481

> <r_i_glide_evdw>
-27.9178

> <r_i_glide_gscore>
-3.80642

> <r_i_glide_hbond>
0

> <r_i_glide_ligand_efficiency>
-0.115346

> <r_i_glide_ligand_efficiency_ln>
-0.846528

> <r_i_glide_ligand_efficiency_sa>
-0.369977

> <r_i_glide_lipo>
-2.68729

> <r_i_glide_metal>
0

> <r_i_glide_rewards>
-0.042342

> <s_i_glide_gridfile>
wee1_glide-grid

> <s_m_Source_File>
wee1_decoys_glide_SP.sdf

> <s_m_Source_Path>
/Users/zhangxujun/Desktop

> <s_m_entry_id>
1646

> <s_m_entry_name>
wee1_decoys_glide_SP.1371

> <s_m_subgroup_title>
wee1_decoys_glide_SP

> <s_m_subgroupid>
wee1_decoys_glide_SP


$$$$
