ZINC39516230_1321
                    3D
 Schrodinger Suite 2024-2.
 52 55  0  0  1  0            999 V2000
   -0.3839   52.0225   30.1992 C   0  0  0  0  0  0
    0.8066   52.5275   29.5230 N   0  0  0  0  0  0
    2.0417   52.5174   30.0494 C   0  0  0  0  0  0
    2.3141   52.0970   31.1738 O   0  0  0  0  0  0
    3.0776   52.9696   29.1622 C   0  0  0  0  0  0
    4.4025   52.5716   29.1673 C   0  0  0  0  0  0
    5.1486   53.1513   28.1386 C   0  0  0  0  0  0
    4.4452   54.0509   27.3344 C   0  0  0  0  0  0
    2.8319   54.2313   27.9906 S   0  0  0  0  0  0
    4.9198   54.8438   26.1155 C   0  0  1  0  0  0
    4.3232   55.7539   26.0814 H   0  0  0  0  0  0
    6.4050   55.2346   26.1848 C   0  0  0  0  0  0
    6.6818   55.5773   24.7457 C   0  0  0  0  0  0
    5.9188   54.4831   24.0124 C   0  0  0  0  0  0
    4.7073   54.1988   24.7969 N   0  0  0  0  0  0
    3.5032   53.7702   24.1961 C   0  0  0  0  0  0
    3.4697   53.3014   22.8703 C   0  0  0  0  0  0
    2.2415   52.8577   22.3581 C   0  0  0  0  0  0
    1.1139   52.8469   23.1184 N   0  0  0  0  0  0
    1.2382   53.2978   24.3874 C   0  0  0  0  0  0
    2.3771   53.7553   24.9583 N   0  0  0  0  0  0
    2.0604   52.3405   20.9273 C   0  0  0  0  0  0
    3.1067   52.8601   19.9118 C   0  0  0  0  0  0
    2.7749   52.3917   18.4860 C   0  0  0  0  0  0
    2.7044   50.8566   18.4731 N   0  3  0  0  0  0
    1.6974   50.2597   19.4736 C   0  0  0  0  0  0
    1.9789   50.7956   20.8897 C   0  0  0  0  0  0
   -1.2718   52.5263   29.8221 H   0  0  0  0  0  0
   -0.3396   52.1633   31.2811 H   0  0  0  0  0  0
   -0.5057   50.9584   29.9940 H   0  0  0  0  0  0
    0.6927   52.8369   28.5696 H   0  0  0  0  0  0
    4.8056   51.8419   29.8554 H   0  0  0  0  0  0
    6.1845   52.8953   27.9703 H   0  0  0  0  0  0
    6.6125   56.0649   26.8575 H   0  0  0  0  0  0
    7.0290   54.4015   26.5123 H   0  0  0  0  0  0
    6.2985   56.5602   24.4795 H   0  0  0  0  0  0
    7.7381   55.5827   24.4976 H   0  0  0  0  0  0
    5.6627   54.8981   23.0369 H   0  0  0  0  0  0
    6.5552   53.6002   23.9324 H   0  0  0  0  0  0
    4.3636   53.2766   22.2688 H   0  0  0  0  0  0
    0.3483   53.2923   24.9997 H   0  0  0  0  0  0
    1.0958   52.7522   20.6187 H   0  0  0  0  0  0
    3.1206   53.9497   19.9104 H   0  0  0  0  0  0
    4.1094   52.5122   20.1654 H   0  0  0  0  0  0
    1.8090   52.7575   18.1325 H   0  0  0  0  0  0
    3.5495   52.6618   17.7643 H   0  0  0  0  0  0
    2.4983   50.5299   17.5373 H   0  0  0  0  0  0
    0.7096   50.5492   19.1096 H   0  0  0  0  0  0
    1.8003   49.1757   19.4025 H   0  0  0  0  0  0
    2.9047   50.3559   21.2639 H   0  0  0  0  0  0
    1.1684   50.4512   21.5351 H   0  0  0  0  0  0
    3.6475   50.4975   18.6263 H   0  0  0  0  0  0
  1  2  1  0  0  0
  1 28  1  0  0  0
  1 29  1  0  0  0
  1 30  1  0  0  0
  2  3  1  0  0  0
  2 31  1  0  0  0
  3  4  2  0  0  0
  3  5  1  0  0  0
  5  9  1  0  0  0
  5  6  2  0  0  0
  6  7  1  0  0  0
  6 32  1  0  0  0
  7  8  2  0  0  0
  7 33  1  0  0  0
  8  9  1  0  0  0
  8 10  1  0  0  0
 10 11  1  0  0  0
 10 15  1  0  0  0
 10 12  1  0  0  0
 12 13  1  0  0  0
 12 34  1  0  0  0
 12 35  1  0  0  0
 13 14  1  0  0  0
 13 36  1  0  0  0
 13 37  1  0  0  0
 14 15  1  0  0  0
 14 38  1  0  0  0
 14 39  1  0  0  0
 15 16  1  0  0  0
 16 21  2  0  0  0
 16 17  1  0  0  0
 17 18  2  0  0  0
 17 40  1  0  0  0
 18 19  1  0  0  0
 18 22  1  0  0  0
 19 20  2  0  0  0
 20 21  1  0  0  0
 20 41  1  0  0  0
 22 27  1  0  0  0
 22 23  1  0  0  0
 22 42  1  0  0  0
 23 24  1  0  0  0
 23 43  1  0  0  0
 23 44  1  0  0  0
 24 25  1  0  0  0
 24 45  1  0  0  0
 24 46  1  0  0  0
 25 26  1  0  0  0
 25 47  1  0  0  0
 25 52  1  0  0  0
 26 27  1  0  0  0
 26 48  1  0  0  0
 26 49  1  0  0  0
 27 50  1  0  0  0
 27 51  1  0  0  0
M  CHG  1  25   1
M  END
> <i_i_glide_confnum>
39

> <i_i_glide_lignum>
1322

> <i_i_glide_posenum>
216

> <i_i_glide_rotatable_bonds>
5

> <i_m_Source_File_Index>
1190

> <b_m_subgroup_collapsed>
0

> <r_i_docking_score>
-7.21368

> <r_i_glide_ecoul>
-6.26262

> <r_i_glide_eff_state_penalty>
0

> <r_i_glide_einternal>
8.30087

> <r_i_glide_emodel>
-63.3629

> <r_i_glide_energy>
-44.5061

> <r_i_glide_erotb>
0.556775

> <r_i_glide_esite>
-0.1

> <r_i_glide_evdw>
-38.2435

> <r_i_glide_gscore>
-7.21368

> <r_i_glide_hbond>
-0.527383

> <r_i_glide_ligand_efficiency>
-0.277449

> <r_i_glide_ligand_efficiency_ln>
-1.69411

> <r_i_glide_ligand_efficiency_sa>
-0.821942

> <r_i_glide_lipo>
-2.76848

> <r_i_glide_metal>
0

> <r_i_glide_rewards>
-1.52302

> <s_i_glide_gridfile>
wee1_glide-grid

> <s_m_Source_File>
wee1_decoys_glide_SP.sdf

> <s_m_Source_Path>
/Users/zhangxujun/Desktop

> <s_m_entry_id>
1465

> <s_m_entry_name>
wee1_decoys_glide_SP.1190

> <s_m_subgroup_title>
wee1_decoys_glide_SP

> <s_m_subgroupid>
wee1_decoys_glide_SP


$$$$
