ZINC39669848_387
                    3D
 Schrodinger Suite 2024-2.
 69 73  0  0  1  0            999 V2000
    2.1762   52.5764   30.1294 C   0  0  0  0  0  0
    2.2141   53.8330   29.4631 O   0  0  0  0  0  0
    3.2963   54.0184   28.6398 C   0  0  0  0  0  0
    4.5770   54.1668   29.1805 C   0  0  0  0  0  0
    5.6977   54.3736   28.3735 C   0  0  0  0  0  0
    5.5066   54.4612   26.9897 C   0  0  0  0  0  0
    6.4262   54.6894   25.9974 N   0  0  0  0  0  0
    5.7227   54.7019   24.8913 C   0  0  0  0  0  0
    3.6854   54.4895   24.3792 H   0  0  0  0  0  0
    4.3787   54.4949   25.1108 N   0  0  0  0  0  0
    4.1983   54.3272   26.4606 C   0  0  0  0  0  0
    3.0767   54.0979   27.2630 C   0  0  0  0  0  0
    6.3042   55.0144   23.5242 C   0  0  0  0  0  0
    5.5705   54.3315   22.3361 C   0  0  0  0  0  0
    5.7135   54.9224   20.9957 N   0  0  0  0  0  0
    6.7020   55.6966   20.5049 C   0  0  0  0  0  0
    7.6398   56.0854   21.1943 O   0  0  0  0  0  0
    6.6256   56.2158   19.0430 C   0  0  2  0  0  0
    6.5155   57.2994   19.1210 H   0  0  0  0  0  0
    5.3718   55.7104   18.2941 C   0  0  0  0  0  0
    5.7480   55.9146   16.8917 N   0  0  0  0  0  0
    7.1975   56.0834   16.7330 C   0  0  0  0  0  0
    7.8180   55.8183   18.1254 C   0  0  0  0  0  0
    8.2402   54.3202   18.2711 C   0  0  0  0  0  0
    9.3377   53.9043   17.2673 C   0  0  0  0  0  0
   10.5509   54.8473   17.4453 N   0  3  0  0  0  0
   10.2022   56.3503   17.3652 C   0  0  0  0  0  0
    9.1047   56.6372   18.4079 C   0  0  0  0  0  0
    4.8949   56.2763   15.8971 C   0  0  0  0  0  0
    5.2926   56.6709   14.7990 O   0  0  0  0  0  0
    3.4068   56.2222   16.1530 C   0  0  0  0  0  0
    2.7990   55.0651   16.6555 C   0  0  0  0  0  0
    1.4246   55.0376   16.8816 C   0  0  0  0  0  0
    0.6421   56.1684   16.6233 C   0  0  0  0  0  0
    1.2454   57.3095   16.0874 C   0  0  0  0  0  0
    2.6164   57.3360   15.8482 C   0  0  0  0  0  0
   -0.8520   56.1898   16.9540 C   0  0  0  0  0  0
   -1.2356   55.1251   17.6617 F   0  0  0  0  0  0
   -1.1518   57.2784   17.6669 F   0  0  0  0  0  0
   -1.5568   56.2172   15.8234 F   0  0  0  0  0  0
    1.2406   52.4863   30.6826 H   0  0  0  0  0  0
    2.2228   51.7453   29.4227 H   0  0  0  0  0  0
    2.9936   52.4727   30.8450 H   0  0  0  0  0  0
    4.7042   54.1318   30.2498 H   0  0  0  0  0  0
    6.6812   54.4923   28.8066 H   0  0  0  0  0  0
    2.0827   54.0005   26.8552 H   0  0  0  0  0  0
    7.3555   54.7257   23.4888 H   0  0  0  0  0  0
    6.3048   56.0959   23.4025 H   0  0  0  0  0  0
    4.4945   54.3650   22.5090 H   0  0  0  0  0  0
    5.8271   53.2709   22.3021 H   0  0  0  0  0  0
    4.9625   54.6977   20.3608 H   0  0  0  0  0  0
    4.4923   56.2681   18.6246 H   0  0  0  0  0  0
    5.2915   54.6334   18.4505 H   0  0  0  0  0  0
    7.6506   55.5635   15.8900 H   0  0  0  0  0  0
    7.3489   57.1463   16.5300 H   0  0  0  0  0  0
    8.5755   54.0971   19.2819 H   0  0  0  0  0  0
    7.3776   53.6722   18.1066 H   0  0  0  0  0  0
    9.7053   52.8935   17.4613 H   0  0  0  0  0  0
    9.0296   53.9669   16.2224 H   0  0  0  0  0  0
   10.9646   54.6835   18.3561 H   0  0  0  0  0  0
   11.1270   56.8870   17.5849 H   0  0  0  0  0  0
    9.9014   56.5612   16.3371 H   0  0  0  0  0  0
    8.8716   57.7017   18.3549 H   0  0  0  0  0  0
    9.4761   56.4761   19.4222 H   0  0  0  0  0  0
    3.3841   54.1820   16.8727 H   0  0  0  0  0  0
    0.9807   54.1417   17.2921 H   0  0  0  0  0  0
    0.6587   58.1945   15.8839 H   0  0  0  0  0  0
    3.0635   58.2374   15.4486 H   0  0  0  0  0  0
   11.2641   54.6206   16.7651 H   0  0  0  0  0  0
  1  2  1  0  0  0
  1 41  1  0  0  0
  1 42  1  0  0  0
  1 43  1  0  0  0
  2  3  1  0  0  0
  3 12  2  0  0  0
  3  4  1  0  0  0
  4 44  1  0  0  0
  4  5  2  0  0  0
  5 45  1  0  0  0
  5  6  1  0  0  0
  6 11  2  0  0  0
  6  7  1  0  0  0
  7  8  2  0  0  0
  8 13  1  0  0  0
  8 10  1  0  0  0
  9 10  1  0  0  0
 10 11  1  0  0  0
 11 12  1  0  0  0
 12 46  1  0  0  0
 13 14  1  0  0  0
 13 47  1  0  0  0
 13 48  1  0  0  0
 14 15  1  0  0  0
 14 49  1  0  0  0
 14 50  1  0  0  0
 15 16  1  0  0  0
 15 51  1  0  0  0
 16 17  2  0  0  0
 16 18  1  0  0  0
 18 19  1  0  0  0
 18 23  1  0  0  0
 18 20  1  0  0  0
 20 21  1  0  0  0
 20 52  1  0  0  0
 20 53  1  0  0  0
 21 22  1  0  0  0
 21 29  1  0  0  0
 22 23  1  0  0  0
 22 54  1  0  0  0
 22 55  1  0  0  0
 23 28  1  0  0  0
 23 24  1  0  0  0
 24 25  1  0  0  0
 24 56  1  0  0  0
 24 57  1  0  0  0
 25 26  1  0  0  0
 25 58  1  0  0  0
 25 59  1  0  0  0
 26 27  1  0  0  0
 26 60  1  0  0  0
 26 69  1  0  0  0
 27 28  1  0  0  0
 27 61  1  0  0  0
 27 62  1  0  0  0
 28 63  1  0  0  0
 28 64  1  0  0  0
 29 30  2  0  0  0
 29 31  1  0  0  0
 31 36  2  0  0  0
 31 32  1  0  0  0
 32 33  2  0  0  0
 32 65  1  0  0  0
 33 34  1  0  0  0
 33 66  1  0  0  0
 34 35  2  0  0  0
 34 37  1  0  0  0
 35 36  1  0  0  0
 35 67  1  0  0  0
 36 68  1  0  0  0
 37 38  1  0  0  0
 37 39  1  0  0  0
 37 40  1  0  0  0
M  CHG  1  26   1
M  END
> <i_i_glide_confnum>
86

> <i_i_glide_lignum>
388

> <i_i_glide_posenum>
87

> <i_i_glide_rotatable_bonds>
9

> <i_m_Source_File_Index>
2695

> <b_m_subgroup_collapsed>
0

> <r_i_docking_score>
-5.31602

> <r_i_glide_ecoul>
-6.72311

> <r_i_glide_eff_state_penalty>
0

> <r_i_glide_einternal>
16.5034

> <r_i_glide_emodel>
-57.4752

> <r_i_glide_energy>
-51.8184

> <r_i_glide_erotb>
0.512626

> <r_i_glide_esite>
-0.0383468

> <r_i_glide_evdw>
-45.0953

> <r_i_glide_gscore>
-5.31602

> <r_i_glide_hbond>
-0.0963289

> <r_i_glide_ligand_efficiency>
-0.139895

> <r_i_glide_ligand_efficiency_ln>
-1.14629

> <r_i_glide_ligand_efficiency_sa>
-0.470324

> <r_i_glide_lipo>
-2.47105

> <r_i_glide_metal>
0

> <r_i_glide_rewards>
0.0403093

> <s_i_glide_gridfile>
wee1_glide-grid

> <s_m_Source_File>
wee1_decoys_glide_SP.sdf

> <s_m_Source_Path>
/Users/zhangxujun/Desktop

> <s_m_entry_id>
2970

> <s_m_entry_name>
wee1_decoys_glide_SP.2695

> <s_m_subgroup_title>
wee1_decoys_glide_SP

> <s_m_subgroupid>
wee1_decoys_glide_SP


$$$$
