ZINC20521026_3791
                    3D
 Schrodinger Suite 2024-2.
 34 36  0  0  1  0            999 V2000
    3.4526   54.2257   25.3115 C   0  0  0  0  0  0
    3.4494   54.0970   23.9236 C   0  0  0  0  0  0
    4.6538   54.0471   23.1987 C   0  0  0  0  0  0
    5.8681   54.1506   23.9171 C   0  0  0  0  0  0
    5.8597   54.2982   25.3054 C   0  0  0  0  0  0
    4.6558   54.3292   26.0025 C   0  0  0  0  0  0
    4.6575   54.4967   27.8981 Br  0  0  0  0  0  0
    7.1044   54.0969   23.2817 N   0  0  0  0  0  0
    4.5960   53.8784   21.7808 N   0  0  0  0  0  0
    3.8790   52.8829   21.1654 C   0  0  0  0  0  0
    3.1577   52.0281   21.6818 O   0  0  0  0  0  0
    4.1824   52.9765   19.6818 C   0  0  1  0  0  0
    5.0103   52.2860   19.5003 H   0  0  0  0  0  0
    3.1023   52.6227   18.6368 C   0  0  0  0  0  0
    3.6807   52.8965   17.2176 C   0  0  0  0  0  0
    4.3609   54.2890   17.0640 C   0  0  0  0  0  0
    5.3434   54.6274   18.2191 C   0  0  0  0  0  0
    4.5777   54.4006   19.5347 C   0  0  2  0  0  0
    3.7199   55.0750   19.4702 H   0  0  0  0  0  0
    5.2023   54.7123   20.8757 C   0  0  0  0  0  0
    6.0360   55.5985   21.0736 O   0  0  0  0  0  0
    2.5187   54.2410   25.8528 H   0  0  0  0  0  0
    2.4996   54.0219   23.4126 H   0  0  0  0  0  0
    6.7862   54.3673   25.8546 H   0  0  0  0  0  0
    7.9309   54.3156   23.8276 H   0  0  0  0  0  0
    7.0889   54.4873   22.3458 H   0  0  0  0  0  0
    2.2203   53.2571   18.7457 H   0  0  0  0  0  0
    2.8426   51.5631   18.6752 H   0  0  0  0  0  0
    4.4115   52.1218   16.9797 H   0  0  0  0  0  0
    2.8925   52.7852   16.4721 H   0  0  0  0  0  0
    4.8827   54.3407   16.1074 H   0  0  0  0  0  0
    3.5838   55.0546   17.0189 H   0  0  0  0  0  0
    6.2004   53.9575   18.1253 H   0  0  0  0  0  0
    5.6345   55.6714   18.0945 H   0  0  0  0  0  0
  1  6  2  0  0  0
  1  2  1  0  0  0
  1 22  1  0  0  0
  2  3  2  0  0  0
  2 23  1  0  0  0
  3  4  1  0  0  0
  3  9  1  0  0  0
  4  5  2  0  0  0
  4  8  1  0  0  0
  5  6  1  0  0  0
  5 24  1  0  0  0
  6  7  1  0  0  0
  8 25  1  0  0  0
  8 26  1  0  0  0
  9 20  1  0  0  0
  9 10  1  0  0  0
 10 11  2  0  0  0
 10 12  1  0  0  0
 12 13  1  0  0  0
 12 18  1  0  0  0
 12 14  1  0  0  0
 14 15  1  0  0  0
 14 27  1  0  0  0
 14 28  1  0  0  0
 15 16  1  0  0  0
 15 29  1  0  0  0
 15 30  1  0  0  0
 16 17  1  0  0  0
 16 31  1  0  0  0
 16 32  1  0  0  0
 17 18  1  0  0  0
 17 33  1  0  0  0
 17 34  1  0  0  0
 18 19  1  0  0  0
 18 20  1  0  0  0
 20 21  2  0  0  0
M  END
> <i_i_glide_confnum>
4

> <i_i_glide_lignum>
3792

> <i_i_glide_posenum>
325

> <i_i_glide_rotatable_bonds>
1

> <i_m_Source_File_Index>
4920

> <b_m_subgroup_collapsed>
0

> <r_i_docking_score>
-5.60687

> <r_i_glide_ecoul>
-3.39293

> <r_i_glide_eff_state_penalty>
0

> <r_i_glide_einternal>
1.6181

> <r_i_glide_emodel>
-42.2435

> <r_i_glide_energy>
-31.7074

> <r_i_glide_erotb>
0.179137

> <r_i_glide_esite>
0

> <r_i_glide_evdw>
-28.3144

> <r_i_glide_gscore>
-5.60687

> <r_i_glide_hbond>
-0.27516

> <r_i_glide_ligand_efficiency>
-0.295098

> <r_i_glide_ligand_efficiency_ln>
-1.42146

> <r_i_glide_ligand_efficiency_sa>
-0.787441

> <r_i_glide_lipo>
-1.84952

> <r_i_glide_metal>
0

> <r_i_glide_rewards>
-1.73666

> <s_i_glide_gridfile>
wee1_glide-grid

> <s_m_Source_File>
wee1_decoys_glide_SP.sdf

> <s_m_Source_Path>
/Users/zhangxujun/Desktop

> <s_m_entry_id>
5195

> <s_m_entry_name>
wee1_decoys_glide_SP.4920

> <s_m_subgroup_title>
wee1_decoys_glide_SP

> <s_m_subgroupid>
wee1_decoys_glide_SP


$$$$
