ZINC34857286_4068
                    3D
 Schrodinger Suite 2024-2.
 59 62  0  0  1  0            999 V2000
   -4.8819   51.9017   26.8914 C   0  0  0  0  0  0
   -6.1332   52.4971   26.7731 C   0  0  0  0  0  0
   -6.3801   53.4299   25.7589 C   0  0  0  0  0  0
   -5.3422   53.7735   24.8822 C   0  0  0  0  0  0
   -4.0831   53.1929   25.0135 C   0  0  0  0  0  0
   -3.8527   52.2335   26.0065 C   0  0  0  0  0  0
   -2.5119   51.5595   26.1717 C   0  0  0  0  0  0
   -1.9269   51.6959   27.2471 O   0  0  0  0  0  0
   -2.0493   50.7539   25.1757 N   0  0  0  0  0  0
   -0.8134   49.9698   25.3687 C   0  0  0  0  0  0
    0.2944   50.6436   24.5275 C   0  0  0  0  0  0
   -0.1141   50.8343   23.0400 C   0  0  0  0  0  0
   -1.5122   51.4907   22.9264 C   0  0  0  0  0  0
   -2.5599   50.7419   23.7926 C   0  0  0  0  0  0
    0.9330   51.7156   22.3428 N   0  3  0  0  0  0
    2.1107   50.8191   21.9117 C   0  0  1  0  0  0
    2.5967   50.4865   22.8314 H   0  0  0  0  0  0
    1.4725   49.6429   21.1668 C   0  0  0  0  0  0
   -0.0401   49.2832   22.0978 S   0  0  0  0  0  0
    3.2005   51.5254   21.0850 C   0  0  0  0  0  0
    4.2481   50.9207   20.8817 O   0  0  0  0  0  0
    2.9943   52.7925   20.6757 N   0  0  0  0  0  0
    3.9784   53.6629   20.0268 C   0  0  0  0  0  0
    5.3301   53.8800   20.7475 C   0  0  0  0  0  0
    5.3950   54.3119   22.2290 C   0  0  0  0  0  0
    4.3441   54.0964   23.1398 C   0  0  0  0  0  0
    4.4917   54.3680   24.4994 C   0  0  0  0  0  0
    5.6849   54.8983   24.9736 C   0  0  0  0  0  0
    6.7040   55.1950   24.0789 C   0  0  0  0  0  0
    6.5768   54.8983   22.7209 C   0  0  0  0  0  0
    7.9027   55.2972   21.6784 Cl  0  0  0  0  0  0
    5.9089   55.1975   26.6564 Cl  0  0  0  0  0  0
   -7.7214   54.0389   25.6154 N   0  3  0  0  0  0
   -8.0376   54.4998   24.5241 O   0  0  0  0  0  0
   -8.4599   54.0575   26.5946 O   0  5  0  0  0  0
   -4.7164   51.1735   27.6755 H   0  0  0  0  0  0
   -6.9155   52.2149   27.4648 H   0  0  0  0  0  0
   -5.5110   54.4933   24.0922 H   0  0  0  0  0  0
   -3.2979   53.4876   24.3358 H   0  0  0  0  0  0
   -1.0093   48.9639   24.9937 H   0  0  0  0  0  0
   -0.5632   49.8086   26.4217 H   0  0  0  0  0  0
    1.1964   50.0378   24.6093 H   0  0  0  0  0  0
    0.5368   51.6014   24.9906 H   0  0  0  0  0  0
   -1.4700   52.5355   23.2366 H   0  0  0  0  0  0
   -1.8483   51.5057   21.8882 H   0  0  0  0  0  0
   -2.6132   49.6941   23.4910 H   0  0  0  0  0  0
   -3.5925   51.0743   23.6871 H   0  0  0  0  0  0
    1.2206   52.4721   22.9476 H   0  0  0  0  0  0
    1.1919   49.8943   20.1410 H   0  0  0  0  0  0
    2.1183   48.7630   21.1433 H   0  0  0  0  0  0
    2.0822   53.2119   20.7669 H   0  0  0  0  0  0
    3.5046   54.6395   19.9836 H   0  0  0  0  0  0
    4.1380   53.3255   19.0011 H   0  0  0  0  0  0
    5.8671   54.6102   20.1417 H   0  0  0  0  0  0
    5.9017   52.9611   20.6519 H   0  0  0  0  0  0
    3.3991   53.6911   22.8404 H   0  0  0  0  0  0
    3.6844   54.1586   25.1860 H   0  0  0  0  0  0
    7.6085   55.6499   24.4486 H   0  0  0  0  0  0
    0.5031   52.1188   21.5243 H   0  0  0  0  0  0
  1  6  2  0  0  0
  1  2  1  0  0  0
  1 36  1  0  0  0
  2  3  2  0  0  0
  2 37  1  0  0  0
  3  4  1  0  0  0
  3 33  1  0  0  0
  4  5  2  0  0  0
  4 38  1  0  0  0
  5  6  1  0  0  0
  5 39  1  0  0  0
  6  7  1  0  0  0
  7  8  2  0  0  0
  7  9  1  0  0  0
  9 14  1  0  0  0
  9 10  1  0  0  0
 10 11  1  0  0  0
 10 40  1  0  0  0
 10 41  1  0  0  0
 11 12  1  0  0  0
 11 42  1  0  0  0
 11 43  1  0  0  0
 12 19  1  0  0  0
 12 13  1  0  0  0
 12 15  1  0  0  0
 13 14  1  0  0  0
 13 44  1  0  0  0
 13 45  1  0  0  0
 14 46  1  0  0  0
 14 47  1  0  0  0
 15 16  1  0  0  0
 15 48  1  0  0  0
 15 59  1  0  0  0
 16 17  1  0  0  0
 16 18  1  0  0  0
 16 20  1  0  0  0
 18 19  1  0  0  0
 18 49  1  0  0  0
 18 50  1  0  0  0
 20 21  2  0  0  0
 20 22  1  0  0  0
 22 23  1  0  0  0
 22 51  1  0  0  0
 23 24  1  0  0  0
 23 52  1  0  0  0
 23 53  1  0  0  0
 24 25  1  0  0  0
 24 54  1  0  0  0
 24 55  1  0  0  0
 25 30  2  0  0  0
 25 26  1  0  0  0
 26 27  2  0  0  0
 26 56  1  0  0  0
 27 28  1  0  0  0
 27 57  1  0  0  0
 28 29  2  0  0  0
 28 32  1  0  0  0
 29 30  1  0  0  0
 29 58  1  0  0  0
 30 31  1  0  0  0
 33 34  2  0  0  0
 33 35  1  0  0  0
M  CHG  3  15   1  33   1  35  -1
M  END
> <i_i_glide_confnum>
165

> <i_i_glide_lignum>
4069

> <i_i_glide_posenum>
36

> <i_i_glide_rotatable_bonds>
8

> <i_m_Source_File_Index>
2177

> <b_m_subgroup_collapsed>
0

> <r_i_docking_score>
-4.58522

> <r_i_glide_ecoul>
-3.367

> <r_i_glide_eff_state_penalty>
0

> <r_i_glide_einternal>
8.84909

> <r_i_glide_emodel>
-51.7106

> <r_i_glide_energy>
-41.342

> <r_i_glide_erotb>
0.44888

> <r_i_glide_esite>
-0.071284

> <r_i_glide_evdw>
-37.975

> <r_i_glide_gscore>
-4.58522

> <r_i_glide_hbond>
-0.188642

> <r_i_glide_ligand_efficiency>
-0.134859

> <r_i_glide_ligand_efficiency_ln>
-1.013

> <r_i_glide_ligand_efficiency_sa>
-0.436892

> <r_i_glide_lipo>
-2.25652

> <r_i_glide_metal>
0

> <r_i_glide_rewards>
-0.113849

> <s_i_glide_gridfile>
wee1_glide-grid

> <s_m_Source_File>
wee1_decoys_glide_SP.sdf

> <s_m_Source_Path>
/Users/zhangxujun/Desktop

> <s_m_entry_id>
2452

> <s_m_entry_name>
wee1_decoys_glide_SP.2177

> <s_m_subgroup_title>
wee1_decoys_glide_SP

> <s_m_subgroupid>
wee1_decoys_glide_SP


$$$$
