ZINC40946590_2562
                    3D
 Schrodinger Suite 2024-2.
 53 55  0  0  1  0            999 V2000
    4.9955   52.9188   21.8603 C   0  0  0  0  0  0
    5.1466   54.4212   22.2052 C   0  0  2  0  0  0
    4.1661   54.8966   22.1561 H   0  0  0  0  0  0
    5.9839   55.2474   21.1948 C   0  0  0  0  0  0
    6.7800   56.0967   21.6005 O   0  0  0  0  0  0
    5.7731   54.9820   19.8875 N   0  0  0  0  0  0
    6.2282   55.6889   18.7748 C   0  0  0  0  0  0
    6.2476   55.2146   17.4393 C   0  0  0  0  0  0
    6.5304   56.2708   16.5480 C   0  0  0  0  0  0
    6.8226   57.4640   17.1680 C   0  0  0  0  0  0
    6.7081   57.3775   18.8817 S   0  0  0  0  0  0
    7.1608   58.5663   16.2033 C   0  0  0  0  0  0
    7.3654   57.7692   14.9045 C   0  0  0  0  0  0
    6.5813   56.4533   15.0490 C   0  0  0  0  0  0
    5.9039   53.8770   16.9942 C   0  0  0  0  0  0
    5.3657   53.6598   15.9130 O   0  0  0  0  0  0
    6.2056   52.8968   17.8494 N   0  0  0  0  0  0
    5.7068   54.5836   23.5166 O   0  0  0  0  0  0
    4.9551   54.3587   24.6550 C   0  0  0  0  0  0
    5.6242   54.4933   25.8685 C   0  0  0  0  0  0
    4.9660   54.2566   27.0720 C   0  0  0  0  0  0
    3.6191   53.8623   27.0906 C   0  0  0  0  0  0
    2.9453   53.7489   25.8649 C   0  0  0  0  0  0
    3.5975   54.0126   24.6635 C   0  0  0  0  0  0
    2.9043   53.5962   28.4415 C   0  0  0  0  0  0
    1.5806   52.7998   28.2816 C   0  0  0  0  0  0
    2.5820   54.9529   29.1085 C   0  0  0  0  0  0
    3.8015   52.7587   29.3899 C   0  0  0  0  0  0
    4.7288   52.7384   20.8190 H   0  0  0  0  0  0
    5.9044   52.3626   22.0811 H   0  0  0  0  0  0
    4.2002   52.4730   22.4524 H   0  0  0  0  0  0
    5.2561   54.1421   19.6707 H   0  0  0  0  0  0
    6.3518   59.2946   16.1159 H   0  0  0  0  0  0
    8.0657   59.1115   16.4726 H   0  0  0  0  0  0
    7.0652   58.3349   14.0216 H   0  0  0  0  0  0
    8.4263   57.5417   14.7860 H   0  0  0  0  0  0
    7.0661   55.6300   14.5231 H   0  0  0  0  0  0
    5.5785   56.5643   14.6337 H   0  0  0  0  0  0
    6.8275   53.0828   18.6171 H   0  0  0  0  0  0
    5.9029   51.9322   17.6818 H   0  0  0  0  0  0
    6.6663   54.7753   25.8729 H   0  0  0  0  0  0
    5.5211   54.3850   27.9886 H   0  0  0  0  0  0
    1.9046   53.4704   25.8164 H   0  0  0  0  0  0
    3.0313   53.9198   23.7510 H   0  0  0  0  0  0
    1.1354   52.5598   29.2484 H   0  0  0  0  0  0
    1.7420   51.8543   27.7610 H   0  0  0  0  0  0
    0.8234   53.3573   27.7301 H   0  0  0  0  0  0
    3.4846   55.5400   29.2832 H   0  0  0  0  0  0
    1.9231   55.5566   28.4823 H   0  0  0  0  0  0
    2.0848   54.8237   30.0709 H   0  0  0  0  0  0
    4.7048   53.2904   29.6821 H   0  0  0  0  0  0
    3.2840   52.5027   30.3155 H   0  0  0  0  0  0
    4.1097   51.8230   28.9219 H   0  0  0  0  0  0
  1  2  1  0  0  0
  1 29  1  0  0  0
  1 30  1  0  0  0
  1 31  1  0  0  0
  2  3  1  0  0  0
  2  4  1  0  0  0
  2 18  1  0  0  0
  4  5  2  0  0  0
  4  6  1  0  0  0
  6  7  1  0  0  0
  6 32  1  0  0  0
  7 11  1  0  0  0
  7  8  2  0  0  0
  8  9  1  0  0  0
  8 15  1  0  0  0
  9 14  1  0  0  0
  9 10  2  0  0  0
 10 11  1  0  0  0
 10 12  1  0  0  0
 12 13  1  0  0  0
 12 33  1  0  0  0
 12 34  1  0  0  0
 13 14  1  0  0  0
 13 35  1  0  0  0
 13 36  1  0  0  0
 14 37  1  0  0  0
 14 38  1  0  0  0
 15 16  2  0  0  0
 15 17  1  0  0  0
 17 39  1  0  0  0
 17 40  1  0  0  0
 18 19  1  0  0  0
 19 24  2  0  0  0
 19 20  1  0  0  0
 20 21  2  0  0  0
 20 41  1  0  0  0
 21 22  1  0  0  0
 21 42  1  0  0  0
 22 23  2  0  0  0
 22 25  1  0  0  0
 23 24  1  0  0  0
 23 43  1  0  0  0
 24 44  1  0  0  0
 25 26  1  0  0  0
 25 27  1  0  0  0
 25 28  1  0  0  0
 26 45  1  0  0  0
 26 46  1  0  0  0
 26 47  1  0  0  0
 27 48  1  0  0  0
 27 49  1  0  0  0
 27 50  1  0  0  0
 28 51  1  0  0  0
 28 52  1  0  0  0
 28 53  1  0  0  0
M  END
> <i_i_glide_confnum>
25

> <i_i_glide_lignum>
2563

> <i_i_glide_posenum>
219

> <i_i_glide_rotatable_bonds>
7

> <i_m_Source_File_Index>
1769

> <b_m_subgroup_collapsed>
0

> <r_i_docking_score>
-5.57962

> <r_i_glide_ecoul>
-3.51371

> <r_i_glide_eff_state_penalty>
0

> <r_i_glide_einternal>
12.1201

> <r_i_glide_emodel>
-45.2598

> <r_i_glide_energy>
-36.7691

> <r_i_glide_erotb>
0.651458

> <r_i_glide_esite>
-0.116497

> <r_i_glide_evdw>
-33.2554

> <r_i_glide_gscore>
-5.57962

> <r_i_glide_hbond>
-0.16

> <r_i_glide_ligand_efficiency>
-0.206653

> <r_i_glide_ligand_efficiency_ln>
-1.29884

> <r_i_glide_ligand_efficiency_sa>
-0.619958

> <r_i_glide_lipo>
-2.69102

> <r_i_glide_metal>
0

> <r_i_glide_rewards>
-1.07373

> <s_i_glide_gridfile>
wee1_glide-grid

> <s_m_Source_File>
wee1_decoys_glide_SP.sdf

> <s_m_Source_Path>
/Users/zhangxujun/Desktop

> <s_m_entry_id>
2044

> <s_m_entry_name>
wee1_decoys_glide_SP.1769

> <s_m_subgroup_title>
wee1_decoys_glide_SP

> <s_m_subgroupid>
wee1_decoys_glide_SP


$$$$
