ZINC39894589_4344
                    3D
 Schrodinger Suite 2024-2.
 50 52  0  0  1  0            999 V2000
   -1.8128   48.0681   25.4973 C   0  0  0  0  0  0
   -0.9053   48.7481   24.6393 O   0  0  0  0  0  0
   -1.3330   49.7558   23.8359 C   0  0  0  0  0  0
   -2.5113   50.1190   23.7676 O   0  0  0  0  0  0
   -0.2318   50.3905   23.0399 C   0  0  0  0  0  0
   -0.5349   51.4606   22.1859 C   0  0  0  0  0  0
    0.4663   52.0834   21.4453 C   0  0  0  0  0  0
    1.7893   51.6522   21.5440 C   0  0  0  0  0  0
    2.0990   50.5743   22.3853 C   0  0  0  0  0  0
    1.0983   49.9521   23.1285 C   0  0  0  0  0  0
    2.7343   52.3864   20.8000 N   0  0  0  0  0  0
    4.0346   52.1053   20.5542 C   0  0  0  0  0  0
    4.5885   51.0636   20.8830 O   0  0  0  0  0  0
    4.8841   53.1906   19.8455 C   0  0  1  0  0  0
    5.9006   52.7889   19.7785 H   0  0  0  0  0  0
    4.3117   53.3756   18.4045 C   0  0  0  0  0  0
    4.7829   54.6707   17.7559 C   0  0  0  0  0  0
    5.4146   55.6628   18.4065 C   0  0  0  0  0  0
    5.6941   55.6649   19.8997 C   0  0  0  0  0  0
    4.8881   54.5514   20.6325 C   0  0  2  0  0  0
    3.8545   54.8914   20.7167 H   0  0  0  0  0  0
    5.3787   54.4244   22.1076 C   0  0  0  0  0  0
    6.5628   54.6110   22.3871 O   0  0  0  0  0  0
    4.4173   54.1640   23.0229 N   0  0  0  0  0  0
    4.4873   54.1322   24.4292 C   0  0  0  0  0  0
    3.2585   54.0191   25.0864 C   0  0  0  0  0  0
    3.2076   54.0058   26.4774 C   0  0  0  0  0  0
    4.3842   54.1009   27.2169 C   0  0  0  0  0  0
    5.6164   54.2063   26.5727 C   0  0  0  0  0  0
    5.6714   54.2226   25.1804 C   0  0  0  0  0  0
    4.3049   54.1004   29.1177 Br  0  0  0  0  0  0
   -1.2882   47.3103   26.0807 H   0  0  0  0  0  0
   -2.5984   47.5691   24.9264 H   0  0  0  0  0  0
   -2.2850   48.7606   26.1968 H   0  0  0  0  0  0
   -1.5502   51.8226   22.0912 H   0  0  0  0  0  0
    0.2083   52.8996   20.7869 H   0  0  0  0  0  0
    3.1044   50.2060   22.4996 H   0  0  0  0  0  0
    1.3799   49.1315   23.7760 H   0  0  0  0  0  0
    2.3704   53.2232   20.3677 H   0  0  0  0  0  0
    4.5228   52.4993   17.7864 H   0  0  0  0  0  0
    3.2239   53.4738   18.4135 H   0  0  0  0  0  0
    4.6210   54.7962   16.6941 H   0  0  0  0  0  0
    5.7207   56.5236   17.8267 H   0  0  0  0  0  0
    5.5076   56.6420   20.3472 H   0  0  0  0  0  0
    6.7684   55.4908   19.9923 H   0  0  0  0  0  0
    3.4904   54.0192   22.6520 H   0  0  0  0  0  0
    2.3352   53.9451   24.5286 H   0  0  0  0  0  0
    2.2560   53.9220   26.9839 H   0  0  0  0  0  0
    6.5251   54.2715   27.1549 H   0  0  0  0  0  0
    6.6411   54.2956   24.7157 H   0  0  0  0  0  0
  1  2  1  0  0  0
  1 32  1  0  0  0
  1 33  1  0  0  0
  1 34  1  0  0  0
  2  3  1  0  0  0
  3  4  2  0  0  0
  3  5  1  0  0  0
  5 10  2  0  0  0
  5  6  1  0  0  0
  6  7  2  0  0  0
  6 35  1  0  0  0
  7  8  1  0  0  0
  7 36  1  0  0  0
  8  9  2  0  0  0
  8 11  1  0  0  0
  9 10  1  0  0  0
  9 37  1  0  0  0
 10 38  1  0  0  0
 11 12  1  0  0  0
 11 39  1  0  0  0
 12 13  2  0  0  0
 12 14  1  0  0  0
 14 15  1  0  0  0
 14 20  1  0  0  0
 14 16  1  0  0  0
 16 17  1  0  0  0
 16 40  1  0  0  0
 16 41  1  0  0  0
 17 18  2  0  0  0
 17 42  1  0  0  0
 18 19  1  0  0  0
 18 43  1  0  0  0
 19 20  1  0  0  0
 19 44  1  0  0  0
 19 45  1  0  0  0
 20 21  1  0  0  0
 20 22  1  0  0  0
 22 23  2  0  0  0
 22 24  1  0  0  0
 24 25  1  0  0  0
 24 46  1  0  0  0
 25 30  2  0  0  0
 25 26  1  0  0  0
 26 27  2  0  0  0
 26 47  1  0  0  0
 27 28  1  0  0  0
 27 48  1  0  0  0
 28 29  2  0  0  0
 28 31  1  0  0  0
 29 30  1  0  0  0
 29 49  1  0  0  0
 30 50  1  0  0  0
M  END
> <i_i_glide_confnum>
6

> <i_i_glide_lignum>
4345

> <i_i_glide_posenum>
350

> <i_i_glide_rotatable_bonds>
8

> <i_m_Source_File_Index>
1619

> <b_m_subgroup_collapsed>
0

> <r_i_docking_score>
-5.27785

> <r_i_glide_ecoul>
-5.89181

> <r_i_glide_eff_state_penalty>
0

> <r_i_glide_einternal>
6.24438

> <r_i_glide_emodel>
-57.7013

> <r_i_glide_energy>
-45.0579

> <r_i_glide_erotb>
0.67289

> <r_i_glide_esite>
-0.0459373

> <r_i_glide_evdw>
-39.166

> <r_i_glide_gscore>
-5.27785

> <r_i_glide_hbond>
-0.260245

> <r_i_glide_ligand_efficiency>
-0.181995

> <r_i_glide_ligand_efficiency_ln>
-1.20849

> <r_i_glide_ligand_efficiency_sa>
-0.559146

> <r_i_glide_lipo>
-2.18387

> <r_i_glide_metal>
0

> <r_i_glide_rewards>
-0.618614

> <s_i_glide_gridfile>
wee1_glide-grid

> <s_m_Source_File>
wee1_decoys_glide_SP.sdf

> <s_m_Source_Path>
/Users/zhangxujun/Desktop

> <s_m_entry_id>
1894

> <s_m_entry_name>
wee1_decoys_glide_SP.1619

> <s_m_subgroup_title>
wee1_decoys_glide_SP

> <s_m_subgroupid>
wee1_decoys_glide_SP


$$$$
