ZINC20776552_115
                    3D
 Schrodinger Suite 2024-2.
 59 63  0  0  1  0            999 V2000
   -4.1920   49.8598   28.1403 C   0  0  0  0  0  0
   -3.8300   49.3284   26.7367 C   0  0  0  0  0  0
   -5.0782   49.0698   25.8672 C   0  0  0  0  0  0
   -2.9131   50.2559   26.0621 N   0  0  0  0  0  0
   -1.6179   50.0207   25.6812 C   0  0  0  0  0  0
   -1.1117   51.2170   25.1980 C   0  0  0  0  0  0
   -2.2241   52.0722   25.2697 C   0  0  0  0  0  0
   -3.2944   51.5086   25.7790 N   0  0  0  0  0  0
    0.3169   51.5249   24.7859 C   0  0  2  0  0  0
    0.8379   50.6154   24.4759 H   0  0  0  0  0  0
    1.1045   52.2043   25.9014 C   0  0  0  0  0  0
    2.0029   53.2497   25.7660 C   0  0  0  0  0  0
    2.6465   53.4110   27.0406 C   0  0  0  0  0  0
    3.6872   54.2254   27.5166 C   0  0  0  0  0  0
    4.1034   54.0913   28.8419 C   0  0  0  0  0  0
    3.4865   53.1860   29.6991 C   0  0  0  0  0  0
    2.4204   52.3866   29.2833 C   0  0  0  0  0  0
    2.0321   52.4946   27.9434 C   0  0  0  0  0  0
    1.0892   51.7987   27.2162 N   0  0  0  0  0  0
    0.4893   51.0520   27.5393 H   0  0  0  0  0  0
    2.1831   53.9926   24.4587 C   0  0  0  0  0  0
    1.7685   53.0818   23.2795 C   0  0  0  0  0  0
    0.3745   52.4394   23.5244 N   0  3  1  0  0  0
   -0.2257   51.7308   22.2624 C   0  0  0  0  0  0
    0.7689   51.1686   21.2443 C   0  0  0  0  0  0
    1.6562   51.8336   20.3922 C   0  0  0  0  0  0
    2.3169   51.0324   19.4656 C   0  0  0  0  0  0
    1.9128   49.7167   19.5140 C   0  0  0  0  0  0
    0.8189   49.4621   20.8579 S   0  0  0  0  0  0
    2.3043   48.7633   18.5877 N   0  0  0  0  0  0
    1.8636   47.5041   18.4527 C   0  0  0  0  0  0
    1.0849   46.9227   19.2079 O   0  0  0  0  0  0
    2.4124   46.7799   17.2294 C   0  0  0  0  0  0
   -3.2955   50.0260   28.7420 H   0  0  0  0  0  0
   -4.8110   49.1449   28.6827 H   0  0  0  0  0  0
   -4.7421   50.7990   28.0934 H   0  0  0  0  0  0
   -3.2961   48.3867   26.8717 H   0  0  0  0  0  0
   -4.8043   48.6889   24.8827 H   0  0  0  0  0  0
   -5.6617   49.9797   25.7183 H   0  0  0  0  0  0
   -5.7359   48.3338   26.3311 H   0  0  0  0  0  0
   -1.1568   49.0589   25.8648 H   0  0  0  0  0  0
   -2.2423   53.1088   24.9768 H   0  0  0  0  0  0
    4.1860   54.9156   26.8550 H   0  0  0  0  0  0
    4.9263   54.6927   29.2056 H   0  0  0  0  0  0
    3.8494   53.0918   30.7115 H   0  0  0  0  0  0
    1.9381   51.6969   29.9589 H   0  0  0  0  0  0
    1.5798   54.9028   24.4801 H   0  0  0  0  0  0
    3.2188   54.3111   24.3269 H   0  0  0  0  0  0
    1.6729   53.7056   22.3906 H   0  0  0  0  0  0
    2.4707   52.2612   23.1089 H   0  0  0  0  0  0
   -0.9274   50.9718   22.6169 H   0  0  0  0  0  0
   -0.8360   52.5093   21.8108 H   0  0  0  0  0  0
    1.8093   52.8968   20.4092 H   0  0  0  0  0  0
    3.0174   51.4142   18.7335 H   0  0  0  0  0  0
    2.9842   49.0691   17.8896 H   0  0  0  0  0  0
    1.9618   45.7927   17.1303 H   0  0  0  0  0  0
    3.4985   46.6736   17.2961 H   0  0  0  0  0  0
    2.1899   47.3466   16.3243 H   0  0  0  0  0  0
   -0.2420   53.2130   23.7278 H   0  0  0  0  0  0
  1  2  1  0  0  0
  1 34  1  0  0  0
  1 35  1  0  0  0
  1 36  1  0  0  0
  2  3  1  0  0  0
  2  4  1  0  0  0
  2 37  1  0  0  0
  3 38  1  0  0  0
  3 39  1  0  0  0
  3 40  1  0  0  0
  4  8  1  0  0  0
  4  5  1  0  0  0
  5  6  2  0  0  0
  5 41  1  0  0  0
  6  7  1  0  0  0
  6  9  1  0  0  0
  7  8  2  0  0  0
  7 42  1  0  0  0
  9 10  1  0  0  0
  9 23  1  0  0  0
  9 11  1  0  0  0
 11 19  1  0  0  0
 11 12  2  0  0  0
 12 13  1  0  0  0
 12 21  1  0  0  0
 13 18  2  0  0  0
 13 14  1  0  0  0
 14 15  2  0  0  0
 14 43  1  0  0  0
 15 16  1  0  0  0
 15 44  1  0  0  0
 16 17  2  0  0  0
 16 45  1  0  0  0
 17 18  1  0  0  0
 17 46  1  0  0  0
 18 19  1  0  0  0
 19 20  1  0  0  0
 21 22  1  0  0  0
 21 47  1  0  0  0
 21 48  1  0  0  0
 22 23  1  0  0  0
 22 49  1  0  0  0
 22 50  1  0  0  0
 23 24  1  0  0  0
 23 59  1  0  0  0
 24 25  1  0  0  0
 24 51  1  0  0  0
 24 52  1  0  0  0
 25 29  1  0  0  0
 25 26  2  0  0  0
 26 27  1  0  0  0
 26 53  1  0  0  0
 27 28  2  0  0  0
 27 54  1  0  0  0
 28 29  1  0  0  0
 28 30  1  0  0  0
 30 31  1  0  0  0
 30 55  1  0  0  0
 31 32  2  0  0  0
 31 33  1  0  0  0
 33 56  1  0  0  0
 33 57  1  0  0  0
 33 58  1  0  0  0
M  CHG  1  23   1
M  END
> <i_i_glide_confnum>
8

> <i_i_glide_lignum>
116

> <i_i_glide_posenum>
366

> <i_i_glide_rotatable_bonds>
6

> <i_m_Source_File_Index>
1745

> <b_m_subgroup_collapsed>
0

> <r_i_docking_score>
-5.11652

> <r_i_glide_ecoul>
-6.98632

> <r_i_glide_eff_state_penalty>
0

> <r_i_glide_einternal>
12.2437

> <r_i_glide_emodel>
-51.4873

> <r_i_glide_energy>
-42.2068

> <r_i_glide_erotb>
0.421839

> <r_i_glide_esite>
-0.214941

> <r_i_glide_evdw>
-35.2205

> <r_i_glide_gscore>
-5.11652

> <r_i_glide_hbond>
-0.16

> <r_i_glide_ligand_efficiency>
-0.165049

> <r_i_glide_ligand_efficiency_ln>
-1.15393

> <r_i_glide_ligand_efficiency_sa>
-0.518482

> <r_i_glide_lipo>
-1.90895

> <r_i_glide_metal>
0

> <r_i_glide_rewards>
-0.445501

> <s_i_glide_gridfile>
wee1_glide-grid

> <s_m_Source_File>
wee1_decoys_glide_SP.sdf

> <s_m_Source_Path>
/Users/zhangxujun/Desktop

> <s_m_entry_id>
2020

> <s_m_entry_name>
wee1_decoys_glide_SP.1745

> <s_m_subgroup_title>
wee1_decoys_glide_SP

> <s_m_subgroupid>
wee1_decoys_glide_SP


$$$$
