ZINC16751460_5192
                    3D
 Schrodinger Suite 2024-2.
 47 50  0  0  1  0            999 V2000
    9.1020   56.9609   15.7273 C   0  0  0  0  0  0
   10.1145   57.2696   16.6315 C   0  0  0  0  0  0
    9.9446   56.9847   17.9850 C   0  0  0  0  0  0
    8.7663   56.3854   18.4446 C   0  0  0  0  0  0
    7.7551   56.0812   17.5189 C   0  0  0  0  0  0
    7.9206   56.3694   16.1668 C   0  0  0  0  0  0
    8.6189   56.0966   19.8780 C   0  0  0  0  0  0
    7.5457   55.6544   20.3826 N   0  0  0  0  0  0
    7.5044   55.4456   21.7642 N   0  0  0  0  0  0
    6.4270   54.8967   22.4232 C   0  0  0  0  0  0
    6.3047   54.8518   23.7232 N   0  0  0  0  0  0
    5.1375   54.3613   24.1206 C   0  0  0  0  0  0
    4.3007   53.9394   23.0672 C   0  0  0  0  0  0
    5.0870   54.2558   21.5373 S   0  0  0  0  0  0
    3.0188   53.4085   23.1648 N   0  0  0  0  0  0
    2.2820   52.8032   22.2058 C   0  0  0  0  0  0
    2.7108   52.4971   21.0918 O   0  0  0  0  0  0
    0.8627   52.4413   22.5975 C   0  0  0  0  0  0
    0.2972   52.8500   23.8217 C   0  0  0  0  0  0
   -1.0106   52.4999   24.1463 C   0  0  0  0  0  0
   -1.7731   51.7529   23.2532 C   0  0  0  0  0  0
   -1.2365   51.3515   22.0333 C   0  0  0  0  0  0
    0.0731   51.6946   21.7067 C   0  0  0  0  0  0
   -3.5609   51.2782   23.7032 Br  0  0  0  0  0  0
    4.8417   54.2825   25.5923 C   0  0  0  0  0  0
    3.5232   54.3696   26.0560 C   0  0  0  0  0  0
    3.2385   54.2022   27.4070 C   0  0  0  0  0  0
    4.2735   53.9699   28.3057 C   0  0  0  0  0  0
    5.5976   53.9406   27.8709 C   0  0  0  0  0  0
    5.8803   54.0959   26.5155 C   0  0  0  0  0  0
    3.9012   53.6985   29.9666 Cl  0  0  0  0  0  0
    9.2311   57.1816   14.6771 H   0  0  0  0  0  0
   11.0293   57.7273   16.2841 H   0  0  0  0  0  0
   10.7404   57.2371   18.6715 H   0  0  0  0  0  0
    6.8304   55.6208   17.8418 H   0  0  0  0  0  0
    7.1360   56.1327   15.4637 H   0  0  0  0  0  0
    9.4976   56.3020   20.4858 H   0  0  0  0  0  0
    8.3516   55.6958   22.2647 H   0  0  0  0  0  0
    2.6413   53.3703   24.0964 H   0  0  0  0  0  0
    0.8494   53.4474   24.5332 H   0  0  0  0  0  0
   -1.4388   52.8083   25.0901 H   0  0  0  0  0  0
   -1.8300   50.7677   21.3452 H   0  0  0  0  0  0
    0.4710   51.3730   20.7515 H   0  0  0  0  0  0
    2.7042   54.5581   25.3795 H   0  0  0  0  0  0
    2.2163   54.2468   27.7544 H   0  0  0  0  0  0
    6.3996   53.7747   28.5755 H   0  0  0  0  0  0
    6.9074   54.0334   26.1822 H   0  0  0  0  0  0
  1  6  2  0  0  0
  1  2  1  0  0  0
  1 32  1  0  0  0
  2  3  2  0  0  0
  2 33  1  0  0  0
  3  4  1  0  0  0
  3 34  1  0  0  0
  4  5  2  0  0  0
  4  7  1  0  0  0
  5  6  1  0  0  0
  5 35  1  0  0  0
  6 36  1  0  0  0
  7  8  2  0  0  0
  7 37  1  0  0  0
  8  9  1  0  0  0
  9 10  1  0  0  0
  9 38  1  0  0  0
 10 14  1  0  0  0
 10 11  2  0  0  0
 11 12  1  0  0  0
 12 13  2  0  0  0
 12 25  1  0  0  0
 13 14  1  0  0  0
 13 15  1  0  0  0
 15 16  1  0  0  0
 15 39  1  0  0  0
 16 17  2  0  0  0
 16 18  1  0  0  0
 18 23  2  0  0  0
 18 19  1  0  0  0
 19 20  2  0  0  0
 19 40  1  0  0  0
 20 21  1  0  0  0
 20 41  1  0  0  0
 21 22  2  0  0  0
 21 24  1  0  0  0
 22 23  1  0  0  0
 22 42  1  0  0  0
 23 43  1  0  0  0
 25 30  2  0  0  0
 25 26  1  0  0  0
 26 27  2  0  0  0
 26 44  1  0  0  0
 27 28  1  0  0  0
 27 45  1  0  0  0
 28 29  2  0  0  0
 28 31  1  0  0  0
 29 30  1  0  0  0
 29 46  1  0  0  0
 30 47  1  0  0  0
M  END
> <i_i_glide_confnum>
27

> <i_i_glide_lignum>
5193

> <i_i_glide_posenum>
333

> <i_i_glide_rotatable_bonds>
7

> <i_m_Source_File_Index>
5400

> <b_m_subgroup_collapsed>
0

> <r_i_docking_score>
-5.92969

> <r_i_glide_ecoul>
-3.57814

> <r_i_glide_eff_state_penalty>
0

> <r_i_glide_einternal>
1.58056

> <r_i_glide_emodel>
-68.0328

> <r_i_glide_energy>
-48.9537

> <r_i_glide_erotb>
0.469433

> <r_i_glide_esite>
0

> <r_i_glide_evdw>
-45.3756

> <r_i_glide_gscore>
-5.92969

> <r_i_glide_hbond>
-0.297725

> <r_i_glide_ligand_efficiency>
-0.19128

> <r_i_glide_ligand_efficiency_ln>
-1.33733

> <r_i_glide_ligand_efficiency_sa>
-0.600884

> <r_i_glide_lipo>
-2.88537

> <r_i_glide_metal>
0

> <r_i_glide_rewards>
-0.410521

> <s_i_glide_gridfile>
wee1_glide-grid

> <s_m_Source_File>
wee1_decoys_glide_SP.sdf

> <s_m_Source_Path>
/Users/zhangxujun/Desktop

> <s_m_entry_id>
5675

> <s_m_entry_name>
wee1_decoys_glide_SP.5400

> <s_m_subgroup_title>
wee1_decoys_glide_SP

> <s_m_subgroupid>
wee1_decoys_glide_SP


$$$$
