ZINC59310754_3451
                    3D
 Schrodinger Suite 2024-2.
 64 68  0  0  1  0            999 V2000
   -1.2417   44.4707   19.5304 C   0  0  0  0  0  0
   -0.2176   45.0738   18.5881 C   0  0  0  0  0  0
    0.1520   44.4056   17.4203 C   0  0  0  0  0  0
    1.0870   44.9718   16.5579 C   0  0  0  0  0  0
    1.6687   46.2092   16.8508 C   0  0  0  0  0  0
    1.3048   46.8976   18.0249 C   0  0  0  0  0  0
    0.3463   46.3178   18.8753 C   0  0  0  0  0  0
    1.9033   48.1545   18.2725 N   0  0  0  0  0  0
    1.8837   48.9069   19.3959 C   0  0  0  0  0  0
    1.4184   48.5472   20.4764 O   0  0  0  0  0  0
    2.5391   50.2854   19.2806 C   0  0  0  0  0  0
    1.6126   51.6153   20.1389 S   0  0  0  0  0  0
    2.8494   52.3765   21.1566 C   0  0  0  0  0  0
    2.4979   53.2421   22.1046 N   0  0  0  0  0  0
    3.6474   53.5882   22.6261 C   0  0  0  0  0  0
    4.6553   52.9376   21.9818 N   0  0  0  0  0  0
    4.1473   52.1566   21.0331 N   0  0  0  0  0  0
    3.8732   54.3792   23.7266 N   0  0  0  0  0  0
    3.2355   54.0880   24.9376 N   0  0  0  0  0  0
    3.8077   54.2793   26.0668 C   0  0  0  0  0  0
    5.2058   54.8966   26.2305 C   0  0  0  0  0  0
    3.1016   53.8160   27.3836 C   0  0  0  0  0  0
    2.6856   55.0393   28.2659 C   0  0  0  0  0  0
    1.9925   54.5650   29.5724 C   0  0  1  0  0  0
    0.7129   53.7687   29.2152 C   0  0  0  0  0  0
    1.0948   52.5272   28.3701 C   0  0  1  0  0  0
    1.8006   52.9827   27.0736 C   0  0  0  0  0  0
    2.0655   51.6295   29.1681 C   0  0  0  0  0  0
    3.3488   52.4218   29.5216 C   0  0  2  0  0  0
    2.9582   53.6469   30.3683 C   0  0  0  0  0  0
    4.0610   52.9339   28.2454 C   0  0  0  0  0  0
    2.7053   46.7647   15.8822 C   0  0  0  0  0  0
   -1.8388   43.7027   19.0372 H   0  0  0  0  0  0
   -0.7514   44.0413   20.4050 H   0  0  0  0  0  0
   -1.9328   45.2379   19.8791 H   0  0  0  0  0  0
   -0.2884   43.4516   17.1731 H   0  0  0  0  0  0
    1.3623   44.4386   15.6598 H   0  0  0  0  0  0
    0.0110   46.8209   19.7687 H   0  0  0  0  0  0
    2.4945   48.4994   17.5236 H   0  0  0  0  0  0
    2.7014   50.5707   18.2396 H   0  0  0  0  0  0
    3.5161   50.1546   19.7174 H   0  0  0  0  0  0
    4.8111   54.7122   23.8878 H   0  0  0  0  0  0
    5.9326   54.1398   26.5216 H   0  0  0  0  0  0
    5.5835   55.3659   25.3236 H   0  0  0  0  0  0
    5.2138   55.6740   26.9892 H   0  0  0  0  0  0
    2.0094   55.6977   27.7260 H   0  0  0  0  0  0
    3.5455   55.6480   28.5327 H   0  0  0  0  0  0
    1.7234   55.4328   30.1786 H   0  0  0  0  0  0
    0.1908   53.4599   30.1231 H   0  0  0  0  0  0
    0.0150   54.3983   28.6617 H   0  0  0  0  0  0
    0.1954   51.9611   28.1213 H   0  0  0  0  0  0
    2.0330   52.1029   26.4708 H   0  0  0  0  0  0
    1.1042   53.5752   26.4767 H   0  0  0  0  0  0
    2.3045   50.7320   28.5957 H   0  0  0  0  0  0
    1.5735   51.2969   30.0788 H   0  0  0  0  0  0
    4.0327   51.7858   30.0875 H   0  0  0  0  0  0
    2.4706   53.2947   31.2786 H   0  0  0  0  0  0
    3.8637   54.1885   30.6505 H   0  0  0  0  0  0
    4.9504   53.4928   28.5425 H   0  0  0  0  0  0
    4.4334   52.0986   27.6750 H   0  0  0  0  0  0
    2.8792   46.1093   15.0283 H   0  0  0  0  0  0
    2.3969   47.7399   15.5081 H   0  0  0  0  0  0
    3.6529   46.8958   16.4042 H   0  0  0  0  0  0
    5.6389   53.0051   22.1886 H   0  0  0  0  0  0
  1  2  1  0  0  0
  1 33  1  0  0  0
  1 34  1  0  0  0
  1 35  1  0  0  0
  2  7  2  0  0  0
  2  3  1  0  0  0
  3  4  2  0  0  0
  3 36  1  0  0  0
  4  5  1  0  0  0
  4 37  1  0  0  0
  5  6  2  0  0  0
  5 32  1  0  0  0
  6  7  1  0  0  0
  6  8  1  0  0  0
  7 38  1  0  0  0
  8  9  1  0  0  0
  8 39  1  0  0  0
  9 10  2  0  0  0
  9 11  1  0  0  0
 11 12  1  0  0  0
 11 40  1  0  0  0
 11 41  1  0  0  0
 12 13  1  0  0  0
 13 17  2  0  0  0
 13 14  1  0  0  0
 14 15  2  0  0  0
 15 16  1  0  0  0
 15 18  1  0  0  0
 16 17  1  0  0  0
 16 64  1  0  0  0
 18 19  1  0  0  0
 18 42  1  0  0  0
 19 20  2  0  0  0
 20 21  1  0  0  0
 20 22  1  0  0  0
 21 43  1  0  0  0
 21 44  1  0  0  0
 21 45  1  0  0  0
 22 27  1  0  0  0
 22 31  1  0  0  0
 22 23  1  0  0  0
 23 24  1  0  0  0
 23 46  1  0  0  0
 23 47  1  0  0  0
 24 30  1  0  0  0
 24 25  1  0  0  0
 24 48  1  0  0  0
 25 26  1  0  0  0
 25 49  1  0  0  0
 25 50  1  0  0  0
 26 27  1  0  0  0
 26 28  1  0  0  0
 26 51  1  0  0  0
 27 52  1  0  0  0
 27 53  1  0  0  0
 28 29  1  0  0  0
 28 54  1  0  0  0
 28 55  1  0  0  0
 29 30  1  0  0  0
 29 31  1  0  0  0
 29 56  1  0  0  0
 30 57  1  0  0  0
 30 58  1  0  0  0
 31 59  1  0  0  0
 31 60  1  0  0  0
 32 61  1  0  0  0
 32 62  1  0  0  0
 32 63  1  0  0  0
M  END
> <i_i_glide_confnum>
7

> <i_i_glide_lignum>
3452

> <i_i_glide_posenum>
185

> <i_i_glide_rotatable_bonds>
8

> <i_m_Source_File_Index>
3443

> <b_m_subgroup_collapsed>
0

> <r_i_docking_score>
-4.77631

> <r_i_glide_ecoul>
-1.9532

> <r_i_glide_eff_state_penalty>
0

> <r_i_glide_einternal>
5.8989

> <r_i_glide_emodel>
-52.1202

> <r_i_glide_energy>
-40.4279

> <r_i_glide_erotb>
0.685662

> <r_i_glide_esite>
-0.145403

> <r_i_glide_evdw>
-38.4747

> <r_i_glide_gscore>
-4.77631

> <r_i_glide_hbond>
-0.16

> <r_i_glide_ligand_efficiency>
-0.14926

> <r_i_glide_ligand_efficiency_ln>
-1.06955

> <r_i_glide_ligand_efficiency_sa>
-0.47387

> <r_i_glide_lipo>
-2.02683

> <r_i_glide_metal>
0

> <r_i_glide_rewards>
-0.913016

> <s_i_glide_gridfile>
wee1_glide-grid

> <s_m_Source_File>
wee1_decoys_glide_SP.sdf

> <s_m_Source_Path>
/Users/zhangxujun/Desktop

> <s_m_entry_id>
3718

> <s_m_entry_name>
wee1_decoys_glide_SP.3443

> <s_m_subgroup_title>
wee1_decoys_glide_SP

> <s_m_subgroupid>
wee1_decoys_glide_SP


$$$$
