ZINC49540763_4742
                    3D
 Schrodinger Suite 2024-2.
 34 37  0  0  1  0            999 V2000
    0.5427   52.3645   30.2686 C   0  0  0  0  0  0
    1.8185   52.8457   30.5509 C   0  0  0  0  0  0
    2.6396   53.2517   29.4872 C   0  0  0  0  0  0
    2.1730   53.1519   28.1396 C   0  0  0  0  0  0
    0.8885   52.6399   27.8851 C   0  0  0  0  0  0
    0.0922   52.2440   28.9585 C   0  0  0  0  0  0
   -1.1637   51.6966   28.7166 N   0  0  0  0  0  0
    3.2482   53.6395   27.3353 C   0  0  0  0  0  0
    4.2071   53.9864   28.2699 N   0  0  0  0  0  0
    3.9016   53.7646   29.5594 N   0  0  0  0  0  0
    5.1005   54.3894   28.0296 H   0  0  0  0  0  0
    3.3640   53.8155   25.9061 C   0  0  0  0  0  0
    2.3576   53.6969   25.2075 O   0  0  0  0  0  0
    4.6054   54.0973   25.4425 N   0  0  0  0  0  0
    4.9894   54.2748   24.1144 C   0  0  0  0  0  0
    6.1807   54.7512   23.8184 N   0  0  0  0  0  0
    6.3101   54.8966   22.5130 C   0  0  0  0  0  0
    5.2620   54.4970   21.7246 C   0  0  0  0  0  0
    3.9789   53.9015   22.7182 S   0  0  0  0  0  0
    5.5042   54.6910   20.2571 C   0  0  0  0  0  0
    6.7804   55.5582   20.2737 C   0  0  0  0  0  0
    7.4152   55.4906   21.6809 C   0  0  0  0  0  0
   -0.0949   52.0565   31.0871 H   0  0  0  0  0  0
    2.1545   52.8967   31.5749 H   0  0  0  0  0  0
    0.5291   52.5454   26.8708 H   0  0  0  0  0  0
   -1.3301   51.3948   27.7676 H   0  0  0  0  0  0
   -1.5304   51.1056   29.4530 H   0  0  0  0  0  0
    4.6888   55.2090   19.7512 H   0  0  0  0  0  0
    5.6631   53.7441   19.7389 H   0  0  0  0  0  0
    6.5089   56.5917   20.0520 H   0  0  0  0  0  0
    7.4845   55.2530   19.4981 H   0  0  0  0  0  0
    8.3171   54.8821   21.6817 H   0  0  0  0  0  0
    7.7138   56.4805   22.0237 H   0  0  0  0  0  0
    5.3392   54.2287   26.1171 H   0  0  0  0  0  0
  1  6  1  0  0  0
  1  2  2  0  0  0
  1 23  1  0  0  0
  2  3  1  0  0  0
  2 24  1  0  0  0
  3  4  1  0  0  0
  3 10  2  0  0  0
  4  5  1  0  0  0
  4  8  2  0  0  0
  5  6  2  0  0  0
  5 25  1  0  0  0
  6  7  1  0  0  0
  7 26  1  0  0  0
  7 27  1  0  0  0
  8 12  1  0  0  0
  8  9  1  0  0  0
  9 11  1  0  0  0
  9 10  1  0  0  0
 12 13  2  0  0  0
 12 14  1  0  0  0
 14 15  1  0  0  0
 14 34  1  0  0  0
 15 19  1  0  0  0
 15 16  2  0  0  0
 16 17  1  0  0  0
 17 22  1  0  0  0
 17 18  2  0  0  0
 18 19  1  0  0  0
 18 20  1  0  0  0
 20 21  1  0  0  0
 20 28  1  0  0  0
 20 29  1  0  0  0
 21 22  1  0  0  0
 21 30  1  0  0  0
 21 31  1  0  0  0
 22 32  1  0  0  0
 22 33  1  0  0  0
M  END
> <i_i_glide_confnum>
1

> <i_i_glide_lignum>
4743

> <i_i_glide_posenum>
181

> <i_i_glide_rotatable_bonds>
3

> <i_m_Source_File_Index>
5006

> <b_m_subgroup_collapsed>
0

> <r_i_docking_score>
-5.31219

> <r_i_glide_ecoul>
-2.65346

> <r_i_glide_eff_state_penalty>
0

> <r_i_glide_einternal>
0.17176

> <r_i_glide_emodel>
-54.1416

> <r_i_glide_energy>
-40.1872

> <r_i_glide_erotb>
0.614822

> <r_i_glide_esite>
-0.0693338

> <r_i_glide_evdw>
-37.5338

> <r_i_glide_gscore>
-5.31219

> <r_i_glide_hbond>
0

> <r_i_glide_ligand_efficiency>
-0.252962

> <r_i_glide_ligand_efficiency_ln>
-1.31343

> <r_i_glide_ligand_efficiency_sa>
-0.697902

> <r_i_glide_lipo>
-1.88731

> <r_i_glide_metal>
0

> <r_i_glide_rewards>
-1.69566

> <s_i_glide_gridfile>
wee1_glide-grid

> <s_m_Source_File>
wee1_decoys_glide_SP.sdf

> <s_m_Source_Path>
/Users/zhangxujun/Desktop

> <s_m_entry_id>
5281

> <s_m_entry_name>
wee1_decoys_glide_SP.5006

> <s_m_subgroup_title>
wee1_decoys_glide_SP

> <s_m_subgroupid>
wee1_decoys_glide_SP


$$$$
