ZINC12937388_3136
                    3D
 Schrodinger Suite 2024-2.
 68 70  0  0  1  0            999 V2000
    7.5024   53.7683   14.8266 C   0  0  0  0  0  0
    8.9449   53.9707   15.3154 C   0  0  0  0  0  0
    9.1767   53.6509   16.8109 C   0  0  0  0  0  0
    8.3778   54.4869   17.7449 N   0  0  0  0  0  0
    7.1800   54.1066   18.3481 C   0  0  0  0  0  0
    6.5559   54.8598   19.3020 C   0  0  0  0  0  0
    7.1512   56.1486   19.6783 C   0  0  0  0  0  0
    6.7043   56.9676   20.4817 O   0  0  0  0  0  0
    8.3066   56.4125   19.0228 N   0  0  0  0  0  0
    8.7432   57.2899   19.2572 H   0  0  0  0  0  0
    8.9678   55.6925   18.0775 C   0  0  0  0  0  0
    9.9912   56.1685   17.5830 O   0  0  0  0  0  0
    5.3332   54.4734   19.8461 N   0  0  0  0  0  0
    4.1676   54.4311   18.9224 C   0  0  0  0  0  0
    3.9087   55.7448   18.1595 C   0  0  0  0  0  0
    4.8913   55.9573   17.1552 O   0  0  0  0  0  0
    4.8167   57.2398   16.5482 C   0  0  0  0  0  0
    5.1909   54.2165   21.1892 C   0  0  0  0  0  0
    6.0463   54.4969   22.0349 O   0  0  0  0  0  0
    3.9472   53.5188   21.6810 C   0  0  0  0  0  0
    3.1912   54.0972   22.6990 C   0  0  0  0  0  0
    2.0427   53.4679   23.1646 C   0  0  0  0  0  0
    1.6550   52.2200   22.6640 C   0  0  0  0  0  0
    2.4363   51.6314   21.6578 C   0  0  0  0  0  0
    3.5712   52.2728   21.1670 C   0  0  0  0  0  0
    0.4791   51.6008   23.1505 N   0  0  0  0  0  0
   -0.1709   50.5893   22.3154 C   0  0  0  0  0  0
    0.1217   51.4512   24.9066 S   0  0  0  0  0  0
    0.3033   50.0411   25.2665 O   0  0  0  0  0  0
    0.8352   52.4959   25.6493 O   0  0  0  0  0  0
   -1.6216   51.8279   25.0667 C   0  0  0  0  0  0
   -2.4134   51.0906   25.9503 C   0  0  0  0  0  0
   -3.7633   51.4070   26.0865 C   0  0  0  0  0  0
   -4.3141   52.4579   25.3499 C   0  0  0  0  0  0
   -3.5136   53.2040   24.4830 C   0  0  0  0  0  0
   -2.1636   52.8953   24.3479 C   0  0  0  0  0  0
   -5.7821   52.8031   25.5092 C   0  0  0  0  0  0
    6.7044   52.8966   17.8869 N   0  0  0  0  0  0
    7.4208   53.9848   13.7615 H   0  0  0  0  0  0
    7.1695   52.7415   14.9749 H   0  0  0  0  0  0
    6.8062   54.4276   15.3462 H   0  0  0  0  0  0
    9.2642   54.9919   15.1022 H   0  0  0  0  0  0
    9.6004   53.3330   14.7226 H   0  0  0  0  0  0
   10.2423   53.7608   17.0238 H   0  0  0  0  0  0
    8.9716   52.5973   17.0006 H   0  0  0  0  0  0
    4.3659   53.6607   18.1793 H   0  0  0  0  0  0
    3.2320   54.1063   19.3781 H   0  0  0  0  0  0
    2.9148   55.7206   17.7100 H   0  0  0  0  0  0
    3.9045   56.5669   18.8761 H   0  0  0  0  0  0
    5.5863   57.3244   15.7815 H   0  0  0  0  0  0
    3.8500   57.4006   16.0697 H   0  0  0  0  0  0
    4.9821   58.0344   17.2778 H   0  0  0  0  0  0
    3.4737   55.0531   23.1144 H   0  0  0  0  0  0
    1.4559   53.9824   23.9099 H   0  0  0  0  0  0
    2.1829   50.6686   21.2425 H   0  0  0  0  0  0
    4.1534   51.7941   20.3911 H   0  0  0  0  0  0
   -0.2715   50.9328   21.2858 H   0  0  0  0  0  0
    0.4023   49.6613   22.3226 H   0  0  0  0  0  0
   -1.1702   50.3622   22.6868 H   0  0  0  0  0  0
   -1.9892   50.2774   26.5274 H   0  0  0  0  0  0
   -4.3743   50.8333   26.7696 H   0  0  0  0  0  0
   -3.9303   54.0284   23.9229 H   0  0  0  0  0  0
   -1.5410   53.4820   23.6881 H   0  0  0  0  0  0
   -6.0979   52.6633   26.5427 H   0  0  0  0  0  0
   -5.9790   53.8454   25.2576 H   0  0  0  0  0  0
   -6.3983   52.1653   24.8749 H   0  0  0  0  0  0
    5.9102   52.4189   18.2988 H   0  0  0  0  0  0
    7.1278   52.4379   17.0940 H   0  0  0  0  0  0
  1  2  1  0  0  0
  1 39  1  0  0  0
  1 40  1  0  0  0
  1 41  1  0  0  0
  2  3  1  0  0  0
  2 42  1  0  0  0
  2 43  1  0  0  0
  3  4  1  0  0  0
  3 44  1  0  0  0
  3 45  1  0  0  0
  4 11  1  0  0  0
  4  5  1  0  0  0
  5  6  2  0  0  0
  5 38  1  0  0  0
  6  7  1  0  0  0
  6 13  1  0  0  0
  7  8  2  0  0  0
  7  9  1  0  0  0
  9 10  1  0  0  0
  9 11  1  0  0  0
 11 12  2  0  0  0
 13 14  1  0  0  0
 13 18  1  0  0  0
 14 15  1  0  0  0
 14 46  1  0  0  0
 14 47  1  0  0  0
 15 16  1  0  0  0
 15 48  1  0  0  0
 15 49  1  0  0  0
 16 17  1  0  0  0
 17 50  1  0  0  0
 17 51  1  0  0  0
 17 52  1  0  0  0
 18 19  2  0  0  0
 18 20  1  0  0  0
 20 25  2  0  0  0
 20 21  1  0  0  0
 21 22  2  0  0  0
 21 53  1  0  0  0
 22 23  1  0  0  0
 22 54  1  0  0  0
 23 24  2  0  0  0
 23 26  1  0  0  0
 24 25  1  0  0  0
 24 55  1  0  0  0
 25 56  1  0  0  0
 26 27  1  0  0  0
 26 28  1  0  0  0
 27 57  1  0  0  0
 27 58  1  0  0  0
 27 59  1  0  0  0
 28 29  2  0  0  0
 28 30  2  0  0  0
 28 31  1  0  0  0
 31 36  2  0  0  0
 31 32  1  0  0  0
 32 33  2  0  0  0
 32 60  1  0  0  0
 33 34  1  0  0  0
 33 61  1  0  0  0
 34 35  2  0  0  0
 34 37  1  0  0  0
 35 36  1  0  0  0
 35 62  1  0  0  0
 36 63  1  0  0  0
 37 64  1  0  0  0
 37 65  1  0  0  0
 37 66  1  0  0  0
 38 67  1  0  0  0
 38 68  1  0  0  0
M  END
> <i_i_glide_confnum>
242

> <i_i_glide_lignum>
3137

> <i_i_glide_posenum>
123

> <i_i_glide_rotatable_bonds>
11

> <i_m_Source_File_Index>
430

> <b_m_subgroup_collapsed>
0

> <r_i_docking_score>
-3.53039

> <r_i_glide_ecoul>
-6.0193

> <r_i_glide_eff_state_penalty>
0

> <r_i_glide_einternal>
4.41549

> <r_i_glide_emodel>
-52.8127

> <r_i_glide_energy>
-46.5308

> <r_i_glide_erotb>
0.661274

> <r_i_glide_esite>
-0.101534

> <r_i_glide_evdw>
-40.5115

> <r_i_glide_gscore>
-3.53039

> <r_i_glide_hbond>
-0.390609

> <r_i_glide_ligand_efficiency>
-0.0954159

> <r_i_glide_ligand_efficiency_ln>
-0.765658

> <r_i_glide_ligand_efficiency_sa>
-0.317947

> <r_i_glide_lipo>
-1.29785

> <r_i_glide_metal>
0

> <r_i_glide_rewards>
0.526803

> <s_i_glide_gridfile>
wee1_glide-grid

> <s_m_Source_File>
wee1_decoys_glide_SP.sdf

> <s_m_Source_Path>
/Users/zhangxujun/Desktop

> <s_m_entry_id>
705

> <s_m_entry_name>
wee1_decoys_glide_SP.430

> <s_m_subgroup_title>
wee1_decoys_glide_SP

> <s_m_subgroupid>
wee1_decoys_glide_SP


$$$$
