ZINC09425251_987
                    3D
 Schrodinger Suite 2024-2.
 62 66  0  0  1  0            999 V2000
    5.4513   54.3330   28.2097 C   0  0  0  0  0  0
    4.5372   54.1552   27.0129 C   0  0  0  0  0  0
    4.7659   54.4518   25.6637 C   0  0  0  0  0  0
    3.3367   54.0316   24.7519 S   0  0  0  0  0  0
    2.5980   53.4566   26.2198 C   0  0  0  0  0  0
    3.3615   53.6201   27.2798 N   0  0  0  0  0  0
    1.3048   52.8961   26.2349 N   0  0  0  0  0  0
    0.4488   52.7648   25.0409 C   0  0  2  0  0  0
    0.3047   53.7609   24.6211 H   0  0  0  0  0  0
   -0.8437   52.2453   25.5992 C   0  0  0  0  0  0
   -1.9962   51.9599   24.7412 C   0  0  0  0  0  0
   -2.5317   50.5523   24.6368 C   0  0  0  0  0  0
   -2.0488   49.4975   25.4366 C   0  0  0  0  0  0
   -2.5197   48.1934   25.2816 C   0  0  0  0  0  0
   -3.4843   47.9174   24.3168 C   0  0  0  0  0  0
   -3.9778   48.9519   23.5069 C   0  0  0  0  0  0
   -3.5154   50.2574   23.6756 C   0  0  0  0  0  0
   -4.9673   48.7406   22.5659 O   0  0  0  0  0  0
   -5.1310   47.3684   22.1907 C   0  0  0  0  0  0
   -5.1077   46.4528   23.4394 C   0  0  0  0  0  0
   -3.8724   46.6013   24.1489 O   0  0  0  0  0  0
   -2.4327   52.8728   24.0331 O   0  0  0  0  0  0
   -0.6871   52.0972   26.9182 C   0  0  0  0  0  0
   -1.5409   51.6966   27.7949 O   0  5  0  0  0  0
    0.6492   52.4644   27.3574 C   0  0  0  0  0  0
    1.1074   52.4174   28.5062 O   0  0  0  0  0  0
    0.9808   51.8879   23.8977 C   0  0  0  0  0  0
    1.1059   50.5069   24.0665 C   0  0  0  0  0  0
    1.4374   49.6980   22.9869 C   0  0  0  0  0  0
    1.6536   50.2539   21.7248 C   0  0  0  0  0  0
    1.5547   51.6419   21.5607 C   0  0  0  0  0  0
    1.2125   52.4518   22.6401 C   0  0  0  0  0  0
    1.9708   49.3112   20.5588 C   0  0  0  0  0  0
    0.7078   48.5761   20.0710 C   0  0  0  0  0  0
    2.7001   49.9737   19.3759 C   0  0  0  0  0  0
    5.9459   54.9936   25.0027 C   0  0  0  0  0  0
    6.7635   55.6967   25.5948 O   0  0  0  0  0  0
    6.2094   54.6277   23.5430 C   0  0  0  0  0  0
    5.8593   53.3751   28.5394 H   0  0  0  0  0  0
    6.3027   54.9820   28.0016 H   0  0  0  0  0  0
    4.9324   54.7727   29.0653 H   0  0  0  0  0  0
   -1.2957   49.6516   26.1958 H   0  0  0  0  0  0
   -2.1260   47.4080   25.9108 H   0  0  0  0  0  0
   -3.9202   51.0333   23.0414 H   0  0  0  0  0  0
   -4.3186   47.0819   21.5205 H   0  0  0  0  0  0
   -6.0682   47.2524   21.6451 H   0  0  0  0  0  0
   -5.2399   45.4085   23.1546 H   0  0  0  0  0  0
   -5.9357   46.7245   24.0978 H   0  0  0  0  0  0
    0.9126   50.0524   25.0276 H   0  0  0  0  0  0
    1.5038   48.6303   23.1316 H   0  0  0  0  0  0
    1.7105   52.1042   20.5972 H   0  0  0  0  0  0
    1.1030   53.5150   22.4851 H   0  0  0  0  0  0
    2.6623   48.5625   20.9514 H   0  0  0  0  0  0
    0.2020   48.0550   20.8826 H   0  0  0  0  0  0
   -0.0084   49.2714   19.6324 H   0  0  0  0  0  0
    0.9537   47.8323   19.3119 H   0  0  0  0  0  0
    3.5801   50.5258   19.7044 H   0  0  0  0  0  0
    3.0326   49.2169   18.6670 H   0  0  0  0  0  0
    2.0564   50.6628   18.8297 H   0  0  0  0  0  0
    5.3597   54.8941   22.9149 H   0  0  0  0  0  0
    6.3745   53.5532   23.4538 H   0  0  0  0  0  0
    7.0943   55.1462   23.1691 H   0  0  0  0  0  0
  1  2  1  0  0  0
  1 39  1  0  0  0
  1 40  1  0  0  0
  1 41  1  0  0  0
  2  6  1  0  0  0
  2  3  2  0  0  0
  3  4  1  0  0  0
  3 36  1  0  0  0
  4  5  1  0  0  0
  5  6  2  0  0  0
  5  7  1  0  0  0
  7 25  1  0  0  0
  7  8  1  0  0  0
  8 10  1  0  0  0
  8 27  1  0  0  0
  8  9  1  0  0  0
 10 23  2  0  0  0
 10 11  1  0  0  0
 11 22  2  0  0  0
 11 12  1  0  0  0
 12 17  2  0  0  0
 12 13  1  0  0  0
 13 14  2  0  0  0
 13 42  1  0  0  0
 14 15  1  0  0  0
 14 43  1  0  0  0
 15 21  1  0  0  0
 15 16  2  0  0  0
 16 17  1  0  0  0
 16 18  1  0  0  0
 17 44  1  0  0  0
 18 19  1  0  0  0
 19 20  1  0  0  0
 19 45  1  0  0  0
 19 46  1  0  0  0
 20 21  1  0  0  0
 20 47  1  0  0  0
 20 48  1  0  0  0
 23 25  1  0  0  0
 23 24  1  0  0  0
 25 26  2  0  0  0
 27 32  2  0  0  0
 27 28  1  0  0  0
 28 29  2  0  0  0
 28 49  1  0  0  0
 29 30  1  0  0  0
 29 50  1  0  0  0
 30 31  2  0  0  0
 30 33  1  0  0  0
 31 32  1  0  0  0
 31 51  1  0  0  0
 32 52  1  0  0  0
 33 34  1  0  0  0
 33 35  1  0  0  0
 33 53  1  0  0  0
 34 54  1  0  0  0
 34 55  1  0  0  0
 34 56  1  0  0  0
 35 57  1  0  0  0
 35 58  1  0  0  0
 35 59  1  0  0  0
 36 37  2  0  0  0
 36 38  1  0  0  0
 38 60  1  0  0  0
 38 61  1  0  0  0
 38 62  1  0  0  0
M  CHG  1  24  -1
M  END
> <i_i_glide_confnum>
109

> <i_i_glide_lignum>
988

> <i_i_glide_posenum>
183

> <i_i_glide_rotatable_bonds>
6

> <i_m_Source_File_Index>
3553

> <b_m_subgroup_collapsed>
0

> <r_i_docking_score>
-6.7043

> <r_i_glide_ecoul>
-6.92766

> <r_i_glide_eff_state_penalty>
0

> <r_i_glide_einternal>
13.8845

> <r_i_glide_emodel>
-64.879

> <r_i_glide_energy>
-51.4803

> <r_i_glide_erotb>
0.306595

> <r_i_glide_esite>
-0.00272648

> <r_i_glide_evdw>
-44.5527

> <r_i_glide_gscore>
-6.7043

> <r_i_glide_hbond>
-0.32

> <r_i_glide_ligand_efficiency>
-0.181197

> <r_i_glide_ligand_efficiency_ln>
-1.45401

> <r_i_glide_ligand_efficiency_sa>
-0.60379

> <r_i_glide_lipo>
-2.08386

> <r_i_glide_metal>
0

> <r_i_glide_rewards>
-1.33753

> <s_i_glide_gridfile>
wee1_glide-grid

> <s_m_Source_File>
wee1_decoys_glide_SP.sdf

> <s_m_Source_Path>
/Users/zhangxujun/Desktop

> <s_m_entry_id>
3828

> <s_m_entry_name>
wee1_decoys_glide_SP.3553

> <s_m_subgroup_title>
wee1_decoys_glide_SP

> <s_m_subgroupid>
wee1_decoys_glide_SP


$$$$
