ZINC59045153_4456
                    3D
 Schrodinger Suite 2024-2.
 41 43  0  0  1  0            999 V2000
    1.7936   55.2131   28.4413 C   0  0  0  0  0  0
    2.0943   54.0480   29.3762 C   0  0  0  0  0  0
    3.3746   53.4535   29.4828 C   0  0  0  0  0  0
    3.6033   52.4974   30.4778 C   0  0  0  0  0  0
    2.5730   52.0967   31.3240 C   0  0  0  0  0  0
    1.2916   52.6124   31.1640 C   0  0  0  0  0  0
    1.0575   53.5878   30.1999 C   0  0  0  0  0  0
   -0.1860   54.0987   30.0810 F   0  0  0  0  0  0
    4.4790   53.7549   28.6628 N   0  0  0  0  0  0
    4.4890   53.7295   27.3124 C   0  0  0  0  0  0
    3.4791   53.5885   26.6242 O   0  0  0  0  0  0
    5.8588   53.8170   26.6269 C   0  0  0  0  0  0
    6.0579   55.2212   25.4870 S   0  0  0  0  0  0
    5.5191   54.5135   23.9491 C   0  0  0  0  0  0
    4.5057   53.7001   23.7944 N   0  0  0  0  0  0
    4.3378   53.4842   22.4305 N   0  0  0  0  0  0
    5.2378   54.2009   21.7995 C   0  0  0  0  0  0
    6.0490   54.8347   22.7198 N   0  0  0  0  0  0
    7.1091   55.6769   22.4822 N   0  0  0  0  0  0
    5.3170   54.3181   20.3029 C   0  0  0  0  0  0
    5.7563   55.4958   19.6826 C   0  0  0  0  0  0
    5.8014   55.5927   18.2948 C   0  0  0  0  0  0
    5.4061   54.5095   17.5162 C   0  0  0  0  0  0
    4.9615   53.3360   18.1172 C   0  0  0  0  0  0
    4.9132   53.2421   19.5051 C   0  0  0  0  0  0
    5.4678   54.6358   15.6185 Br  0  0  0  0  0  0
    2.6992   55.7114   28.1020 H   0  0  0  0  0  0
    1.2256   54.8660   27.5793 H   0  0  0  0  0  0
    1.1959   55.9711   28.9498 H   0  0  0  0  0  0
    4.5814   52.0530   30.5976 H   0  0  0  0  0  0
    2.7603   51.3715   32.1031 H   0  0  0  0  0  0
    0.4833   52.2826   31.8041 H   0  0  0  0  0  0
    5.3760   53.7661   29.1235 H   0  0  0  0  0  0
    6.6475   53.8881   27.3763 H   0  0  0  0  0  0
    6.0371   52.8969   26.0831 H   0  0  0  0  0  0
    6.9326   56.5892   22.8699 H   0  0  0  0  0  0
    7.9902   55.2948   22.8151 H   0  0  0  0  0  0
    6.0385   56.3578   20.2657 H   0  0  0  0  0  0
    6.1347   56.5064   17.8243 H   0  0  0  0  0  0
    4.6596   52.4964   17.5092 H   0  0  0  0  0  0
    4.5678   52.3214   19.9532 H   0  0  0  0  0  0
  1  2  1  0  0  0
  1 27  1  0  0  0
  1 28  1  0  0  0
  1 29  1  0  0  0
  2  7  2  0  0  0
  2  3  1  0  0  0
  3  4  2  0  0  0
  3  9  1  0  0  0
  4  5  1  0  0  0
  4 30  1  0  0  0
  5  6  2  0  0  0
  5 31  1  0  0  0
  6  7  1  0  0  0
  6 32  1  0  0  0
  7  8  1  0  0  0
  9 10  1  0  0  0
  9 33  1  0  0  0
 10 11  2  0  0  0
 10 12  1  0  0  0
 12 13  1  0  0  0
 12 34  1  0  0  0
 12 35  1  0  0  0
 13 14  1  0  0  0
 14 18  1  0  0  0
 14 15  2  0  0  0
 15 16  1  0  0  0
 16 17  2  0  0  0
 17 18  1  0  0  0
 17 20  1  0  0  0
 18 19  1  0  0  0
 19 36  1  0  0  0
 19 37  1  0  0  0
 20 25  2  0  0  0
 20 21  1  0  0  0
 21 22  2  0  0  0
 21 38  1  0  0  0
 22 23  1  0  0  0
 22 39  1  0  0  0
 23 24  2  0  0  0
 23 26  1  0  0  0
 24 25  1  0  0  0
 24 40  1  0  0  0
 25 41  1  0  0  0
M  END
> <i_i_glide_confnum>
101

> <i_i_glide_lignum>
4457

> <i_i_glide_posenum>
13

> <i_i_glide_rotatable_bonds>
6

> <i_m_Source_File_Index>
4230

> <b_m_subgroup_collapsed>
0

> <r_i_docking_score>
-5.40466

> <r_i_glide_ecoul>
-3.33716

> <r_i_glide_eff_state_penalty>
0

> <r_i_glide_einternal>
5.49582

> <r_i_glide_emodel>
-56.218

> <r_i_glide_energy>
-43.3854

> <r_i_glide_erotb>
0.628232

> <r_i_glide_esite>
0

> <r_i_glide_evdw>
-40.0483

> <r_i_glide_gscore>
-5.40466

> <r_i_glide_hbond>
-0.32

> <r_i_glide_ligand_efficiency>
-0.207872

> <r_i_glide_ligand_efficiency_ln>
-1.26927

> <r_i_glide_ligand_efficiency_sa>
-0.615819

> <r_i_glide_lipo>
-1.55544

> <r_i_glide_metal>
0

> <r_i_glide_rewards>
-1.65446

> <s_i_glide_gridfile>
wee1_glide-grid

> <s_m_Source_File>
wee1_decoys_glide_SP.sdf

> <s_m_Source_Path>
/Users/zhangxujun/Desktop

> <s_m_entry_id>
4505

> <s_m_entry_name>
wee1_decoys_glide_SP.4230

> <s_m_subgroup_title>
wee1_decoys_glide_SP

> <s_m_subgroupid>
wee1_decoys_glide_SP


$$$$
