ZINC09791384_2517
                    3D
 Schrodinger Suite 2024-2.
 57 59  0  0  1  0            999 V2000
    1.0776   49.5971   20.1710 C   0  0  0  0  0  0
    0.3199   50.5843   21.0900 C   0  0  1  0  0  0
   -0.3890   51.0863   20.4293 H   0  0  0  0  0  0
   -0.4968   49.8580   22.1634 C   0  0  0  0  0  0
   -1.8837   49.7644   22.0120 C   0  0  0  0  0  0
   -2.6401   49.0172   22.9075 C   0  0  0  0  0  0
   -2.0137   48.3556   23.9645 C   0  0  0  0  0  0
   -0.6347   48.4858   24.1571 C   0  0  0  0  0  0
    0.1222   49.2348   23.2549 C   0  0  0  0  0  0
   -2.9680   47.2318   24.9840 S   0  0  0  0  0  0
   -4.2553   47.0222   24.3139 O   0  0  0  0  0  0
   -2.0956   46.0967   25.2877 O   0  0  0  0  0  0
   -3.2956   48.0499   26.4817 N   0  0  0  0  0  0
    1.1152   51.7121   21.5973 N   0  0  0  0  0  0
    2.4011   51.7168   21.9823 C   0  0  0  0  0  0
    3.1043   50.7149   22.0816 O   0  0  0  0  0  0
    2.8427   52.9679   22.1705 N   0  0  0  0  0  0
    4.2400   53.4399   22.1280 C   0  0  2  0  0  0
    4.8824   52.5994   21.8500 H   0  0  0  0  0  0
    4.7428   53.9217   23.5073 C   0  0  0  0  0  0
    6.1193   54.0964   23.7217 C   0  0  0  0  0  0
    6.6154   54.4617   24.9714 C   0  0  0  0  0  0
    5.7435   54.5855   26.0481 C   0  0  0  0  0  0
    4.3671   54.3974   25.8648 C   0  0  0  0  0  0
    3.8704   54.0968   24.5983 C   0  0  0  0  0  0
    3.4656   54.3995   26.9118 O   0  0  0  0  0  0
    4.0160   54.6589   28.2114 C   0  0  0  0  0  0
    5.5190   54.3066   28.3473 C   0  0  0  0  0  0
    6.2768   54.8827   27.2810 O   0  0  0  0  0  0
    4.3622   54.5127   21.0022 C   0  0  0  0  0  0
    5.7322   55.2079   20.8294 C   0  0  0  0  0  0
    3.9119   53.9817   19.6176 C   0  0  0  0  0  0
    0.3848   48.9418   19.6429 H   0  0  0  0  0  0
    1.6649   50.1240   19.4173 H   0  0  0  0  0  0
    1.7617   48.9588   20.7317 H   0  0  0  0  0  0
   -2.3792   50.2342   21.1752 H   0  0  0  0  0  0
   -3.7044   48.9193   22.7480 H   0  0  0  0  0  0
   -0.1438   47.9744   24.9754 H   0  0  0  0  0  0
    1.1943   49.2941   23.3839 H   0  0  0  0  0  0
   -2.4897   48.0987   27.1396 H   0  0  0  0  0  0
   -3.8009   48.9324   26.4000 H   0  0  0  0  0  0
    0.5961   52.5635   21.7463 H   0  0  0  0  0  0
    2.1532   53.7011   22.2252 H   0  0  0  0  0  0
    6.8245   53.9336   22.9205 H   0  0  0  0  0  0
    7.6757   54.5960   25.1039 H   0  0  0  0  0  0
    2.8078   53.9387   24.4959 H   0  0  0  0  0  0
    3.8325   55.6964   28.4825 H   0  0  0  0  0  0
    3.4451   54.0703   28.9298 H   0  0  0  0  0  0
    5.9050   54.6802   29.2938 H   0  0  0  0  0  0
    5.6420   53.2213   28.3416 H   0  0  0  0  0  0
    3.6662   55.2921   21.3086 H   0  0  0  0  0  0
    6.5267   54.4969   20.6101 H   0  0  0  0  0  0
    5.7049   55.9207   20.0040 H   0  0  0  0  0  0
    6.0215   55.7839   21.7053 H   0  0  0  0  0  0
    4.5824   53.1991   19.2590 H   0  0  0  0  0  0
    2.9085   53.5596   19.6288 H   0  0  0  0  0  0
    3.9041   54.7765   18.8709 H   0  0  0  0  0  0
  1  2  1  0  0  0
  1 33  1  0  0  0
  1 34  1  0  0  0
  1 35  1  0  0  0
  2  3  1  0  0  0
  2  4  1  0  0  0
  2 14  1  0  0  0
  4  9  2  0  0  0
  4  5  1  0  0  0
  5  6  2  0  0  0
  5 36  1  0  0  0
  6  7  1  0  0  0
  6 37  1  0  0  0
  7  8  2  0  0  0
  7 10  1  0  0  0
  8  9  1  0  0  0
  8 38  1  0  0  0
  9 39  1  0  0  0
 10 11  2  0  0  0
 10 12  2  0  0  0
 10 13  1  0  0  0
 13 40  1  0  0  0
 13 41  1  0  0  0
 14 15  1  0  0  0
 14 42  1  0  0  0
 15 16  2  0  0  0
 15 17  1  0  0  0
 17 18  1  0  0  0
 17 43  1  0  0  0
 18 19  1  0  0  0
 18 20  1  0  0  0
 18 30  1  0  0  0
 20 25  2  0  0  0
 20 21  1  0  0  0
 21 22  2  0  0  0
 21 44  1  0  0  0
 22 23  1  0  0  0
 22 45  1  0  0  0
 23 29  1  0  0  0
 23 24  2  0  0  0
 24 25  1  0  0  0
 24 26  1  0  0  0
 25 46  1  0  0  0
 26 27  1  0  0  0
 27 28  1  0  0  0
 27 47  1  0  0  0
 27 48  1  0  0  0
 28 29  1  0  0  0
 28 49  1  0  0  0
 28 50  1  0  0  0
 30 31  1  0  0  0
 30 32  1  0  0  0
 30 51  1  0  0  0
 31 52  1  0  0  0
 31 53  1  0  0  0
 31 54  1  0  0  0
 32 55  1  0  0  0
 32 56  1  0  0  0
 32 57  1  0  0  0
M  END
> <i_i_glide_confnum>
83

> <i_i_glide_lignum>
2518

> <i_i_glide_posenum>
36

> <i_i_glide_rotatable_bonds>
8

> <i_m_Source_File_Index>
3071

> <b_m_subgroup_collapsed>
0

> <r_i_docking_score>
-5.71483

> <r_i_glide_ecoul>
-7.69677

> <r_i_glide_eff_state_penalty>
0

> <r_i_glide_einternal>
8.25357

> <r_i_glide_emodel>
-52.6415

> <r_i_glide_energy>
-40.3839

> <r_i_glide_erotb>
0.52963

> <r_i_glide_esite>
-0.263741

> <r_i_glide_evdw>
-32.6872

> <r_i_glide_gscore>
-5.71483

> <r_i_glide_hbond>
-0.16

> <r_i_glide_ligand_efficiency>
-0.190494

> <r_i_glide_ligand_efficiency_ln>
-1.29847

> <r_i_glide_ligand_efficiency_sa>
-0.59191

> <r_i_glide_lipo>
-2.55367

> <r_i_glide_metal>
0

> <r_i_glide_rewards>
-0.478173

> <s_i_glide_gridfile>
wee1_glide-grid

> <s_m_Source_File>
wee1_decoys_glide_SP.sdf

> <s_m_Source_Path>
/Users/zhangxujun/Desktop

> <s_m_entry_id>
3346

> <s_m_entry_name>
wee1_decoys_glide_SP.3071

> <s_m_subgroup_title>
wee1_decoys_glide_SP

> <s_m_subgroupid>
wee1_decoys_glide_SP


$$$$
