ZINC39683654_1292
                    3D
 Schrodinger Suite 2024-2.
 63 66  0  0  1  0            999 V2000
    6.9783   53.9278   28.1744 C   0  0  0  0  0  0
    6.1152   53.9082   27.0510 O   0  0  0  0  0  0
    4.7553   53.6972   27.2088 C   0  0  0  0  0  0
    4.1965   53.3049   28.4382 C   0  0  0  0  0  0
    2.8253   53.1161   28.5755 C   0  0  0  0  0  0
    1.9895   53.3239   27.4867 C   0  0  0  0  0  0
    2.5272   53.6974   26.2582 C   0  0  0  0  0  0
    3.9133   53.8641   26.0832 C   0  0  0  0  0  0
    4.5172   54.2443   24.7338 C   0  0  0  0  0  0
    5.4946   54.9978   24.7164 O   0  0  0  0  0  0
    4.0488   53.7015   23.5736 N   0  0  0  0  0  0
    4.7548   53.9163   22.3093 C   0  0  0  0  0  0
    3.6796   53.6166   21.2568 C   0  0  2  0  0  0
    3.1045   54.5283   21.1452 H   0  0  0  0  0  0
    2.8411   52.4623   21.8782 C   0  0  0  0  0  0
    2.8391   52.8979   23.3667 C   0  0  0  0  0  0
    3.4725   51.0470   21.6816 C   0  0  0  0  0  0
    2.7043   49.9425   22.4506 C   0  0  0  0  0  0
    1.2268   49.9505   21.9994 N   0  3  0  0  0  0
    0.5509   51.3402   22.0437 C   0  0  0  0  0  0
    1.4296   52.3313   21.2534 C   0  0  0  0  0  0
    4.3452   53.2985   19.9013 C   0  0  0  0  0  0
    5.5042   52.8964   19.8343 O   0  0  0  0  0  0
    3.5948   53.5469   18.8194 N   0  0  0  0  0  0
    4.0061   53.3224   17.4325 C   0  0  0  0  0  0
    2.8498   52.8182   16.5391 C   0  0  0  0  0  0
    1.4782   53.4506   16.7998 C   0  0  0  0  0  0
    0.4650   52.6605   17.3565 C   0  0  0  0  0  0
   -0.8022   53.1925   17.5939 C   0  0  0  0  0  0
   -1.0668   54.5253   17.2818 C   0  0  0  0  0  0
   -0.0633   55.3241   16.7349 C   0  0  0  0  0  0
    1.2053   54.7949   16.4897 C   0  0  0  0  0  0
    2.5236   55.9441   15.7314 Br  0  0  0  0  0  0
    7.9044   54.4207   27.8864 H   0  0  0  0  0  0
    6.5658   54.4924   29.0117 H   0  0  0  0  0  0
    7.2153   52.9113   28.4816 H   0  0  0  0  0  0
    4.8181   53.1309   29.3012 H   0  0  0  0  0  0
    2.4091   52.8176   29.5265 H   0  0  0  0  0  0
    0.9209   53.2015   27.5954 H   0  0  0  0  0  0
    1.8264   53.8917   25.4649 H   0  0  0  0  0  0
    5.5510   53.1706   22.2763 H   0  0  0  0  0  0
    5.1706   54.9170   22.1823 H   0  0  0  0  0  0
    2.0021   53.5897   23.4588 H   0  0  0  0  0  0
    2.6806   52.0923   24.0780 H   0  0  0  0  0  0
    3.5553   50.7818   20.6246 H   0  0  0  0  0  0
    4.5004   51.0649   22.0424 H   0  0  0  0  0  0
    3.0808   48.9431   22.2221 H   0  0  0  0  0  0
    2.7034   50.0625   23.5333 H   0  0  0  0  0  0
    1.1897   49.6092   21.0480 H   0  0  0  0  0  0
   -0.4372   51.2113   21.5984 H   0  0  0  0  0  0
    0.4346   51.6034   23.0965 H   0  0  0  0  0  0
    0.9294   53.2964   21.2901 H   0  0  0  0  0  0
    1.4790   52.0807   20.1921 H   0  0  0  0  0  0
    2.6934   53.9863   18.9544 H   0  0  0  0  0  0
    4.8099   52.5799   17.3996 H   0  0  0  0  0  0
    4.3943   54.2745   17.0686 H   0  0  0  0  0  0
    2.7736   51.7358   16.6695 H   0  0  0  0  0  0
    3.1099   52.9521   15.4884 H   0  0  0  0  0  0
    0.6567   51.6246   17.5969 H   0  0  0  0  0  0
   -1.5792   52.5693   18.0121 H   0  0  0  0  0  0
   -2.0482   54.9391   17.4573 H   0  0  0  0  0  0
   -0.2694   56.3572   16.4963 H   0  0  0  0  0  0
    0.6991   49.2959   22.5619 H   0  0  0  0  0  0
  1  2  1  0  0  0
  1 34  1  0  0  0
  1 35  1  0  0  0
  1 36  1  0  0  0
  2  3  1  0  0  0
  3  8  2  0  0  0
  3  4  1  0  0  0
  4  5  2  0  0  0
  4 37  1  0  0  0
  5  6  1  0  0  0
  5 38  1  0  0  0
  6  7  2  0  0  0
  6 39  1  0  0  0
  7  8  1  0  0  0
  7 40  1  0  0  0
  8  9  1  0  0  0
  9 10  2  0  0  0
  9 11  1  0  0  0
 11 16  1  0  0  0
 11 12  1  0  0  0
 12 13  1  0  0  0
 12 41  1  0  0  0
 12 42  1  0  0  0
 13 14  1  0  0  0
 13 15  1  0  0  0
 13 22  1  0  0  0
 15 21  1  0  0  0
 15 16  1  0  0  0
 15 17  1  0  0  0
 16 43  1  0  0  0
 16 44  1  0  0  0
 17 18  1  0  0  0
 17 45  1  0  0  0
 17 46  1  0  0  0
 18 19  1  0  0  0
 18 47  1  0  0  0
 18 48  1  0  0  0
 19 20  1  0  0  0
 19 49  1  0  0  0
 19 63  1  0  0  0
 20 21  1  0  0  0
 20 50  1  0  0  0
 20 51  1  0  0  0
 21 52  1  0  0  0
 21 53  1  0  0  0
 22 23  2  0  0  0
 22 24  1  0  0  0
 24 25  1  0  0  0
 24 54  1  0  0  0
 25 26  1  0  0  0
 25 55  1  0  0  0
 25 56  1  0  0  0
 26 27  1  0  0  0
 26 57  1  0  0  0
 26 58  1  0  0  0
 27 32  2  0  0  0
 27 28  1  0  0  0
 28 29  2  0  0  0
 28 59  1  0  0  0
 29 30  1  0  0  0
 29 60  1  0  0  0
 30 31  2  0  0  0
 30 61  1  0  0  0
 31 32  1  0  0  0
 31 62  1  0  0  0
 32 33  1  0  0  0
M  CHG  1  19   1
M  END
> <i_i_glide_confnum>
33

> <i_i_glide_lignum>
1293

> <i_i_glide_posenum>
283

> <i_i_glide_rotatable_bonds>
8

> <i_m_Source_File_Index>
3541

> <b_m_subgroup_collapsed>
0

> <r_i_docking_score>
-4.74042

> <r_i_glide_ecoul>
-2.749

> <r_i_glide_eff_state_penalty>
0

> <r_i_glide_einternal>
4.34822

> <r_i_glide_emodel>
-52.9574

> <r_i_glide_energy>
-39.7433

> <r_i_glide_erotb>
0.48743

> <r_i_glide_esite>
-0.0431886

> <r_i_glide_evdw>
-36.9943

> <r_i_glide_gscore>
-4.74042

> <r_i_glide_hbond>
-0.245617

> <r_i_glide_ligand_efficiency>
-0.148138

> <r_i_glide_ligand_efficiency_ln>
-1.06151

> <r_i_glide_ligand_efficiency_sa>
-0.47031

> <r_i_glide_lipo>
-2.10435

> <r_i_glide_metal>
0

> <r_i_glide_rewards>
-0.57263

> <s_i_glide_gridfile>
wee1_glide-grid

> <s_m_Source_File>
wee1_decoys_glide_SP.sdf

> <s_m_Source_Path>
/Users/zhangxujun/Desktop

> <s_m_entry_id>
3816

> <s_m_entry_name>
wee1_decoys_glide_SP.3541

> <s_m_subgroup_title>
wee1_decoys_glide_SP

> <s_m_subgroupid>
wee1_decoys_glide_SP


$$$$
