ZINC12064259_5476
                    3D
 Schrodinger Suite 2024-2.
 67 70  0  0  1  0            999 V2000
    5.1061   54.2218   28.9669 C   0  0  0  0  0  0
    4.8705   53.8792   27.4846 C   0  0  1  0  0  0
    5.0544   52.8083   27.3719 H   0  0  0  0  0  0
    3.4299   54.2275   27.0652 C   0  0  0  0  0  0
    3.0934   53.7399   25.6417 C   0  0  0  0  0  0
    4.2297   54.0968   24.6698 C   0  0  0  0  0  0
    5.4884   54.5028   25.1421 C   0  0  0  0  0  0
    6.5733   54.8949   23.8618 S   0  0  0  0  0  0
    5.3738   54.4967   22.6594 C   0  0  0  0  0  0
    4.1849   54.0118   23.2493 C   0  0  0  0  0  0
    3.0118   53.5722   22.5098 C   0  0  0  0  0  0
    1.8682   53.8352   22.8825 O   0  0  0  0  0  0
    3.2867   52.8533   21.4060 N   0  0  0  0  0  0
    2.2869   52.3381   20.4779 C   0  0  0  0  0  0
    5.6297   54.6132   21.2912 N   0  0  0  0  0  0
    6.6158   55.2965   20.6635 C   0  0  0  0  0  0
    7.3682   56.0966   21.2199 O   0  0  0  0  0  0
    6.7569   55.0109   19.1779 C   0  0  0  0  0  0
    7.6178   55.7954   18.3959 C   0  0  0  0  0  0
    7.8415   55.4893   17.0556 C   0  0  0  0  0  0
    7.1994   54.3952   16.4741 C   0  0  0  0  0  0
    6.3264   53.6145   17.2303 C   0  0  0  0  0  0
    6.1088   53.9176   18.5701 C   0  0  0  0  0  0
    7.5195   53.9649   14.7624 S   0  0  0  0  0  0
    6.2955   53.3550   14.2294 O   0  0  0  0  0  0
    8.0960   55.1560   14.1262 O   0  0  0  0  0  0
    8.7727   52.7113   14.8533 N   0  0  0  0  0  0
    8.3040   51.3145   15.0406 C   0  0  0  0  0  0
    9.4275   50.4573   15.6681 C   0  0  1  0  0  0
    9.1044   49.4157   15.6280 H   0  0  0  0  0  0
   10.7135   50.5615   14.8037 C   0  0  0  0  0  0
   11.1315   52.0284   14.5113 C   0  0  2  0  0  0
   11.3937   52.4948   15.4626 H   0  0  0  0  0  0
    9.9351   52.8253   13.9360 C   0  0  0  0  0  0
   12.3595   52.0957   13.5889 C   0  0  0  0  0  0
    9.6475   50.8290   17.1476 C   0  0  0  0  0  0
    5.8872   54.6440   26.6061 C   0  0  0  0  0  0
    4.8899   55.2693   29.1805 H   0  0  0  0  0  0
    4.4736   53.6169   29.6178 H   0  0  0  0  0  0
    6.1430   54.0457   29.2560 H   0  0  0  0  0  0
    3.2562   55.2967   27.1687 H   0  0  0  0  0  0
    2.7249   53.7751   27.7646 H   0  0  0  0  0  0
    2.9336   52.6625   25.6476 H   0  0  0  0  0  0
    2.1468   54.1872   25.3423 H   0  0  0  0  0  0
    4.2194   52.4850   21.3026 H   0  0  0  0  0  0
    2.6646   52.3981   19.4554 H   0  0  0  0  0  0
    2.0765   51.2904   20.7001 H   0  0  0  0  0  0
    1.3481   52.8947   20.5225 H   0  0  0  0  0  0
    4.8987   54.2572   20.6933 H   0  0  0  0  0  0
    8.1464   56.6345   18.8270 H   0  0  0  0  0  0
    8.5230   56.0967   16.4779 H   0  0  0  0  0  0
    5.8314   52.7559   16.7948 H   0  0  0  0  0  0
    5.4537   53.2586   19.1211 H   0  0  0  0  0  0
    7.4029   51.3072   15.6537 H   0  0  0  0  0  0
    8.1013   50.9021   14.0507 H   0  0  0  0  0  0
   11.5429   50.0190   15.2594 H   0  0  0  0  0  0
   10.5362   50.0509   13.8541 H   0  0  0  0  0  0
    9.6618   52.3488   12.9933 H   0  0  0  0  0  0
   10.1983   53.8712   13.7751 H   0  0  0  0  0  0
   12.1550   51.6371   12.6201 H   0  0  0  0  0  0
   12.6648   53.1274   13.4123 H   0  0  0  0  0  0
   13.2097   51.5727   14.0259 H   0  0  0  0  0  0
   10.1267   51.8000   17.2732 H   0  0  0  0  0  0
    8.7005   50.8891   17.6819 H   0  0  0  0  0  0
   10.2683   50.0882   17.6517 H   0  0  0  0  0  0
    5.9043   55.6967   26.8813 H   0  0  0  0  0  0
    6.8924   54.2529   26.7722 H   0  0  0  0  0  0
  1  2  1  0  0  0
  1 38  1  0  0  0
  1 39  1  0  0  0
  1 40  1  0  0  0
  2  3  1  0  0  0
  2 37  1  0  0  0
  2  4  1  0  0  0
  4  5  1  0  0  0
  4 41  1  0  0  0
  4 42  1  0  0  0
  5  6  1  0  0  0
  5 43  1  0  0  0
  5 44  1  0  0  0
  6 10  1  0  0  0
  6  7  2  0  0  0
  7  8  1  0  0  0
  7 37  1  0  0  0
  8  9  1  0  0  0
  9 10  2  0  0  0
  9 15  1  0  0  0
 10 11  1  0  0  0
 11 12  2  0  0  0
 11 13  1  0  0  0
 13 14  1  0  0  0
 13 45  1  0  0  0
 14 46  1  0  0  0
 14 47  1  0  0  0
 14 48  1  0  0  0
 15 16  1  0  0  0
 15 49  1  0  0  0
 16 17  2  0  0  0
 16 18  1  0  0  0
 18 23  2  0  0  0
 18 19  1  0  0  0
 19 20  2  0  0  0
 19 50  1  0  0  0
 20 21  1  0  0  0
 20 51  1  0  0  0
 21 22  2  0  0  0
 21 24  1  0  0  0
 22 23  1  0  0  0
 22 52  1  0  0  0
 23 53  1  0  0  0
 24 25  2  0  0  0
 24 26  2  0  0  0
 24 27  1  0  0  0
 27 34  1  0  0  0
 27 28  1  0  0  0
 28 29  1  0  0  0
 28 54  1  0  0  0
 28 55  1  0  0  0
 29 30  1  0  0  0
 29 31  1  0  0  0
 29 36  1  0  0  0
 31 32  1  0  0  0
 31 56  1  0  0  0
 31 57  1  0  0  0
 32 33  1  0  0  0
 32 34  1  0  0  0
 32 35  1  0  0  0
 34 58  1  0  0  0
 34 59  1  0  0  0
 35 60  1  0  0  0
 35 61  1  0  0  0
 35 62  1  0  0  0
 36 63  1  0  0  0
 36 64  1  0  0  0
 36 65  1  0  0  0
 37 66  1  0  0  0
 37 67  1  0  0  0
M  END
> <i_i_glide_confnum>
173

> <i_i_glide_lignum>
5477

> <i_i_glide_posenum>
149

> <i_i_glide_rotatable_bonds>
7

> <i_m_Source_File_Index>
4446

> <b_m_subgroup_collapsed>
0

> <r_i_docking_score>
-4.93684

> <r_i_glide_ecoul>
-2.30115

> <r_i_glide_eff_state_penalty>
0

> <r_i_glide_einternal>
5.15865

> <r_i_glide_emodel>
-52.9474

> <r_i_glide_energy>
-43.3332

> <r_i_glide_erotb>
0.483456

> <r_i_glide_esite>
-0.000434834

> <r_i_glide_evdw>
-41.032

> <r_i_glide_gscore>
-4.93684

> <r_i_glide_hbond>
-0.100044

> <r_i_glide_ligand_efficiency>
-0.145201

> <r_i_glide_ligand_efficiency_ln>
-1.09069

> <r_i_glide_ligand_efficiency_sa>
-0.470395

> <r_i_glide_lipo>
-2.78737

> <r_i_glide_metal>
0

> <r_i_glide_rewards>
-0.135678

> <s_i_glide_gridfile>
wee1_glide-grid

> <s_m_Source_File>
wee1_decoys_glide_SP.sdf

> <s_m_Source_Path>
/Users/zhangxujun/Desktop

> <s_m_entry_id>
4721

> <s_m_entry_name>
wee1_decoys_glide_SP.4446

> <s_m_subgroup_title>
wee1_decoys_glide_SP

> <s_m_subgroupid>
wee1_decoys_glide_SP


$$$$
