ZINC14066156_3255
                    3D
 Schrodinger Suite 2024-2.
 60 64  0  0  1  0            999 V2000
   10.2911   58.2849   17.4003 C   0  0  0  0  0  0
    9.4039   59.4295   17.8830 C   0  0  0  0  0  0
    9.7520   60.0967   18.8530 O   0  0  0  0  0  0
    8.2487   59.6966   17.2511 N   0  0  0  0  0  0
    7.7263   59.0653   16.0339 C   0  0  0  0  0  0
    6.9250   57.7962   16.2766 C   0  0  0  0  0  0
    6.4915   56.8562   15.3422 C   0  0  0  0  0  0
    5.7870   55.7729   15.8769 C   0  0  0  0  0  0
    5.6455   55.8330   17.2560 C   0  0  0  0  0  0
    6.3812   57.2955   17.8581 S   0  0  0  0  0  0
    5.0203   54.8673   18.1594 C   0  0  0  0  0  0
    4.2409   53.7631   17.8009 C   0  0  0  0  0  0
    3.7286   52.8982   19.2263 S   0  0  0  0  0  0
    4.6046   54.0584   20.1634 C   0  0  0  0  0  0
    5.1853   55.0012   19.4612 N   0  0  0  0  0  0
    4.6277   53.9446   21.5462 N   0  0  0  0  0  0
    5.5756   54.4967   22.3399 C   0  0  0  0  0  0
    6.5660   55.1025   21.9178 O   0  0  0  0  0  0
    5.4011   54.3202   23.8285 C   0  0  0  0  0  0
    6.5306   54.3955   24.6513 C   0  0  0  0  0  0
    6.4272   54.2776   26.0308 C   0  0  0  0  0  0
    5.1686   54.0969   26.6002 C   0  0  0  0  0  0
    4.0283   54.0233   25.8090 C   0  0  0  0  0  0
    4.1387   54.1303   24.4233 C   0  0  0  0  0  0
    2.7733   53.7949   26.3738 N   0  0  0  0  0  0
    2.6208   53.7078   27.6485 C   0  0  0  0  0  0
    3.7088   53.8627   28.5149 N   0  0  0  0  0  0
    5.0231   53.9642   28.0893 C   0  0  0  0  0  0
    6.0078   53.9661   28.8278 O   0  0  0  0  0  0
    3.5830   54.0135   29.9841 C   0  0  0  0  0  0
    3.3980   52.7043   30.7659 C   0  0  0  0  0  0
    1.9845   52.0961   30.7435 C   0  0  0  0  0  0
    0.7860   53.0743   30.6806 C   0  0  0  0  0  0
    0.6124   53.9150   29.3863 C   0  0  0  0  0  0
    1.1906   53.3037   28.0827 C   0  0  0  0  0  0
   10.9113   58.6107   16.5674 H   0  0  0  0  0  0
   10.9460   57.9508   18.2043 H   0  0  0  0  0  0
    9.6988   57.4249   17.0825 H   0  0  0  0  0  0
    7.6573   60.4344   17.6336 H   0  0  0  0  0  0
    8.5357   58.8853   15.3246 H   0  0  0  0  0  0
    7.0865   59.8010   15.5440 H   0  0  0  0  0  0
    6.6933   56.9525   14.2845 H   0  0  0  0  0  0
    5.4058   54.9600   15.2763 H   0  0  0  0  0  0
    3.9607   53.4188   16.8175 H   0  0  0  0  0  0
    3.9758   53.2945   21.9590 H   0  0  0  0  0  0
    7.5059   54.5499   24.2142 H   0  0  0  0  0  0
    7.3153   54.3236   26.6439 H   0  0  0  0  0  0
    3.2365   54.0822   23.8346 H   0  0  0  0  0  0
    4.4443   54.5206   30.4195 H   0  0  0  0  0  0
    2.7973   54.7272   30.2094 H   0  0  0  0  0  0
    4.1284   51.9656   30.4269 H   0  0  0  0  0  0
    3.6749   52.8896   31.8046 H   0  0  0  0  0  0
    1.9109   51.3770   29.9278 H   0  0  0  0  0  0
    1.8760   51.4985   31.6496 H   0  0  0  0  0  0
   -0.1202   52.4771   30.8174 H   0  0  0  0  0  0
    0.8078   53.7390   31.5464 H   0  0  0  0  0  0
   -0.4637   54.0404   29.2416 H   0  0  0  0  0  0
    0.9392   54.9471   29.5129 H   0  0  0  0  0  0
    1.1146   52.2180   28.1017 H   0  0  0  0  0  0
    0.5013   53.5823   27.2892 H   0  0  0  0  0  0
  1  2  1  0  0  0
  1 36  1  0  0  0
  1 37  1  0  0  0
  1 38  1  0  0  0
  2  3  2  0  0  0
  2  4  1  0  0  0
  4  5  1  0  0  0
  4 39  1  0  0  0
  5  6  1  0  0  0
  5 40  1  0  0  0
  5 41  1  0  0  0
  6 10  1  0  0  0
  6  7  2  0  0  0
  7  8  1  0  0  0
  7 42  1  0  0  0
  8  9  2  0  0  0
  8 43  1  0  0  0
  9 10  1  0  0  0
  9 11  1  0  0  0
 11 15  1  0  0  0
 11 12  2  0  0  0
 12 13  1  0  0  0
 12 44  1  0  0  0
 13 14  1  0  0  0
 14 15  2  0  0  0
 14 16  1  0  0  0
 16 17  1  0  0  0
 16 45  1  0  0  0
 17 18  2  0  0  0
 17 19  1  0  0  0
 19 24  2  0  0  0
 19 20  1  0  0  0
 20 21  2  0  0  0
 20 46  1  0  0  0
 21 22  1  0  0  0
 21 47  1  0  0  0
 22 28  1  0  0  0
 22 23  2  0  0  0
 23 24  1  0  0  0
 23 25  1  0  0  0
 24 48  1  0  0  0
 25 26  2  0  0  0
 26 35  1  0  0  0
 26 27  1  0  0  0
 27 28  1  0  0  0
 27 30  1  0  0  0
 28 29  2  0  0  0
 30 31  1  0  0  0
 30 49  1  0  0  0
 30 50  1  0  0  0
 31 32  1  0  0  0
 31 51  1  0  0  0
 31 52  1  0  0  0
 32 33  1  0  0  0
 32 53  1  0  0  0
 32 54  1  0  0  0
 33 34  1  0  0  0
 33 55  1  0  0  0
 33 56  1  0  0  0
 34 35  1  0  0  0
 34 57  1  0  0  0
 34 58  1  0  0  0
 35 59  1  0  0  0
 35 60  1  0  0  0
M  END
> <i_i_glide_confnum>
130

> <i_i_glide_lignum>
3256

> <i_i_glide_posenum>
334

> <i_i_glide_rotatable_bonds>
7

> <i_m_Source_File_Index>
719

> <b_m_subgroup_collapsed>
0

> <r_i_docking_score>
-4.55696

> <r_i_glide_ecoul>
-4.34452

> <r_i_glide_eff_state_penalty>
0

> <r_i_glide_einternal>
6.84225

> <r_i_glide_emodel>
-60.1912

> <r_i_glide_energy>
-52.3244

> <r_i_glide_erotb>
0.333603

> <r_i_glide_esite>
-0.116669

> <r_i_glide_evdw>
-47.9799

> <r_i_glide_gscore>
-4.55696

> <r_i_glide_hbond>
-0.32

> <r_i_glide_ligand_efficiency>
-0.130199

> <r_i_glide_ligand_efficiency_ln>
-1.00035

> <r_i_glide_ligand_efficiency_sa>
-0.425889

> <r_i_glide_lipo>
-2.44665

> <r_i_glide_metal>
0

> <r_i_glide_rewards>
1.04343

> <s_i_glide_gridfile>
wee1_glide-grid

> <s_m_Source_File>
wee1_decoys_glide_SP.sdf

> <s_m_Source_Path>
/Users/zhangxujun/Desktop

> <s_m_entry_id>
994

> <s_m_entry_name>
wee1_decoys_glide_SP.719

> <s_m_subgroup_title>
wee1_decoys_glide_SP

> <s_m_subgroupid>
wee1_decoys_glide_SP


$$$$
