ZINC05595813_5830
                    3D
 Schrodinger Suite 2024-2.
 42 44  0  0  1  0            999 V2000
   -1.0458   51.5560   29.9741 C   0  0  0  0  0  0
    0.2530   52.0918   29.4160 C   0  0  0  0  0  0
    0.4223   52.1839   28.0377 C   0  0  0  0  0  0
    1.6119   52.6827   27.5228 C   0  0  0  0  0  0
    2.6429   53.0901   28.3788 C   0  0  0  0  0  0
    2.4642   52.9845   29.7638 C   0  0  0  0  0  0
    1.2685   52.4965   30.2826 C   0  0  0  0  0  0
    3.9092   53.6386   27.7982 C   0  0  0  0  0  0
    4.2027   53.8244   26.4386 C   0  0  0  0  0  0
    5.4777   54.3616   26.3708 C   0  0  0  0  0  0
    5.8363   54.4968   27.6877 N   0  0  0  0  0  0
    6.6999   54.9152   28.0086 H   0  0  0  0  0  0
    4.9154   54.0474   28.5463 N   0  0  0  0  0  0
    6.2281   54.8538   25.2552 C   0  0  0  0  0  0
    7.1044   55.6968   25.4211 O   0  0  0  0  0  0
    5.8384   54.3584   24.0665 N   0  0  0  0  0  0
    6.3043   54.8212   22.8838 N   0  0  0  0  0  0
    5.7266   54.3839   21.8247 C   0  0  0  0  0  0
    6.2305   54.8968   20.4817 C   0  0  0  0  0  0
    4.5422   53.4887   21.7429 C   0  0  0  0  0  0
    3.3804   53.7634   22.4820 C   0  0  0  0  0  0
    2.2884   52.9011   22.4392 C   0  0  0  0  0  0
    2.3402   51.7639   21.6387 C   0  0  0  0  0  0
    3.4733   51.4863   20.8791 C   0  0  0  0  0  0
    4.5689   52.3437   20.9328 C   0  0  0  0  0  0
    0.8480   50.5850   21.5777 Br  0  0  0  0  0  0
   -1.8734   51.6903   29.2774 H   0  0  0  0  0  0
   -0.9667   50.4987   30.2221 H   0  0  0  0  0  0
   -1.2955   52.0955   30.8817 H   0  0  0  0  0  0
   -0.3622   51.8645   27.3665 H   0  0  0  0  0  0
    1.7176   52.7428   26.4513 H   0  0  0  0  0  0
    3.2507   53.2824   30.4405 H   0  0  0  0  0  0
    1.1322   52.4227   31.3531 H   0  0  0  0  0  0
    3.5546   53.6016   25.6048 H   0  0  0  0  0  0
    5.1141   53.6582   24.0035 H   0  0  0  0  0  0
    5.5519   55.6540   20.0893 H   0  0  0  0  0  0
    7.2065   55.3769   20.5718 H   0  0  0  0  0  0
    6.3186   54.1084   19.7348 H   0  0  0  0  0  0
    3.3140   54.6534   23.0922 H   0  0  0  0  0  0
    1.4005   53.1193   23.0139 H   0  0  0  0  0  0
    3.5050   50.6107   20.2454 H   0  0  0  0  0  0
    5.4373   52.0971   20.3379 H   0  0  0  0  0  0
  1  2  1  0  0  0
  1 27  1  0  0  0
  1 28  1  0  0  0
  1 29  1  0  0  0
  2  7  2  0  0  0
  2  3  1  0  0  0
  3  4  2  0  0  0
  3 30  1  0  0  0
  4  5  1  0  0  0
  4 31  1  0  0  0
  5  6  2  0  0  0
  5  8  1  0  0  0
  6  7  1  0  0  0
  6 32  1  0  0  0
  7 33  1  0  0  0
  8 13  2  0  0  0
  8  9  1  0  0  0
  9 10  2  0  0  0
  9 34  1  0  0  0
 10 11  1  0  0  0
 10 14  1  0  0  0
 11 12  1  0  0  0
 11 13  1  0  0  0
 14 15  2  0  0  0
 14 16  1  0  0  0
 16 17  1  0  0  0
 16 35  1  0  0  0
 17 18  2  0  0  0
 18 19  1  0  0  0
 18 20  1  0  0  0
 19 36  1  0  0  0
 19 37  1  0  0  0
 19 38  1  0  0  0
 20 25  2  0  0  0
 20 21  1  0  0  0
 21 22  2  0  0  0
 21 39  1  0  0  0
 22 23  1  0  0  0
 22 40  1  0  0  0
 23 24  2  0  0  0
 23 26  1  0  0  0
 24 25  1  0  0  0
 24 41  1  0  0  0
 25 42  1  0  0  0
M  END
> <i_i_glide_confnum>
16

> <i_i_glide_lignum>
5831

> <i_i_glide_posenum>
352

> <i_i_glide_rotatable_bonds>
5

> <i_m_Source_File_Index>
3821

> <b_m_subgroup_collapsed>
0

> <r_i_docking_score>
-6.77189

> <r_i_glide_ecoul>
-3.97856

> <r_i_glide_eff_state_penalty>
0

> <r_i_glide_einternal>
5.09272

> <r_i_glide_emodel>
-61.4722

> <r_i_glide_energy>
-44.9954

> <r_i_glide_erotb>
0.496079

> <r_i_glide_esite>
0

> <r_i_glide_evdw>
-41.0168

> <r_i_glide_gscore>
-6.77189

> <r_i_glide_hbond>
-0.412627

> <r_i_glide_ligand_efficiency>
-0.270876

> <r_i_glide_ligand_efficiency_ln>
-1.60514

> <r_i_glide_ligand_efficiency_sa>
-0.792045

> <r_i_glide_lipo>
-2.01409

> <r_i_glide_metal>
0

> <r_i_glide_rewards>
-2.19363

> <s_i_glide_gridfile>
wee1_glide-grid

> <s_m_Source_File>
wee1_decoys_glide_SP.sdf

> <s_m_Source_Path>
/Users/zhangxujun/Desktop

> <s_m_entry_id>
4096

> <s_m_entry_name>
wee1_decoys_glide_SP.3821

> <s_m_subgroup_title>
wee1_decoys_glide_SP

> <s_m_subgroupid>
wee1_decoys_glide_SP


$$$$
