ZINC45811942_2214
                    3D
 Schrodinger Suite 2024-2.
 60 62  0  0  1  0            999 V2000
    2.6959   55.1678   16.7675 C   0  0  0  0  0  0
    4.0387   54.4415   16.5438 C   0  0  0  0  0  0
    4.8303   54.1695   17.8510 N   0  3  0  0  0  0
    5.2208   55.4634   18.6021 C   0  0  0  0  0  0
    6.0776   55.1089   19.8387 C   0  0  0  0  0  0
    5.4574   54.0981   20.7051 N   0  0  0  0  0  0
    5.0012   52.8917   19.9961 C   0  0  0  0  0  0
    4.0895   53.1996   18.7945 C   0  0  0  0  0  0
    5.3749   54.2132   22.0818 C   0  0  0  0  0  0
    6.4909   54.5405   22.8554 C   0  0  0  0  0  0
    6.3992   54.6004   24.2443 C   0  0  0  0  0  0
    5.1804   54.3322   24.8904 C   0  0  0  0  0  0
    4.0447   54.0357   24.1119 C   0  0  0  0  0  0
    4.1544   53.9846   22.7204 C   0  0  0  0  0  0
    2.6856   53.7262   24.7406 C   0  0  0  0  0  0
    5.0222   54.3022   26.2850 N   0  0  0  0  0  0
    5.9080   54.4612   27.2944 C   0  0  0  0  0  0
    7.1026   54.7042   27.1292 O   0  0  0  0  0  0
    5.3697   54.3479   28.7439 C   0  0  0  0  0  0
    3.9408   54.0035   28.7693 N   0  0  0  0  0  0
    3.4302   52.8122   29.1291 C   0  0  0  0  0  0
    4.0829   51.9268   29.6817 O   0  0  0  0  0  0
    2.0118   52.5693   28.6790 C   0  0  0  0  0  0
    1.0684   53.5982   28.6227 C   0  0  0  0  0  0
   -0.1948   53.3442   28.1012 C   0  0  0  0  0  0
   -0.5475   52.0822   27.6127 C   0  0  0  0  0  0
    0.3882   51.0618   27.6805 C   0  0  0  0  0  0
    1.6376   51.2967   28.2383 C   0  0  0  0  0  0
   -1.9149   51.7976   26.9903 C   0  0  0  0  0  0
   -1.8115   50.9127   25.9956 F   0  0  0  0  0  0
   -2.7303   51.2985   27.9199 F   0  0  0  0  0  0
   -2.4690   52.8971   26.4818 F   0  0  0  0  0  0
    2.1815   55.2976   15.8143 H   0  0  0  0  0  0
    2.0213   54.6096   17.4151 H   0  0  0  0  0  0
    2.8274   56.1628   17.1900 H   0  0  0  0  0  0
    4.7173   55.0186   15.9122 H   0  0  0  0  0  0
    3.9057   53.4598   16.0842 H   0  0  0  0  0  0
    5.8037   56.0571   17.8959 H   0  0  0  0  0  0
    4.3054   55.9861   18.8816 H   0  0  0  0  0  0
    6.3227   56.0091   20.4034 H   0  0  0  0  0  0
    7.0250   54.6695   19.5207 H   0  0  0  0  0  0
    5.9039   52.3850   19.6516 H   0  0  0  0  0  0
    4.5095   52.1899   20.6725 H   0  0  0  0  0  0
    3.9077   52.2867   18.2217 H   0  0  0  0  0  0
    3.1452   53.6551   19.0998 H   0  0  0  0  0  0
    7.4475   54.7269   22.3885 H   0  0  0  0  0  0
    7.2988   54.8372   24.7883 H   0  0  0  0  0  0
    3.2823   53.7487   22.1257 H   0  0  0  0  0  0
    1.8875   53.6760   23.9958 H   0  0  0  0  0  0
    2.7220   52.7772   25.2783 H   0  0  0  0  0  0
    2.4105   54.4958   25.4581 H   0  0  0  0  0  0
    4.0887   54.0657   26.5786 H   0  0  0  0  0  0
    5.5055   55.2963   29.2586 H   0  0  0  0  0  0
    5.9710   53.6056   29.2655 H   0  0  0  0  0  0
    3.3087   54.7005   28.4135 H   0  0  0  0  0  0
    1.2966   54.5975   28.9714 H   0  0  0  0  0  0
   -0.8955   54.1606   28.0816 H   0  0  0  0  0  0
    0.1371   50.0720   27.3215 H   0  0  0  0  0  0
    2.3046   50.4583   28.2901 H   0  0  0  0  0  0
    5.6880   53.7047   17.5845 H   0  0  0  0  0  0
  1  2  1  0  0  0
  1 33  1  0  0  0
  1 34  1  0  0  0
  1 35  1  0  0  0
  2  3  1  0  0  0
  2 36  1  0  0  0
  2 37  1  0  0  0
  3  8  1  0  0  0
  3  4  1  0  0  0
  3 60  1  0  0  0
  4  5  1  0  0  0
  4 38  1  0  0  0
  4 39  1  0  0  0
  5  6  1  0  0  0
  5 40  1  0  0  0
  5 41  1  0  0  0
  6  7  1  0  0  0
  6  9  1  0  0  0
  7  8  1  0  0  0
  7 42  1  0  0  0
  7 43  1  0  0  0
  8 44  1  0  0  0
  8 45  1  0  0  0
  9 14  2  0  0  0
  9 10  1  0  0  0
 10 11  2  0  0  0
 10 46  1  0  0  0
 11 12  1  0  0  0
 11 47  1  0  0  0
 12 13  2  0  0  0
 12 16  1  0  0  0
 13 14  1  0  0  0
 13 15  1  0  0  0
 14 48  1  0  0  0
 15 49  1  0  0  0
 15 50  1  0  0  0
 15 51  1  0  0  0
 16 17  1  0  0  0
 16 52  1  0  0  0
 17 18  2  0  0  0
 17 19  1  0  0  0
 19 20  1  0  0  0
 19 53  1  0  0  0
 19 54  1  0  0  0
 20 21  1  0  0  0
 20 55  1  0  0  0
 21 22  2  0  0  0
 21 23  1  0  0  0
 23 28  2  0  0  0
 23 24  1  0  0  0
 24 25  2  0  0  0
 24 56  1  0  0  0
 25 26  1  0  0  0
 25 57  1  0  0  0
 26 27  2  0  0  0
 26 29  1  0  0  0
 27 28  1  0  0  0
 27 58  1  0  0  0
 28 59  1  0  0  0
 29 30  1  0  0  0
 29 31  1  0  0  0
 29 32  1  0  0  0
M  CHG  1   3   1
M  END
> <i_i_glide_confnum>
10

> <i_i_glide_lignum>
2215

> <i_i_glide_posenum>
330

> <i_i_glide_rotatable_bonds>
9

> <i_m_Source_File_Index>
4913

> <b_m_subgroup_collapsed>
0

> <r_i_docking_score>
-6.39253

> <r_i_glide_ecoul>
-4.77014

> <r_i_glide_eff_state_penalty>
0

> <r_i_glide_einternal>
11.7009

> <r_i_glide_emodel>
-64.2285

> <r_i_glide_energy>
-47.2217

> <r_i_glide_erotb>
0.694362

> <r_i_glide_esite>
-0.14229

> <r_i_glide_evdw>
-42.4515

> <r_i_glide_gscore>
-6.39253

> <r_i_glide_hbond>
-0.199219

> <r_i_glide_ligand_efficiency>
-0.199766

> <r_i_glide_ligand_efficiency_ln>
-1.43146

> <r_i_glide_ligand_efficiency_sa>
-0.634219

> <r_i_glide_lipo>
-2.66824

> <r_i_glide_metal>
0

> <r_i_glide_rewards>
-1.23904

> <s_i_glide_gridfile>
wee1_glide-grid

> <s_m_Source_File>
wee1_decoys_glide_SP.sdf

> <s_m_Source_Path>
/Users/zhangxujun/Desktop

> <s_m_entry_id>
5188

> <s_m_entry_name>
wee1_decoys_glide_SP.4913

> <s_m_subgroup_title>
wee1_decoys_glide_SP

> <s_m_subgroupid>
wee1_decoys_glide_SP


$$$$
