ZINC09182676_465
                    3D
 Schrodinger Suite 2024-2.
 57 59  0  0  1  0            999 V2000
    6.7293   53.4665   27.9377 C   0  0  0  0  0  0
    5.7246   54.4753   27.3459 C   0  0  1  0  0  0
    5.8082   55.4286   27.8723 H   0  0  0  0  0  0
    6.0567   54.7771   25.8680 C   0  0  0  0  0  0
    7.1044   55.3714   25.6230 O   0  0  0  0  0  0
    5.1599   54.3907   24.9337 N   0  0  0  0  0  0
    5.2249   54.4602   23.5337 C   0  0  0  0  0  0
    4.0754   54.0460   22.8571 C   0  0  0  0  0  0
    4.0427   54.0398   21.4662 C   0  0  0  0  0  0
    5.1667   54.4440   20.7469 C   0  0  0  0  0  0
    6.3046   54.8969   21.4139 C   0  0  0  0  0  0
    6.3429   54.8944   22.8049 C   0  0  0  0  0  0
    5.1705   54.3358   18.9654 S   0  0  0  0  0  0
    4.3962   55.4823   18.4783 O   0  0  0  0  0  0
    6.5574   54.1098   18.5464 O   0  0  0  0  0  0
    4.2618   52.8966   18.5966 N   0  0  0  0  0  0
    4.3713   54.0046   27.4541 O   0  0  0  0  0  0
    3.7089   53.9837   28.6283 C   0  0  0  0  0  0
    4.1933   54.2659   29.7249 O   0  0  0  0  0  0
    2.2084   53.7175   28.4395 C   0  0  2  0  0  0
    1.9420   54.1054   27.4570 H   0  0  0  0  0  0
    1.3852   54.4091   29.5553 C   0  0  0  0  0  0
   -0.0954   54.0520   29.4037 C   0  0  0  0  0  0
   -0.2917   52.5195   29.3806 C   0  0  0  0  0  0
    0.4818   52.0039   28.2291 N   0  0  0  0  0  0
    1.9402   52.1829   28.4359 C   0  0  0  0  0  0
   -0.0166   51.9953   26.9508 C   0  0  0  0  0  0
    0.7168   52.1214   25.9666 O   0  0  0  0  0  0
   -1.5094   51.8575   26.7023 C   0  0  0  0  0  0
   -2.3328   51.0637   27.5115 C   0  0  0  0  0  0
   -3.6983   50.9581   27.2573 C   0  0  0  0  0  0
   -4.2514   51.6405   26.1788 C   0  0  0  0  0  0
   -3.4466   52.4080   25.3433 C   0  0  0  0  0  0
   -2.0801   52.4960   25.5941 C   0  0  0  0  0  0
   -5.9471   51.5304   25.8723 Cl  0  0  0  0  0  0
    7.7514   53.8303   27.8497 H   0  0  0  0  0  0
    6.5458   53.3004   28.9949 H   0  0  0  0  0  0
    6.6654   52.4971   27.4460 H   0  0  0  0  0  0
    4.3163   53.9750   25.3051 H   0  0  0  0  0  0
    3.2017   53.7149   23.4001 H   0  0  0  0  0  0
    3.1536   53.7043   20.9503 H   0  0  0  0  0  0
    7.1800   55.2084   20.8584 H   0  0  0  0  0  0
    7.2558   55.2181   23.2786 H   0  0  0  0  0  0
    3.4771   53.0329   17.9558 H   0  0  0  0  0  0
    4.7978   52.0223   18.4480 H   0  0  0  0  0  0
    1.7066   54.0844   30.5452 H   0  0  0  0  0  0
    1.4961   55.4944   29.5103 H   0  0  0  0  0  0
   -0.6496   54.4883   30.2307 H   0  0  0  0  0  0
   -0.4947   54.4871   28.4879 H   0  0  0  0  0  0
    0.1326   52.0714   30.2792 H   0  0  0  0  0  0
   -1.3277   52.2039   29.4293 H   0  0  0  0  0  0
    2.5117   51.6276   27.6919 H   0  0  0  0  0  0
    2.2108   51.7255   29.3890 H   0  0  0  0  0  0
   -1.9264   50.4967   28.3363 H   0  0  0  0  0  0
   -4.3120   50.3341   27.8896 H   0  0  0  0  0  0
   -3.8748   52.9252   24.4960 H   0  0  0  0  0  0
   -1.4682   53.0893   24.9295 H   0  0  0  0  0  0
  1  2  1  0  0  0
  1 36  1  0  0  0
  1 37  1  0  0  0
  1 38  1  0  0  0
  2  3  1  0  0  0
  2  4  1  0  0  0
  2 17  1  0  0  0
  4  5  2  0  0  0
  4  6  1  0  0  0
  6  7  1  0  0  0
  6 39  1  0  0  0
  7 12  2  0  0  0
  7  8  1  0  0  0
  8  9  2  0  0  0
  8 40  1  0  0  0
  9 10  1  0  0  0
  9 41  1  0  0  0
 10 11  2  0  0  0
 10 13  1  0  0  0
 11 12  1  0  0  0
 11 42  1  0  0  0
 12 43  1  0  0  0
 13 14  2  0  0  0
 13 15  2  0  0  0
 13 16  1  0  0  0
 16 44  1  0  0  0
 16 45  1  0  0  0
 17 18  1  0  0  0
 18 19  2  0  0  0
 18 20  1  0  0  0
 20 21  1  0  0  0
 20 26  1  0  0  0
 20 22  1  0  0  0
 22 23  1  0  0  0
 22 46  1  0  0  0
 22 47  1  0  0  0
 23 24  1  0  0  0
 23 48  1  0  0  0
 23 49  1  0  0  0
 24 25  1  0  0  0
 24 50  1  0  0  0
 24 51  1  0  0  0
 25 26  1  0  0  0
 25 27  1  0  0  0
 26 52  1  0  0  0
 26 53  1  0  0  0
 27 28  2  0  0  0
 27 29  1  0  0  0
 29 34  2  0  0  0
 29 30  1  0  0  0
 30 31  2  0  0  0
 30 54  1  0  0  0
 31 32  1  0  0  0
 31 55  1  0  0  0
 32 33  2  0  0  0
 32 35  1  0  0  0
 33 34  1  0  0  0
 33 56  1  0  0  0
 34 57  1  0  0  0
M  END
> <i_i_glide_confnum>
250

> <i_i_glide_lignum>
466

> <i_i_glide_posenum>
346

> <i_i_glide_rotatable_bonds>
9

> <i_m_Source_File_Index>
4483

> <b_m_subgroup_collapsed>
0

> <r_i_docking_score>
-6.13549

> <r_i_glide_ecoul>
-8.29994

> <r_i_glide_eff_state_penalty>
0

> <r_i_glide_einternal>
13.5028

> <r_i_glide_emodel>
-67.1364

> <r_i_glide_energy>
-54.1438

> <r_i_glide_erotb>
0.668044

> <r_i_glide_esite>
-0.102547

> <r_i_glide_evdw>
-45.8438

> <r_i_glide_gscore>
-6.13549

> <r_i_glide_hbond>
-0.491784

> <r_i_glide_ligand_efficiency>
-0.185924

> <r_i_glide_ligand_efficiency_ln>
-1.3645

> <r_i_glide_ligand_efficiency_sa>
-0.596357

> <r_i_glide_lipo>
-2.4284

> <r_i_glide_metal>
0

> <r_i_glide_rewards>
-0.24362

> <s_i_glide_gridfile>
wee1_glide-grid

> <s_m_Source_File>
wee1_decoys_glide_SP.sdf

> <s_m_Source_Path>
/Users/zhangxujun/Desktop

> <s_m_entry_id>
4758

> <s_m_entry_name>
wee1_decoys_glide_SP.4483

> <s_m_subgroup_title>
wee1_decoys_glide_SP

> <s_m_subgroupid>
wee1_decoys_glide_SP


$$$$
