ZINC17958711_3527
                    3D
 Schrodinger Suite 2024-2.
 55 56  0  0  1  0            999 V2000
    2.3715   53.6755   25.0690 C   0  0  0  0  0  0
    2.8079   53.6966   26.5308 C   0  0  0  0  0  0
    1.8879   53.2985   27.5082 C   0  0  0  0  0  0
    2.2415   53.2916   28.8557 C   0  0  0  0  0  0
    3.5188   53.6866   29.2392 C   0  0  0  0  0  0
    4.4407   54.0955   28.2796 C   0  0  0  0  0  0
    4.1047   54.0974   26.9125 C   0  0  0  0  0  0
    5.0042   54.4870   25.8941 N   0  0  0  0  0  0
    6.3434   54.6566   25.9503 C   0  0  0  0  0  0
    7.0259   54.4966   26.9598 O   0  0  0  0  0  0
    7.1044   55.0773   24.6822 C   0  0  0  0  0  0
    6.3045   55.2967   23.4812 N   0  0  0  0  0  0
    5.9129   54.3279   22.6452 C   0  0  0  0  0  0
    6.1060   53.1402   22.8817 O   0  0  0  0  0  0
    5.2113   54.7670   21.3354 C   0  0  2  0  0  0
    5.1045   55.8476   21.3359 H   0  0  0  0  0  0
    3.7854   54.1895   21.1167 C   0  0  0  0  0  0
    3.4943   52.6858   21.3791 C   0  0  0  0  0  0
    1.9819   52.3883   21.2978 C   0  0  0  0  0  0
    4.3077   51.7311   20.4816 C   0  0  0  0  0  0
    6.0327   54.4967   20.1590 N   0  0  0  0  0  0
    7.0087   55.2967   19.6905 C   0  0  0  0  0  0
    7.2842   56.3872   20.2001 O   0  0  0  0  0  0
    7.8073   54.7472   18.5303 C   0  0  0  0  0  0
    7.2888   53.7524   17.6819 C   0  0  0  0  0  0
    8.0688   53.2253   16.6565 C   0  0  0  0  0  0
    9.3662   53.6917   16.4634 C   0  0  0  0  0  0
    9.8875   54.6874   17.2849 C   0  0  0  0  0  0
    9.1095   55.2156   18.3113 C   0  0  0  0  0  0
   10.3346   53.0317   15.1969 Cl  0  0  0  0  0  0
    0.9803   52.7496   30.1739 Br  0  0  0  0  0  0
    1.3021   53.4928   24.9573 H   0  0  0  0  0  0
    2.5892   54.6273   24.5835 H   0  0  0  0  0  0
    2.9148   52.8977   24.5334 H   0  0  0  0  0  0
    0.8931   52.9852   27.2263 H   0  0  0  0  0  0
    3.8020   53.6778   30.2801 H   0  0  0  0  0  0
    5.4082   54.4119   28.6351 H   0  0  0  0  0  0
    4.5921   54.5818   24.9795 H   0  0  0  0  0  0
    7.8538   54.3102   24.4818 H   0  0  0  0  0  0
    7.6330   56.0080   24.8818 H   0  0  0  0  0  0
    6.1472   56.2562   23.2153 H   0  0  0  0  0  0
    3.1044   54.7800   21.7315 H   0  0  0  0  0  0
    3.5044   54.4209   20.0892 H   0  0  0  0  0  0
    3.7636   52.4734   22.4111 H   0  0  0  0  0  0
    1.7155   51.8230   20.4047 H   0  0  0  0  0  0
    1.6546   51.8077   22.1611 H   0  0  0  0  0  0
    1.3810   53.2966   21.2823 H   0  0  0  0  0  0
    4.7043   52.2284   19.5981 H   0  0  0  0  0  0
    5.1465   51.3098   21.0334 H   0  0  0  0  0  0
    3.7182   50.8871   20.1223 H   0  0  0  0  0  0
    5.8802   53.6028   19.7181 H   0  0  0  0  0  0
    6.2869   53.3653   17.8043 H   0  0  0  0  0  0
    7.6673   52.4523   16.0172 H   0  0  0  0  0  0
   10.8959   55.0445   17.1356 H   0  0  0  0  0  0
    9.5401   55.9755   18.9497 H   0  0  0  0  0  0
  1  2  1  0  0  0
  1 32  1  0  0  0
  1 33  1  0  0  0
  1 34  1  0  0  0
  2  7  2  0  0  0
  2  3  1  0  0  0
  3  4  2  0  0  0
  3 35  1  0  0  0
  4  5  1  0  0  0
  4 31  1  0  0  0
  5  6  2  0  0  0
  5 36  1  0  0  0
  6  7  1  0  0  0
  6 37  1  0  0  0
  7  8  1  0  0  0
  8  9  1  0  0  0
  8 38  1  0  0  0
  9 10  2  0  0  0
  9 11  1  0  0  0
 11 12  1  0  0  0
 11 39  1  0  0  0
 11 40  1  0  0  0
 12 13  1  0  0  0
 12 41  1  0  0  0
 13 14  2  0  0  0
 13 15  1  0  0  0
 15 16  1  0  0  0
 15 17  1  0  0  0
 15 21  1  0  0  0
 17 18  1  0  0  0
 17 42  1  0  0  0
 17 43  1  0  0  0
 18 19  1  0  0  0
 18 20  1  0  0  0
 18 44  1  0  0  0
 19 45  1  0  0  0
 19 46  1  0  0  0
 19 47  1  0  0  0
 20 48  1  0  0  0
 20 49  1  0  0  0
 20 50  1  0  0  0
 21 22  1  0  0  0
 21 51  1  0  0  0
 22 23  2  0  0  0
 22 24  1  0  0  0
 24 29  2  0  0  0
 24 25  1  0  0  0
 25 26  2  0  0  0
 25 52  1  0  0  0
 26 27  1  0  0  0
 26 53  1  0  0  0
 27 28  2  0  0  0
 27 30  1  0  0  0
 28 29  1  0  0  0
 28 54  1  0  0  0
 29 55  1  0  0  0
M  END
> <i_i_glide_confnum>
33

> <i_i_glide_lignum>
3528

> <i_i_glide_posenum>
5

> <i_i_glide_rotatable_bonds>
11

> <i_m_Source_File_Index>
176

> <b_m_subgroup_collapsed>
0

> <r_i_docking_score>
-5.0917

> <r_i_glide_ecoul>
-2.69513

> <r_i_glide_eff_state_penalty>
0

> <r_i_glide_einternal>
7.10054

> <r_i_glide_emodel>
-58.7183

> <r_i_glide_energy>
-47.3261

> <r_i_glide_erotb>
0.749193

> <r_i_glide_esite>
0

> <r_i_glide_evdw>
-44.631

> <r_i_glide_gscore>
-5.0917

> <r_i_glide_hbond>
-0.323469

> <r_i_glide_ligand_efficiency>
-0.169723

> <r_i_glide_ligand_efficiency_ln>
-1.15689

> <r_i_glide_ligand_efficiency_sa>
-0.52737

> <r_i_glide_lipo>
-1.94407

> <r_i_glide_metal>
0

> <r_i_glide_rewards>
-0.937532

> <s_i_glide_gridfile>
wee1_glide-grid

> <s_m_Source_File>
wee1_decoys_glide_SP.sdf

> <s_m_Source_Path>
/Users/zhangxujun/Desktop

> <s_m_entry_id>
451

> <s_m_entry_name>
wee1_decoys_glide_SP.176

> <s_m_subgroup_title>
wee1_decoys_glide_SP

> <s_m_subgroupid>
wee1_decoys_glide_SP


$$$$
