ZINC38931754_3392
                    3D
 Schrodinger Suite 2024-2.
 51 54  0  0  1  0            999 V2000
    2.0617   50.9148   18.8523 C   0  0  0  0  0  0
    1.7979   50.4950   20.3074 C   0  0  0  0  0  0
    2.0206   51.5690   21.2192 O   0  0  0  0  0  0
    3.2680   51.9013   21.6117 C   0  0  0  0  0  0
    4.3064   51.3262   21.2778 O   0  0  0  0  0  0
    3.2719   53.0883   22.5893 C   0  0  0  0  0  0
    4.5782   53.7641   22.7529 N   0  0  0  0  0  0
    5.2021   54.3930   21.6580 C   0  0  0  0  0  0
    4.7557   54.4803   20.3320 C   0  0  0  0  0  0
    5.5003   55.1804   19.3845 C   0  0  0  0  0  0
    6.6966   55.8010   19.7522 C   0  0  0  0  0  0
    7.1598   55.6967   21.0684 C   0  0  0  0  0  0
    6.3943   55.0104   22.0122 C   0  0  0  0  0  0
    6.7025   54.8446   23.7231 S   0  0  0  0  0  0
    5.0722   54.1064   24.0136 C   0  0  0  0  0  0
    4.4821   53.9102   25.1338 N   0  0  0  0  0  0
    5.0184   54.2367   26.3683 C   0  0  0  0  0  0
    6.1990   54.0968   26.6953 O   0  0  0  0  0  0
    3.9687   54.7182   27.3843 C   0  0  0  0  0  0
    3.0726   53.6269   27.8066 N   0  0  0  0  0  0
    2.0385   53.0499   27.0992 C   0  0  0  0  0  0
    1.5042   53.2698   25.8295 C   0  0  0  0  0  0
    0.4287   52.4754   25.4148 C   0  0  0  0  0  0
   -0.1024   51.4946   26.2664 C   0  0  0  0  0  0
    0.4355   51.2972   27.5432 C   0  0  0  0  0  0
    1.5132   52.0917   27.9244 C   0  0  0  0  0  0
    2.1919   52.0611   29.1020 O   0  0  0  0  0  0
    3.1573   53.0233   29.0687 C   0  0  0  0  0  0
    3.8980   53.2553   30.0229 O   0  0  0  0  0  0
    7.5941   56.7661   18.5447 S   0  0  0  0  0  0
    9.0158   56.6689   18.8819 O   0  0  0  0  0  0
    7.0930   56.4129   17.2141 O   0  0  0  0  0  0
    7.1046   58.4091   18.8622 N   0  0  0  0  0  0
    1.8477   50.0948   18.1659 H   0  0  0  0  0  0
    3.1045   51.1945   18.6997 H   0  0  0  0  0  0
    1.4415   51.7642   18.5658 H   0  0  0  0  0  0
    0.7577   50.1835   20.4061 H   0  0  0  0  0  0
    2.4055   49.6276   20.5733 H   0  0  0  0  0  0
    2.4627   53.7932   22.3962 H   0  0  0  0  0  0
    3.0123   52.6160   23.5367 H   0  0  0  0  0  0
    3.8235   54.0369   20.0157 H   0  0  0  0  0  0
    5.1303   55.2528   18.3712 H   0  0  0  0  0  0
    8.0914   56.1619   21.3588 H   0  0  0  0  0  0
    4.4804   55.1808   28.2297 H   0  0  0  0  0  0
    3.3719   55.4914   26.9052 H   0  0  0  0  0  0
    1.8895   54.0343   25.1720 H   0  0  0  0  0  0
    0.0008   52.6214   24.4337 H   0  0  0  0  0  0
   -0.9333   50.8850   25.9403 H   0  0  0  0  0  0
    0.0145   50.5427   28.1939 H   0  0  0  0  0  0
    7.8895   59.0623   18.8810 H   0  0  0  0  0  0
    6.3747   58.7389   18.2229 H   0  0  0  0  0  0
  1  2  1  0  0  0
  1 34  1  0  0  0
  1 35  1  0  0  0
  1 36  1  0  0  0
  2  3  1  0  0  0
  2 37  1  0  0  0
  2 38  1  0  0  0
  3  4  1  0  0  0
  4  5  2  0  0  0
  4  6  1  0  0  0
  6  7  1  0  0  0
  6 39  1  0  0  0
  6 40  1  0  0  0
  7 15  1  0  0  0
  7  8  1  0  0  0
  8 13  2  0  0  0
  8  9  1  0  0  0
  9 10  2  0  0  0
  9 41  1  0  0  0
 10 11  1  0  0  0
 10 42  1  0  0  0
 11 12  2  0  0  0
 11 30  1  0  0  0
 12 13  1  0  0  0
 12 43  1  0  0  0
 13 14  1  0  0  0
 14 15  1  0  0  0
 15 16  2  0  0  0
 16 17  1  0  0  0
 17 18  2  0  0  0
 17 19  1  0  0  0
 19 20  1  0  0  0
 19 44  1  0  0  0
 19 45  1  0  0  0
 20 28  1  0  0  0
 20 21  1  0  0  0
 21 26  2  0  0  0
 21 22  1  0  0  0
 22 23  2  0  0  0
 22 46  1  0  0  0
 23 24  1  0  0  0
 23 47  1  0  0  0
 24 25  2  0  0  0
 24 48  1  0  0  0
 25 26  1  0  0  0
 25 49  1  0  0  0
 26 27  1  0  0  0
 27 28  1  0  0  0
 28 29  2  0  0  0
 30 31  2  0  0  0
 30 32  2  0  0  0
 30 33  1  0  0  0
 33 50  1  0  0  0
 33 51  1  0  0  0
M  END
> <i_i_glide_confnum>
67

> <i_i_glide_lignum>
3393

> <i_i_glide_posenum>
278

> <i_i_glide_rotatable_bonds>
8

> <i_m_Source_File_Index>
2856

> <b_m_subgroup_collapsed>
0

> <r_i_docking_score>
-6.34251

> <r_i_glide_ecoul>
-4.41741

> <r_i_glide_eff_state_penalty>
0

> <r_i_glide_einternal>
6.64928

> <r_i_glide_emodel>
-72.8676

> <r_i_glide_energy>
-54.2877

> <r_i_glide_erotb>
0.42292

> <r_i_glide_esite>
-0.0958118

> <r_i_glide_evdw>
-49.8703

> <r_i_glide_gscore>
-6.34251

> <r_i_glide_hbond>
-0.0923705

> <r_i_glide_ligand_efficiency>
-0.192197

> <r_i_glide_ligand_efficiency_ln>
-1.41054

> <r_i_glide_ligand_efficiency_sa>
-0.616479

> <r_i_glide_lipo>
-2.45563

> <r_i_glide_metal>
0

> <r_i_glide_rewards>
-0.965486

> <s_i_glide_gridfile>
wee1_glide-grid

> <s_m_Source_File>
wee1_decoys_glide_SP.sdf

> <s_m_Source_Path>
/Users/zhangxujun/Desktop

> <s_m_entry_id>
3131

> <s_m_entry_name>
wee1_decoys_glide_SP.2856

> <s_m_subgroup_title>
wee1_decoys_glide_SP

> <s_m_subgroupid>
wee1_decoys_glide_SP


$$$$
