ZINC45840892_5664
                    3D
 Schrodinger Suite 2024-2.
 47 51  0  0  1  0            999 V2000
    3.7676   54.2396   28.3459 C   0  0  0  0  0  0
    5.1045   54.4934   28.6514 C   0  0  0  0  0  0
    6.0747   54.6101   27.6565 C   0  0  0  0  0  0
    5.6619   54.4838   26.3249 C   0  0  0  0  0  0
    4.3046   54.2174   26.0032 C   0  0  0  0  0  0
    3.3483   54.0961   27.0230 C   0  0  0  0  0  0
    4.0399   54.0965   24.6799 N   0  0  0  0  0  0
    5.1154   54.2427   23.9528 C   0  0  0  0  0  0
    6.5888   54.6087   24.8352 S   0  0  0  0  0  0
    5.1009   54.1229   22.4618 C   0  0  0  0  0  0
    5.9652   54.8671   21.6515 C   0  0  0  0  0  0
    5.9050   54.7527   20.2622 C   0  0  0  0  0  0
    4.9865   53.8856   19.6672 C   0  0  0  0  0  0
    4.0976   53.1557   20.4579 C   0  0  0  0  0  0
    4.1730   53.2696   21.8539 C   0  0  0  0  0  0
    3.1554   52.3419   19.8017 N   0  0  0  0  0  0
    1.8897   52.0978   20.2083 C   0  0  0  0  0  0
    1.4280   52.4957   21.2796 O   0  0  0  0  0  0
    1.0035   51.2865   19.2508 C   0  0  0  0  0  0
   -0.4490   51.5625   19.3558 N   0  0  0  0  0  0
   -1.3067   51.2881   20.4191 C   0  0  0  0  0  0
   -2.5217   51.6968   20.1437 N   0  0  0  0  0  0
   -2.5003   52.2686   18.8830 N   0  0  0  0  0  0
   -1.2736   52.1997   18.4333 C   0  0  0  0  0  0
   -0.8301   52.8994   16.8727 S   0  5  0  0  0  0
   -0.9376   50.7227   21.7593 C   0  0  0  0  0  0
   -1.5166   51.2842   22.9062 C   0  0  0  0  0  0
   -1.1455   50.8432   24.1736 C   0  0  0  0  0  0
   -0.1856   49.8416   24.2963 C   0  0  0  0  0  0
    0.3827   49.2678   23.1658 C   0  0  0  0  0  0
   -0.0083   49.6871   21.9006 C   0  0  0  0  0  0
    0.3045   49.2983   25.8563 Cl  0  0  0  0  0  0
    3.0461   54.1560   29.1453 H   0  0  0  0  0  0
    5.4011   54.6114   29.6817 H   0  0  0  0  0  0
    7.1034   54.8147   27.9144 H   0  0  0  0  0  0
    2.3147   53.8925   26.7893 H   0  0  0  0  0  0
    6.6819   55.5441   22.0928 H   0  0  0  0  0  0
    6.5745   55.3305   19.6422 H   0  0  0  0  0  0
    4.9532   53.8070   18.5898 H   0  0  0  0  0  0
    3.5070   52.6970   22.4816 H   0  0  0  0  0  0
    3.4269   52.0101   18.8858 H   0  0  0  0  0  0
    1.1778   50.2232   19.3905 H   0  0  0  0  0  0
    1.3254   51.4827   18.2295 H   0  0  0  0  0  0
   -2.2376   52.0840   22.8179 H   0  0  0  0  0  0
   -1.5872   51.2828   25.0550 H   0  0  0  0  0  0
    1.1295   48.4966   23.2772 H   0  0  0  0  0  0
    0.4279   49.2076   21.0388 H   0  0  0  0  0  0
  1  6  2  0  0  0
  1  2  1  0  0  0
  1 33  1  0  0  0
  2  3  2  0  0  0
  2 34  1  0  0  0
  3  4  1  0  0  0
  3 35  1  0  0  0
  4  9  1  0  0  0
  4  5  2  0  0  0
  5  6  1  0  0  0
  5  7  1  0  0  0
  6 36  1  0  0  0
  7  8  2  0  0  0
  8  9  1  0  0  0
  8 10  1  0  0  0
 10 15  2  0  0  0
 10 11  1  0  0  0
 11 12  2  0  0  0
 11 37  1  0  0  0
 12 13  1  0  0  0
 12 38  1  0  0  0
 13 14  2  0  0  0
 13 39  1  0  0  0
 14 15  1  0  0  0
 14 16  1  0  0  0
 15 40  1  0  0  0
 16 17  1  0  0  0
 16 41  1  0  0  0
 17 18  2  0  0  0
 17 19  1  0  0  0
 19 20  1  0  0  0
 19 42  1  0  0  0
 19 43  1  0  0  0
 20 24  1  0  0  0
 20 21  1  0  0  0
 21 22  2  0  0  0
 21 26  1  0  0  0
 22 23  1  0  0  0
 23 24  2  0  0  0
 24 25  1  0  0  0
 26 31  2  0  0  0
 26 27  1  0  0  0
 27 28  2  0  0  0
 27 44  1  0  0  0
 28 29  1  0  0  0
 28 45  1  0  0  0
 29 30  2  0  0  0
 29 32  1  0  0  0
 30 31  1  0  0  0
 30 46  1  0  0  0
 31 47  1  0  0  0
M  CHG  1  25  -1
M  END
> <i_i_glide_confnum>
31

> <i_i_glide_lignum>
5665

> <i_i_glide_posenum>
112

> <i_i_glide_rotatable_bonds>
6

> <i_m_Source_File_Index>
1578

> <b_m_subgroup_collapsed>
0

> <r_i_docking_score>
-5.02819

> <r_i_glide_ecoul>
-1.37375

> <r_i_glide_eff_state_penalty>
0

> <r_i_glide_einternal>
5.36499

> <r_i_glide_emodel>
-59.2306

> <r_i_glide_energy>
-46.0907

> <r_i_glide_erotb>
0.534136

> <r_i_glide_esite>
-0.191403

> <r_i_glide_evdw>
-44.7169

> <r_i_glide_gscore>
-5.02819

> <r_i_glide_hbond>
0

> <r_i_glide_ligand_efficiency>
-0.157131

> <r_i_glide_ligand_efficiency_ln>
-1.12595

> <r_i_glide_ligand_efficiency_sa>
-0.49886

> <r_i_glide_lipo>
-2.71696

> <r_i_glide_metal>
0

> <r_i_glide_rewards>
-0.212056

> <s_i_glide_gridfile>
wee1_glide-grid

> <s_m_Source_File>
wee1_decoys_glide_SP.sdf

> <s_m_Source_Path>
/Users/zhangxujun/Desktop

> <s_m_entry_id>
1853

> <s_m_entry_name>
wee1_decoys_glide_SP.1578

> <s_m_subgroup_title>
wee1_decoys_glide_SP

> <s_m_subgroupid>
wee1_decoys_glide_SP


$$$$
