ZINC16040838_1546
                    3D
 Schrodinger Suite 2024-2.
 47 52  0  0  1  0            999 V2000
    5.7301   54.5006   23.3706 C   0  0  0  0  0  0
    4.7183   54.4438   24.3239 C   0  0  0  0  0  0
    3.5044   53.8321   24.0107 C   0  0  0  0  0  0
    3.2820   53.2481   22.7543 C   0  0  0  0  0  0
    4.2978   53.3762   21.7827 C   0  0  0  0  0  0
    5.5046   54.0045   22.0909 C   0  0  0  0  0  0
    4.1167   52.7344   20.4733 C   0  0  0  0  0  0
    3.1079   51.8790   20.2519 C   0  0  0  0  0  0
    2.1857   51.5917   21.2416 N   0  0  0  0  0  0
    1.9817   52.4695   22.4126 C   0  0  1  0  0  0
    1.2195   53.2110   22.1662 H   0  0  0  0  0  0
    1.4933   51.4404   23.4582 C   0  0  2  0  0  0
    2.3037   51.0716   24.0817 H   0  0  0  0  0  0
    0.8778   50.2975   22.7066 C   0  0  2  0  0  0
    1.3835   49.3707   22.9880 H   0  0  0  0  0  0
    1.1083   50.5996   21.1873 C   0  0  1  0  0  0
    1.4733   49.6939   20.6978 H   0  0  0  0  0  0
   -0.0950   51.1262   20.3501 C   0  0  0  0  0  0
   -0.7589   52.0966   20.7154 O   0  0  0  0  0  0
   -0.3876   50.4847   19.2169 N   0  0  0  0  0  0
   -0.5590   50.2212   23.2318 C   0  0  0  0  0  0
   -1.3793   49.3692   22.8836 O   0  0  0  0  0  0
   -0.7256   51.2097   24.1495 N   0  0  0  0  0  0
    0.3826   51.9683   24.3460 C   0  0  0  0  0  0
    0.5165   52.8967   25.1397 O   0  0  0  0  0  0
   -1.9235   51.4453   24.8420 C   0  0  0  0  0  0
   -2.2501   50.6688   25.9752 C   0  0  0  0  0  0
   -3.4040   50.9454   26.7207 C   0  0  0  0  0  0
   -4.2098   51.9972   26.2937 C   0  0  0  0  0  0
   -3.8984   52.7484   25.1931 C   0  0  0  0  0  0
   -2.7591   52.5031   24.4360 C   0  0  0  0  0  0
   -4.8256   53.7317   25.0413 O   0  0  0  0  0  0
   -5.8588   53.4057   25.9340 C   0  0  0  0  0  0
   -5.3455   52.4837   26.8592 O   0  0  0  0  0  0
    6.6734   54.9695   23.6089 H   0  0  0  0  0  0
    4.8746   54.8585   25.3084 H   0  0  0  0  0  0
    2.7484   53.7863   24.7751 H   0  0  0  0  0  0
    6.2800   54.0965   21.3456 H   0  0  0  0  0  0
    4.8189   52.9259   19.6740 H   0  0  0  0  0  0
    2.9992   51.3583   19.3093 H   0  0  0  0  0  0
    0.1649   49.7009   18.8997 H   0  0  0  0  0  0
   -1.1628   50.8087   18.6594 H   0  0  0  0  0  0
   -1.6005   49.8653   26.2996 H   0  0  0  0  0  0
   -3.6367   50.3578   27.5970 H   0  0  0  0  0  0
   -2.5051   53.1179   23.5841 H   0  0  0  0  0  0
   -6.6801   52.9422   25.3805 H   0  0  0  0  0  0
   -6.2328   54.2942   26.4441 H   0  0  0  0  0  0
  1  6  2  0  0  0
  1  2  1  0  0  0
  1 35  1  0  0  0
  2  3  2  0  0  0
  2 36  1  0  0  0
  3  4  1  0  0  0
  3 37  1  0  0  0
  4 10  1  0  0  0
  4  5  2  0  0  0
  5  6  1  0  0  0
  5  7  1  0  0  0
  6 38  1  0  0  0
  7  8  2  0  0  0
  7 39  1  0  0  0
  8  9  1  0  0  0
  8 40  1  0  0  0
  9 16  1  0  0  0
  9 10  1  0  0  0
 10 11  1  0  0  0
 10 12  1  0  0  0
 12 13  1  0  0  0
 12 24  1  0  0  0
 12 14  1  0  0  0
 14 15  1  0  0  0
 14 16  1  0  0  0
 14 21  1  0  0  0
 16 17  1  0  0  0
 16 18  1  0  0  0
 18 19  2  0  0  0
 18 20  1  0  0  0
 20 41  1  0  0  0
 20 42  1  0  0  0
 21 22  2  0  0  0
 21 23  1  0  0  0
 23 24  1  0  0  0
 23 26  1  0  0  0
 24 25  2  0  0  0
 26 31  2  0  0  0
 26 27  1  0  0  0
 27 28  2  0  0  0
 27 43  1  0  0  0
 28 29  1  0  0  0
 28 44  1  0  0  0
 29 34  1  0  0  0
 29 30  2  0  0  0
 30 31  1  0  0  0
 30 32  1  0  0  0
 31 45  1  0  0  0
 32 33  1  0  0  0
 33 34  1  0  0  0
 33 46  1  0  0  0
 33 47  1  0  0  0
M  END
> <i_i_glide_confnum>
2

> <i_i_glide_lignum>
1547

> <i_i_glide_posenum>
380

> <i_i_glide_rotatable_bonds>
2

> <i_m_Source_File_Index>
2254

> <b_m_subgroup_collapsed>
0

> <r_i_docking_score>
-4.66969

> <r_i_glide_ecoul>
-4.01474

> <r_i_glide_eff_state_penalty>
0

> <r_i_glide_einternal>
0.446026

> <r_i_glide_emodel>
-47.6996

> <r_i_glide_energy>
-37.3654

> <r_i_glide_erotb>
0.120654

> <r_i_glide_esite>
-0.00792916

> <r_i_glide_evdw>
-33.3507

> <r_i_glide_gscore>
-4.66969

> <r_i_glide_hbond>
0

> <r_i_glide_ligand_efficiency>
-0.155656

> <r_i_glide_ligand_efficiency_ln>
-1.061

> <r_i_glide_ligand_efficiency_sa>
-0.48366

> <r_i_glide_lipo>
-1.59066

> <r_i_glide_metal>
0

> <r_i_glide_rewards>
-0.922013

> <s_i_glide_gridfile>
wee1_glide-grid

> <s_m_Source_File>
wee1_decoys_glide_SP.sdf

> <s_m_Source_Path>
/Users/zhangxujun/Desktop

> <s_m_entry_id>
2529

> <s_m_entry_name>
wee1_decoys_glide_SP.2254

> <s_m_subgroup_title>
wee1_decoys_glide_SP

> <s_m_subgroupid>
wee1_decoys_glide_SP


$$$$
