ZINC63258817_354
                    3D
 Schrodinger Suite 2024-2.
 60 64  0  0  1  0            999 V2000
    2.2190   56.4221   15.4265 C   0  0  0  0  0  0
    1.9887   55.3488   14.4682 C   0  0  0  0  0  0
    2.3910   54.0717   14.7060 C   0  0  0  0  0  0
    3.0494   53.7468   15.9000 C   0  0  0  0  0  0
    3.5146   52.5922   16.3145 N   0  3  0  0  0  0
    4.1468   52.7592   17.6289 C   0  0  0  0  0  0
    3.9265   54.2242   17.9223 C   0  0  0  0  0  0
    3.2920   54.7419   16.8538 C   0  0  0  0  0  0
    2.8508   56.1179   16.5776 C   0  0  0  0  0  0
    4.3913   54.9187   19.1962 C   0  0  0  0  0  0
    5.1323   54.0307   20.2364 C   0  0  1  0  0  0
    5.8916   53.4555   19.7038 H   0  0  0  0  0  0
    5.9082   54.8962   21.2475 C   0  0  0  0  0  0
    6.3292   56.0233   20.9697 O   0  0  0  0  0  0
    6.1711   54.2500   22.4239 O   0  0  0  0  0  0
    7.1019   54.7721   23.3725 C   0  0  0  0  0  0
    6.4869   54.9772   24.7637 C   0  0  0  0  0  0
    7.1041   55.6967   25.5474 O   0  0  0  0  0  0
    5.3410   54.3367   25.0804 N   0  0  0  0  0  0
    4.6986   54.3193   26.3342 C   0  0  0  0  0  0
    5.3854   54.4903   27.5619 C   0  0  0  0  0  0
    4.7014   54.4684   28.7822 C   0  0  0  0  0  0
    3.3303   54.2565   28.7468 C   0  0  0  0  0  0
    2.6619   54.0687   27.5706 C   0  0  0  0  0  0
    3.3141   54.0845   26.3408 C   0  0  0  0  0  0
    1.3473   53.8496   27.8346 O   0  0  0  0  0  0
    1.1844   54.1195   29.2026 C   0  0  0  0  0  0
    2.4597   54.1613   29.7852 O   0  0  0  0  0  0
    4.2161   53.0492   20.8783 N   0  0  0  0  0  0
    3.3164   53.2285   21.8749 C   0  0  0  0  0  0
    3.1887   54.2953   22.4801 O   0  0  0  0  0  0
    2.4640   52.0331   22.2479 C   0  0  0  0  0  0
    1.4397   52.1885   23.1953 C   0  0  0  0  0  0
    0.6639   51.1020   23.5885 C   0  0  0  0  0  0
    0.8984   49.8482   23.0329 C   0  0  0  0  0  0
    1.9037   49.6752   22.0847 C   0  0  0  0  0  0
    2.6839   50.7596   21.6926 C   0  0  0  0  0  0
   -0.0651   48.5033   23.5271 Cl  0  0  0  0  0  0
    1.8999   57.4343   15.2180 H   0  0  0  0  0  0
    1.4852   55.5775   13.5391 H   0  0  0  0  0  0
    2.1952   53.3170   13.9572 H   0  0  0  0  0  0
    5.1995   52.4967   17.5236 H   0  0  0  0  0  0
    3.6408   52.0943   18.3264 H   0  0  0  0  0  0
    3.0280   56.9205   17.2791 H   0  0  0  0  0  0
    3.5044   55.2968   19.6804 H   0  0  0  0  0  0
    4.9821   55.7806   18.8804 H   0  0  0  0  0  0
    7.5605   55.7124   23.0633 H   0  0  0  0  0  0
    7.8873   54.0208   23.4598 H   0  0  0  0  0  0
    4.8463   53.8949   24.3188 H   0  0  0  0  0  0
    6.4544   54.6351   27.5962 H   0  0  0  0  0  0
    5.2365   54.6125   29.7070 H   0  0  0  0  0  0
    2.7697   53.9310   25.4208 H   0  0  0  0  0  0
    0.7078   55.0941   29.3220 H   0  0  0  0  0  0
    0.5702   53.3506   29.6742 H   0  0  0  0  0  0
    4.0922   52.2046   20.3427 H   0  0  0  0  0  0
    1.2376   53.1523   23.6422 H   0  0  0  0  0  0
   -0.1158   51.2316   24.3254 H   0  0  0  0  0  0
    2.0890   48.6994   21.6604 H   0  0  0  0  0  0
    3.4630   50.5778   20.9665 H   0  0  0  0  0  0
    3.4732   51.7050   15.8162 H   0  0  0  0  0  0
  1  9  2  0  0  0
  1  2  1  0  0  0
  1 39  1  0  0  0
  2  3  2  0  0  0
  2 40  1  0  0  0
  3  4  1  0  0  0
  3 41  1  0  0  0
  4  8  1  0  0  0
  4  5  2  0  0  0
  5  6  1  0  0  0
  5 60  1  0  0  0
  6  7  1  0  0  0
  6 42  1  0  0  0
  6 43  1  0  0  0
  7  8  2  0  0  0
  7 10  1  0  0  0
  8  9  1  0  0  0
  9 44  1  0  0  0
 10 11  1  0  0  0
 10 45  1  0  0  0
 10 46  1  0  0  0
 11 12  1  0  0  0
 11 13  1  0  0  0
 11 29  1  0  0  0
 13 14  2  0  0  0
 13 15  1  0  0  0
 15 16  1  0  0  0
 16 17  1  0  0  0
 16 47  1  0  0  0
 16 48  1  0  0  0
 17 18  2  0  0  0
 17 19  1  0  0  0
 19 20  1  0  0  0
 19 49  1  0  0  0
 20 25  2  0  0  0
 20 21  1  0  0  0
 21 22  2  0  0  0
 21 50  1  0  0  0
 22 23  1  0  0  0
 22 51  1  0  0  0
 23 28  1  0  0  0
 23 24  2  0  0  0
 24 25  1  0  0  0
 24 26  1  0  0  0
 25 52  1  0  0  0
 26 27  1  0  0  0
 27 28  1  0  0  0
 27 53  1  0  0  0
 27 54  1  0  0  0
 29 30  1  0  0  0
 29 55  1  0  0  0
 30 31  2  0  0  0
 30 32  1  0  0  0
 32 37  2  0  0  0
 32 33  1  0  0  0
 33 34  2  0  0  0
 33 56  1  0  0  0
 34 35  1  0  0  0
 34 57  1  0  0  0
 35 36  2  0  0  0
 35 38  1  0  0  0
 36 37  1  0  0  0
 36 58  1  0  0  0
 37 59  1  0  0  0
M  CHG  1   5   1
M  END
> <i_i_glide_confnum>
146

> <i_i_glide_lignum>
355

> <i_i_glide_posenum>
220

> <i_i_glide_rotatable_bonds>
11

> <i_m_Source_File_Index>
3869

> <b_m_subgroup_collapsed>
0

> <r_i_docking_score>
-7.08273

> <r_i_glide_ecoul>
-9.43488

> <r_i_glide_eff_state_penalty>
0

> <r_i_glide_einternal>
14.9929

> <r_i_glide_emodel>
-77.1359

> <r_i_glide_energy>
-55.3859

> <r_i_glide_erotb>
0.605923

> <r_i_glide_esite>
-0.0578319

> <r_i_glide_evdw>
-45.951

> <r_i_glide_gscore>
-7.08273

> <r_i_glide_hbond>
-0.545129

> <r_i_glide_ligand_efficiency>
-0.191425

> <r_i_glide_ligand_efficiency_ln>
-1.53608

> <r_i_glide_ligand_efficiency_sa>
-0.637871

> <r_i_glide_lipo>
-2.23445

> <r_i_glide_metal>
0

> <r_i_glide_rewards>
-1.13845

> <s_i_glide_gridfile>
wee1_glide-grid

> <s_m_Source_File>
wee1_decoys_glide_SP.sdf

> <s_m_Source_Path>
/Users/zhangxujun/Desktop

> <s_m_entry_id>
4144

> <s_m_entry_name>
wee1_decoys_glide_SP.3869

> <s_m_subgroup_title>
wee1_decoys_glide_SP

> <s_m_subgroupid>
wee1_decoys_glide_SP


$$$$
