ZINC32986196_3270
                    3D
 Schrodinger Suite 2024-2.
 57 61  0  0  1  0            999 V2000
    6.4919   55.1856   24.7276 C   0  0  0  0  0  0
    5.5552   54.8162   25.6819 C   0  0  0  0  0  0
    4.4236   54.0969   25.3043 C   0  0  0  0  0  0
    4.1830   53.7362   23.9642 C   0  0  0  0  0  0
    5.1728   54.0915   23.0055 C   0  0  0  0  0  0
    6.3045   54.8126   23.4041 C   0  0  0  0  0  0
    5.0409   53.6761   21.5532 C   0  0  0  0  0  0
    3.5716   53.5644   21.2019 C   0  0  0  0  0  0
    2.8916   52.5919   22.1672 C   0  0  0  0  0  0
    2.9917   53.0241   23.5766 N   0  0  0  0  0  0
    1.4100   53.1755   24.4228 S   0  0  0  0  0  0
    0.7044   54.2173   23.6817 O   0  0  0  0  0  0
    1.6140   53.2982   25.8694 O   0  0  0  0  0  0
    0.4818   51.6442   24.1841 C   0  0  0  0  0  0
    0.5192   50.6241   25.1405 C   0  0  0  0  0  0
   -0.2010   49.4439   24.9481 C   0  0  0  0  0  0
   -1.0067   49.2995   23.8122 C   0  0  0  0  0  0
   -1.0638   50.3345   22.8714 C   0  0  0  0  0  0
   -0.3260   51.4997   23.0554 C   0  0  0  0  0  0
   -1.7677   48.0276   23.5199 C   0  0  0  0  0  0
   -1.2956   47.2963   22.6503 O   0  0  0  0  0  0
   -2.9955   47.8300   24.0984 N   0  0  0  0  0  0
   -3.2321   48.4119   25.4427 C   0  0  0  0  0  0
   -4.2584   47.5386   26.2242 C   0  0  1  0  0  0
   -4.5189   48.0266   27.1646 H   0  0  0  0  0  0
   -5.4582   47.3624   25.4557 O   0  0  0  0  0  0
   -5.2821   46.9560   24.1480 C   0  0  0  0  0  0
   -4.0835   47.1658   23.4338 C   0  0  0  0  0  0
   -4.0734   46.7543   22.0813 C   0  0  0  0  0  0
   -5.1794   46.1351   21.4983 C   0  0  0  0  0  0
   -6.3365   45.9238   22.2412 C   0  0  0  0  0  0
   -6.3903   46.3426   23.5662 C   0  0  0  0  0  0
   -3.7125   46.1419   26.6518 C   0  0  0  0  0  0
   -4.0412   45.1010   26.0816 O   0  0  0  0  0  0
   -2.8956   46.0967   27.7001 N   0  0  0  0  0  0
    7.3706   55.7478   25.0028 H   0  0  0  0  0  0
    5.7054   55.0795   26.7189 H   0  0  0  0  0  0
    3.7701   53.8142   26.1064 H   0  0  0  0  0  0
    7.0565   55.0837   22.6768 H   0  0  0  0  0  0
    5.5057   52.7008   21.4120 H   0  0  0  0  0  0
    5.5446   54.3767   20.8852 H   0  0  0  0  0  0
    3.4372   53.2379   20.1697 H   0  0  0  0  0  0
    3.1045   54.5450   21.2815 H   0  0  0  0  0  0
    3.4142   51.6353   22.1243 H   0  0  0  0  0  0
    1.8727   52.3771   21.8528 H   0  0  0  0  0  0
    1.1044   50.7402   26.0396 H   0  0  0  0  0  0
   -0.1249   48.6541   25.6852 H   0  0  0  0  0  0
   -1.6699   50.2344   21.9815 H   0  0  0  0  0  0
   -0.3849   52.2874   22.3181 H   0  0  0  0  0  0
   -3.6526   49.4102   25.3174 H   0  0  0  0  0  0
   -2.3261   48.5076   26.0426 H   0  0  0  0  0  0
   -3.2271   46.9149   21.4343 H   0  0  0  0  0  0
   -5.1423   45.8303   20.4627 H   0  0  0  0  0  0
   -7.1948   45.4498   21.7880 H   0  0  0  0  0  0
   -7.2904   46.1960   24.1450 H   0  0  0  0  0  0
   -2.6380   45.1863   28.0809 H   0  0  0  0  0  0
   -2.4955   46.9609   28.0829 H   0  0  0  0  0  0
  1  6  2  0  0  0
  1  2  1  0  0  0
  1 36  1  0  0  0
  2  3  2  0  0  0
  2 37  1  0  0  0
  3  4  1  0  0  0
  3 38  1  0  0  0
  4 10  1  0  0  0
  4  5  2  0  0  0
  5  6  1  0  0  0
  5  7  1  0  0  0
  6 39  1  0  0  0
  7  8  1  0  0  0
  7 40  1  0  0  0
  7 41  1  0  0  0
  8  9  1  0  0  0
  8 42  1  0  0  0
  8 43  1  0  0  0
  9 10  1  0  0  0
  9 44  1  0  0  0
  9 45  1  0  0  0
 10 11  1  0  0  0
 11 12  2  0  0  0
 11 13  2  0  0  0
 11 14  1  0  0  0
 14 19  2  0  0  0
 14 15  1  0  0  0
 15 16  2  0  0  0
 15 46  1  0  0  0
 16 17  1  0  0  0
 16 47  1  0  0  0
 17 18  2  0  0  0
 17 20  1  0  0  0
 18 19  1  0  0  0
 18 48  1  0  0  0
 19 49  1  0  0  0
 20 21  2  0  0  0
 20 22  1  0  0  0
 22 28  1  0  0  0
 22 23  1  0  0  0
 23 24  1  0  0  0
 23 50  1  0  0  0
 23 51  1  0  0  0
 24 25  1  0  0  0
 24 26  1  0  0  0
 24 33  1  0  0  0
 26 27  1  0  0  0
 27 32  2  0  0  0
 27 28  1  0  0  0
 28 29  2  0  0  0
 29 30  1  0  0  0
 29 52  1  0  0  0
 30 31  2  0  0  0
 30 53  1  0  0  0
 31 32  1  0  0  0
 31 54  1  0  0  0
 32 55  1  0  0  0
 33 34  2  0  0  0
 33 35  1  0  0  0
 35 56  1  0  0  0
 35 57  1  0  0  0
M  END
> <i_i_glide_confnum>
858

> <i_i_glide_lignum>
3271

> <i_i_glide_posenum>
386

> <i_i_glide_rotatable_bonds>
5

> <i_m_Source_File_Index>
5368

> <b_m_subgroup_collapsed>
0

> <r_i_docking_score>
-5.02126

> <r_i_glide_ecoul>
-12.1433

> <r_i_glide_eff_state_penalty>
0

> <r_i_glide_einternal>
8.45364

> <r_i_glide_emodel>
-50.4746

> <r_i_glide_energy>
-42.9313

> <r_i_glide_erotb>
0.355341

> <r_i_glide_esite>
-0.202555

> <r_i_glide_evdw>
-30.7881

> <r_i_glide_gscore>
-5.02126

> <r_i_glide_hbond>
-0.456

> <r_i_glide_ligand_efficiency>
-0.147684

> <r_i_glide_ligand_efficiency_ln>
-1.10934

> <r_i_glide_ligand_efficiency_sa>
-0.47844

> <r_i_glide_lipo>
-1.96503

> <r_i_glide_metal>
0

> <r_i_glide_rewards>
0.607871

> <s_i_glide_gridfile>
wee1_glide-grid

> <s_m_Source_File>
wee1_decoys_glide_SP.sdf

> <s_m_Source_Path>
/Users/zhangxujun/Desktop

> <s_m_entry_id>
5643

> <s_m_entry_name>
wee1_decoys_glide_SP.5368

> <s_m_subgroup_title>
wee1_decoys_glide_SP

> <s_m_subgroupid>
wee1_decoys_glide_SP


$$$$
