ZINC09104403_2798
                    3D
 Schrodinger Suite 2024-2.
 53 57  0  0  1  0            999 V2000
    1.0341   50.2577   23.8103 C   0  0  0  0  0  0
    1.8782   51.1622   22.4815 S   0  0  0  0  0  0
    1.7071   50.2774   20.9366 C   0  0  0  0  0  0
    1.0368   49.0484   20.9196 C   0  0  0  0  0  0
    0.8134   48.3704   19.7218 C   0  0  0  0  0  0
    1.2431   48.9222   18.5192 C   0  0  0  0  0  0
    1.9034   50.1480   18.5140 C   0  0  0  0  0  0
    2.1643   50.8210   19.7116 C   0  0  0  0  0  0
    2.8482   52.0423   19.5992 N   0  0  0  0  0  0
    4.0084   52.3389   20.2165 C   0  0  0  0  0  0
    4.6569   51.5256   20.8841 O   0  0  0  0  0  0
    4.5138   53.7943   20.0688 C   0  0  2  0  0  0
    3.6523   54.4119   19.8065 H   0  0  0  0  0  0
    5.6046   53.8643   18.9608 C   0  0  0  0  0  0
    6.3579   55.2129   18.9670 C   0  0  0  0  0  0
    7.1620   55.4465   20.2695 C   0  0  0  0  0  0
    6.3030   55.0389   21.4569 C   0  0  0  0  0  0
    5.1068   54.3119   21.3877 C   0  0  0  0  0  0
    4.5126   54.0940   22.5485 N   0  0  0  0  0  0
    5.2263   54.4925   23.5618 C   0  0  0  0  0  0
    6.7044   55.2964   23.1297 S   0  0  0  0  0  0
    4.7703   54.2610   24.8439 N   0  0  0  0  0  0
    5.3836   54.4969   26.0207 C   0  0  0  0  0  0
    6.5075   54.9951   26.1395 O   0  0  0  0  0  0
    4.5683   54.1188   27.2419 C   0  0  0  0  0  0
    5.0251   54.4956   28.5234 C   0  0  0  0  0  0
    4.2967   54.1892   29.6779 C   0  0  0  0  0  0
    3.1065   53.4914   29.5286 C   0  0  0  0  0  0
    2.6510   53.1102   28.3021 C   0  0  0  0  0  0
    3.3516   53.4003   27.1392 C   0  0  0  0  0  0
    1.4882   52.4215   28.4471 O   0  0  0  0  0  0
    1.1103   52.6135   29.7837 C   0  0  0  0  0  0
    2.2449   53.0528   30.4822 O   0  0  0  0  0  0
    1.0967   50.8220   24.7403 H   0  0  0  0  0  0
   -0.0198   50.1112   23.5730 H   0  0  0  0  0  0
    1.5024   49.2882   23.9750 H   0  0  0  0  0  0
    0.6689   48.6080   21.8311 H   0  0  0  0  0  0
    0.2982   47.4217   19.7253 H   0  0  0  0  0  0
    1.0755   48.4002   17.5887 H   0  0  0  0  0  0
    2.2588   50.5434   17.5723 H   0  0  0  0  0  0
    2.6545   52.5839   18.7727 H   0  0  0  0  0  0
    5.1495   53.6971   17.9833 H   0  0  0  0  0  0
    6.3307   53.0576   19.0830 H   0  0  0  0  0  0
    5.6386   56.0227   18.8304 H   0  0  0  0  0  0
    7.0312   55.2670   18.1102 H   0  0  0  0  0  0
    7.4607   56.4927   20.3365 H   0  0  0  0  0  0
    8.0769   54.8557   20.2398 H   0  0  0  0  0  0
    3.8735   53.8061   24.8908 H   0  0  0  0  0  0
    5.9502   55.0436   28.6355 H   0  0  0  0  0  0
    4.6706   54.4947   30.6398 H   0  0  0  0  0  0
    2.9536   53.0595   26.1956 H   0  0  0  0  0  0
    0.3373   53.3836   29.8315 H   0  0  0  0  0  0
    0.7067   51.6968   30.2146 H   0  0  0  0  0  0
  1  2  1  0  0  0
  1 34  1  0  0  0
  1 35  1  0  0  0
  1 36  1  0  0  0
  2  3  1  0  0  0
  3  8  2  0  0  0
  3  4  1  0  0  0
  4  5  2  0  0  0
  4 37  1  0  0  0
  5  6  1  0  0  0
  5 38  1  0  0  0
  6  7  2  0  0  0
  6 39  1  0  0  0
  7  8  1  0  0  0
  7 40  1  0  0  0
  8  9  1  0  0  0
  9 10  1  0  0  0
  9 41  1  0  0  0
 10 11  2  0  0  0
 10 12  1  0  0  0
 12 13  1  0  0  0
 12 18  1  0  0  0
 12 14  1  0  0  0
 14 15  1  0  0  0
 14 42  1  0  0  0
 14 43  1  0  0  0
 15 16  1  0  0  0
 15 44  1  0  0  0
 15 45  1  0  0  0
 16 17  1  0  0  0
 16 46  1  0  0  0
 16 47  1  0  0  0
 17 21  1  0  0  0
 17 18  2  0  0  0
 18 19  1  0  0  0
 19 20  2  0  0  0
 20 21  1  0  0  0
 20 22  1  0  0  0
 22 23  1  0  0  0
 22 48  1  0  0  0
 23 24  2  0  0  0
 23 25  1  0  0  0
 25 30  2  0  0  0
 25 26  1  0  0  0
 26 27  2  0  0  0
 26 49  1  0  0  0
 27 28  1  0  0  0
 27 50  1  0  0  0
 28 33  1  0  0  0
 28 29  2  0  0  0
 29 30  1  0  0  0
 29 31  1  0  0  0
 30 51  1  0  0  0
 31 32  1  0  0  0
 32 33  1  0  0  0
 32 52  1  0  0  0
 32 53  1  0  0  0
M  END
> <i_i_glide_confnum>
8

> <i_i_glide_lignum>
2799

> <i_i_glide_posenum>
23

> <i_i_glide_rotatable_bonds>
7

> <i_m_Source_File_Index>
755

> <b_m_subgroup_collapsed>
0

> <r_i_docking_score>
-6.07043

> <r_i_glide_ecoul>
-7.16634

> <r_i_glide_eff_state_penalty>
0

> <r_i_glide_einternal>
3.72869

> <r_i_glide_emodel>
-72.6908

> <r_i_glide_energy>
-54.0377

> <r_i_glide_erotb>
0.553941

> <r_i_glide_esite>
-0.0805043

> <r_i_glide_evdw>
-46.8714

> <r_i_glide_gscore>
-6.07043

> <r_i_glide_hbond>
-0.371462

> <r_i_glide_ligand_efficiency>
-0.189701

> <r_i_glide_ligand_efficiency_ln>
-1.35934

> <r_i_glide_ligand_efficiency_sa>
-0.602263

> <r_i_glide_lipo>
-1.94508

> <r_i_glide_metal>
0

> <r_i_glide_rewards>
-0.808801

> <s_i_glide_gridfile>
wee1_glide-grid

> <s_m_Source_File>
wee1_decoys_glide_SP.sdf

> <s_m_Source_Path>
/Users/zhangxujun/Desktop

> <s_m_entry_id>
1030

> <s_m_entry_name>
wee1_decoys_glide_SP.755

> <s_m_subgroup_title>
wee1_decoys_glide_SP

> <s_m_subgroupid>
wee1_decoys_glide_SP


$$$$
