ZINC12530378_5006
                    3D
 Schrodinger Suite 2024-2.
 60 64  0  0  1  0            999 V2000
    3.9130   54.6750   28.9571 C   0  0  0  0  0  0
    4.1360   53.4503   28.0546 C   0  0  0  0  0  0
    4.3406   53.8011   26.6874 O   0  0  0  0  0  0
    5.5227   54.3061   26.2487 C   0  0  0  0  0  0
    6.4684   54.5817   26.9936 O   0  0  0  0  0  0
    5.5738   54.4967   24.7619 C   0  0  0  0  0  0
    6.7043   55.1013   24.2103 C   0  0  0  0  0  0
    6.8364   55.2450   22.8370 C   0  0  0  0  0  0
    5.8424   54.7741   21.9719 C   0  0  0  0  0  0
    4.7020   54.1743   22.5145 C   0  0  0  0  0  0
    4.5590   54.0551   23.8983 C   0  0  0  0  0  0
    5.8843   54.9141   20.5694 N   0  0  0  0  0  0
    6.8454   55.4745   19.7958 C   0  0  0  0  0  0
    7.9780   55.7361   20.2071 O   0  0  0  0  0  0
    6.4434   55.8212   18.5421 N   0  0  0  0  0  0
    7.3137   56.7325   17.7496 C   0  0  0  0  0  0
    6.4102   57.6130   16.9199 C   0  0  0  0  0  0
    5.0846   57.3249   16.6487 C   0  0  0  0  0  0
    4.5876   58.3555   15.8675 N   0  0  0  0  0  0
    3.6304   58.4509   15.5573 H   0  0  0  0  0  0
    5.5871   59.2884   15.6791 C   0  0  0  0  0  0
    6.7068   58.8345   16.3396 N   0  3  0  0  0  0
    4.3767   56.0725   17.1314 C   0  0  0  0  0  0
    5.4077   55.0637   17.7640 C   0  0  1  0  0  0
    4.8189   54.4336   18.4299 H   0  0  0  0  0  0
    6.0237   54.0587   16.7881 C   0  0  0  0  0  0
    7.1317   53.3768   16.9254 N   0  0  0  0  0  0
    7.1764   52.6680   15.8096 C   0  0  0  0  0  0
    6.1615   52.8442   14.9859 N   0  0  0  0  0  0
    5.3651   53.7822   15.6372 O   0  0  0  0  0  0
    8.3055   51.7224   15.4946 C   0  0  0  0  0  0
    8.4931   51.2455   14.1890 C   0  0  0  0  0  0
    9.5306   50.3629   13.8979 C   0  0  0  0  0  0
   10.3935   49.9450   14.9097 C   0  0  0  0  0  0
   10.2176   50.4102   16.2137 C   0  0  0  0  0  0
    9.1828   51.2974   16.5014 C   0  0  0  0  0  0
   11.5209   48.9850   14.5759 C   0  0  0  0  0  0
    4.8075   55.2953   29.0159 H   0  0  0  0  0  0
    3.0948   55.2943   28.5890 H   0  0  0  0  0  0
    3.6676   54.3634   29.9718 H   0  0  0  0  0  0
    4.9701   52.8490   28.4211 H   0  0  0  0  0  0
    3.2548   52.8100   28.0997 H   0  0  0  0  0  0
    7.5049   55.4645   24.8361 H   0  0  0  0  0  0
    7.7340   55.7278   22.4883 H   0  0  0  0  0  0
    3.9111   53.8140   21.8715 H   0  0  0  0  0  0
    3.6666   53.5829   24.2847 H   0  0  0  0  0  0
    5.0266   54.6589   20.1066 H   0  0  0  0  0  0
    7.9316   57.3338   18.4198 H   0  0  0  0  0  0
    8.0016   56.1568   17.1284 H   0  0  0  0  0  0
    5.4813   60.2560   15.2032 H   0  0  0  0  0  0
    3.6648   56.3588   17.9066 H   0  0  0  0  0  0
    3.7884   55.6039   16.3420 H   0  0  0  0  0  0
    7.8360   51.5569   13.3901 H   0  0  0  0  0  0
    9.6714   50.0066   12.8865 H   0  0  0  0  0  0
   10.8783   50.0934   17.0078 H   0  0  0  0  0  0
    9.0634   51.6434   17.5181 H   0  0  0  0  0  0
   12.2200   49.4504   13.8793 H   0  0  0  0  0  0
   12.0679   48.6619   15.4615 H   0  0  0  0  0  0
   11.1246   48.0983   14.0815 H   0  0  0  0  0  0
    7.5718   59.3472   16.4441 H   0  0  0  0  0  0
  1  2  1  0  0  0
  1 38  1  0  0  0
  1 39  1  0  0  0
  1 40  1  0  0  0
  2  3  1  0  0  0
  2 41  1  0  0  0
  2 42  1  0  0  0
  3  4  1  0  0  0
  4  5  2  0  0  0
  4  6  1  0  0  0
  6 11  2  0  0  0
  6  7  1  0  0  0
  7  8  2  0  0  0
  7 43  1  0  0  0
  8  9  1  0  0  0
  8 44  1  0  0  0
  9 10  2  0  0  0
  9 12  1  0  0  0
 10 11  1  0  0  0
 10 45  1  0  0  0
 11 46  1  0  0  0
 12 13  1  0  0  0
 12 47  1  0  0  0
 13 14  2  0  0  0
 13 15  1  0  0  0
 15 24  1  0  0  0
 15 16  1  0  0  0
 16 17  1  0  0  0
 16 48  1  0  0  0
 16 49  1  0  0  0
 17 22  1  0  0  0
 17 18  2  0  0  0
 18 19  1  0  0  0
 18 23  1  0  0  0
 19 20  1  0  0  0
 19 21  1  0  0  0
 21 22  2  0  0  0
 21 50  1  0  0  0
 22 60  1  0  0  0
 23 24  1  0  0  0
 23 51  1  0  0  0
 23 52  1  0  0  0
 24 25  1  0  0  0
 24 26  1  0  0  0
 26 30  1  0  0  0
 26 27  2  0  0  0
 27 28  1  0  0  0
 28 29  2  0  0  0
 28 31  1  0  0  0
 29 30  1  0  0  0
 31 36  2  0  0  0
 31 32  1  0  0  0
 32 33  2  0  0  0
 32 53  1  0  0  0
 33 34  1  0  0  0
 33 54  1  0  0  0
 34 35  2  0  0  0
 34 37  1  0  0  0
 35 36  1  0  0  0
 35 55  1  0  0  0
 36 56  1  0  0  0
 37 57  1  0  0  0
 37 58  1  0  0  0
 37 59  1  0  0  0
M  CHG  1  22   1
M  END
> <i_i_glide_confnum>
165

> <i_i_glide_lignum>
5007

> <i_i_glide_posenum>
378

> <i_i_glide_rotatable_bonds>
8

> <i_m_Source_File_Index>
3085

> <b_m_subgroup_collapsed>
0

> <r_i_docking_score>
-5.51605

> <r_i_glide_ecoul>
-4.69294

> <r_i_glide_eff_state_penalty>
0

> <r_i_glide_einternal>
5.48963

> <r_i_glide_emodel>
-64.7435

> <r_i_glide_energy>
-46.5598

> <r_i_glide_erotb>
0.631545

> <r_i_glide_esite>
-0.251016

> <r_i_glide_evdw>
-41.8669

> <r_i_glide_gscore>
-5.51605

> <r_i_glide_hbond>
0

> <r_i_glide_ligand_efficiency>
-0.157601

> <r_i_glide_ligand_efficiency_ln>
-1.21089

> <r_i_glide_ligand_efficiency_sa>
-0.515524

> <r_i_glide_lipo>
-2.27755

> <r_i_glide_metal>
0

> <r_i_glide_rewards>
-0.82174

> <s_i_glide_gridfile>
wee1_glide-grid

> <s_m_Source_File>
wee1_decoys_glide_SP.sdf

> <s_m_Source_Path>
/Users/zhangxujun/Desktop

> <s_m_entry_id>
3360

> <s_m_entry_name>
wee1_decoys_glide_SP.3085

> <s_m_subgroup_title>
wee1_decoys_glide_SP

> <s_m_subgroupid>
wee1_decoys_glide_SP


$$$$
