ZINC20371094_3120
                    3D
 Schrodinger Suite 2024-2.
 66 69  0  0  1  0            999 V2000
   12.5057   59.9180   18.0331 C   0  0  0  0  0  0
   11.0260   59.5937   18.1879 C   0  0  0  0  0  0
   10.2459   60.4966   18.4816 O   0  0  0  0  0  0
   10.6997   58.3011   18.0059 N   0  0  0  0  0  0
    9.4441   57.6705   18.0750 C   0  0  0  0  0  0
    8.2087   58.3339   18.1215 C   0  0  0  0  0  0
    7.0266   57.6048   18.2199 C   0  0  0  0  0  0
    7.0465   56.1960   18.2446 C   0  0  0  0  0  0
    8.2922   55.5505   18.1904 C   0  0  0  0  0  0
    9.4731   56.2783   18.0882 C   0  0  0  0  0  0
    5.8642   55.4006   18.3016 N   0  0  0  0  0  0
    5.8990   53.9567   18.5931 C   0  0  0  0  0  0
    4.4774   53.4256   18.5269 C   0  0  2  0  0  0
    4.4462   52.4954   17.9607 H   0  0  0  0  0  0
    3.7534   54.5287   17.7680 C   0  0  0  0  0  0
    4.6351   55.7754   17.8325 C   0  0  0  0  0  0
    4.2494   56.8857   17.4654 O   0  0  0  0  0  0
    3.7795   53.1292   19.8757 C   0  0  0  0  0  0
    2.8174   52.3635   19.8493 O   0  0  0  0  0  0
    4.2319   53.7363   20.9993 N   0  0  0  0  0  0
    3.6990   53.6874   22.3105 C   0  0  0  0  0  0
    2.3792   53.2983   22.5881 C   0  0  0  0  0  0
    1.8832   53.2664   23.8979 C   0  0  0  0  0  0
    2.7168   53.6748   24.9484 C   0  0  0  0  0  0
    4.0283   54.0960   24.6783 C   0  0  0  0  0  0
    4.5309   54.0967   23.3644 C   0  0  0  0  0  0
    5.8176   54.4970   23.0429 O   0  0  0  0  0  0
    6.6294   55.1195   24.0337 C   0  0  0  0  0  0
    2.1684   53.5730   26.2423 N   0  0  0  0  0  0
    2.5739   54.0968   27.4179 C   0  0  0  0  0  0
    3.5536   54.8280   27.5625 O   0  0  0  0  0  0
    1.6819   53.7657   28.5926 C   0  0  0  0  0  0
    1.0272   52.5256   28.6801 C   0  0  0  0  0  0
    0.2302   52.2286   29.7809 C   0  0  0  0  0  0
    0.0907   53.1559   30.8087 C   0  0  0  0  0  0
    0.7045   54.4014   30.7212 C   0  0  0  0  0  0
    1.5060   54.7034   29.6216 C   0  0  0  0  0  0
    0.6006   52.8480   24.2184 O   0  0  0  0  0  0
   -0.1976   52.2092   23.2277 C   0  0  0  0  0  0
   13.1222   59.1845   18.5589 H   0  0  0  0  0  0
   12.7324   60.9059   18.4420 H   0  0  0  0  0  0
   12.7833   59.9130   16.9769 H   0  0  0  0  0  0
   11.4699   57.6703   17.8519 H   0  0  0  0  0  0
    8.1329   59.4108   18.0829 H   0  0  0  0  0  0
    6.1039   58.1629   18.2673 H   0  0  0  0  0  0
    8.3745   54.4750   18.2023 H   0  0  0  0  0  0
   10.4118   55.7448   18.0544 H   0  0  0  0  0  0
    6.4681   53.4712   17.7977 H   0  0  0  0  0  0
    6.4308   53.6867   19.5037 H   0  0  0  0  0  0
    2.7879   54.7971   18.1995 H   0  0  0  0  0  0
    3.5502   54.2455   16.7364 H   0  0  0  0  0  0
    5.0784   54.2793   20.9211 H   0  0  0  0  0  0
    1.7173   53.0340   21.7815 H   0  0  0  0  0  0
    4.6712   54.3826   25.4923 H   0  0  0  0  0  0
    7.5043   55.5495   23.5487 H   0  0  0  0  0  0
    6.1096   55.9378   24.5352 H   0  0  0  0  0  0
    6.9716   54.3986   24.7778 H   0  0  0  0  0  0
    1.2915   53.0714   26.2621 H   0  0  0  0  0  0
    1.1377   51.7750   27.9117 H   0  0  0  0  0  0
   -0.2761   51.2780   29.8474 H   0  0  0  0  0  0
   -0.4969   52.9004   31.6820 H   0  0  0  0  0  0
    0.5843   55.1232   31.5158 H   0  0  0  0  0  0
    1.9928   55.6693   29.5733 H   0  0  0  0  0  0
   -1.1241   51.8633   23.6840 H   0  0  0  0  0  0
   -0.4642   52.8963   22.4246 H   0  0  0  0  0  0
    0.3060   51.3407   22.8019 H   0  0  0  0  0  0
  1  2  1  0  0  0
  1 40  1  0  0  0
  1 41  1  0  0  0
  1 42  1  0  0  0
  2  3  2  0  0  0
  2  4  1  0  0  0
  4  5  1  0  0  0
  4 43  1  0  0  0
  5 10  2  0  0  0
  5  6  1  0  0  0
  6  7  2  0  0  0
  6 44  1  0  0  0
  7  8  1  0  0  0
  7 45  1  0  0  0
  8  9  2  0  0  0
  8 11  1  0  0  0
  9 10  1  0  0  0
  9 46  1  0  0  0
 10 47  1  0  0  0
 11 16  1  0  0  0
 11 12  1  0  0  0
 12 13  1  0  0  0
 12 48  1  0  0  0
 12 49  1  0  0  0
 13 14  1  0  0  0
 13 15  1  0  0  0
 13 18  1  0  0  0
 15 16  1  0  0  0
 15 50  1  0  0  0
 15 51  1  0  0  0
 16 17  2  0  0  0
 18 19  2  0  0  0
 18 20  1  0  0  0
 20 21  1  0  0  0
 20 52  1  0  0  0
 21 26  2  0  0  0
 21 22  1  0  0  0
 22 23  2  0  0  0
 22 53  1  0  0  0
 23 24  1  0  0  0
 23 38  1  0  0  0
 24 25  2  0  0  0
 24 29  1  0  0  0
 25 26  1  0  0  0
 25 54  1  0  0  0
 26 27  1  0  0  0
 27 28  1  0  0  0
 28 55  1  0  0  0
 28 56  1  0  0  0
 28 57  1  0  0  0
 29 30  1  0  0  0
 29 58  1  0  0  0
 30 31  2  0  0  0
 30 32  1  0  0  0
 32 37  2  0  0  0
 32 33  1  0  0  0
 33 34  2  0  0  0
 33 59  1  0  0  0
 34 35  1  0  0  0
 34 60  1  0  0  0
 35 36  2  0  0  0
 35 61  1  0  0  0
 36 37  1  0  0  0
 36 62  1  0  0  0
 37 63  1  0  0  0
 38 39  1  0  0  0
 39 64  1  0  0  0
 39 65  1  0  0  0
 39 66  1  0  0  0
M  END
> <i_i_glide_confnum>
233

> <i_i_glide_lignum>
3121

> <i_i_glide_posenum>
20

> <i_i_glide_rotatable_bonds>
11

> <i_m_Source_File_Index>
3894

> <b_m_subgroup_collapsed>
0

> <r_i_docking_score>
-5.74471

> <r_i_glide_ecoul>
-5.78895

> <r_i_glide_eff_state_penalty>
0

> <r_i_glide_einternal>
5.91695

> <r_i_glide_emodel>
-71.5783

> <r_i_glide_energy>
-54.036

> <r_i_glide_erotb>
0.615436

> <r_i_glide_esite>
-0.0465772

> <r_i_glide_evdw>
-48.2471

> <r_i_glide_gscore>
-5.74471

> <r_i_glide_hbond>
-0.145941

> <r_i_glide_ligand_efficiency>
-0.151176

> <r_i_glide_ligand_efficiency_ln>
-1.23873

> <r_i_glide_ligand_efficiency_sa>
-0.508252

> <r_i_glide_lipo>
-2.45726

> <r_i_glide_metal>
0

> <r_i_glide_rewards>
-0.429667

> <s_i_glide_gridfile>
wee1_glide-grid

> <s_m_Source_File>
wee1_decoys_glide_SP.sdf

> <s_m_Source_Path>
/Users/zhangxujun/Desktop

> <s_m_entry_id>
4169

> <s_m_entry_name>
wee1_decoys_glide_SP.3894

> <s_m_subgroup_title>
wee1_decoys_glide_SP

> <s_m_subgroupid>
wee1_decoys_glide_SP


$$$$
