ZINC35057802_538
                    3D
 Schrodinger Suite 2024-2.
 56 59  0  0  1  0            999 V2000
   -4.0788   50.4219   28.5258 C   0  0  0  0  0  0
   -3.3870   51.1023   27.3515 C   0  0  0  0  0  0
   -3.8374   52.1463   26.8810 O   0  0  0  0  0  0
   -2.2905   50.4963   26.8808 N   0  0  0  0  0  0
   -1.4046   51.0058   25.8332 C   0  0  2  0  0  0
   -2.0566   51.3457   25.0258 H   0  0  0  0  0  0
   -0.4419   49.9584   25.2006 C   0  0  2  0  0  0
    0.2762   49.6609   25.9647 H   0  0  0  0  0  0
    0.3747   50.6027   24.0518 C   0  0  2  0  0  0
    1.1190   49.8767   23.7164 H   0  0  0  0  0  0
    1.0754   51.9112   24.5205 C   0  0  1  0  0  0
    1.9039   51.6971   25.1878 H   0  0  0  0  0  0
    1.6356   52.6676   23.3002 C   0  0  0  0  0  0
    0.7076   52.7219   22.2142 O   0  0  0  0  0  0
    0.1990   51.4582   21.8834 C   0  0  1  0  0  0
    0.9968   50.7704   21.5845 H   0  0  0  0  0  0
   -0.5058   50.9308   22.9745 O   0  0  0  0  0  0
   -0.7339   51.6118   20.6657 C   0  0  0  0  0  0
   -2.0923   51.2737   20.7242 C   0  0  0  0  0  0
   -2.8982   51.4208   19.5981 C   0  0  0  0  0  0
   -2.3508   51.9124   18.4160 C   0  0  0  0  0  0
   -1.0010   52.2503   18.3477 C   0  0  0  0  0  0
   -0.1949   52.0962   19.4707 C   0  0  0  0  0  0
    0.1463   52.7738   25.1834 O   0  0  0  0  0  0
   -0.5599   52.2184   26.3008 C   0  0  2  0  0  0
   -1.2318   52.9854   26.6843 H   0  0  0  0  0  0
    0.5389   51.7807   27.7049 S   0  0  0  0  0  0
    1.2185   53.2743   28.3191 C   0  0  0  0  0  0
    2.4345   53.7239   27.8125 C   0  0  0  0  0  0
    2.9851   54.8973   28.3128 C   0  0  0  0  0  0
    2.3070   55.6172   29.2980 C   0  0  0  0  0  0
    1.1047   55.1495   29.8219 C   0  0  0  0  0  0
    0.5568   53.9686   29.3299 C   0  0  0  0  0  0
   -0.9749   48.6595   24.9055 O   0  0  0  0  0  0
   -2.1119   48.5495   24.0438 C   0  0  0  0  0  0
   -2.5246   47.0653   23.9160 C   0  0  0  0  0  0
   -1.8574   46.1672   24.4819 O   0  0  0  0  0  0
   -3.5341   46.8324   23.2123 O   0  5  0  0  0  0
   -3.6371   50.7579   29.4660 H   0  0  0  0  0  0
   -5.1456   50.6537   28.5337 H   0  0  0  0  0  0
   -3.9599   49.3370   28.4692 H   0  0  0  0  0  0
   -1.9650   49.6625   27.3816 H   0  0  0  0  0  0
    1.9342   53.6791   23.5773 H   0  0  0  0  0  0
    2.5405   52.1820   22.9288 H   0  0  0  0  0  0
   -2.5259   50.8903   21.6360 H   0  0  0  0  0  0
   -3.9433   51.1515   19.6441 H   0  0  0  0  0  0
   -2.9758   52.0253   17.5419 H   0  0  0  0  0  0
   -0.5782   52.6249   17.4270 H   0  0  0  0  0  0
    0.8508   52.3627   19.4168 H   0  0  0  0  0  0
    2.9469   53.1652   27.0428 H   0  0  0  0  0  0
    3.9280   55.2602   27.9308 H   0  0  0  0  0  0
    2.7265   56.5397   29.6757 H   0  0  0  0  0  0
    0.5987   55.7042   30.5992 H   0  0  0  0  0  0
   -0.3759   53.5945   29.7289 H   0  0  0  0  0  0
   -2.9497   49.1180   24.4501 H   0  0  0  0  0  0
   -1.8696   48.9182   23.0490 H   0  0  0  0  0  0
  1  2  1  0  0  0
  1 39  1  0  0  0
  1 40  1  0  0  0
  1 41  1  0  0  0
  2  3  2  0  0  0
  2  4  1  0  0  0
  4  5  1  0  0  0
  4 42  1  0  0  0
  5  6  1  0  0  0
  5 25  1  0  0  0
  5  7  1  0  0  0
  7  8  1  0  0  0
  7  9  1  0  0  0
  7 34  1  0  0  0
  9 10  1  0  0  0
  9 17  1  0  0  0
  9 11  1  0  0  0
 11 12  1  0  0  0
 11 13  1  0  0  0
 11 24  1  0  0  0
 13 14  1  0  0  0
 13 43  1  0  0  0
 13 44  1  0  0  0
 14 15  1  0  0  0
 15 16  1  0  0  0
 15 17  1  0  0  0
 15 18  1  0  0  0
 18 23  2  0  0  0
 18 19  1  0  0  0
 19 20  2  0  0  0
 19 45  1  0  0  0
 20 21  1  0  0  0
 20 46  1  0  0  0
 21 22  2  0  0  0
 21 47  1  0  0  0
 22 23  1  0  0  0
 22 48  1  0  0  0
 23 49  1  0  0  0
 24 25  1  0  0  0
 25 26  1  0  0  0
 25 27  1  0  0  0
 27 28  1  0  0  0
 28 33  2  0  0  0
 28 29  1  0  0  0
 29 30  2  0  0  0
 29 50  1  0  0  0
 30 31  1  0  0  0
 30 51  1  0  0  0
 31 32  2  0  0  0
 31 52  1  0  0  0
 32 33  1  0  0  0
 32 53  1  0  0  0
 33 54  1  0  0  0
 34 35  1  0  0  0
 35 36  1  0  0  0
 35 55  1  0  0  0
 35 56  1  0  0  0
 36 37  2  0  0  0
 36 38  1  0  0  0
M  CHG  1  38  -1
M  END
> <i_i_glide_confnum>
149

> <i_i_glide_lignum>
539

> <i_i_glide_posenum>
191

> <i_i_glide_rotatable_bonds>
8

> <i_m_Source_File_Index>
5479

> <b_m_subgroup_collapsed>
0

> <r_i_docking_score>
-4.53481

> <r_i_glide_ecoul>
-6.61168

> <r_i_glide_eff_state_penalty>
0

> <r_i_glide_einternal>
12.8688

> <r_i_glide_emodel>
-47.2086

> <r_i_glide_energy>
-38.8167

> <r_i_glide_erotb>
0.574045

> <r_i_glide_esite>
-0.185426

> <r_i_glide_evdw>
-32.205

> <r_i_glide_gscore>
-4.53481

> <r_i_glide_hbond>
-0.16

> <r_i_glide_ligand_efficiency>
-0.141713

> <r_i_glide_ligand_efficiency_ln>
-1.01547

> <r_i_glide_ligand_efficiency_sa>
-0.44991

> <r_i_glide_lipo>
-1.84938

> <r_i_glide_metal>
0

> <r_i_glide_rewards>
-0.312049

> <s_i_glide_gridfile>
wee1_glide-grid

> <s_m_Source_File>
wee1_decoys_glide_SP.sdf

> <s_m_Source_Path>
/Users/zhangxujun/Desktop

> <s_m_entry_id>
5754

> <s_m_entry_name>
wee1_decoys_glide_SP.5479

> <s_m_subgroup_title>
wee1_decoys_glide_SP

> <s_m_subgroupid>
wee1_decoys_glide_SP


$$$$
