ZINC13396353_527
                    3D
 Schrodinger Suite 2024-2.
 46 48  0  0  1  0            999 V2000
    0.6503   50.1555   21.1218 C   0  0  0  0  0  0
   -0.0904   49.2491   20.3704 C   0  0  0  0  0  0
    0.3357   48.8914   19.0895 C   0  0  0  0  0  0
    1.5270   49.4102   18.5779 C   0  0  0  0  0  0
    2.2761   50.3073   19.3379 C   0  0  0  0  0  0
    1.8292   50.7073   20.5986 C   0  0  0  0  0  0
    2.6161   51.6362   21.3053 N   0  0  0  0  0  0
    2.1902   52.5611   22.1989 C   0  0  0  0  0  0
    1.0040   52.8008   22.4288 O   0  0  0  0  0  0
    3.2711   53.3109   22.9509 C   0  0  0  0  0  0
    4.5103   53.5972   22.3497 C   0  0  0  0  0  0
    5.5285   54.2194   23.0747 C   0  0  0  0  0  0
    5.3273   54.5736   24.4065 C   0  0  0  0  0  0
    4.0959   54.3255   25.0108 C   0  0  0  0  0  0
    3.0751   53.6970   24.2928 C   0  0  0  0  0  0
    1.9042   53.4428   24.9314 F   0  0  0  0  0  0
    3.8919   54.6914   26.2987 F   0  0  0  0  0  0
    6.3152   55.1835   25.1022 F   0  0  0  0  0  0
    6.7083   54.4929   22.4748 F   0  0  0  0  0  0
   -0.6961   47.8366   18.0642 S   0  0  0  0  0  0
   -1.8809   47.5015   18.8635 O   0  0  0  0  0  0
   -0.8232   48.5338   16.7782 O   0  0  0  0  0  0
    0.2210   46.3421   17.7974 N   0  0  0  0  0  0
    1.2359   46.2483   16.7242 C   0  0  0  0  0  0
    1.0500   44.9103   15.9754 C   0  0  0  0  0  0
    1.0322   43.6969   16.9414 C   0  0  0  0  0  0
    0.0596   43.9142   18.1488 C   0  0  2  0  0  0
   -0.9689   43.8986   17.7808 H   0  0  0  0  0  0
    0.2912   45.2889   18.8326 C   0  0  0  0  0  0
    0.1201   42.7634   19.1861 C   0  0  0  0  0  0
   -0.4949   42.9033   20.2687 O   0  0  0  0  0  0
    0.3004   50.4227   22.1077 H   0  0  0  0  0  0
   -1.0112   48.8514   20.7764 H   0  0  0  0  0  0
    1.8688   49.1420   17.5856 H   0  0  0  0  0  0
    3.1871   50.7076   18.9159 H   0  0  0  0  0  0
    3.5946   51.6353   21.0672 H   0  0  0  0  0  0
    4.7016   53.3455   21.3148 H   0  0  0  0  0  0
    1.1436   47.1045   16.0537 H   0  0  0  0  0  0
    2.2263   46.2993   17.1805 H   0  0  0  0  0  0
    0.1179   44.9448   15.4093 H   0  0  0  0  0  0
    1.8437   44.7881   15.2376 H   0  0  0  0  0  0
    0.7480   42.8087   16.3748 H   0  0  0  0  0  0
    2.0564   43.5585   17.2824 H   0  0  0  0  0  0
    1.2813   45.3349   19.2817 H   0  0  0  0  0  0
   -0.4434   45.4947   19.6103 H   0  0  0  0  0  0
    0.7043   41.6998   18.8817 O   0  5  0  0  0  0
  1  6  2  0  0  0
  1  2  1  0  0  0
  1 32  1  0  0  0
  2  3  2  0  0  0
  2 33  1  0  0  0
  3  4  1  0  0  0
  3 20  1  0  0  0
  4  5  2  0  0  0
  4 34  1  0  0  0
  5  6  1  0  0  0
  5 35  1  0  0  0
  6  7  1  0  0  0
  7  8  1  0  0  0
  7 36  1  0  0  0
  8  9  2  0  0  0
  8 10  1  0  0  0
 10 15  2  0  0  0
 10 11  1  0  0  0
 11 12  2  0  0  0
 11 37  1  0  0  0
 12 13  1  0  0  0
 12 19  1  0  0  0
 13 14  2  0  0  0
 13 18  1  0  0  0
 14 15  1  0  0  0
 14 17  1  0  0  0
 15 16  1  0  0  0
 20 21  2  0  0  0
 20 22  2  0  0  0
 20 23  1  0  0  0
 23 29  1  0  0  0
 23 24  1  0  0  0
 24 25  1  0  0  0
 24 38  1  0  0  0
 24 39  1  0  0  0
 25 26  1  0  0  0
 25 40  1  0  0  0
 25 41  1  0  0  0
 26 27  1  0  0  0
 26 42  1  0  0  0
 26 43  1  0  0  0
 27 28  1  0  0  0
 27 29  1  0  0  0
 27 30  1  0  0  0
 29 44  1  0  0  0
 29 45  1  0  0  0
 30 31  2  0  0  0
 30 46  1  0  0  0
M  CHG  1  46  -1
M  END
> <i_i_glide_confnum>
35

> <i_i_glide_lignum>
528

> <i_i_glide_posenum>
271

> <i_i_glide_rotatable_bonds>
6

> <i_m_Source_File_Index>
6013

> <b_m_subgroup_collapsed>
0

> <r_i_docking_score>
-4.94293

> <r_i_glide_ecoul>
-7.98306

> <r_i_glide_eff_state_penalty>
0

> <r_i_glide_einternal>
5.4647

> <r_i_glide_emodel>
-47.0556

> <r_i_glide_energy>
-34.4779

> <r_i_glide_erotb>
0.47669

> <r_i_glide_esite>
-0.0824254

> <r_i_glide_evdw>
-26.4948

> <r_i_glide_gscore>
-4.94293

> <r_i_glide_hbond>
-0.4

> <r_i_glide_ligand_efficiency>
-0.159449

> <r_i_glide_ligand_efficiency_ln>
-1.11478

> <r_i_glide_ligand_efficiency_sa>
-0.500891

> <r_i_glide_lipo>
-1.25638

> <r_i_glide_metal>
0

> <r_i_glide_rewards>
-1.15861

> <s_i_glide_gridfile>
wee1_glide-grid

> <s_m_Source_File>
wee1_decoys_glide_SP.sdf

> <s_m_Source_Path>
/Users/zhangxujun/Desktop

> <s_m_entry_id>
6288

> <s_m_entry_name>
wee1_decoys_glide_SP.6013

> <s_m_subgroup_title>
wee1_decoys_glide_SP

> <s_m_subgroupid>
wee1_decoys_glide_SP


$$$$
