ZINC38595784_737
                    3D
 Schrodinger Suite 2024-2.
 66 70  0  0  1  0            999 V2000
    7.4251   53.9605   23.4642 C   0  0  0  0  0  0
    5.9408   54.3185   23.4450 C   0  0  1  0  0  0
    5.9042   55.3891   23.2678 H   0  0  0  0  0  0
    5.2259   53.5516   22.2698 C   0  0  2  0  0  0
    5.6720   52.5563   22.2915 H   0  0  0  0  0  0
    5.4835   54.1203   20.8622 C   0  0  0  0  0  0
    5.2856   53.4983   19.6218 C   0  0  0  0  0  0
    5.6290   54.2679   18.5095 C   0  0  0  0  0  0
    6.1232   55.5070   18.8589 C   0  0  0  0  0  0
    6.1739   55.7039   20.5735 S   0  0  0  0  0  0
    3.8026   53.2774   22.5546 N   0  0  0  0  0  0
    3.2097   52.2148   21.7280 C   0  0  0  0  0  0
    1.9043   51.7079   22.3676 C   0  0  0  0  0  0
    0.9321   52.8966   22.5270 N   0  3  0  0  0  0
    1.5896   54.0419   23.3326 C   0  0  0  0  0  0
    2.9303   54.4499   22.6844 C   0  0  0  0  0  0
   -0.3979   52.4405   23.1773 C   0  0  0  0  0  0
   -1.3008   51.5735   22.3055 C   0  0  0  0  0  0
   -1.3051   51.6967   20.9087 C   0  0  0  0  0  0
   -2.1503   50.9010   20.1407 C   0  0  0  0  0  0
   -2.9937   49.9850   20.7664 C   0  0  0  0  0  0
   -2.9939   49.8535   22.1536 C   0  0  0  0  0  0
   -2.1448   50.6452   22.9224 C   0  0  0  0  0  0
    5.3135   54.0969   24.7568 N   0  0  0  0  0  0
    5.6099   54.6954   25.9250 C   0  0  0  0  0  0
    6.5542   55.4765   26.0583 O   0  0  0  0  0  0
    4.7359   54.3604   27.1492 C   0  0  2  0  0  0
    4.5132   55.3013   27.6431 H   0  0  0  0  0  0
    5.5036   53.4338   28.1212 C   0  0  0  0  0  0
    4.6978   53.1872   29.2816 O   0  0  0  0  0  0
    3.3607   52.9542   29.0209 C   0  0  0  0  0  0
    2.5668   52.4965   30.0722 C   0  0  0  0  0  0
    1.1967   52.3063   29.8710 C   0  0  0  0  0  0
    0.6266   52.5624   28.6215 C   0  0  0  0  0  0
    1.4170   53.0326   27.5699 C   0  0  0  0  0  0
    2.7791   53.2467   27.7738 C   0  0  0  0  0  0
    3.5289   53.7115   26.7106 O   0  0  0  0  0  0
    7.9045   54.3197   22.5550 H   0  0  0  0  0  0
    7.9044   54.3917   24.3346 H   0  0  0  0  0  0
    7.6028   52.8967   23.5060 H   0  0  0  0  0  0
    4.9066   52.4919   19.5143 H   0  0  0  0  0  0
    5.5252   53.9220   17.4906 H   0  0  0  0  0  0
    6.4643   56.2933   18.2016 H   0  0  0  0  0  0
    2.9958   52.6294   20.7415 H   0  0  0  0  0  0
    3.9004   51.3789   21.6012 H   0  0  0  0  0  0
    2.0630   51.2605   23.3513 H   0  0  0  0  0  0
    1.4150   50.9913   21.7057 H   0  0  0  0  0  0
    1.7125   53.7040   24.3629 H   0  0  0  0  0  0
    0.8899   54.8731   23.2835 H   0  0  0  0  0  0
    3.3930   55.2383   23.2758 H   0  0  0  0  0  0
    2.7572   54.8358   21.6818 H   0  0  0  0  0  0
   -0.1163   51.9297   24.1021 H   0  0  0  0  0  0
   -0.9369   53.3465   23.4567 H   0  0  0  0  0  0
   -0.6566   52.4024   20.4093 H   0  0  0  0  0  0
   -2.1509   50.9900   19.0624 H   0  0  0  0  0  0
   -3.6507   49.3679   20.1695 H   0  0  0  0  0  0
   -3.6504   49.1400   22.6316 H   0  0  0  0  0  0
   -2.1518   50.5373   23.9981 H   0  0  0  0  0  0
    4.5083   53.4851   24.7429 H   0  0  0  0  0  0
    6.4319   53.8980   28.4602 H   0  0  0  0  0  0
    5.7427   52.4943   27.6274 H   0  0  0  0  0  0
    3.0055   52.3031   31.0404 H   0  0  0  0  0  0
    0.5736   51.9567   30.6825 H   0  0  0  0  0  0
   -0.4303   52.3953   28.4727 H   0  0  0  0  0  0
    0.9734   53.2342   26.6081 H   0  0  0  0  0  0
    0.7488   53.2536   21.5983 H   0  0  0  0  0  0
  1  2  1  0  0  0
  1 38  1  0  0  0
  1 39  1  0  0  0
  1 40  1  0  0  0
  2  3  1  0  0  0
  2  4  1  0  0  0
  2 24  1  0  0  0
  4  5  1  0  0  0
  4  6  1  0  0  0
  4 11  1  0  0  0
  6 10  1  0  0  0
  6  7  2  0  0  0
  7  8  1  0  0  0
  7 41  1  0  0  0
  8  9  2  0  0  0
  8 42  1  0  0  0
  9 10  1  0  0  0
  9 43  1  0  0  0
 11 16  1  0  0  0
 11 12  1  0  0  0
 12 13  1  0  0  0
 12 44  1  0  0  0
 12 45  1  0  0  0
 13 14  1  0  0  0
 13 46  1  0  0  0
 13 47  1  0  0  0
 14 15  1  0  0  0
 14 17  1  0  0  0
 14 66  1  0  0  0
 15 16  1  0  0  0
 15 48  1  0  0  0
 15 49  1  0  0  0
 16 50  1  0  0  0
 16 51  1  0  0  0
 17 18  1  0  0  0
 17 52  1  0  0  0
 17 53  1  0  0  0
 18 23  2  0  0  0
 18 19  1  0  0  0
 19 20  2  0  0  0
 19 54  1  0  0  0
 20 21  1  0  0  0
 20 55  1  0  0  0
 21 22  2  0  0  0
 21 56  1  0  0  0
 22 23  1  0  0  0
 22 57  1  0  0  0
 23 58  1  0  0  0
 24 25  1  0  0  0
 24 59  1  0  0  0
 25 26  2  0  0  0
 25 27  1  0  0  0
 27 28  1  0  0  0
 27 37  1  0  0  0
 27 29  1  0  0  0
 29 30  1  0  0  0
 29 60  1  0  0  0
 29 61  1  0  0  0
 30 31  1  0  0  0
 31 36  2  0  0  0
 31 32  1  0  0  0
 32 33  2  0  0  0
 32 62  1  0  0  0
 33 34  1  0  0  0
 33 63  1  0  0  0
 34 35  2  0  0  0
 34 64  1  0  0  0
 35 36  1  0  0  0
 35 65  1  0  0  0
 36 37  1  0  0  0
M  CHG  1  14   1
M  END
> <i_i_glide_confnum>
85

> <i_i_glide_lignum>
738

> <i_i_glide_posenum>
97

> <i_i_glide_rotatable_bonds>
8

> <i_m_Source_File_Index>
4770

> <b_m_subgroup_collapsed>
0

> <r_i_docking_score>
-5.58903

> <r_i_glide_ecoul>
-4.01226

> <r_i_glide_eff_state_penalty>
0

> <r_i_glide_einternal>
11.8743

> <r_i_glide_emodel>
-60.2494

> <r_i_glide_energy>
-47.9867

> <r_i_glide_erotb>
0.619253

> <r_i_glide_esite>
0

> <r_i_glide_evdw>
-43.9744

> <r_i_glide_gscore>
-5.58903

> <r_i_glide_hbond>
-0.26832

> <r_i_glide_ligand_efficiency>
-0.164383

> <r_i_glide_ligand_efficiency_ln>
-1.23477

> <r_i_glide_ligand_efficiency_sa>
-0.532538

> <r_i_glide_lipo>
-2.52524

> <r_i_glide_metal>
0

> <r_i_glide_rewards>
-0.614162

> <s_i_glide_gridfile>
wee1_glide-grid

> <s_m_Source_File>
wee1_decoys_glide_SP.sdf

> <s_m_Source_Path>
/Users/zhangxujun/Desktop

> <s_m_entry_id>
5045

> <s_m_entry_name>
wee1_decoys_glide_SP.4770

> <s_m_subgroup_title>
wee1_decoys_glide_SP

> <s_m_subgroupid>
wee1_decoys_glide_SP


$$$$
