ZINC38546516_5248
                    3D
 Schrodinger Suite 2024-2.
 70 74  0  0  1  0            999 V2000
   -7.1358   52.7816   25.1322 C   0  0  0  0  0  0
   -6.0173   53.8030   25.4082 C   0  0  0  0  0  0
   -6.2920   54.6253   26.6840 C   0  0  0  0  0  0
   -4.6376   53.1452   25.4370 C   0  0  0  0  0  0
   -3.6826   53.4832   24.4758 C   0  0  0  0  0  0
   -2.4253   52.8802   24.4908 C   0  0  0  0  0  0
   -2.1214   51.9143   25.4582 C   0  0  0  0  0  0
   -3.0764   51.5895   26.4277 C   0  0  0  0  0  0
   -4.3261   52.1991   26.4169 C   0  0  0  0  0  0
   -0.7717   51.1697   25.4586 C   0  0  2  0  0  0
   -0.8939   50.3670   26.1854 H   0  0  0  0  0  0
    0.3577   52.0971   25.9616 C   0  0  0  0  0  0
    0.5183   52.4374   27.3312 C   0  0  0  0  0  0
    1.5909   53.3082   27.5730 C   0  0  0  0  0  0
    2.4427   53.6967   26.1284 S   0  0  0  0  0  0
    1.3484   52.7232   25.1791 C   0  0  0  0  0  0
    1.5170   52.5307   23.8137 N   0  0  0  0  0  0
    2.3692   53.1435   22.9644 C   0  0  0  0  0  0
    3.0757   54.1193   23.2262 O   0  0  0  0  0  0
    2.4244   52.5073   21.6743 C   0  0  0  0  0  0
    1.5252   51.6855   20.9896 C   0  0  0  0  0  0
    2.1037   51.3960   19.7521 C   0  0  0  0  0  0
    3.3018   52.0899   19.7090 C   0  0  0  0  0  0
    3.4847   52.7830   20.8640 O   0  0  0  0  0  0
    2.0386   53.8078   28.9424 C   0  0  0  0  0  0
    0.9226   53.5378   29.9730 C   0  0  0  0  0  0
    0.3673   52.1110   29.8378 C   0  0  0  0  0  0
   -0.3340   51.8917   28.4812 C   0  0  0  0  0  0
   -0.4560   50.4750   24.1742 N   0  0  0  0  0  0
   -1.6106   49.9108   23.4495 C   0  0  0  0  0  0
   -2.3314   48.8011   24.2363 C   0  0  0  0  0  0
   -1.3476   47.6566   24.5545 N   0  3  0  0  0  0
    0.0267   48.1336   25.0878 C   0  0  0  0  0  0
    0.5454   49.4073   24.3745 C   0  0  0  0  0  0
   -1.9995   46.6722   25.5509 C   0  0  0  0  0  0
   -6.9410   52.2253   24.2142 H   0  0  0  0  0  0
   -8.0988   53.2792   25.0120 H   0  0  0  0  0  0
   -7.2369   52.0593   25.9433 H   0  0  0  0  0  0
   -6.0327   54.4969   24.5666 H   0  0  0  0  0  0
   -5.4901   55.3370   26.8834 H   0  0  0  0  0  0
   -7.2188   55.1925   26.5925 H   0  0  0  0  0  0
   -6.3878   53.9864   27.5628 H   0  0  0  0  0  0
   -3.9059   54.2174   23.7156 H   0  0  0  0  0  0
   -1.6916   53.1447   23.7425 H   0  0  0  0  0  0
   -2.8602   50.8465   27.1839 H   0  0  0  0  0  0
   -5.0548   51.9279   27.1677 H   0  0  0  0  0  0
    0.9110   51.8146   23.4328 H   0  0  0  0  0  0
    0.5736   51.3229   21.3505 H   0  0  0  0  0  0
    1.7031   50.7635   18.9717 H   0  0  0  0  0  0
    4.0832   52.1725   18.9648 H   0  0  0  0  0  0
    2.9428   53.2787   29.2462 H   0  0  0  0  0  0
    2.2838   54.8708   28.9215 H   0  0  0  0  0  0
    1.3039   53.6954   30.9816 H   0  0  0  0  0  0
    0.1126   54.2582   29.8439 H   0  0  0  0  0  0
    1.1861   51.3977   29.9383 H   0  0  0  0  0  0
   -0.3274   51.8958   30.6521 H   0  0  0  0  0  0
   -1.2952   52.4002   28.4919 H   0  0  0  0  0  0
   -0.5536   50.8322   28.3539 H   0  0  0  0  0  0
   -2.3027   50.6892   23.1307 H   0  0  0  0  0  0
   -1.2252   49.5052   22.5117 H   0  0  0  0  0  0
   -3.1206   48.3547   23.6299 H   0  0  0  0  0  0
   -2.7524   49.1568   25.1775 H   0  0  0  0  0  0
    0.7040   47.2993   24.8819 H   0  0  0  0  0  0
   -0.0849   48.2977   26.1630 H   0  0  0  0  0  0
    0.8210   49.1128   23.3602 H   0  0  0  0  0  0
    1.4704   49.7743   24.8270 H   0  0  0  0  0  0
   -2.1941   47.2161   26.4790 H   0  0  0  0  0  0
   -2.9264   46.3070   25.1079 H   0  0  0  0  0  0
   -1.2960   45.8629   25.7305 H   0  0  0  0  0  0
   -1.1577   47.2261   23.6589 H   0  0  0  0  0  0
  1  2  1  0  0  0
  1 36  1  0  0  0
  1 37  1  0  0  0
  1 38  1  0  0  0
  2  3  1  0  0  0
  2  4  1  0  0  0
  2 39  1  0  0  0
  3 40  1  0  0  0
  3 41  1  0  0  0
  3 42  1  0  0  0
  4  9  2  0  0  0
  4  5  1  0  0  0
  5  6  2  0  0  0
  5 43  1  0  0  0
  6  7  1  0  0  0
  6 44  1  0  0  0
  7  8  2  0  0  0
  7 10  1  0  0  0
  8  9  1  0  0  0
  8 45  1  0  0  0
  9 46  1  0  0  0
 10 11  1  0  0  0
 10 12  1  0  0  0
 10 29  1  0  0  0
 12 16  2  0  0  0
 12 13  1  0  0  0
 13 28  1  0  0  0
 13 14  2  0  0  0
 14 15  1  0  0  0
 14 25  1  0  0  0
 15 16  1  0  0  0
 16 17  1  0  0  0
 17 18  1  0  0  0
 17 47  1  0  0  0
 18 19  2  0  0  0
 18 20  1  0  0  0
 20 24  1  0  0  0
 20 21  2  0  0  0
 21 22  1  0  0  0
 21 48  1  0  0  0
 22 23  2  0  0  0
 22 49  1  0  0  0
 23 24  1  0  0  0
 23 50  1  0  0  0
 25 26  1  0  0  0
 25 51  1  0  0  0
 25 52  1  0  0  0
 26 27  1  0  0  0
 26 53  1  0  0  0
 26 54  1  0  0  0
 27 28  1  0  0  0
 27 55  1  0  0  0
 27 56  1  0  0  0
 28 57  1  0  0  0
 28 58  1  0  0  0
 29 34  1  0  0  0
 29 30  1  0  0  0
 30 31  1  0  0  0
 30 59  1  0  0  0
 30 60  1  0  0  0
 31 32  1  0  0  0
 31 61  1  0  0  0
 31 62  1  0  0  0
 32 33  1  0  0  0
 32 35  1  0  0  0
 32 70  1  0  0  0
 33 34  1  0  0  0
 33 63  1  0  0  0
 33 64  1  0  0  0
 34 65  1  0  0  0
 34 66  1  0  0  0
 35 67  1  0  0  0
 35 68  1  0  0  0
 35 69  1  0  0  0
M  CHG  1  32   1
M  END
> <i_i_glide_confnum>
173

> <i_i_glide_lignum>
5249

> <i_i_glide_posenum>
63

> <i_i_glide_rotatable_bonds>
7

> <i_m_Source_File_Index>
2972

> <b_m_subgroup_collapsed>
0

> <r_i_docking_score>
-3.81661

> <r_i_glide_ecoul>
-2.96696

> <r_i_glide_eff_state_penalty>
0

> <r_i_glide_einternal>
6.08458

> <r_i_glide_emodel>
-49.1667

> <r_i_glide_energy>
-42.2794

> <r_i_glide_erotb>
0.530701

> <r_i_glide_esite>
-0.0581968

> <r_i_glide_evdw>
-39.3124

> <r_i_glide_gscore>
-3.81661

> <r_i_glide_hbond>
0

> <r_i_glide_ligand_efficiency>
-0.112253

> <r_i_glide_ligand_efficiency_ln>
-0.843197

> <r_i_glide_ligand_efficiency_sa>
-0.363657

> <r_i_glide_lipo>
-1.52018

> <r_i_glide_metal>
0

> <r_i_glide_rewards>
-0.358275

> <s_i_glide_gridfile>
wee1_glide-grid

> <s_m_Source_File>
wee1_decoys_glide_SP.sdf

> <s_m_Source_Path>
/Users/zhangxujun/Desktop

> <s_m_entry_id>
3247

> <s_m_entry_name>
wee1_decoys_glide_SP.2972

> <s_m_subgroup_title>
wee1_decoys_glide_SP

> <s_m_subgroupid>
wee1_decoys_glide_SP


$$$$
