ZINC09597127_613
                    3D
 Schrodinger Suite 2024-2.
 54 57  0  0  1  0            999 V2000
   -6.0142   55.1700   27.0343 C   0  0  0  0  0  0
   -4.9998   54.8342   26.0966 O   0  0  0  0  0  0
   -5.2630   53.6237   25.3979 C   0  0  0  0  0  0
   -4.1224   53.3063   24.4128 C   0  0  0  0  0  0
   -2.9103   52.8966   25.1064 N   0  0  0  0  0  0
   -2.6024   51.6593   25.2358 C   0  0  0  0  0  0
   -1.2956   51.1174   25.8315 C   0  0  1  0  0  0
   -1.1339   49.6900   25.2763 C   0  0  2  0  0  0
   -0.7646   49.6868   24.2452 H   0  0  0  0  0  0
   -2.5027   49.0270   25.4200 C   0  0  1  0  0  0
   -2.7500   48.8768   26.4725 H   0  0  0  0  0  0
   -3.6578   50.2550   24.7572 S   0  0  0  0  0  0
   -2.6961   47.7207   24.6235 C   0  0  0  0  0  0
   -2.1762   47.5959   23.5127 O   0  0  0  0  0  0
   -3.6365   46.7156   25.1887 C   0  0  0  0  0  0
   -3.5759   46.3649   26.5425 C   0  0  0  0  0  0
   -4.4222   45.3806   27.0408 C   0  0  0  0  0  0
   -5.3362   44.7451   26.1986 C   0  0  0  0  0  0
   -5.4024   45.0995   24.8533 C   0  0  0  0  0  0
   -4.5400   46.0650   24.3412 C   0  0  0  0  0  0
   -6.1884   43.7692   26.6548 O   0  0  0  0  0  0
   -5.5672   42.6383   27.2561 C   0  0  0  0  0  0
   -4.8956   41.9593   26.3284 F   0  0  0  0  0  0
   -6.5088   41.8480   27.7669 F   0  0  0  0  0  0
   -0.0857   51.9923   25.4885 C   0  0  0  0  0  0
    0.7445   52.4037   26.4113 N   0  0  0  0  0  0
    1.7839   53.1153   25.8965 C   0  0  0  0  0  0
    2.8240   53.6806   26.6508 C   0  0  0  0  0  0
    3.8627   54.3209   25.9727 C   0  0  0  0  0  0
    3.8610   54.4217   24.5814 C   0  0  0  0  0  0
    2.8148   53.9104   23.8124 C   0  0  0  0  0  0
    1.7802   53.2476   24.4849 C   0  0  0  0  0  0
    0.3498   52.4587   23.8472 S   0  0  0  0  0  0
   -5.7617   56.1092   27.5267 H   0  0  0  0  0  0
   -6.9833   55.2977   26.5490 H   0  0  0  0  0  0
   -6.1134   54.4044   27.8037 H   0  0  0  0  0  0
   -6.1850   53.7516   24.8273 H   0  0  0  0  0  0
   -5.4235   52.7878   26.0822 H   0  0  0  0  0  0
   -3.8960   54.1921   23.8173 H   0  0  0  0  0  0
   -4.4683   52.5724   23.6826 H   0  0  0  0  0  0
   -1.4111   51.0962   26.9182 H   0  0  0  0  0  0
   -2.8718   46.8284   27.2223 H   0  0  0  0  0  0
   -4.3500   45.1108   28.0818 H   0  0  0  0  0  0
   -6.1157   44.6114   24.2055 H   0  0  0  0  0  0
   -4.5964   46.3172   23.2908 H   0  0  0  0  0  0
   -4.8957   42.8823   28.0791 H   0  0  0  0  0  0
   -0.4602   48.7415   27.0262 H   0  0  0  0  0  0
    0.0881   47.9815   25.6935 H   0  0  0  0  0  0
    2.8390   53.5921   27.7265 H   0  0  0  0  0  0
    4.6886   54.7372   26.5324 H   0  0  0  0  0  0
    4.6918   54.9017   24.0868 H   0  0  0  0  0  0
    2.8146   54.0021   22.7341 H   0  0  0  0  0  0
   -0.0956   48.8972   26.0817 N   0  3  0  0  0  0
    0.7747   49.4029   26.1504 H   0  0  0  0  0  0
  1  2  1  0  0  0
  1 34  1  0  0  0
  1 35  1  0  0  0
  1 36  1  0  0  0
  2  3  1  0  0  0
  3  4  1  0  0  0
  3 37  1  0  0  0
  3 38  1  0  0  0
  4 39  1  0  0  0
  4 40  1  0  0  0
  4  5  1  0  0  0
  5  6  2  0  0  0
  6 12  1  0  0  0
  6  7  1  0  0  0
  7  8  1  0  0  0
  7 25  1  0  0  0
  7 41  1  0  0  0
  8  9  1  0  0  0
  8 10  1  0  0  0
  8 53  1  0  0  0
 10 11  1  0  0  0
 10 12  1  0  0  0
 10 13  1  0  0  0
 13 14  2  0  0  0
 13 15  1  0  0  0
 15 20  2  0  0  0
 15 16  1  0  0  0
 16 17  2  0  0  0
 16 42  1  0  0  0
 17 18  1  0  0  0
 17 43  1  0  0  0
 18 19  2  0  0  0
 18 21  1  0  0  0
 19 20  1  0  0  0
 19 44  1  0  0  0
 20 45  1  0  0  0
 21 22  1  0  0  0
 22 23  1  0  0  0
 22 24  1  0  0  0
 22 46  1  0  0  0
 25 33  1  0  0  0
 25 26  2  0  0  0
 26 27  1  0  0  0
 27 32  2  0  0  0
 27 28  1  0  0  0
 28 29  2  0  0  0
 28 49  1  0  0  0
 29 30  1  0  0  0
 29 50  1  0  0  0
 30 31  2  0  0  0
 30 51  1  0  0  0
 31 32  1  0  0  0
 31 52  1  0  0  0
 32 33  1  0  0  0
 47 53  1  0  0  0
 48 53  1  0  0  0
 53 54  1  0  0  0
M  CHG  1  53   1
M  END
> <i_i_glide_confnum>
57

> <i_i_glide_lignum>
614

> <i_i_glide_posenum>
130

> <i_i_glide_rotatable_bonds>
8

> <i_m_Source_File_Index>
348

> <b_m_subgroup_collapsed>
0

> <r_i_docking_score>
-4.64726

> <r_i_glide_ecoul>
-10.545

> <r_i_glide_eff_state_penalty>
0

> <r_i_glide_einternal>
11.2383

> <r_i_glide_emodel>
-53.6922

> <r_i_glide_energy>
-46.3029

> <r_i_glide_erotb>
0.53093

> <r_i_glide_esite>
-0.168013

> <r_i_glide_evdw>
-35.7579

> <r_i_glide_gscore>
-4.64726

> <r_i_glide_hbond>
-0.52

> <r_i_glide_ligand_efficiency>
-0.145227

> <r_i_glide_ligand_efficiency_ln>
-1.04065

> <r_i_glide_ligand_efficiency_sa>
-0.461067

> <r_i_glide_lipo>
-1.71053

> <r_i_glide_metal>
0

> <r_i_glide_rewards>
0.589987

> <s_i_glide_gridfile>
wee1_glide-grid

> <s_m_Source_File>
wee1_decoys_glide_SP.sdf

> <s_m_Source_Path>
/Users/zhangxujun/Desktop

> <s_m_entry_id>
623

> <s_m_entry_name>
wee1_decoys_glide_SP.348

> <s_m_subgroup_title>
wee1_decoys_glide_SP

> <s_m_subgroupid>
wee1_decoys_glide_SP


$$$$
