ZINC35427274_6077
                    3D
 Schrodinger Suite 2024-2.
 66 71  0  0  1  0            999 V2000
   10.7428   51.2104   15.0221 C   0  0  0  0  0  0
    9.7437   52.2564   15.5671 N   0  3  2  0  0  0
    8.7742   51.5834   16.5661 C   0  0  0  0  0  0
    7.9407   52.6716   17.2829 C   0  0  0  0  0  0
    7.4542   53.7450   16.3120 C   0  0  0  0  0  0
    6.4865   54.7295   16.6081 C   0  0  0  0  0  0
    6.2677   55.5581   15.5009 C   0  0  0  0  0  0
    7.2233   55.1259   14.1233 S   0  0  0  0  0  0
    7.9515   53.8323   15.0058 C   0  0  0  0  0  0
    8.9555   52.8724   14.3865 C   0  0  0  0  0  0
    5.3815   56.6087   15.5624 N   0  0  0  0  0  0
    4.4301   56.9337   14.6230 C   0  0  0  0  0  0
    3.7460   58.0584   15.0465 C   0  0  0  0  0  0
    4.2907   58.4218   16.2762 C   0  0  0  0  0  0
    5.2939   57.5142   16.6077 C   0  0  0  0  0  0
    6.2219   57.4392   17.8216 C   0  0  1  0  0  0
    5.8999   58.2653   18.4604 H   0  0  0  0  0  0
    6.0497   56.1873   18.6263 N   0  0  0  0  0  0
    5.7541   54.9001   17.9352 C   0  0  0  0  0  0
    6.3091   56.2563   19.9674 C   0  0  0  0  0  0
    6.7042   57.2966   20.4968 O   0  0  0  0  0  0
    6.0040   55.1775   20.7171 N   0  0  0  0  0  0
    6.3337   55.0149   22.1381 C   0  0  0  0  0  0
    5.1990   54.3459   22.9404 C   0  0  0  0  0  0
    5.3513   54.3823   24.4629 C   0  0  0  0  0  0
    4.2029   54.4961   25.2526 C   0  0  0  0  0  0
    4.3004   54.4963   26.6411 C   0  0  0  0  0  0
    5.5503   54.3829   27.2437 C   0  0  0  0  0  0
    6.6999   54.2645   26.4687 C   0  0  0  0  0  0
    6.6038   54.2622   25.0783 C   0  0  0  0  0  0
    7.6754   57.8193   17.4723 C   0  0  0  0  0  0
    8.7696   57.0059   17.8075 C   0  0  0  0  0  0
   10.0684   57.4256   17.5339 C   0  0  0  0  0  0
   10.2806   58.6563   16.9205 C   0  0  0  0  0  0
    9.2051   59.4704   16.5755 C   0  0  0  0  0  0
    7.9081   59.0527   16.8542 C   0  0  0  0  0  0
   11.5417   59.0687   16.6643 F   0  0  0  0  0  0
   11.4119   51.7169   14.3240 H   0  0  0  0  0  0
   11.3057   50.8222   15.8727 H   0  0  0  0  0  0
   10.1830   50.4150   14.5241 H   0  0  0  0  0  0
    8.1546   50.8981   15.9859 H   0  0  0  0  0  0
    9.3690   51.0193   17.2882 H   0  0  0  0  0  0
    7.1040   52.1919   17.7932 H   0  0  0  0  0  0
    8.5448   53.1537   18.0551 H   0  0  0  0  0  0
    9.6929   53.3682   13.7528 H   0  0  0  0  0  0
    8.4711   52.0639   13.8340 H   0  0  0  0  0  0
    4.3279   56.3388   13.7273 H   0  0  0  0  0  0
    2.9501   58.5708   14.5242 H   0  0  0  0  0  0
    3.9955   59.2821   16.8647 H   0  0  0  0  0  0
    4.6765   54.8323   17.7838 H   0  0  0  0  0  0
    5.9832   54.0467   18.5713 H   0  0  0  0  0  0
    5.5655   54.3896   20.2666 H   0  0  0  0  0  0
    7.2841   54.4972   22.2692 H   0  0  0  0  0  0
    6.5312   55.9856   22.5985 H   0  0  0  0  0  0
    4.2612   54.8400   22.6771 H   0  0  0  0  0  0
    5.0846   53.3068   22.6285 H   0  0  0  0  0  0
    3.2292   54.5745   24.7909 H   0  0  0  0  0  0
    3.4094   54.5810   27.2459 H   0  0  0  0  0  0
    5.6329   54.3820   28.3212 H   0  0  0  0  0  0
    7.6593   54.1611   26.9540 H   0  0  0  0  0  0
    7.5026   54.1535   24.4893 H   0  0  0  0  0  0
    8.6293   56.0527   18.2930 H   0  0  0  0  0  0
   10.9097   56.8055   17.8101 H   0  0  0  0  0  0
    9.3734   60.4263   16.1041 H   0  0  0  0  0  0
    7.0761   59.6979   16.6038 H   0  0  0  0  0  0
   10.2714   52.9725   16.0514 H   0  0  0  0  0  0
  1  2  1  0  0  0
  1 38  1  0  0  0
  1 39  1  0  0  0
  1 40  1  0  0  0
  2 10  1  0  0  0
  2  3  1  0  0  0
  2 66  1  0  0  0
  3  4  1  0  0  0
  3 41  1  0  0  0
  3 42  1  0  0  0
  4  5  1  0  0  0
  4 43  1  0  0  0
  4 44  1  0  0  0
  5  9  2  0  0  0
  5  6  1  0  0  0
  6 19  1  0  0  0
  6  7  2  0  0  0
  7  8  1  0  0  0
  7 11  1  0  0  0
  8  9  1  0  0  0
  9 10  1  0  0  0
 10 45  1  0  0  0
 10 46  1  0  0  0
 11 15  1  0  0  0
 11 12  1  0  0  0
 12 13  2  0  0  0
 12 47  1  0  0  0
 13 14  1  0  0  0
 13 48  1  0  0  0
 14 15  2  0  0  0
 14 49  1  0  0  0
 15 16  1  0  0  0
 16 17  1  0  0  0
 16 18  1  0  0  0
 16 31  1  0  0  0
 18 19  1  0  0  0
 18 20  1  0  0  0
 19 50  1  0  0  0
 19 51  1  0  0  0
 20 21  2  0  0  0
 20 22  1  0  0  0
 22 23  1  0  0  0
 22 52  1  0  0  0
 23 24  1  0  0  0
 23 53  1  0  0  0
 23 54  1  0  0  0
 24 25  1  0  0  0
 24 55  1  0  0  0
 24 56  1  0  0  0
 25 30  2  0  0  0
 25 26  1  0  0  0
 26 27  2  0  0  0
 26 57  1  0  0  0
 27 28  1  0  0  0
 27 58  1  0  0  0
 28 29  2  0  0  0
 28 59  1  0  0  0
 29 30  1  0  0  0
 29 60  1  0  0  0
 30 61  1  0  0  0
 31 36  2  0  0  0
 31 32  1  0  0  0
 32 33  2  0  0  0
 32 62  1  0  0  0
 33 34  1  0  0  0
 33 63  1  0  0  0
 34 35  2  0  0  0
 34 37  1  0  0  0
 35 36  1  0  0  0
 35 64  1  0  0  0
 36 65  1  0  0  0
M  CHG  1   2   1
M  END
> <i_i_glide_confnum>
36

> <i_i_glide_lignum>
6078

> <i_i_glide_posenum>
396

> <i_i_glide_rotatable_bonds>
6

> <i_m_Source_File_Index>
2145

> <b_m_subgroup_collapsed>
0

> <r_i_docking_score>
-5.62129

> <r_i_glide_ecoul>
-10.5333

> <r_i_glide_eff_state_penalty>
0

> <r_i_glide_einternal>
3.13501

> <r_i_glide_emodel>
-59.9258

> <r_i_glide_energy>
-44.5788

> <r_i_glide_erotb>
0.40589

> <r_i_glide_esite>
0

> <r_i_glide_evdw>
-34.0454

> <r_i_glide_gscore>
-5.62129

> <r_i_glide_hbond>
-0.32

> <r_i_glide_ligand_efficiency>
-0.156147

> <r_i_glide_ligand_efficiency_ln>
-1.22641

> <r_i_glide_ligand_efficiency_sa>
-0.515585

> <r_i_glide_lipo>
-2.24975

> <r_i_glide_metal>
0

> <r_i_glide_rewards>
-0.175158

> <s_i_glide_gridfile>
wee1_glide-grid

> <s_m_Source_File>
wee1_decoys_glide_SP.sdf

> <s_m_Source_Path>
/Users/zhangxujun/Desktop

> <s_m_entry_id>
2420

> <s_m_entry_name>
wee1_decoys_glide_SP.2145

> <s_m_subgroup_title>
wee1_decoys_glide_SP

> <s_m_subgroupid>
wee1_decoys_glide_SP


$$$$
