ZINC12923115_109
                    3D
 Schrodinger Suite 2024-2.
 60 63  0  0  1  0            999 V2000
    2.5345   58.6996   15.3403 C   0  0  0  0  0  0
    3.3732   57.9323   16.3763 C   0  0  1  0  0  0
    2.7621   56.5618   16.7174 C   0  0  0  0  0  0
    3.5363   55.8837   17.8644 C   0  0  0  0  0  0
    5.6630   57.0426   16.9859 C   0  0  0  0  0  0
    4.8043   57.6790   15.8782 C   0  0  0  0  0  0
    5.8880   55.0739   18.5974 C   0  0  1  0  0  0
    5.9182   55.8984   19.3126 H   0  0  0  0  0  0
    5.2480   53.8032   19.2453 C   0  0  0  0  0  0
    4.7641   53.9593   20.6255 N   0  0  0  0  0  0
    5.5039   54.4215   21.6592 C   0  0  0  0  0  0
    6.6322   54.9005   21.5333 O   0  0  0  0  0  0
    4.9077   54.3120   22.9668 C   0  0  0  0  0  0
    5.5285   54.5002   24.1968 C   0  0  0  0  0  0
    4.5611   54.2876   25.2257 C   0  0  0  0  0  0
    4.5952   54.3367   26.6273 C   0  0  0  0  0  0
    3.4326   54.0414   27.3553 C   0  0  0  0  0  0
    2.2623   53.6946   26.6841 C   0  0  0  0  0  0
    2.1852   53.6328   25.2934 C   0  0  0  0  0  0
    3.3438   53.9487   24.5750 C   0  0  0  0  0  0
    3.5879   54.0015   23.2197 N   0  0  0  0  0  0
    2.9182   53.8278   22.4842 H   0  0  0  0  0  0
    1.0311   53.2933   24.6402 O   0  0  0  0  0  0
    0.9797   51.9285   24.2423 C   0  0  0  0  0  0
    3.3546   54.0621   28.7325 O   0  0  0  0  0  0
    4.5394   54.3032   29.4835 C   0  0  0  0  0  0
    7.2829   54.7602   18.0776 C   0  0  0  0  0  0
    8.5109   55.2952   18.4734 C   0  0  0  0  0  0
    9.6183   54.7336   17.8311 C   0  0  0  0  0  0
    9.2653   53.7479   16.9308 C   0  0  0  0  0  0
    7.5532   53.5200   16.8737 S   0  0  0  0  0  0
    2.4420   58.1539   14.4010 H   0  0  0  0  0  0
    1.5319   58.8952   15.7184 H   0  0  0  0  0  0
    2.9888   59.6672   15.1221 H   0  0  0  0  0  0
    3.4198   58.5386   17.2815 H   0  0  0  0  0  0
    2.7131   55.9226   15.8328 H   0  0  0  0  0  0
    1.7181   56.6903   17.0150 H   0  0  0  0  0  0
    3.0940   54.9047   18.0366 H   0  0  0  0  0  0
    3.5170   56.4645   18.7858 H   0  0  0  0  0  0
    5.7540   57.6960   17.8556 H   0  0  0  0  0  0
    6.6550   56.8202   16.5896 H   0  0  0  0  0  0
    5.2508   58.6298   15.5800 H   0  0  0  0  0  0
    4.8058   57.0748   14.9669 H   0  0  0  0  0  0
    5.9646   52.9780   19.2609 H   0  0  0  0  0  0
    4.4540   53.3822   18.6302 H   0  0  0  0  0  0
    3.8303   53.6314   20.8045 H   0  0  0  0  0  0
    6.5692   54.7627   24.3246 H   0  0  0  0  0  0
    5.5174   54.5955   27.1218 H   0  0  0  0  0  0
    1.3792   53.4585   27.2597 H   0  0  0  0  0  0
    0.0094   51.7158   23.7914 H   0  0  0  0  0  0
    1.7476   51.6944   23.5001 H   0  0  0  0  0  0
    1.1042   51.2545   25.0944 H   0  0  0  0  0  0
    4.3058   54.2392   30.5458 H   0  0  0  0  0  0
    4.9488   55.2961   29.2904 H   0  0  0  0  0  0
    5.3063   53.5562   29.2657 H   0  0  0  0  0  0
    8.6017   56.0639   19.2285 H   0  0  0  0  0  0
   10.6414   55.0303   18.0292 H   0  0  0  0  0  0
    9.9151   53.1447   16.3141 H   0  0  0  0  0  0
    5.0269   55.6963   17.4530 N   0  3  1  0  0  0
    5.0460   55.0672   16.6623 H   0  0  0  0  0  0
  1  2  1  0  0  0
  1 32  1  0  0  0
  1 33  1  0  0  0
  1 34  1  0  0  0
  2  6  1  0  0  0
  2  3  1  0  0  0
  2 35  1  0  0  0
  3  4  1  0  0  0
  3 36  1  0  0  0
  3 37  1  0  0  0
  4 38  1  0  0  0
  4 39  1  0  0  0
  4 59  1  0  0  0
  5  6  1  0  0  0
  5 40  1  0  0  0
  5 41  1  0  0  0
  5 59  1  0  0  0
  6 42  1  0  0  0
  6 43  1  0  0  0
  7  8  1  0  0  0
  7  9  1  0  0  0
  7 27  1  0  0  0
  7 59  1  0  0  0
  9 10  1  0  0  0
  9 44  1  0  0  0
  9 45  1  0  0  0
 10 11  1  0  0  0
 10 46  1  0  0  0
 11 12  2  0  0  0
 11 13  1  0  0  0
 13 21  1  0  0  0
 13 14  2  0  0  0
 14 15  1  0  0  0
 14 47  1  0  0  0
 15 20  2  0  0  0
 15 16  1  0  0  0
 16 17  2  0  0  0
 16 48  1  0  0  0
 17 18  1  0  0  0
 17 25  1  0  0  0
 18 19  2  0  0  0
 18 49  1  0  0  0
 19 20  1  0  0  0
 19 23  1  0  0  0
 20 21  1  0  0  0
 21 22  1  0  0  0
 23 24  1  0  0  0
 24 50  1  0  0  0
 24 51  1  0  0  0
 24 52  1  0  0  0
 25 26  1  0  0  0
 26 53  1  0  0  0
 26 54  1  0  0  0
 26 55  1  0  0  0
 27 31  1  0  0  0
 27 28  2  0  0  0
 28 29  1  0  0  0
 28 56  1  0  0  0
 29 30  2  0  0  0
 29 57  1  0  0  0
 30 31  1  0  0  0
 30 58  1  0  0  0
 59 60  1  0  0  0
M  CHG  1  59   1
M  END
> <i_i_glide_confnum>
21

> <i_i_glide_lignum>
110

> <i_i_glide_posenum>
310

> <i_i_glide_rotatable_bonds>
8

> <i_m_Source_File_Index>
5789

> <b_m_subgroup_collapsed>
0

> <r_i_docking_score>
-5.30985

> <r_i_glide_ecoul>
-4.91447

> <r_i_glide_eff_state_penalty>
0

> <r_i_glide_einternal>
9.15423

> <r_i_glide_emodel>
-55.984

> <r_i_glide_energy>
-42.4167

> <r_i_glide_erotb>
0.648927

> <r_i_glide_esite>
0

> <r_i_glide_evdw>
-37.5022

> <r_i_glide_gscore>
-5.30985

> <r_i_glide_hbond>
0

> <r_i_glide_ligand_efficiency>
-0.176995

> <r_i_glide_ligand_efficiency_ln>
-1.20646

> <r_i_glide_ligand_efficiency_sa>
-0.549965

> <r_i_glide_lipo>
-2.56882

> <r_i_glide_metal>
0

> <r_i_glide_rewards>
-0.777682

> <s_i_glide_gridfile>
wee1_glide-grid

> <s_m_Source_File>
wee1_decoys_glide_SP.sdf

> <s_m_Source_Path>
/Users/zhangxujun/Desktop

> <s_m_entry_id>
6064

> <s_m_entry_name>
wee1_decoys_glide_SP.5789

> <s_m_subgroup_title>
wee1_decoys_glide_SP

> <s_m_subgroupid>
wee1_decoys_glide_SP


$$$$
