ZINC20410740_1527
                    3D
 Schrodinger Suite 2024-2.
 49 53  0  0  1  0            999 V2000
    1.3985   52.3117   19.8599 C   0  0  0  0  0  0
    2.5931   52.4482   20.8354 N   0  3  1  0  0  0
    3.7553   53.1952   20.1566 C   0  0  0  0  0  0
    4.9750   53.0111   21.0484 C   0  0  0  0  0  0
    4.7270   53.5220   22.4589 C   0  0  0  0  0  0
    5.8211   54.0378   23.1777 C   0  0  0  0  0  0
    5.6377   54.4343   24.4875 C   0  0  0  0  0  0
    4.4155   54.3780   25.0778 C   0  0  0  0  0  0
    3.2901   53.9155   24.3890 C   0  0  0  0  0  0
    3.4261   53.4569   23.0528 C   0  0  0  0  0  0
    2.1822   52.9476   22.2540 C   0  0  2  0  0  0
    1.5721   53.8270   22.0387 H   0  0  0  0  0  0
    1.3604   51.8015   22.9078 C   0  0  0  0  0  0
    1.6981   50.4909   22.8786 C   0  0  0  0  0  0
    2.7045   50.0015   22.2568 O   0  5  0  0  0  0
    0.9549   49.4976   23.3907 N   0  0  0  0  0  0
   -0.2825   49.7097   23.9210 C   0  0  0  0  0  0
   -1.0759   48.3494   24.4816 S   0  0  0  0  0  0
   -0.7197   51.0428   23.9360 N   0  0  0  0  0  0
    0.0632   52.1261   23.5333 C   0  0  0  0  0  0
   -0.2857   53.2968   23.6817 O   0  0  0  0  0  0
   -2.0645   51.3521   24.5077 C   0  0  0  0  0  0
   -3.0245   52.3336   23.8310 C   0  0  0  0  0  0
   -3.3218   50.8673   23.7908 C   0  0  0  0  0  0
    2.0588   53.9445   24.9985 O   0  0  0  0  0  0
    1.9571   53.3685   26.2972 C   0  0  0  0  0  0
    4.5294   54.8522   26.3502 O   0  0  0  0  0  0
    5.9070   54.8691   26.6074 C   0  0  0  0  0  0
    6.5534   54.9232   25.3673 O   0  0  0  0  0  0
    1.0152   53.2966   19.6042 H   0  0  0  0  0  0
    1.7693   51.7960   18.9723 H   0  0  0  0  0  0
    0.6319   51.7067   20.3446 H   0  0  0  0  0  0
    3.9362   52.7035   19.1975 H   0  0  0  0  0  0
    3.5032   54.2434   19.9946 H   0  0  0  0  0  0
    5.8217   53.5272   20.5927 H   0  0  0  0  0  0
    5.2433   51.9537   21.0905 H   0  0  0  0  0  0
    6.8029   54.0968   22.7331 H   0  0  0  0  0  0
   -2.0706   51.3098   25.5984 H   0  0  0  0  0  0
   -3.6227   52.9834   24.4704 H   0  0  0  0  0  0
   -2.7307   52.8293   22.9053 H   0  0  0  0  0  0
   -3.2122   50.3286   22.8487 H   0  0  0  0  0  0
   -4.1334   50.4676   24.3995 H   0  0  0  0  0  0
    0.9299   53.0465   26.4670 H   0  0  0  0  0  0
    2.6002   52.4964   26.4226 H   0  0  0  0  0  0
    2.2022   54.0990   27.0684 H   0  0  0  0  0  0
    6.1948   55.6964   27.2554 H   0  0  0  0  0  0
    6.1885   53.9480   27.1246 H   0  0  0  0  0  0
    2.9072   51.4950   21.0080 H   0  0  0  0  0  0
    1.3160   48.5602   23.4882 H   0  0  0  0  0  0
  1  2  1  0  0  0
  1 30  1  0  0  0
  1 31  1  0  0  0
  1 32  1  0  0  0
  2 11  1  0  0  0
  2  3  1  0  0  0
  2 48  1  0  0  0
  3  4  1  0  0  0
  3 33  1  0  0  0
  3 34  1  0  0  0
  4  5  1  0  0  0
  4 35  1  0  0  0
  4 36  1  0  0  0
  5 10  2  0  0  0
  5  6  1  0  0  0
  6  7  2  0  0  0
  6 37  1  0  0  0
  7 29  1  0  0  0
  7  8  1  0  0  0
  8  9  2  0  0  0
  8 27  1  0  0  0
  9 10  1  0  0  0
  9 25  1  0  0  0
 10 11  1  0  0  0
 11 12  1  0  0  0
 11 13  1  0  0  0
 13 14  2  0  0  0
 13 20  1  0  0  0
 14 15  1  0  0  0
 14 16  1  0  0  0
 16 17  1  0  0  0
 16 49  1  0  0  0
 17 19  1  0  0  0
 17 18  2  0  0  0
 19 20  1  0  0  0
 19 22  1  0  0  0
 20 21  2  0  0  0
 22 24  1  0  0  0
 22 23  1  0  0  0
 22 38  1  0  0  0
 23 24  1  0  0  0
 23 39  1  0  0  0
 23 40  1  0  0  0
 24 41  1  0  0  0
 24 42  1  0  0  0
 25 26  1  0  0  0
 26 43  1  0  0  0
 26 44  1  0  0  0
 26 45  1  0  0  0
 27 28  1  0  0  0
 28 29  1  0  0  0
 28 46  1  0  0  0
 28 47  1  0  0  0
M  CHG  2   2   1  15  -1
M  END
> <i_i_glide_confnum>
2

> <i_i_glide_lignum>
1528

> <i_i_glide_posenum>
268

> <i_i_glide_rotatable_bonds>
3

> <i_m_Source_File_Index>
1937

> <b_m_subgroup_collapsed>
0

> <r_i_docking_score>
-5.48728

> <r_i_glide_ecoul>
-3.13933

> <r_i_glide_eff_state_penalty>
0

> <r_i_glide_einternal>
5.95293

> <r_i_glide_emodel>
-48.637

> <r_i_glide_energy>
-37.7945

> <r_i_glide_erotb>
0.241237

> <r_i_glide_esite>
-0.0634749

> <r_i_glide_evdw>
-34.6552

> <r_i_glide_gscore>
-5.48728

> <r_i_glide_hbond>
-0.216081

> <r_i_glide_ligand_efficiency>
-0.195974

> <r_i_glide_ligand_efficiency_ln>
-1.26663

> <r_i_glide_ligand_efficiency_sa>
-0.595093

> <r_i_glide_lipo>
-2.03414

> <r_i_glide_metal>
0

> <r_i_glide_rewards>
-1.21117

> <s_i_glide_gridfile>
wee1_glide-grid

> <s_m_Source_File>
wee1_decoys_glide_SP.sdf

> <s_m_Source_Path>
/Users/zhangxujun/Desktop

> <s_m_entry_id>
2212

> <s_m_entry_name>
wee1_decoys_glide_SP.1937

> <s_m_subgroup_title>
wee1_decoys_glide_SP

> <s_m_subgroupid>
wee1_decoys_glide_SP


$$$$
