ZINC63752613_145
                    3D
 Schrodinger Suite 2024-2.
 52 55  0  0  1  0            999 V2000
    0.8806   52.6518   26.6297 C   0  0  0  0  0  0
    0.8438   52.4210   25.2267 O   0  0  0  0  0  0
    0.4205   51.1869   24.7694 C   0  0  0  0  0  0
    0.1580   50.0974   25.6198 C   0  0  0  0  0  0
   -0.2965   48.8855   25.1087 C   0  0  0  0  0  0
   -0.4988   48.7419   23.7397 C   0  0  0  0  0  0
   -0.2440   49.8107   22.8829 C   0  0  0  0  0  0
    0.2342   51.0277   23.3855 C   0  0  0  0  0  0
    0.4651   52.1905   22.4162 C   0  0  0  0  0  0
    1.8642   52.4889   22.0839 N   0  0  0  0  0  0
    2.7244   51.6055   21.5457 C   0  0  0  0  0  0
    2.4157   50.4406   21.2990 O   0  0  0  0  0  0
    4.1607   52.0500   21.2109 C   0  0  2  0  0  0
    4.8203   51.2478   21.5417 H   0  0  0  0  0  0
    4.6739   53.4167   21.6466 C   0  0  0  0  0  0
    5.1035   54.0875   20.5554 C   0  0  0  0  0  0
    5.7431   55.4017   20.3781 C   0  0  0  0  0  0
    6.1058   55.8382   19.1540 C   0  0  0  0  0  0
    5.8544   54.9656   18.0157 C   0  0  0  0  0  0
    5.2615   53.7523   18.1580 C   0  0  0  0  0  0
    4.8734   53.2978   19.4229 C   0  0  0  0  0  0
    4.3058   52.1577   19.7463 N   0  3  0  0  0  0
    4.6772   53.6968   22.9831 N   0  0  0  0  0  0
    5.6477   54.3198   23.6825 C   0  0  0  0  0  0
    6.7023   54.7327   23.1967 O   0  0  0  0  0  0
    5.4024   54.4192   25.1706 C   0  0  0  0  0  0
    6.4936   54.4509   26.0509 C   0  0  0  0  0  0
    6.2918   54.4798   27.4291 C   0  0  0  0  0  0
    4.9929   54.4962   27.9334 C   0  0  0  0  0  0
    3.9043   54.4972   27.0731 C   0  0  0  0  0  0
    4.1012   54.4630   25.6970 C   0  0  0  0  0  0
    4.7044   54.5336   29.6323 Cl  0  0  0  0  0  0
    1.1009   53.7008   26.8038 H   0  0  0  0  0  0
   -0.0791   52.4439   27.1056 H   0  0  0  0  0  0
    1.6598   52.0615   27.1136 H   0  0  0  0  0  0
    0.2861   50.1657   26.6886 H   0  0  0  0  0  0
   -0.4979   48.0666   25.7861 H   0  0  0  0  0  0
   -0.8570   47.8031   23.3447 H   0  0  0  0  0  0
   -0.4055   49.6839   21.8207 H   0  0  0  0  0  0
   -0.1199   52.0601   21.5039 H   0  0  0  0  0  0
    0.0510   53.0847   22.8822 H   0  0  0  0  0  0
    2.1265   53.4644   22.0947 H   0  0  0  0  0  0
    5.9226   56.0623   21.2126 H   0  0  0  0  0  0
    6.5627   56.8082   19.0170 H   0  0  0  0  0  0
    6.1525   55.2936   17.0297 H   0  0  0  0  0  0
    5.1081   53.1365   17.2824 H   0  0  0  0  0  0
    3.9307   53.2857   23.5227 H   0  0  0  0  0  0
    7.5040   54.4281   25.6674 H   0  0  0  0  0  0
    7.1348   54.4885   28.1035 H   0  0  0  0  0  0
    2.9112   54.5494   27.4898 H   0  0  0  0  0  0
    3.2300   54.4696   25.0563 H   0  0  0  0  0  0
    4.1309   51.3982   19.0826 H   0  0  0  0  0  0
  1  2  1  0  0  0
  1 33  1  0  0  0
  1 34  1  0  0  0
  1 35  1  0  0  0
  2  3  1  0  0  0
  3  8  2  0  0  0
  3  4  1  0  0  0
  4  5  2  0  0  0
  4 36  1  0  0  0
  5  6  1  0  0  0
  5 37  1  0  0  0
  6  7  2  0  0  0
  6 38  1  0  0  0
  7  8  1  0  0  0
  7 39  1  0  0  0
  8  9  1  0  0  0
  9 10  1  0  0  0
  9 40  1  0  0  0
  9 41  1  0  0  0
 10 11  1  0  0  0
 10 42  1  0  0  0
 11 12  2  0  0  0
 11 13  1  0  0  0
 13 14  1  0  0  0
 13 22  1  0  0  0
 13 15  1  0  0  0
 15 16  2  0  0  0
 15 23  1  0  0  0
 16 21  1  0  0  0
 16 17  1  0  0  0
 17 18  2  0  0  0
 17 43  1  0  0  0
 18 19  1  0  0  0
 18 44  1  0  0  0
 19 20  2  0  0  0
 19 45  1  0  0  0
 20 21  1  0  0  0
 20 46  1  0  0  0
 21 22  2  0  0  0
 22 52  1  0  0  0
 23 24  1  0  0  0
 23 47  1  0  0  0
 24 25  2  0  0  0
 24 26  1  0  0  0
 26 31  2  0  0  0
 26 27  1  0  0  0
 27 28  2  0  0  0
 27 48  1  0  0  0
 28 29  1  0  0  0
 28 49  1  0  0  0
 29 30  2  0  0  0
 29 32  1  0  0  0
 30 31  1  0  0  0
 30 50  1  0  0  0
 31 51  1  0  0  0
M  CHG  1  22   1
M  END
> <i_i_glide_confnum>
43

> <i_i_glide_lignum>
146

> <i_i_glide_posenum>
242

> <i_i_glide_rotatable_bonds>
8

> <i_m_Source_File_Index>
1955

> <b_m_subgroup_collapsed>
0

> <r_i_docking_score>
-5.12208

> <r_i_glide_ecoul>
-0.139779

> <r_i_glide_eff_state_penalty>
0

> <r_i_glide_einternal>
5.94651

> <r_i_glide_emodel>
-58.0242

> <r_i_glide_energy>
-45.4446

> <r_i_glide_erotb>
0.737245

> <r_i_glide_esite>
-0.085599

> <r_i_glide_evdw>
-45.3048

> <r_i_glide_gscore>
-5.12208

> <r_i_glide_hbond>
-0.113537

> <r_i_glide_ligand_efficiency>
-0.165228

> <r_i_glide_ligand_efficiency_ln>
-1.15519

> <r_i_glide_ligand_efficiency_sa>
-0.519045

> <r_i_glide_lipo>
-2.38986

> <r_i_glide_metal>
0

> <r_i_glide_rewards>
-0.984124

> <s_i_glide_gridfile>
wee1_glide-grid

> <s_m_Source_File>
wee1_decoys_glide_SP.sdf

> <s_m_Source_Path>
/Users/zhangxujun/Desktop

> <s_m_entry_id>
2230

> <s_m_entry_name>
wee1_decoys_glide_SP.1955

> <s_m_subgroup_title>
wee1_decoys_glide_SP

> <s_m_subgroupid>
wee1_decoys_glide_SP


$$$$
