ZINC13033128_5779
                    3D
 Schrodinger Suite 2024-2.
 44 46  0  0  1  0            999 V2000
    3.5571   52.1220   20.0317 C   0  0  0  0  0  0
    2.1414   51.5386   19.9890 C   0  0  0  0  0  0
    1.5821   51.6548   21.2879 O   0  0  0  0  0  0
    0.2569   51.5605   21.5035 C   0  0  0  0  0  0
   -0.5480   51.3021   20.6056 O   0  0  0  0  0  0
   -0.1748   51.7643   22.9185 C   0  0  0  0  0  0
    0.5884   52.2462   23.9504 C   0  0  0  0  0  0
    0.0290   52.3769   25.2333 N   0  0  0  0  0  0
   -1.3359   52.3340   25.4522 C   0  0  0  0  0  0
   -1.9246   52.4977   26.5219 O   0  0  0  0  0  0
   -2.0901   52.0494   24.3645 N   0  0  0  0  0  0
   -1.5968   51.2576   23.2253 C   0  0  2  0  0  0
   -2.2731   51.4812   22.3966 H   0  0  0  0  0  0
   -1.6219   49.7515   23.4786 C   0  0  0  0  0  0
   -1.3759   49.0116   24.6398 C   0  0  0  0  0  0
   -1.4761   47.6282   24.4833 C   0  0  0  0  0  0
   -1.8305   47.2685   23.1959 C   0  0  0  0  0  0
   -2.0192   48.6557   22.1829 S   0  0  0  0  0  0
   -2.1025   45.5268   22.4804 Br  0  0  0  0  0  0
    0.8405   52.4729   26.4028 C   0  0  0  0  0  0
    0.8875   51.4156   27.3206 C   0  0  0  0  0  0
    1.6183   51.5524   28.4973 C   0  0  0  0  0  0
    2.3372   52.7212   28.7741 C   0  0  0  0  0  0
    2.2729   53.7796   27.8634 C   0  0  0  0  0  0
    1.5230   53.6568   26.7039 C   0  0  0  0  0  0
    3.1536   52.8523   30.0232 C   0  0  0  0  0  0
    3.2720   51.8445   30.7607 O   0  0  0  0  0  0
    2.0236   52.7765   23.7437 C   0  0  0  0  0  0
    4.0183   52.0951   19.0431 H   0  0  0  0  0  0
    3.5448   53.1637   20.3536 H   0  0  0  0  0  0
    4.1999   51.5648   20.7121 H   0  0  0  0  0  0
    2.1579   50.4901   19.6912 H   0  0  0  0  0  0
    1.5434   52.0844   19.2600 H   0  0  0  0  0  0
   -3.0778   51.9874   24.5604 H   0  0  0  0  0  0
   -1.1151   49.4639   25.5848 H   0  0  0  0  0  0
   -1.3024   46.9299   25.2901 H   0  0  0  0  0  0
    0.3357   50.5063   27.1427 H   0  0  0  0  0  0
    1.6175   50.7379   29.2029 H   0  0  0  0  0  0
    2.7998   54.7074   28.0453 H   0  0  0  0  0  0
    1.5042   54.4866   26.0189 H   0  0  0  0  0  0
    2.0842   53.3911   22.8470 H   0  0  0  0  0  0
    2.4533   53.4168   24.4966 H   0  0  0  0  0  0
    2.7019   51.9369   23.6370 H   0  0  0  0  0  0
    3.6726   53.9647   30.2644 O   0  5  0  0  0  0
  1  2  1  0  0  0
  1 29  1  0  0  0
  1 30  1  0  0  0
  1 31  1  0  0  0
  2  3  1  0  0  0
  2 32  1  0  0  0
  2 33  1  0  0  0
  3  4  1  0  0  0
  4  5  2  0  0  0
  4  6  1  0  0  0
  6 12  1  0  0  0
  6  7  2  0  0  0
  7  8  1  0  0  0
  7 28  1  0  0  0
  8  9  1  0  0  0
  8 20  1  0  0  0
  9 10  2  0  0  0
  9 11  1  0  0  0
 11 12  1  0  0  0
 11 34  1  0  0  0
 12 13  1  0  0  0
 12 14  1  0  0  0
 14 18  1  0  0  0
 14 15  2  0  0  0
 15 16  1  0  0  0
 15 35  1  0  0  0
 16 17  2  0  0  0
 16 36  1  0  0  0
 17 18  1  0  0  0
 17 19  1  0  0  0
 20 25  2  0  0  0
 20 21  1  0  0  0
 21 22  2  0  0  0
 21 37  1  0  0  0
 22 23  1  0  0  0
 22 38  1  0  0  0
 23 24  2  0  0  0
 23 26  1  0  0  0
 24 25  1  0  0  0
 24 39  1  0  0  0
 25 40  1  0  0  0
 26 27  2  0  0  0
 26 44  1  0  0  0
 28 41  1  0  0  0
 28 42  1  0  0  0
 28 43  1  0  0  0
M  CHG  1  44  -1
M  END
> <i_i_glide_confnum>
21

> <i_i_glide_lignum>
5780

> <i_i_glide_posenum>
395

> <i_i_glide_rotatable_bonds>
6

> <i_m_Source_File_Index>
2004

> <b_m_subgroup_collapsed>
0

> <r_i_docking_score>
-4.315

> <r_i_glide_ecoul>
-8.72556

> <r_i_glide_eff_state_penalty>
0

> <r_i_glide_einternal>
5.97966

> <r_i_glide_emodel>
-47.2085

> <r_i_glide_energy>
-37.2736

> <r_i_glide_erotb>
0.374024

> <r_i_glide_esite>
-0.00516859

> <r_i_glide_evdw>
-28.5481

> <r_i_glide_gscore>
-4.315

> <r_i_glide_hbond>
-0.32

> <r_i_glide_ligand_efficiency>
-0.154107

> <r_i_glide_ligand_efficiency_ln>
-0.996028

> <r_i_glide_ligand_efficiency_sa>
-0.46796

> <r_i_glide_lipo>
-1.03932

> <r_i_glide_metal>
0

> <r_i_glide_rewards>
-0.588292

> <s_i_glide_gridfile>
wee1_glide-grid

> <s_m_Source_File>
wee1_decoys_glide_SP.sdf

> <s_m_Source_Path>
/Users/zhangxujun/Desktop

> <s_m_entry_id>
2279

> <s_m_entry_name>
wee1_decoys_glide_SP.2004

> <s_m_subgroup_title>
wee1_decoys_glide_SP

> <s_m_subgroupid>
wee1_decoys_glide_SP


$$$$
