ZINC05149619_4594
                    3D
 Schrodinger Suite 2024-2.
 49 52  0  0  1  0            999 V2000
   -1.9803   51.8689   25.6829 C   0  0  0  0  0  0
   -0.9024   52.3524   24.7068 C   0  0  0  0  0  0
    0.2966   52.5771   25.4412 O   0  0  0  0  0  0
    1.3949   53.1188   24.8016 C   0  0  0  0  0  0
    2.5257   53.3298   25.5858 C   0  0  0  0  0  0
    3.7011   53.8102   25.0164 C   0  0  0  0  0  0
    3.7709   54.0956   23.6448 C   0  0  0  0  0  0
    2.6071   53.9615   22.8840 C   0  0  0  0  0  0
    1.4393   53.4531   23.4428 C   0  0  0  0  0  0
    5.0793   54.4944   23.0046 C   0  0  0  0  0  0
    5.4298   54.5938   21.6192 C   0  0  0  0  0  0
    6.7305   55.0505   21.6737 C   0  0  0  0  0  0
    7.1043   55.1450   22.9677 N   0  0  0  0  0  0
    8.0545   55.3481   23.2822 H   0  0  0  0  0  0
    6.1127   54.8018   23.7836 N   0  0  0  0  0  0
    7.6050   55.3012   20.6513 O   0  0  0  0  0  0
    7.1005   55.0217   19.4208 C   0  0  0  0  0  0
    5.8603   54.5430   19.1435 C   0  0  0  0  0  0
    4.7913   54.2919   20.2395 C   0  0  1  0  0  0
    4.0105   55.0282   20.0626 H   0  0  0  0  0  0
    4.0320   52.9644   20.0855 C   0  0  0  0  0  0
    3.0966   52.8336   19.0506 C   0  0  0  0  0  0
    2.3359   51.6758   18.9200 C   0  0  0  0  0  0
    2.4907   50.6450   19.8453 C   0  0  0  0  0  0
    3.4036   50.7751   20.8870 C   0  0  0  0  0  0
    4.1998   51.9105   20.9889 C   0  0  0  0  0  0
    1.5453   49.1524   19.7285 S   0  0  0  0  0  0
    1.0437   48.9609   17.9952 C   0  0  0  0  0  0
    5.5069   54.3190   17.7772 C   0  0  0  0  0  0
    5.2430   54.1763   16.6604 N   0  0  0  0  0  0
    8.0941   55.2808   18.5174 N   0  0  0  0  0  0
   -2.9164   51.6644   25.1627 H   0  0  0  0  0  0
   -1.6713   50.9534   26.1910 H   0  0  0  0  0  0
   -2.1789   52.6211   26.4465 H   0  0  0  0  0  0
   -1.2395   53.2720   24.2235 H   0  0  0  0  0  0
   -0.7332   51.6035   23.9317 H   0  0  0  0  0  0
    2.5027   53.0816   26.6354 H   0  0  0  0  0  0
    4.5716   53.9094   25.6482 H   0  0  0  0  0  0
    2.6053   54.2112   21.8363 H   0  0  0  0  0  0
    0.5870   53.3006   22.8002 H   0  0  0  0  0  0
    2.9422   53.6382   18.3463 H   0  0  0  0  0  0
    1.6284   51.5973   18.1096 H   0  0  0  0  0  0
    3.5043   49.9801   21.6092 H   0  0  0  0  0  0
    4.9124   51.9788   21.7962 H   0  0  0  0  0  0
    0.6223   47.9691   17.8374 H   0  0  0  0  0  0
    1.9040   49.0773   17.3350 H   0  0  0  0  0  0
    0.2897   49.7006   17.7273 H   0  0  0  0  0  0
    7.9229   55.1790   17.5285 H   0  0  0  0  0  0
    9.0582   55.3103   18.8182 H   0  0  0  0  0  0
  1  2  1  0  0  0
  1 32  1  0  0  0
  1 33  1  0  0  0
  1 34  1  0  0  0
  2  3  1  0  0  0
  2 35  1  0  0  0
  2 36  1  0  0  0
  3  4  1  0  0  0
  4  9  2  0  0  0
  4  5  1  0  0  0
  5  6  2  0  0  0
  5 37  1  0  0  0
  6  7  1  0  0  0
  6 38  1  0  0  0
  7  8  2  0  0  0
  7 10  1  0  0  0
  8  9  1  0  0  0
  8 39  1  0  0  0
  9 40  1  0  0  0
 10 15  2  0  0  0
 10 11  1  0  0  0
 11 19  1  0  0  0
 11 12  2  0  0  0
 12 13  1  0  0  0
 12 16  1  0  0  0
 13 14  1  0  0  0
 13 15  1  0  0  0
 16 17  1  0  0  0
 17 18  2  0  0  0
 17 31  1  0  0  0
 18 19  1  0  0  0
 18 29  1  0  0  0
 19 20  1  0  0  0
 19 21  1  0  0  0
 21 26  2  0  0  0
 21 22  1  0  0  0
 22 23  2  0  0  0
 22 41  1  0  0  0
 23 24  1  0  0  0
 23 42  1  0  0  0
 24 25  2  0  0  0
 24 27  1  0  0  0
 25 26  1  0  0  0
 25 43  1  0  0  0
 26 44  1  0  0  0
 27 28  1  0  0  0
 28 45  1  0  0  0
 28 46  1  0  0  0
 28 47  1  0  0  0
 29 30  3  0  0  0
 31 48  1  0  0  0
 31 49  1  0  0  0
M  END
> <i_i_glide_confnum>
2

> <i_i_glide_lignum>
4595

> <i_i_glide_posenum>
311

> <i_i_glide_rotatable_bonds>
6

> <i_m_Source_File_Index>
4596

> <b_m_subgroup_collapsed>
0

> <r_i_docking_score>
-4.97577

> <r_i_glide_ecoul>
-5.4189

> <r_i_glide_eff_state_penalty>
0

> <r_i_glide_einternal>
4.44012

> <r_i_glide_emodel>
-46.6854

> <r_i_glide_energy>
-37.6816

> <r_i_glide_erotb>
0.360193

> <r_i_glide_esite>
-0.0275017

> <r_i_glide_evdw>
-32.2627

> <r_i_glide_gscore>
-4.97577

> <r_i_glide_hbond>
-0.32

> <r_i_glide_ligand_efficiency>
-0.171578

> <r_i_glide_ligand_efficiency_ln>
-1.13933

> <r_i_glide_ligand_efficiency_sa>
-0.527143

> <r_i_glide_lipo>
-1.91126

> <r_i_glide_metal>
0

> <r_i_glide_rewards>
-0.651233

> <s_i_glide_gridfile>
wee1_glide-grid

> <s_m_Source_File>
wee1_decoys_glide_SP.sdf

> <s_m_Source_Path>
/Users/zhangxujun/Desktop

> <s_m_entry_id>
4871

> <s_m_entry_name>
wee1_decoys_glide_SP.4596

> <s_m_subgroup_title>
wee1_decoys_glide_SP

> <s_m_subgroupid>
wee1_decoys_glide_SP


$$$$
