ZINC14393539_423
                    3D
 Schrodinger Suite 2024-2.
 55 58  0  0  1  0            999 V2000
    5.7670   54.6143   26.3224 C   0  0  0  0  0  0
    4.8273   54.2672   25.1760 C   0  0  0  0  0  0
    3.4635   54.0968   25.4394 C   0  0  0  0  0  0
    2.5788   53.7720   24.4115 C   0  0  0  0  0  0
    3.0481   53.6085   23.1083 C   0  0  0  0  0  0
    4.4068   53.7709   22.8375 C   0  0  0  0  0  0
    5.3032   54.1008   23.8629 C   0  0  0  0  0  0
    6.7794   54.2720   23.5350 C   0  0  0  0  0  0
    2.1560   53.2970   22.0822 N   0  0  0  0  0  0
    1.8147   51.6300   21.6140 S   0  0  0  0  0  0
    3.0738   50.8816   21.7064 O   0  0  0  0  0  0
    1.0661   51.7120   20.3543 O   0  0  0  0  0  0
    0.6738   50.9991   22.8487 C   0  0  0  0  0  0
   -0.6549   51.4212   22.8308 C   0  0  0  0  0  0
   -1.5582   50.9134   23.7610 C   0  0  0  0  0  0
   -1.1416   49.9681   24.7150 C   0  0  0  0  0  0
    0.2004   49.5717   24.7409 C   0  0  0  0  0  0
    1.1044   50.0811   23.8092 C   0  0  0  0  0  0
   -1.9936   49.3909   25.6817 N   0  0  0  0  0  0
   -3.3451   49.3371   25.7023 C   0  0  0  0  0  0
   -4.0665   49.7699   24.7999 O   0  0  0  0  0  0
   -3.9665   48.6359   26.9443 C   0  0  2  0  0  0
   -3.4897   49.1208   27.7976 H   0  0  0  0  0  0
   -3.6627   47.0962   26.9600 C   0  0  0  0  0  0
   -4.4889   46.3059   25.9103 C   0  0  0  0  0  0
   -4.0954   45.2967   25.3282 O   0  0  0  0  0  0
   -5.7351   46.7965   25.7536 N   0  0  0  0  0  0
   -6.3052   47.9165   26.3691 C   0  0  0  0  0  0
   -5.4821   48.8535   27.0218 C   0  0  0  0  0  0
   -6.0723   49.9890   27.5887 C   0  0  0  0  0  0
   -7.4553   50.1663   27.5493 C   0  0  0  0  0  0
   -8.2620   49.2197   26.9201 C   0  0  0  0  0  0
   -7.6877   48.0967   26.3244 C   0  0  0  0  0  0
   -9.6008   49.3946   26.8789 F   0  0  0  0  0  0
    6.2945   55.5466   26.1159 H   0  0  0  0  0  0
    5.2401   54.7329   27.2699 H   0  0  0  0  0  0
    6.5177   53.8324   26.4483 H   0  0  0  0  0  0
    3.0869   54.2095   26.4460 H   0  0  0  0  0  0
    1.5291   53.6414   24.6325 H   0  0  0  0  0  0
    4.7663   53.6407   21.8275 H   0  0  0  0  0  0
    7.3849   53.5773   24.1179 H   0  0  0  0  0  0
    6.9923   54.0972   22.4817 H   0  0  0  0  0  0
    7.1048   55.2833   23.7819 H   0  0  0  0  0  0
    1.7396   54.0378   21.5343 H   0  0  0  0  0  0
   -0.9886   52.1349   22.0897 H   0  0  0  0  0  0
   -2.5762   51.2717   23.7254 H   0  0  0  0  0  0
    0.5480   48.8498   25.4693 H   0  0  0  0  0  0
    2.1322   49.7443   23.8267 H   0  0  0  0  0  0
   -1.5322   48.9059   26.4446 H   0  0  0  0  0  0
   -4.0009   46.6793   27.9080 H   0  0  0  0  0  0
   -2.5988   46.8752   26.8459 H   0  0  0  0  0  0
   -6.3097   46.2440   25.1364 H   0  0  0  0  0  0
   -5.4521   50.7353   28.0623 H   0  0  0  0  0  0
   -7.9041   51.0393   27.9978 H   0  0  0  0  0  0
   -8.3248   47.3763   25.8309 H   0  0  0  0  0  0
  1  2  1  0  0  0
  1 35  1  0  0  0
  1 36  1  0  0  0
  1 37  1  0  0  0
  2  7  2  0  0  0
  2  3  1  0  0  0
  3  4  2  0  0  0
  3 38  1  0  0  0
  4  5  1  0  0  0
  4 39  1  0  0  0
  5  6  2  0  0  0
  5  9  1  0  0  0
  6  7  1  0  0  0
  6 40  1  0  0  0
  7  8  1  0  0  0
  8 41  1  0  0  0
  8 42  1  0  0  0
  8 43  1  0  0  0
  9 10  1  0  0  0
  9 44  1  0  0  0
 10 11  2  0  0  0
 10 12  2  0  0  0
 10 13  1  0  0  0
 13 18  2  0  0  0
 13 14  1  0  0  0
 14 15  2  0  0  0
 14 45  1  0  0  0
 15 16  1  0  0  0
 15 46  1  0  0  0
 16 17  2  0  0  0
 16 19  1  0  0  0
 17 18  1  0  0  0
 17 47  1  0  0  0
 18 48  1  0  0  0
 19 20  1  0  0  0
 19 49  1  0  0  0
 20 21  2  0  0  0
 20 22  1  0  0  0
 22 23  1  0  0  0
 22 29  1  0  0  0
 22 24  1  0  0  0
 24 25  1  0  0  0
 24 50  1  0  0  0
 24 51  1  0  0  0
 25 26  2  0  0  0
 25 27  1  0  0  0
 27 28  1  0  0  0
 27 52  1  0  0  0
 28 33  2  0  0  0
 28 29  1  0  0  0
 29 30  2  0  0  0
 30 31  1  0  0  0
 30 53  1  0  0  0
 31 32  2  0  0  0
 31 54  1  0  0  0
 32 33  1  0  0  0
 32 34  1  0  0  0
 33 55  1  0  0  0
M  END
> <i_i_glide_confnum>
144

> <i_i_glide_lignum>
424

> <i_i_glide_posenum>
222

> <i_i_glide_rotatable_bonds>
6

> <i_m_Source_File_Index>
1652

> <b_m_subgroup_collapsed>
0

> <r_i_docking_score>
-5.6004

> <r_i_glide_ecoul>
-10.4905

> <r_i_glide_eff_state_penalty>
0

> <r_i_glide_einternal>
5.00998

> <r_i_glide_emodel>
-56.7989

> <r_i_glide_energy>
-42.1025

> <r_i_glide_erotb>
0.554047

> <r_i_glide_esite>
-0.202833

> <r_i_glide_evdw>
-31.612

> <r_i_glide_gscore>
-5.6004

> <r_i_glide_hbond>
-0.608

> <r_i_glide_ligand_efficiency>
-0.169709

> <r_i_glide_ligand_efficiency_ln>
-1.2455

> <r_i_glide_ligand_efficiency_sa>
-0.544348

> <r_i_glide_lipo>
-2.04918

> <r_i_glide_metal>
0

> <r_i_glide_rewards>
-0.140257

> <s_i_glide_gridfile>
wee1_glide-grid

> <s_m_Source_File>
wee1_decoys_glide_SP.sdf

> <s_m_Source_Path>
/Users/zhangxujun/Desktop

> <s_m_entry_id>
1927

> <s_m_entry_name>
wee1_decoys_glide_SP.1652

> <s_m_subgroup_title>
wee1_decoys_glide_SP

> <s_m_subgroupid>
wee1_decoys_glide_SP


$$$$
