ZINC49122202_1855
                    3D
 Schrodinger Suite 2024-2.
 43 45  0  0  1  0            999 V2000
    0.9180   55.0837   30.0381 C   0  0  0  0  0  0
   -0.0930   53.9717   29.6902 C   0  0  0  0  0  0
    0.1844   53.2200   28.3475 C   0  0  2  0  0  0
    0.6984   53.9364   27.7172 H   0  0  0  0  0  0
   -1.0819   52.7971   27.5566 C   0  0  0  0  0  0
   -0.8194   51.9860   26.2802 C   0  0  0  0  0  0
   -0.0662   50.7031   26.6331 C   0  0  0  0  0  0
    1.2458   51.0389   27.3430 C   0  0  0  0  0  0
    1.0797   51.9674   28.5571 C   0  0  1  0  0  0
    0.6213   51.3364   29.3245 H   0  0  0  0  0  0
    2.3988   52.3850   29.0454 N   0  0  0  0  0  0
    3.4758   53.0781   28.4801 C   0  0  0  0  0  0
    4.3704   53.2161   29.4290 N   0  0  0  0  0  0
    3.9044   52.5961   30.5727 N   0  0  0  0  0  0
    2.6566   52.0971   30.3303 N   0  0  0  0  0  0
    3.7549   53.6135   27.0756 C   0  0  0  0  0  0
    2.8317   53.7225   26.0200 C   0  0  0  0  0  0
    3.2138   54.1388   24.7449 C   0  0  0  0  0  0
    4.5330   54.4968   24.4959 C   0  0  0  0  0  0
    5.4636   54.4399   25.5247 C   0  0  0  0  0  0
    5.0788   54.0067   26.7919 C   0  0  0  0  0  0
    6.7918   54.7717   25.2826 N   0  0  0  0  0  0
    2.2774   54.1882   23.7143 N   0  0  0  0  0  0
    0.5797   55.6553   30.9024 H   0  0  0  0  0  0
    1.9011   54.6962   30.2894 H   0  0  0  0  0  0
    1.0436   55.7881   29.2152 H   0  0  0  0  0  0
   -1.0595   54.4532   29.6817 H   0  0  0  0  0  0
   -0.1539   53.2615   30.5180 H   0  0  0  0  0  0
   -1.6792   53.6625   27.2815 H   0  0  0  0  0  0
   -1.6968   52.1728   28.2090 H   0  0  0  0  0  0
   -1.7634   51.7334   25.7972 H   0  0  0  0  0  0
   -0.2543   52.5759   25.5593 H   0  0  0  0  0  0
   -0.6949   50.0968   27.2816 H   0  0  0  0  0  0
    0.1253   50.1097   25.7376 H   0  0  0  0  0  0
    1.7146   50.0982   27.6519 H   0  0  0  0  0  0
    1.9042   51.5209   26.6496 H   0  0  0  0  0  0
    1.7990   53.4747   26.1370 H   0  0  0  0  0  0
    4.8330   54.8143   23.5088 H   0  0  0  0  0  0
    5.8435   53.9513   27.5544 H   0  0  0  0  0  0
    7.4591   54.3192   25.8902 H   0  0  0  0  0  0
    7.0500   54.9054   24.3147 H   0  0  0  0  0  0
    2.5968   54.3708   22.7730 H   0  0  0  0  0  0
    1.3524   53.8160   23.8727 H   0  0  0  0  0  0
  1  2  1  0  0  0
  1 24  1  0  0  0
  1 25  1  0  0  0
  1 26  1  0  0  0
  2  3  1  0  0  0
  2 27  1  0  0  0
  2 28  1  0  0  0
  3  4  1  0  0  0
  3  9  1  0  0  0
  3  5  1  0  0  0
  5  6  1  0  0  0
  5 29  1  0  0  0
  5 30  1  0  0  0
  6  7  1  0  0  0
  6 31  1  0  0  0
  6 32  1  0  0  0
  7  8  1  0  0  0
  7 33  1  0  0  0
  7 34  1  0  0  0
  8  9  1  0  0  0
  8 35  1  0  0  0
  8 36  1  0  0  0
  9 10  1  0  0  0
  9 11  1  0  0  0
 11 15  1  0  0  0
 11 12  1  0  0  0
 12 13  2  0  0  0
 12 16  1  0  0  0
 13 14  1  0  0  0
 14 15  2  0  0  0
 16 21  2  0  0  0
 16 17  1  0  0  0
 17 18  2  0  0  0
 17 37  1  0  0  0
 18 19  1  0  0  0
 18 23  1  0  0  0
 19 20  2  0  0  0
 19 38  1  0  0  0
 20 21  1  0  0  0
 20 22  1  0  0  0
 21 39  1  0  0  0
 22 40  1  0  0  0
 22 41  1  0  0  0
 23 42  1  0  0  0
 23 43  1  0  0  0
M  END
> <i_i_glide_confnum>
7

> <i_i_glide_lignum>
1856

> <i_i_glide_posenum>
375

> <i_i_glide_rotatable_bonds>
3

> <i_m_Source_File_Index>
81

> <b_m_subgroup_collapsed>
0

> <r_i_docking_score>
-5.13647

> <r_i_glide_ecoul>
-2.29232

> <r_i_glide_eff_state_penalty>
0

> <r_i_glide_einternal>
6.70718

> <r_i_glide_emodel>
-33.2087

> <r_i_glide_energy>
-26.8489

> <r_i_glide_erotb>
0.442844

> <r_i_glide_esite>
-0.0255509

> <r_i_glide_evdw>
-24.5566

> <r_i_glide_gscore>
-5.13647

> <r_i_glide_hbond>
0

> <r_i_glide_ligand_efficiency>
-0.244594

> <r_i_glide_ligand_efficiency_ln>
-1.26998

> <r_i_glide_ligand_efficiency_sa>
-0.674816

> <r_i_glide_lipo>
-1.96744

> <r_i_glide_metal>
0

> <r_i_glide_rewards>
-2.01464

> <s_i_glide_gridfile>
wee1_glide-grid

> <s_m_Source_File>
wee1_decoys_glide_SP.sdf

> <s_m_Source_Path>
/Users/zhangxujun/Desktop

> <s_m_entry_id>
356

> <s_m_entry_name>
wee1_decoys_glide_SP.81

> <s_m_subgroup_title>
wee1_decoys_glide_SP

> <s_m_subgroupid>
wee1_decoys_glide_SP


$$$$
