ZINC00906896_5726
                    3D
 Schrodinger Suite 2024-2.
 71 75  0  0  1  0            999 V2000
    2.0086   52.2820   29.9113 C   0  0  0  0  0  0
    1.3242   52.1743   28.5613 C   0  0  0  0  0  0
    1.7558   52.9714   27.5019 C   0  0  0  0  0  0
    1.1118   52.8965   26.2705 C   0  0  0  0  0  0
    0.0402   52.0166   26.0844 C   0  0  0  0  0  0
   -0.3813   51.2114   27.1467 C   0  0  0  0  0  0
    0.2522   51.3008   28.3823 C   0  0  0  0  0  0
   -0.8227   51.9314   24.5035 S   0  0  0  0  0  0
   -1.1561   53.2961   24.0815 O   0  0  0  0  0  0
   -1.8835   50.9268   24.6359 O   0  0  0  0  0  0
    0.3246   51.2520   23.3250 N   0  0  0  0  0  0
    1.3599   51.9473   22.6790 C   0  0  0  0  0  0
    2.1761   51.2306   21.7972 C   0  0  0  0  0  0
    3.2383   51.8598   21.1470 C   0  0  0  0  0  0
    3.5118   53.2035   21.4125 C   0  0  0  0  0  0
    2.6944   53.9219   22.2756 C   0  0  0  0  0  0
    1.6095   53.3086   22.8808 C   0  0  0  0  0  0
    4.6956   53.8843   20.8257 C   0  0  0  0  0  0
    4.8579   53.9629   19.5324 N   0  0  0  0  0  0
    6.0340   54.6469   19.3120 N   0  0  0  0  0  0
    6.5625   54.9361   20.4756 C   0  0  0  0  0  0
    5.7395   54.4973   21.5193 N   0  0  0  0  0  0
    5.9379   54.5914   22.9433 C   0  0  0  0  0  0
    5.3342   53.6969   23.8310 C   0  0  0  0  0  0
    5.4796   53.8099   25.2132 C   0  0  0  0  0  0
    6.3038   54.7938   25.7505 C   0  0  0  0  0  0
    6.8908   55.6967   24.8820 C   0  0  0  0  0  0
    6.7045   55.6094   23.5069 C   0  0  0  0  0  0
    6.5916   54.9359   27.0920 O   0  0  0  0  0  0
    6.1370   53.9429   28.0058 C   0  0  0  0  0  0
    8.1606   55.6953   20.6333 S   0  0  0  0  0  0
    8.8665   55.5545   18.9595 C   0  0  0  0  0  0
    8.8315   56.8994   18.2422 C   0  0  0  0  0  0
    7.8795   57.1610   17.5085 O   0  0  0  0  0  0
    9.8843   57.7122   18.4752 N   0  0  0  0  0  0
   10.1037   59.0248   18.0182 C   0  0  0  0  0  0
    9.1040   59.8585   17.4886 C   0  0  0  0  0  0
    9.4184   61.1448   17.0533 C   0  0  0  0  0  0
   10.7267   61.6172   17.1505 C   0  0  0  0  0  0
   11.7257   60.8066   17.6970 C   0  0  0  0  0  0
   11.4091   59.5153   18.1298 C   0  0  0  0  0  0
   13.1566   61.3077   17.7848 C   0  0  0  0  0  0
    2.2553   53.3228   30.1276 H   0  0  0  0  0  0
    1.3605   51.9423   30.7228 H   0  0  0  0  0  0
    2.9316   51.7039   29.9160 H   0  0  0  0  0  0
    2.5782   53.6584   27.6339 H   0  0  0  0  0  0
    1.4549   53.5419   25.4830 H   0  0  0  0  0  0
   -1.2069   50.5212   27.0335 H   0  0  0  0  0  0
   -0.0978   50.6946   29.2017 H   0  0  0  0  0  0
    0.2851   50.2515   23.2071 H   0  0  0  0  0  0
    1.9950   50.1826   21.6087 H   0  0  0  0  0  0
    3.8651   51.3010   20.4660 H   0  0  0  0  0  0
    2.8917   54.9635   22.4674 H   0  0  0  0  0  0
    0.9894   53.9269   23.5021 H   0  0  0  0  0  0
    4.7342   52.8968   23.4685 H   0  0  0  0  0  0
    4.9770   53.0973   25.8512 H   0  0  0  0  0  0
    7.5041   56.4895   25.2777 H   0  0  0  0  0  0
    7.1763   56.3565   22.9018 H   0  0  0  0  0  0
    6.5224   54.1623   28.9990 H   0  0  0  0  0  0
    5.0480   53.9276   28.0687 H   0  0  0  0  0  0
    6.4952   52.9494   27.7289 H   0  0  0  0  0  0
    8.3681   54.7949   18.3600 H   0  0  0  0  0  0
    9.9001   55.2173   19.0454 H   0  0  0  0  0  0
   10.6281   57.3240   19.0374 H   0  0  0  0  0  0
    8.0740   59.5414   17.4057 H   0  0  0  0  0  0
    8.6382   61.7694   16.6368 H   0  0  0  0  0  0
   10.9628   62.6118   16.7989 H   0  0  0  0  0  0
   12.1890   58.8882   18.5388 H   0  0  0  0  0  0
   13.3487   62.0932   17.0513 H   0  0  0  0  0  0
   13.8572   60.5006   17.5664 H   0  0  0  0  0  0
   13.3729   61.6897   18.7832 H   0  0  0  0  0  0
  1  2  1  0  0  0
  1 43  1  0  0  0
  1 44  1  0  0  0
  1 45  1  0  0  0
  2  7  2  0  0  0
  2  3  1  0  0  0
  3  4  2  0  0  0
  3 46  1  0  0  0
  4  5  1  0  0  0
  4 47  1  0  0  0
  5  6  2  0  0  0
  5  8  1  0  0  0
  6  7  1  0  0  0
  6 48  1  0  0  0
  7 49  1  0  0  0
  8  9  2  0  0  0
  8 10  2  0  0  0
  8 11  1  0  0  0
 11 12  1  0  0  0
 11 50  1  0  0  0
 12 17  2  0  0  0
 12 13  1  0  0  0
 13 14  2  0  0  0
 13 51  1  0  0  0
 14 15  1  0  0  0
 14 52  1  0  0  0
 15 16  2  0  0  0
 15 18  1  0  0  0
 16 17  1  0  0  0
 16 53  1  0  0  0
 17 54  1  0  0  0
 18 22  1  0  0  0
 18 19  2  0  0  0
 19 20  1  0  0  0
 20 21  2  0  0  0
 21 22  1  0  0  0
 21 31  1  0  0  0
 22 23  1  0  0  0
 23 28  2  0  0  0
 23 24  1  0  0  0
 24 25  2  0  0  0
 24 55  1  0  0  0
 25 26  1  0  0  0
 25 56  1  0  0  0
 26 27  2  0  0  0
 26 29  1  0  0  0
 27 28  1  0  0  0
 27 57  1  0  0  0
 28 58  1  0  0  0
 29 30  1  0  0  0
 30 59  1  0  0  0
 30 60  1  0  0  0
 30 61  1  0  0  0
 31 32  1  0  0  0
 32 33  1  0  0  0
 32 62  1  0  0  0
 32 63  1  0  0  0
 33 34  2  0  0  0
 33 35  1  0  0  0
 35 36  1  0  0  0
 35 64  1  0  0  0
 36 41  2  0  0  0
 36 37  1  0  0  0
 37 38  2  0  0  0
 37 65  1  0  0  0
 38 39  1  0  0  0
 38 66  1  0  0  0
 39 40  2  0  0  0
 39 67  1  0  0  0
 40 41  1  0  0  0
 40 42  1  0  0  0
 41 68  1  0  0  0
 42 69  1  0  0  0
 42 70  1  0  0  0
 42 71  1  0  0  0
M  END
> <i_i_glide_confnum>
358

> <i_i_glide_lignum>
5727

> <i_i_glide_posenum>
213

> <i_i_glide_rotatable_bonds>
11

> <i_m_Source_File_Index>
2310

> <b_m_subgroup_collapsed>
0

> <r_i_docking_score>
-5.13102

> <r_i_glide_ecoul>
-2.98317

> <r_i_glide_eff_state_penalty>
0

> <r_i_glide_einternal>
12.9517

> <r_i_glide_emodel>
-56.9618

> <r_i_glide_energy>
-46.9169

> <r_i_glide_erotb>
0.467385

> <r_i_glide_esite>
-0.0240967

> <r_i_glide_evdw>
-43.9337

> <r_i_glide_gscore>
-5.13102

> <r_i_glide_hbond>
-0.158737

> <r_i_glide_ligand_efficiency>
-0.122167

> <r_i_glide_ligand_efficiency_ln>
-1.08303

> <r_i_glide_ligand_efficiency_sa>
-0.424657

> <r_i_glide_lipo>
-2.69446

> <r_i_glide_metal>
0

> <r_i_glide_rewards>
-0.0769534

> <s_i_glide_gridfile>
wee1_glide-grid

> <s_m_Source_File>
wee1_decoys_glide_SP.sdf

> <s_m_Source_Path>
/Users/zhangxujun/Desktop

> <s_m_entry_id>
2585

> <s_m_entry_name>
wee1_decoys_glide_SP.2310

> <s_m_subgroup_title>
wee1_decoys_glide_SP

> <s_m_subgroupid>
wee1_decoys_glide_SP


$$$$
