ZINC46570297_2070
                    3D
 Schrodinger Suite 2024-2.
 59 62  0  0  1  0            999 V2000
    5.3658   54.4316   20.1652 C   0  0  0  0  0  0
    4.7042   53.2945   20.9607 C   0  0  1  0  0  0
    5.4118   52.4619   20.9705 H   0  0  0  0  0  0
    4.4767   53.6988   22.4258 C   0  0  0  0  0  0
    3.1942   53.9402   22.9363 C   0  0  0  0  0  0
    3.0182   54.2428   24.2831 C   0  0  0  0  0  0
    4.1266   54.3294   25.1222 C   0  0  0  0  0  0
    5.4090   54.1116   24.6236 C   0  0  0  0  0  0
    5.5831   53.7928   23.2792 C   0  0  0  0  0  0
    3.5268   52.8127   20.2292 N   0  0  0  0  0  0
    2.8915   51.6420   20.4263 C   0  0  0  0  0  0
    3.1719   50.8694   21.3427 O   0  0  0  0  0  0
    1.8201   51.3049   19.4093 C   0  0  0  0  0  0
    2.1086   51.5155   18.0494 C   0  0  0  0  0  0
    1.2256   51.1138   17.0498 C   0  0  0  0  0  0
    0.0345   50.4816   17.3884 C   0  0  0  0  0  0
   -0.2789   50.2646   18.7275 C   0  0  0  0  0  0
    0.5824   50.6923   19.7453 C   0  0  0  0  0  0
    0.1266   50.4212   21.0475 N   0  0  0  0  0  0
    0.0367   51.2946   22.0707 C   0  0  0  0  0  0
    0.2854   52.4965   21.9694 O   0  0  0  0  0  0
   -0.4488   50.7082   23.4108 C   0  0  0  0  0  0
    0.7814   50.2270   24.2086 C   0  0  0  0  0  0
    0.3045   49.6666   25.5610 C   0  0  0  0  0  0
   -0.4268   50.6861   26.3331 N   0  0  0  0  0  0
   -1.6454   51.0952   25.6176 C   0  0  0  0  0  0
   -1.2873   51.7154   24.2428 C   0  0  0  0  0  0
    0.0502   51.2872   27.4915 C   0  0  0  0  0  0
   -0.8148   51.6970   28.5124 C   0  0  0  0  0  0
   -0.2664   52.1067   29.7271 C   0  0  0  0  0  0
    1.1205   52.0970   29.8577 C   0  0  0  0  0  0
    1.9325   51.7142   28.8422 N   0  0  0  0  0  0
    1.4001   51.2972   27.6834 N   0  0  0  0  0  0
    1.8346   52.4967   31.3730 Cl  0  0  0  0  0  0
    6.2970   54.7603   20.6256 H   0  0  0  0  0  0
    5.6024   54.1155   19.1491 H   0  0  0  0  0  0
    4.7076   55.2965   20.0893 H   0  0  0  0  0  0
    2.3276   53.8902   22.2943 H   0  0  0  0  0  0
    2.0249   54.4120   24.6728 H   0  0  0  0  0  0
    3.9910   54.5618   26.1686 H   0  0  0  0  0  0
    6.2631   54.1706   25.2802 H   0  0  0  0  0  0
    6.5797   53.6054   22.9058 H   0  0  0  0  0  0
    3.1129   53.4560   19.5736 H   0  0  0  0  0  0
    3.0562   51.9428   17.7458 H   0  0  0  0  0  0
    1.4846   51.2661   16.0122 H   0  0  0  0  0  0
   -0.6414   50.1521   16.6125 H   0  0  0  0  0  0
   -1.2115   49.7753   18.9673 H   0  0  0  0  0  0
   -0.3841   49.5607   21.1567 H   0  0  0  0  0  0
   -1.0608   49.8375   23.1640 H   0  0  0  0  0  0
    1.3039   49.4122   23.7029 H   0  0  0  0  0  0
    1.4710   51.0445   24.4368 H   0  0  0  0  0  0
   -0.3797   48.8318   25.3951 H   0  0  0  0  0  0
    1.1272   49.2395   26.1360 H   0  0  0  0  0  0
   -2.2749   50.2135   25.4844 H   0  0  0  0  0  0
   -2.2321   51.8024   26.2042 H   0  0  0  0  0  0
   -0.7373   52.6340   24.4564 H   0  0  0  0  0  0
   -2.2326   51.9415   23.7477 H   0  0  0  0  0  0
   -1.8854   51.6159   28.4026 H   0  0  0  0  0  0
   -0.8959   52.3646   30.5673 H   0  0  0  0  0  0
  1  2  1  0  0  0
  1 35  1  0  0  0
  1 36  1  0  0  0
  1 37  1  0  0  0
  2  3  1  0  0  0
  2  4  1  0  0  0
  2 10  1  0  0  0
  4  9  2  0  0  0
  4  5  1  0  0  0
  5  6  2  0  0  0
  5 38  1  0  0  0
  6  7  1  0  0  0
  6 39  1  0  0  0
  7  8  2  0  0  0
  7 40  1  0  0  0
  8  9  1  0  0  0
  8 41  1  0  0  0
  9 42  1  0  0  0
 10 11  1  0  0  0
 10 43  1  0  0  0
 11 12  2  0  0  0
 11 13  1  0  0  0
 13 18  2  0  0  0
 13 14  1  0  0  0
 14 15  2  0  0  0
 14 44  1  0  0  0
 15 16  1  0  0  0
 15 45  1  0  0  0
 16 17  2  0  0  0
 16 46  1  0  0  0
 17 18  1  0  0  0
 17 47  1  0  0  0
 18 19  1  0  0  0
 19 20  1  0  0  0
 19 48  1  0  0  0
 20 21  2  0  0  0
 20 22  1  0  0  0
 22 27  1  0  0  0
 22 23  1  0  0  0
 22 49  1  0  0  0
 23 24  1  0  0  0
 23 50  1  0  0  0
 23 51  1  0  0  0
 24 25  1  0  0  0
 24 52  1  0  0  0
 24 53  1  0  0  0
 25 26  1  0  0  0
 25 28  1  0  0  0
 26 27  1  0  0  0
 26 54  1  0  0  0
 26 55  1  0  0  0
 27 56  1  0  0  0
 27 57  1  0  0  0
 28 33  2  0  0  0
 28 29  1  0  0  0
 29 30  2  0  0  0
 29 58  1  0  0  0
 30 31  1  0  0  0
 30 59  1  0  0  0
 31 32  2  0  0  0
 31 34  1  0  0  0
 32 33  1  0  0  0
M  END
> <i_i_glide_confnum>
1

> <i_i_glide_lignum>
2071

> <i_i_glide_posenum>
267

> <i_i_glide_rotatable_bonds>
8

> <i_m_Source_File_Index>
2577

> <b_m_subgroup_collapsed>
0

> <r_i_docking_score>
-3.79019

> <r_i_glide_ecoul>
-2.14044

> <r_i_glide_eff_state_penalty>
0

> <r_i_glide_einternal>
3.29543

> <r_i_glide_emodel>
-54.6852

> <r_i_glide_energy>
-45.6838

> <r_i_glide_erotb>
0.655446

> <r_i_glide_esite>
-0.0815033

> <r_i_glide_evdw>
-43.5434

> <r_i_glide_gscore>
-3.79019

> <r_i_glide_hbond>
0

> <r_i_glide_ligand_efficiency>
-0.114854

> <r_i_glide_ligand_efficiency_ln>
-0.842918

> <r_i_glide_ligand_efficiency_sa>
-0.368399

> <r_i_glide_lipo>
-1.54893

> <r_i_glide_metal>
0

> <r_i_glide_rewards>
-0.31697

> <s_i_glide_gridfile>
wee1_glide-grid

> <s_m_Source_File>
wee1_decoys_glide_SP.sdf

> <s_m_Source_Path>
/Users/zhangxujun/Desktop

> <s_m_entry_id>
2852

> <s_m_entry_name>
wee1_decoys_glide_SP.2577

> <s_m_subgroup_title>
wee1_decoys_glide_SP

> <s_m_subgroupid>
wee1_decoys_glide_SP


$$$$
