ZINC65421334_1354
                    3D
 Schrodinger Suite 2024-2.
 52 56  0  0  1  0            999 V2000
    4.9972   52.1415   21.0862 C   0  0  0  0  0  0
    3.7079   51.4629   20.6926 C   0  0  0  0  0  0
    3.1038   50.4976   21.3397 N   0  0  0  0  0  0
    2.0481   50.2480   20.5742 C   0  0  0  0  0  0
    3.2464   52.4547   18.8696 H   0  0  0  0  0  0
    1.9135   51.0030   19.4974 N   0  0  0  0  0  0
    2.9948   51.7741   19.5739 N   0  0  0  0  0  0
    1.0383   49.1749   20.9429 C   0  0  2  0  0  0
    1.3637   48.5981   21.8103 H   0  0  0  0  0  0
    0.7934   48.1955   19.7707 C   0  0  0  0  0  0
   -0.2571   49.9207   21.3782 N   0  3  1  0  0  0
   -1.6232   49.3460   20.9716 C   0  0  0  0  0  0
   -2.5534   50.0242   21.8563 N   0  0  0  0  0  0
   -1.9162   50.0802   23.1589 C   0  0  1  0  0  0
   -2.0898   49.1038   23.6135 H   0  0  0  0  0  0
   -0.4048   50.2017   22.8951 C   0  0  2  0  0  0
    0.0655   49.3477   23.3837 H   0  0  0  0  0  0
    0.3462   51.4566   23.3657 C   0  0  0  0  0  0
    0.6991   52.4961   22.4883 C   0  0  0  0  0  0
    1.5049   53.5583   22.8950 C   0  0  0  0  0  0
    1.9136   53.5655   24.2301 C   0  0  0  0  0  0
    1.5168   52.5798   25.1608 C   0  0  0  0  0  0
    0.7177   51.5182   24.7175 C   0  0  0  0  0  0
    2.1199   52.9701   26.3965 C   0  0  0  0  0  0
    2.8772   54.0950   26.1116 C   0  0  0  0  0  0
    2.7451   54.4794   24.8087 O   0  0  0  0  0  0
   -2.5524   51.1091   24.0981 C   0  0  0  0  0  0
   -2.7268   50.7928   25.4498 C   0  0  0  0  0  0
   -3.2949   51.7238   26.3159 C   0  0  0  0  0  0
   -3.6937   52.9669   25.8296 C   0  0  0  0  0  0
   -3.5172   53.2957   24.4876 C   0  0  0  0  0  0
   -2.9312   52.3719   23.6290 C   0  0  0  0  0  0
    5.4750   51.6742   21.9479 H   0  0  0  0  0  0
    5.7116   52.1075   20.2649 H   0  0  0  0  0  0
    4.8385   53.1903   21.3348 H   0  0  0  0  0  0
    1.7346   47.7525   19.4394 H   0  0  0  0  0  0
    0.1370   47.3719   20.0520 H   0  0  0  0  0  0
    0.3570   48.6974   18.9051 H   0  0  0  0  0  0
   -1.7831   49.5512   19.9105 H   0  0  0  0  0  0
   -1.5984   48.2715   21.1650 H   0  0  0  0  0  0
   -3.4329   49.5310   21.9270 H   0  0  0  0  0  0
    0.3907   52.4740   21.4542 H   0  0  0  0  0  0
    1.8212   54.3290   22.2059 H   0  0  0  0  0  0
    0.4286   50.7387   25.4100 H   0  0  0  0  0  0
    2.0552   52.4761   27.3559 H   0  0  0  0  0  0
    3.5192   54.7228   26.7137 H   0  0  0  0  0  0
   -2.4207   49.8308   25.8369 H   0  0  0  0  0  0
   -3.4256   51.4756   27.3593 H   0  0  0  0  0  0
   -4.1398   53.6872   26.4976 H   0  0  0  0  0  0
   -3.8219   54.2634   24.1166 H   0  0  0  0  0  0
   -2.7843   52.6317   22.5920 H   0  0  0  0  0  0
   -0.2354   50.8212   20.9269 H   0  0  0  0  0  0
  1 33  1  0  0  0
  1 34  1  0  0  0
  1 35  1  0  0  0
  1  2  1  0  0  0
  2  3  2  0  0  0
  2  7  1  0  0  0
  3  4  1  0  0  0
  4  8  1  0  0  0
  4  6  2  0  0  0
  5  7  1  0  0  0
  6  7  1  0  0  0
  8  9  1  0  0  0
  8 10  1  0  0  0
  8 11  1  0  0  0
 10 36  1  0  0  0
 10 37  1  0  0  0
 10 38  1  0  0  0
 11 16  1  0  0  0
 11 12  1  0  0  0
 11 52  1  0  0  0
 12 13  1  0  0  0
 12 39  1  0  0  0
 12 40  1  0  0  0
 13 14  1  0  0  0
 13 41  1  0  0  0
 14 15  1  0  0  0
 14 16  1  0  0  0
 14 27  1  0  0  0
 16 17  1  0  0  0
 16 18  1  0  0  0
 18 23  2  0  0  0
 18 19  1  0  0  0
 19 20  2  0  0  0
 19 42  1  0  0  0
 20 21  1  0  0  0
 20 43  1  0  0  0
 21 26  1  0  0  0
 21 22  2  0  0  0
 22 23  1  0  0  0
 22 24  1  0  0  0
 23 44  1  0  0  0
 24 25  2  0  0  0
 24 45  1  0  0  0
 25 26  1  0  0  0
 25 46  1  0  0  0
 27 32  2  0  0  0
 27 28  1  0  0  0
 28 29  2  0  0  0
 28 47  1  0  0  0
 29 30  1  0  0  0
 29 48  1  0  0  0
 30 31  2  0  0  0
 30 49  1  0  0  0
 31 32  1  0  0  0
 31 50  1  0  0  0
 32 51  1  0  0  0
M  CHG  1  11   1
M  END
> <i_i_glide_confnum>
18

> <i_i_glide_lignum>
1355

> <i_i_glide_posenum>
288

> <i_i_glide_rotatable_bonds>
4

> <i_m_Source_File_Index>
5112

> <b_m_subgroup_collapsed>
0

> <r_i_docking_score>
-3.47254

> <r_i_glide_ecoul>
-1.55918

> <r_i_glide_eff_state_penalty>
0

> <r_i_glide_einternal>
3.9906

> <r_i_glide_emodel>
-33.5102

> <r_i_glide_energy>
-29.2716

> <r_i_glide_erotb>
0.551599

> <r_i_glide_esite>
-0.0912481

> <r_i_glide_evdw>
-27.7124

> <r_i_glide_gscore>
-3.47254

> <r_i_glide_hbond>
0

> <r_i_glide_ligand_efficiency>
-0.124019

> <r_i_glide_ligand_efficiency_ln>
-0.801565

> <r_i_glide_ligand_efficiency_sa>
-0.376596

> <r_i_glide_lipo>
-1.45744

> <r_i_glide_metal>
0

> <r_i_glide_rewards>
-0.855962

> <s_i_glide_gridfile>
wee1_glide-grid

> <s_m_Source_File>
wee1_decoys_glide_SP.sdf

> <s_m_Source_Path>
/Users/zhangxujun/Desktop

> <s_m_entry_id>
5387

> <s_m_entry_name>
wee1_decoys_glide_SP.5112

> <s_m_subgroup_title>
wee1_decoys_glide_SP

> <s_m_subgroupid>
wee1_decoys_glide_SP


$$$$
