ZINC09296361_2800
                    3D
 Schrodinger Suite 2024-2.
 48 51  0  0  1  0            999 V2000
   -4.4957   50.4573   30.2130 C   0  0  0  0  0  0
   -5.2446   49.9615   28.9653 C   0  0  0  0  0  0
   -5.4626   51.0075   28.0152 O   0  0  0  0  0  0
   -4.4356   51.4439   27.1939 C   0  0  0  0  0  0
   -3.1395   50.9026   27.2083 C   0  0  0  0  0  0
   -2.1349   51.4069   26.3782 C   0  0  0  0  0  0
   -2.4405   52.4457   25.4931 C   0  0  0  0  0  0
   -3.7217   52.9903   25.4566 C   0  0  0  0  0  0
   -4.7169   52.4962   26.3060 C   0  0  0  0  0  0
   -5.9637   53.0736   26.2713 O   0  0  0  0  0  0
   -6.9205   52.3695   25.4884 C   0  0  0  0  0  0
   -7.9883   53.3647   25.0274 C   0  0  0  0  0  0
   -4.0956   54.4237   24.2536 Br  0  0  0  0  0  0
   -0.7060   50.8671   26.4816 C   0  0  2  0  0  0
   -0.6936   50.1067   27.2658 H   0  0  0  0  0  0
    0.2589   51.9876   26.9013 C   0  0  0  0  0  0
    0.2329   52.5389   28.1970 C   0  0  0  0  0  0
    1.0845   53.6009   28.4846 C   0  0  0  0  0  0
    1.9730   54.0790   27.5642 C   0  0  0  0  0  0
    2.0733   53.5371   26.2897 C   0  0  0  0  0  0
    1.1943   52.4968   25.9645 C   0  0  0  0  0  0
    1.2932   51.9936   24.6826 O   0  0  0  0  0  0
    0.7045   50.8033   24.4103 C   0  0  0  0  0  0
   -0.2024   50.1946   25.2004 C   0  0  0  0  0  0
   -0.7234   48.9141   24.8361 C   0  0  0  0  0  0
   -1.1221   47.8861   24.4820 N   0  0  0  0  0  0
    1.2308   50.3295   23.2402 N   0  0  0  0  0  0
    2.6775   55.1035   28.1109 O   0  0  0  0  0  0
    1.9892   55.4285   29.2867 C   0  0  0  0  0  0
    1.2056   54.3178   29.6343 O   0  0  0  0  0  0
   -4.3882   49.6560   30.9449 H   0  0  0  0  0  0
   -3.4910   50.8063   29.9778 H   0  0  0  0  0  0
   -5.0306   51.2762   30.6930 H   0  0  0  0  0  0
   -6.2267   49.5990   29.2702 H   0  0  0  0  0  0
   -4.7472   49.1016   28.5132 H   0  0  0  0  0  0
   -2.8876   50.0968   27.8810 H   0  0  0  0  0  0
   -1.6737   52.8470   24.8464 H   0  0  0  0  0  0
   -6.4676   51.9010   24.6109 H   0  0  0  0  0  0
   -7.3707   51.5754   26.0863 H   0  0  0  0  0  0
   -8.7576   52.8657   24.4373 H   0  0  0  0  0  0
   -8.4734   53.8429   25.8787 H   0  0  0  0  0  0
   -7.5488   54.1471   24.4070 H   0  0  0  0  0  0
   -0.4644   52.1680   28.9348 H   0  0  0  0  0  0
    2.7807   53.9107   25.5649 H   0  0  0  0  0  0
    0.9244   49.4423   22.8693 H   0  0  0  0  0  0
    2.1075   50.6925   22.8974 H   0  0  0  0  0  0
    1.3418   56.2895   29.1028 H   0  0  0  0  0  0
    2.6838   55.6947   30.0815 H   0  0  0  0  0  0
  1  2  1  0  0  0
  1 31  1  0  0  0
  1 32  1  0  0  0
  1 33  1  0  0  0
  2  3  1  0  0  0
  2 34  1  0  0  0
  2 35  1  0  0  0
  3  4  1  0  0  0
  4  9  2  0  0  0
  4  5  1  0  0  0
  5  6  2  0  0  0
  5 36  1  0  0  0
  6  7  1  0  0  0
  6 14  1  0  0  0
  7  8  2  0  0  0
  7 37  1  0  0  0
  8  9  1  0  0  0
  8 13  1  0  0  0
  9 10  1  0  0  0
 10 11  1  0  0  0
 11 12  1  0  0  0
 11 38  1  0  0  0
 11 39  1  0  0  0
 12 40  1  0  0  0
 12 41  1  0  0  0
 12 42  1  0  0  0
 14 15  1  0  0  0
 14 24  1  0  0  0
 14 16  1  0  0  0
 16 21  2  0  0  0
 16 17  1  0  0  0
 17 18  2  0  0  0
 17 43  1  0  0  0
 18 30  1  0  0  0
 18 19  1  0  0  0
 19 20  2  0  0  0
 19 28  1  0  0  0
 20 21  1  0  0  0
 20 44  1  0  0  0
 21 22  1  0  0  0
 22 23  1  0  0  0
 23 24  2  0  0  0
 23 27  1  0  0  0
 24 25  1  0  0  0
 25 26  3  0  0  0
 27 45  1  0  0  0
 27 46  1  0  0  0
 28 29  1  0  0  0
 29 30  1  0  0  0
 29 47  1  0  0  0
 29 48  1  0  0  0
M  END
> <i_i_glide_confnum>
2

> <i_i_glide_lignum>
2801

> <i_i_glide_posenum>
170

> <i_i_glide_rotatable_bonds>
6

> <i_m_Source_File_Index>
3752

> <b_m_subgroup_collapsed>
0

> <r_i_docking_score>
-3.74908

> <r_i_glide_ecoul>
-2.60828

> <r_i_glide_eff_state_penalty>
0

> <r_i_glide_einternal>
0.831715

> <r_i_glide_emodel>
-47.9016

> <r_i_glide_energy>
-38.9481

> <r_i_glide_erotb>
0.28613

> <r_i_glide_esite>
-0.0479534

> <r_i_glide_evdw>
-36.3398

> <r_i_glide_gscore>
-3.74908

> <r_i_glide_hbond>
0

> <r_i_glide_ligand_efficiency>
-0.129279

> <r_i_glide_ligand_efficiency_ln>
-0.858445

> <r_i_glide_ligand_efficiency_sa>
-0.397185

> <r_i_glide_lipo>
-1.05146

> <r_i_glide_metal>
0

> <r_i_glide_rewards>
-0.727568

> <s_i_glide_gridfile>
wee1_glide-grid

> <s_m_Source_File>
wee1_decoys_glide_SP.sdf

> <s_m_Source_Path>
/Users/zhangxujun/Desktop

> <s_m_entry_id>
4027

> <s_m_entry_name>
wee1_decoys_glide_SP.3752

> <s_m_subgroup_title>
wee1_decoys_glide_SP

> <s_m_subgroupid>
wee1_decoys_glide_SP


$$$$
