ZINC08823395_2946
                    3D
 Schrodinger Suite 2024-2.
 49 51  0  0  1  0            999 V2000
   -0.5694   51.6989   29.0713 C   0  0  0  0  0  0
   -0.2680   52.4970   30.1726 C   0  0  0  0  0  0
    0.8182   53.3648   30.1248 C   0  0  0  0  0  0
    1.6077   53.4243   28.9729 C   0  0  0  0  0  0
    1.2872   52.6386   27.8605 C   0  0  0  0  0  0
    0.1993   51.7706   27.9131 C   0  0  0  0  0  0
    2.8487   54.2986   28.9423 C   0  0  0  0  0  0
    4.3043   53.2623   29.2818 S   0  0  0  0  0  0
    5.7393   54.3114   28.7990 C   0  0  0  0  0  0
    6.0012   54.4723   27.2928 C   0  0  0  0  0  0
    7.0926   54.8946   26.8977 O   0  0  0  0  0  0
    4.9735   54.1351   26.4970 N   0  0  0  0  0  0
    4.8764   54.2231   25.1308 C   0  0  0  0  0  0
    3.7204   54.0347   24.5543 N   0  0  0  0  0  0
    3.8157   54.0969   23.1769 N   0  0  0  0  0  0
    5.0352   54.3303   22.7457 C   0  0  0  0  0  0
    6.2010   54.4973   24.0229 S   0  0  0  0  0  0
    5.5048   54.4967   21.0588 S   0  0  0  0  0  0
    3.9808   53.8982   20.2669 C   0  0  0  0  0  0
    3.6538   52.4090   20.4475 C   0  0  0  0  0  0
    4.4930   51.6146   20.8799 O   0  0  0  0  0  0
    2.3756   52.0912   20.1585 N   0  0  0  0  0  0
    1.8009   50.8168   20.1640 C   0  0  0  0  0  0
    2.4693   49.6925   19.6645 C   0  0  0  0  0  0
    1.8231   48.4592   19.6217 C   0  0  0  0  0  0
    0.5126   48.3404   20.0818 C   0  0  0  0  0  0
   -0.1673   49.4553   20.5867 C   0  0  0  0  0  0
    0.4851   50.6961   20.6152 C   0  0  0  0  0  0
   -1.6040   49.3320   21.0891 C   0  0  0  0  0  0
   -1.8762   48.0914   21.4992 F   0  0  0  0  0  0
   -1.8305   50.1649   22.1075 F   0  0  0  0  0  0
   -2.4382   49.6422   20.0968 F   0  0  0  0  0  0
   -1.4020   51.0087   29.1189 H   0  0  0  0  0  0
   -0.8705   52.4257   31.0696 H   0  0  0  0  0  0
    1.0529   53.9683   30.9902 H   0  0  0  0  0  0
    1.8975   52.6731   26.9690 H   0  0  0  0  0  0
   -0.0385   51.1394   27.0689 H   0  0  0  0  0  0
    2.9199   54.7844   27.9700 H   0  0  0  0  0  0
    2.7875   55.1048   29.6748 H   0  0  0  0  0  0
    5.6041   55.2966   29.2400 H   0  0  0  0  0  0
    6.6427   53.8987   29.2456 H   0  0  0  0  0  0
    4.1446   53.8156   26.9706 H   0  0  0  0  0  0
    3.1683   54.4879   20.6775 H   0  0  0  0  0  0
    4.0406   54.1134   19.2004 H   0  0  0  0  0  0
    1.7449   52.8601   19.9872 H   0  0  0  0  0  0
    3.4791   49.7752   19.2820 H   0  0  0  0  0  0
    2.3402   47.6046   19.2120 H   0  0  0  0  0  0
    0.0252   47.3768   20.0313 H   0  0  0  0  0  0
   -0.0338   51.5659   20.9896 H   0  0  0  0  0  0
  1  6  2  0  0  0
  1  2  1  0  0  0
  1 33  1  0  0  0
  2  3  2  0  0  0
  2 34  1  0  0  0
  3  4  1  0  0  0
  3 35  1  0  0  0
  4  5  2  0  0  0
  4  7  1  0  0  0
  5  6  1  0  0  0
  5 36  1  0  0  0
  6 37  1  0  0  0
  7  8  1  0  0  0
  7 38  1  0  0  0
  7 39  1  0  0  0
  8  9  1  0  0  0
  9 10  1  0  0  0
  9 40  1  0  0  0
  9 41  1  0  0  0
 10 11  2  0  0  0
 10 12  1  0  0  0
 12 13  1  0  0  0
 12 42  1  0  0  0
 13 17  1  0  0  0
 13 14  2  0  0  0
 14 15  1  0  0  0
 15 16  2  0  0  0
 16 17  1  0  0  0
 16 18  1  0  0  0
 18 19  1  0  0  0
 19 20  1  0  0  0
 19 43  1  0  0  0
 19 44  1  0  0  0
 20 21  2  0  0  0
 20 22  1  0  0  0
 22 23  1  0  0  0
 22 45  1  0  0  0
 23 28  2  0  0  0
 23 24  1  0  0  0
 24 25  2  0  0  0
 24 46  1  0  0  0
 25 26  1  0  0  0
 25 47  1  0  0  0
 26 27  2  0  0  0
 26 48  1  0  0  0
 27 28  1  0  0  0
 27 29  1  0  0  0
 28 49  1  0  0  0
 29 30  1  0  0  0
 29 31  1  0  0  0
 29 32  1  0  0  0
M  END
> <i_i_glide_confnum>
92

> <i_i_glide_lignum>
2947

> <i_i_glide_posenum>
111

> <i_i_glide_rotatable_bonds>
12

> <i_m_Source_File_Index>
4343

> <b_m_subgroup_collapsed>
0

> <r_i_docking_score>
-5.53827

> <r_i_glide_ecoul>
-8.96055

> <r_i_glide_eff_state_penalty>
0

> <r_i_glide_einternal>
3.90344

> <r_i_glide_emodel>
-78.0117

> <r_i_glide_energy>
-58.1171

> <r_i_glide_erotb>
0.820972

> <r_i_glide_esite>
-0.0322207

> <r_i_glide_evdw>
-49.1565

> <r_i_glide_gscore>
-5.53827

> <r_i_glide_hbond>
-0.29526

> <r_i_glide_ligand_efficiency>
-0.173071

> <r_i_glide_ligand_efficiency_ln>
-1.24017

> <r_i_glide_ligand_efficiency_sa>
-0.549466

> <r_i_glide_lipo>
-1.89993

> <r_i_glide_metal>
0

> <r_i_glide_rewards>
-0.329918

> <s_i_glide_gridfile>
wee1_glide-grid

> <s_m_Source_File>
wee1_decoys_glide_SP.sdf

> <s_m_Source_Path>
/Users/zhangxujun/Desktop

> <s_m_entry_id>
4618

> <s_m_entry_name>
wee1_decoys_glide_SP.4343

> <s_m_subgroup_title>
wee1_decoys_glide_SP

> <s_m_subgroupid>
wee1_decoys_glide_SP


$$$$
