ZINC12211601_5669
                    3D
 Schrodinger Suite 2024-2.
 48 51  0  0  1  0            999 V2000
   -6.7405   52.8210   25.9830 C   0  0  0  0  0  0
   -5.5254   53.7570   26.0808 C   0  0  0  0  0  0
   -5.7506   54.8967   26.4820 O   0  0  0  0  0  0
   -4.3187   53.3786   25.7517 N   0  5  0  0  0  0
   -4.0012   51.9096   25.3116 S   0  0  0  0  0  0
   -4.1921   50.9142   26.3719 O   0  0  0  0  0  0
   -4.4748   51.5781   23.9625 O   0  0  0  0  0  0
   -2.2268   52.0847   25.1415 C   0  0  0  0  0  0
   -1.3830   51.8037   26.2190 C   0  0  0  0  0  0
   -0.0251   52.0989   26.1259 C   0  0  0  0  0  0
    0.4844   52.6860   24.9607 C   0  0  0  0  0  0
   -0.3460   52.8698   23.8572 C   0  0  0  0  0  0
   -1.7033   52.5840   23.9485 C   0  0  0  0  0  0
    1.7991   53.1576   24.8353 N   0  0  0  0  0  0
    2.7644   53.5773   25.7660 C   0  0  0  0  0  0
    4.0375   54.0041   25.3161 C   0  0  0  0  0  0
    4.6336   54.0966   24.0123 C   0  0  0  0  0  0
    5.9414   54.5774   24.0854 C   0  0  0  0  0  0
    6.4886   54.8971   25.7146 S   0  0  0  0  0  0
    4.9372   54.4055   26.3473 C   0  0  0  0  0  0
    4.6580   54.4044   27.6535 N   0  0  0  0  0  0
    3.4083   53.9805   27.9625 C   0  0  0  0  0  0
    2.4559   53.5800   27.0886 N   0  0  0  0  0  0
    3.0051   53.9417   29.6813 S   0  0  0  0  0  0
    1.2990   53.3332   29.8365 C   0  0  0  0  0  0
    6.8690   54.7450   22.8915 C   0  0  0  0  0  0
    6.0431   54.7451   21.5866 C   0  0  0  0  0  0
    5.0040   53.6133   21.5589 C   0  0  0  0  0  0
    3.9556   53.7527   22.6821 C   0  0  0  0  0  0
   -6.8697   52.4591   24.9625 H   0  0  0  0  0  0
   -7.6574   53.3389   26.2665 H   0  0  0  0  0  0
   -6.6269   51.9657   26.6492 H   0  0  0  0  0  0
   -1.7819   51.3951   27.1375 H   0  0  0  0  0  0
    0.6058   51.8968   26.9765 H   0  0  0  0  0  0
    0.0467   53.2958   22.9462 H   0  0  0  0  0  0
   -2.3553   52.7948   23.1134 H   0  0  0  0  0  0
    2.0747   53.3157   23.8779 H   0  0  0  0  0  0
    0.9969   53.3111   30.8838 H   0  0  0  0  0  0
    0.6105   53.9815   29.2939 H   0  0  0  0  0  0
    1.2149   52.3227   29.4357 H   0  0  0  0  0  0
    7.4563   55.6614   22.9652 H   0  0  0  0  0  0
    7.5797   53.9184   22.8816 H   0  0  0  0  0  0
    5.5316   55.6990   21.4696 H   0  0  0  0  0  0
    6.7063   54.6644   20.7251 H   0  0  0  0  0  0
    4.5004   53.5931   20.5911 H   0  0  0  0  0  0
    5.5060   52.6492   21.6512 H   0  0  0  0  0  0
    3.4010   52.8166   22.7419 H   0  0  0  0  0  0
    3.2333   54.5279   22.4201 H   0  0  0  0  0  0
  1  2  1  0  0  0
  1 30  1  0  0  0
  1 31  1  0  0  0
  1 32  1  0  0  0
  2  3  2  0  0  0
  2  4  1  0  0  0
  4  5  1  0  0  0
  5  6  2  0  0  0
  5  7  2  0  0  0
  5  8  1  0  0  0
  8 13  2  0  0  0
  8  9  1  0  0  0
  9 10  2  0  0  0
  9 33  1  0  0  0
 10 11  1  0  0  0
 10 34  1  0  0  0
 11 12  2  0  0  0
 11 14  1  0  0  0
 12 13  1  0  0  0
 12 35  1  0  0  0
 13 36  1  0  0  0
 14 15  1  0  0  0
 14 37  1  0  0  0
 15 23  2  0  0  0
 15 16  1  0  0  0
 16 20  2  0  0  0
 16 17  1  0  0  0
 17 29  1  0  0  0
 17 18  2  0  0  0
 18 19  1  0  0  0
 18 26  1  0  0  0
 19 20  1  0  0  0
 20 21  1  0  0  0
 21 22  2  0  0  0
 22 23  1  0  0  0
 22 24  1  0  0  0
 24 25  1  0  0  0
 25 38  1  0  0  0
 25 39  1  0  0  0
 25 40  1  0  0  0
 26 27  1  0  0  0
 26 41  1  0  0  0
 26 42  1  0  0  0
 27 28  1  0  0  0
 27 43  1  0  0  0
 27 44  1  0  0  0
 28 29  1  0  0  0
 28 45  1  0  0  0
 28 46  1  0  0  0
 29 47  1  0  0  0
 29 48  1  0  0  0
M  CHG  1   4  -1
M  END
> <i_i_glide_confnum>
53

> <i_i_glide_lignum>
5670

> <i_i_glide_posenum>
107

> <i_i_glide_rotatable_bonds>
6

> <i_m_Source_File_Index>
2818

> <b_m_subgroup_collapsed>
0

> <r_i_docking_score>
-3.48721

> <r_i_glide_ecoul>
-3.69993

> <r_i_glide_eff_state_penalty>
0

> <r_i_glide_einternal>
5.11371

> <r_i_glide_emodel>
-47.1909

> <r_i_glide_energy>
-47.02

> <r_i_glide_erotb>
0.399864

> <r_i_glide_esite>
-0.0167775

> <r_i_glide_evdw>
-43.32

> <r_i_glide_gscore>
-3.48721

> <r_i_glide_hbond>
-0.32

> <r_i_glide_ligand_efficiency>
-0.120249

> <r_i_glide_ligand_efficiency_ln>
-0.798483

> <r_i_glide_ligand_efficiency_sa>
-0.369442

> <r_i_glide_lipo>
-2.72587

> <r_i_glide_metal>
0

> <r_i_glide_rewards>
1.89656

> <s_i_glide_gridfile>
wee1_glide-grid

> <s_m_Source_File>
wee1_decoys_glide_SP.sdf

> <s_m_Source_Path>
/Users/zhangxujun/Desktop

> <s_m_entry_id>
3093

> <s_m_entry_name>
wee1_decoys_glide_SP.2818

> <s_m_subgroup_title>
wee1_decoys_glide_SP

> <s_m_subgroupid>
wee1_decoys_glide_SP


$$$$
