ZINC27771844_2260
                    3D
 Schrodinger Suite 2024-2.
 47 49  0  0  1  0            999 V2000
    6.4929   54.5701   22.9555 C   0  0  0  0  0  0
    6.0057   54.8361   24.3835 C   0  0  0  0  0  0
    6.7873   55.4932   25.0794 O   0  0  0  0  0  0
    4.8202   54.3246   24.8793 N   0  0  0  0  0  0
    4.6984   54.1915   26.3113 C   0  0  0  0  0  0
    3.5038   54.5288   26.9612 C   0  0  0  0  0  0
    3.3698   54.4270   28.3407 C   0  0  0  0  0  0
    4.4457   53.9832   29.0974 C   0  0  0  0  0  0
    5.6456   53.6372   28.4814 C   0  0  0  0  0  0
    5.7661   53.7235   27.1006 C   0  0  0  0  0  0
    3.7435   53.8431   24.0574 C   0  0  0  0  0  0
    2.7035   53.1747   24.5262 N   0  0  0  0  0  0
    1.8243   52.8049   23.6091 C   0  0  0  0  0  0
    2.1287   53.1949   22.3162 C   0  0  0  0  0  0
    3.6007   54.0966   22.3264 S   0  0  0  0  0  0
    0.6594   52.0338   24.0114 C   0  0  0  0  0  0
    0.1736   51.8413   25.2564 C   0  0  0  0  0  0
   -1.0092   51.0497   25.5032 C   0  0  0  0  0  0
   -1.4880   50.2800   24.6639 O   0  0  0  0  0  0
   -1.5483   51.2961   26.7132 N   0  0  0  0  0  0
   -2.6001   50.4970   27.1582 N   0  0  0  0  0  0
   -3.8090   51.0822   27.3118 C   0  0  0  0  0  0
   -4.0990   52.2031   26.8800 O   0  0  0  0  0  0
   -4.8526   50.2560   28.0253 C   0  0  0  0  0  0
   -6.2035   50.3773   27.6725 C   0  0  0  0  0  0
   -7.1751   49.6358   28.3429 C   0  0  0  0  0  0
   -6.8019   48.7759   29.3739 C   0  0  0  0  0  0
   -5.4652   48.6548   29.7423 C   0  0  0  0  0  0
   -4.4951   49.3931   29.0724 C   0  0  0  0  0  0
   -8.0038   47.8573   30.2046 Cl  0  0  0  0  0  0
    6.2626   53.5536   22.6376 H   0  0  0  0  0  0
    6.0813   55.2951   22.2543 H   0  0  0  0  0  0
    7.5732   54.6665   22.9028 H   0  0  0  0  0  0
    2.6758   54.8965   26.3906 H   0  0  0  0  0  0
    2.4402   54.7001   28.8185 H   0  0  0  0  0  0
    4.3469   53.9093   30.1693 H   0  0  0  0  0  0
    6.4896   53.3006   29.0608 H   0  0  0  0  0  0
    6.7021   53.4274   26.6490 H   0  0  0  0  0  0
    1.5827   53.0313   21.3979 H   0  0  0  0  0  0
    0.1429   51.5911   23.1690 H   0  0  0  0  0  0
    0.6551   52.2924   26.1133 H   0  0  0  0  0  0
   -1.0328   51.7221   27.4686 H   0  0  0  0  0  0
   -2.2656   49.7534   27.7664 H   0  0  0  0  0  0
   -6.5074   51.0434   26.8765 H   0  0  0  0  0  0
   -8.2146   49.7289   28.0642 H   0  0  0  0  0  0
   -5.1740   47.9961   30.5473 H   0  0  0  0  0  0
   -3.4652   49.2968   29.3888 H   0  0  0  0  0  0
  1  2  1  0  0  0
  1 31  1  0  0  0
  1 32  1  0  0  0
  1 33  1  0  0  0
  2  3  2  0  0  0
  2  4  1  0  0  0
  4  5  1  0  0  0
  4 11  1  0  0  0
  5 10  2  0  0  0
  5  6  1  0  0  0
  6  7  2  0  0  0
  6 34  1  0  0  0
  7  8  1  0  0  0
  7 35  1  0  0  0
  8  9  2  0  0  0
  8 36  1  0  0  0
  9 10  1  0  0  0
  9 37  1  0  0  0
 10 38  1  0  0  0
 11 15  1  0  0  0
 11 12  2  0  0  0
 12 13  1  0  0  0
 13 14  2  0  0  0
 13 16  1  0  0  0
 14 15  1  0  0  0
 14 39  1  0  0  0
 16 17  2  0  0  0
 16 40  1  0  0  0
 17 18  1  0  0  0
 17 41  1  0  0  0
 18 19  2  0  0  0
 18 20  1  0  0  0
 20 21  1  0  0  0
 20 42  1  0  0  0
 21 22  1  0  0  0
 21 43  1  0  0  0
 22 23  2  0  0  0
 22 24  1  0  0  0
 24 29  2  0  0  0
 24 25  1  0  0  0
 25 26  2  0  0  0
 25 44  1  0  0  0
 26 27  1  0  0  0
 26 45  1  0  0  0
 27 28  2  0  0  0
 27 30  1  0  0  0
 28 29  1  0  0  0
 28 46  1  0  0  0
 29 47  1  0  0  0
M  END
> <i_i_glide_confnum>
203

> <i_i_glide_lignum>
2261

> <i_i_glide_posenum>
267

> <i_i_glide_rotatable_bonds>
9

> <i_m_Source_File_Index>
3668

> <b_m_subgroup_collapsed>
0

> <r_i_docking_score>
-5.96483

> <r_i_glide_ecoul>
-6.06365

> <r_i_glide_eff_state_penalty>
0

> <r_i_glide_einternal>
4.39527

> <r_i_glide_emodel>
-61.6271

> <r_i_glide_energy>
-44.581

> <r_i_glide_erotb>
0.719119

> <r_i_glide_esite>
-0.229286

> <r_i_glide_evdw>
-38.5174

> <r_i_glide_gscore>
-5.96483

> <r_i_glide_hbond>
-0.372282

> <r_i_glide_ligand_efficiency>
-0.198828

> <r_i_glide_ligand_efficiency_ln>
-1.35527

> <r_i_glide_ligand_efficiency_sa>
-0.617804

> <r_i_glide_lipo>
-2.62565

> <r_i_glide_metal>
0

> <r_i_glide_rewards>
-0.621314

> <s_i_glide_gridfile>
wee1_glide-grid

> <s_m_Source_File>
wee1_decoys_glide_SP.sdf

> <s_m_Source_Path>
/Users/zhangxujun/Desktop

> <s_m_entry_id>
3943

> <s_m_entry_name>
wee1_decoys_glide_SP.3668

> <s_m_subgroup_title>
wee1_decoys_glide_SP

> <s_m_subgroupid>
wee1_decoys_glide_SP


$$$$
