ZINC05736328_2660
                    3D
 Schrodinger Suite 2024-2.
 46 48  0  0  1  0            999 V2000
   -2.8695   50.1397   25.0224 C   0  0  0  0  0  0
   -1.6309   50.8520   24.5126 C   0  0  0  0  0  0
   -0.5223   50.1002   24.1174 C   0  0  0  0  0  0
    0.6308   50.7417   23.6740 C   0  0  0  0  0  0
    0.6722   52.1366   23.6463 C   0  0  0  0  0  0
   -0.4400   52.8952   24.0213 C   0  0  0  0  0  0
   -1.5938   52.2472   24.4563 C   0  0  0  0  0  0
    1.8563   52.7908   23.2721 N   0  0  0  0  0  0
    2.7804   53.4595   24.0691 C   0  0  0  0  0  0
    3.7170   53.9731   23.3005 N   0  0  0  0  0  0
    3.4599   53.6106   21.9881 N   0  0  0  0  0  0
    2.3667   52.8939   21.9914 C   0  0  0  0  0  0
    1.6487   52.2189   20.5246 S   0  0  0  0  0  0
    2.7969   50.8248   20.2544 C   0  0  0  0  0  0
    2.0693   49.4900   20.0556 C   0  0  0  0  0  0
    1.3415   49.0743   20.9603 O   0  0  0  0  0  0
    2.3033   48.8490   18.8836 N   0  0  0  0  0  0
    1.7888   47.6650   18.4805 C   0  0  0  0  0  0
    0.9740   46.9757   19.1020 O   0  0  0  0  0  0
    2.3046   47.2968   17.2987 N   0  0  0  0  0  0
    2.0061   46.0642   16.5786 C   0  0  0  0  0  0
    2.8419   53.5421   25.5846 C   0  0  0  0  0  0
    3.9460   54.1835   26.1703 C   0  0  0  0  0  0
    4.1204   54.2030   27.5513 C   0  0  0  0  0  0
    3.1810   53.5919   28.3730 C   0  0  0  0  0  0
    2.0661   52.9703   27.8224 C   0  0  0  0  0  0
    1.9013   52.9443   26.4406 C   0  0  0  0  0  0
    3.4117   53.5880   30.0809 Cl  0  0  0  0  0  0
   -2.6012   49.4596   25.8326 H   0  0  0  0  0  0
   -3.6169   50.8338   25.4070 H   0  0  0  0  0  0
   -3.3210   49.5428   24.2288 H   0  0  0  0  0  0
   -0.5495   49.0214   24.1583 H   0  0  0  0  0  0
    1.4876   50.1526   23.3805 H   0  0  0  0  0  0
   -0.4050   53.9752   23.9941 H   0  0  0  0  0  0
   -2.4505   52.8309   24.7601 H   0  0  0  0  0  0
    3.4673   50.7113   21.1063 H   0  0  0  0  0  0
    3.4241   51.0659   19.3928 H   0  0  0  0  0  0
    2.9522   49.2952   18.2442 H   0  0  0  0  0  0
    2.9996   47.9135   16.8806 H   0  0  0  0  0  0
    1.3855   46.2810   15.7087 H   0  0  0  0  0  0
    1.4870   45.3310   17.1968 H   0  0  0  0  0  0
    2.9364   45.6163   16.2272 H   0  0  0  0  0  0
    4.7020   54.6509   25.5567 H   0  0  0  0  0  0
    4.9873   54.6843   27.9803 H   0  0  0  0  0  0
    1.3397   52.4875   28.4608 H   0  0  0  0  0  0
    1.0449   52.4098   26.0742 H   0  0  0  0  0  0
  1  2  1  0  0  0
  1 29  1  0  0  0
  1 30  1  0  0  0
  1 31  1  0  0  0
  2  7  2  0  0  0
  2  3  1  0  0  0
  3  4  2  0  0  0
  3 32  1  0  0  0
  4  5  1  0  0  0
  4 33  1  0  0  0
  5  6  2  0  0  0
  5  8  1  0  0  0
  6  7  1  0  0  0
  6 34  1  0  0  0
  7 35  1  0  0  0
  8 12  1  0  0  0
  8  9  1  0  0  0
  9 10  2  0  0  0
  9 22  1  0  0  0
 10 11  1  0  0  0
 11 12  2  0  0  0
 12 13  1  0  0  0
 13 14  1  0  0  0
 14 15  1  0  0  0
 14 36  1  0  0  0
 14 37  1  0  0  0
 15 16  2  0  0  0
 15 17  1  0  0  0
 17 18  1  0  0  0
 17 38  1  0  0  0
 18 19  2  0  0  0
 18 20  1  0  0  0
 20 21  1  0  0  0
 20 39  1  0  0  0
 21 40  1  0  0  0
 21 41  1  0  0  0
 21 42  1  0  0  0
 22 27  2  0  0  0
 22 23  1  0  0  0
 23 24  2  0  0  0
 23 43  1  0  0  0
 24 25  1  0  0  0
 24 44  1  0  0  0
 25 26  2  0  0  0
 25 28  1  0  0  0
 26 27  1  0  0  0
 26 45  1  0  0  0
 27 46  1  0  0  0
M  END
> <i_i_glide_confnum>
40

> <i_i_glide_lignum>
2661

> <i_i_glide_posenum>
97

> <i_i_glide_rotatable_bonds>
8

> <i_m_Source_File_Index>
4964

> <b_m_subgroup_collapsed>
0

> <r_i_docking_score>
-5.41737

> <r_i_glide_ecoul>
-7.53595

> <r_i_glide_eff_state_penalty>
0

> <r_i_glide_einternal>
2.96166

> <r_i_glide_emodel>
-59.9733

> <r_i_glide_energy>
-43.6931

> <r_i_glide_erotb>
0.799309

> <r_i_glide_esite>
-0.290845

> <r_i_glide_evdw>
-36.1571

> <r_i_glide_gscore>
-5.41737

> <r_i_glide_hbond>
-0.303995

> <r_i_glide_ligand_efficiency>
-0.193477

> <r_i_glide_ligand_efficiency_ln>
-1.25049

> <r_i_glide_ligand_efficiency_sa>
-0.587511

> <r_i_glide_lipo>
-1.51519

> <r_i_glide_metal>
0

> <r_i_glide_rewards>
-1.1684

> <s_i_glide_gridfile>
wee1_glide-grid

> <s_m_Source_File>
wee1_decoys_glide_SP.sdf

> <s_m_Source_Path>
/Users/zhangxujun/Desktop

> <s_m_entry_id>
5239

> <s_m_entry_name>
wee1_decoys_glide_SP.4964

> <s_m_subgroup_title>
wee1_decoys_glide_SP

> <s_m_subgroupid>
wee1_decoys_glide_SP


$$$$
