ZINC63349897_5721
                    3D
 Schrodinger Suite 2024-2.
 74 79  0  0  1  0            999 V2000
   -8.2069   51.8017   29.7198 C   0  0  0  0  0  0
   -6.9212   51.1840   30.2475 C   0  0  0  0  0  0
   -6.8751   50.6898   31.5542 C   0  0  0  0  0  0
   -5.6950   50.1474   32.0587 C   0  0  0  0  0  0
   -4.5537   50.0968   31.2595 C   0  0  0  0  0  0
   -4.5871   50.5769   29.9482 C   0  0  0  0  0  0
   -5.7765   51.1204   29.4380 C   0  0  0  0  0  0
   -5.8148   51.6468   28.1697 O   0  0  0  0  0  0
   -5.9857   50.7138   27.1002 C   0  0  0  0  0  0
   -4.9080   50.9232   26.0362 C   0  0  0  0  0  0
   -4.1935   49.8186   25.5531 C   0  0  0  0  0  0
   -3.1767   49.9684   24.5996 C   0  0  0  0  0  0
   -2.8979   51.2580   24.1300 C   0  0  0  0  0  0
   -3.6016   52.3607   24.5988 C   0  0  0  0  0  0
   -4.6094   52.2112   25.5622 C   0  0  0  0  0  0
   -5.3204   53.2783   26.0773 O   0  0  0  0  0  0
   -4.8231   54.5944   25.8869 C   0  0  0  0  0  0
   -2.3340   48.7392   24.1807 C   0  0  2  0  0  0
   -2.8396   47.8958   24.6542 H   0  0  0  0  0  0
   -0.8752   48.7512   24.7258 C   0  0  1  0  0  0
   -0.4328   47.7539   24.7228 H   0  0  0  0  0  0
   -0.0581   49.7346   23.9215 C   0  0  0  0  0  0
    0.3813   50.7140   24.7287 C   0  0  0  0  0  0
    1.1042   51.9633   24.4582 C   0  0  0  0  0  0
    1.3786   52.8424   25.4580 C   0  0  0  0  0  0
    0.9642   52.4578   26.8031 C   0  0  0  0  0  0
    0.3059   51.3017   27.0734 C   0  0  0  0  0  0
   -0.0150   50.4244   26.0357 C   0  0  0  0  0  0
   -0.6844   49.2965   26.0817 N   0  3  0  0  0  0
    1.9638   54.0625   25.3196 O   0  0  0  0  0  0
    2.2879   54.5717   24.0280 C   0  0  0  0  0  0
    3.7564   54.3538   23.7175 C   0  0  0  0  0  0
    4.7131   54.4958   24.7287 C   0  0  0  0  0  0
    6.0659   54.3852   24.4253 C   0  0  0  0  0  0
    6.4549   54.1364   23.1126 C   0  0  0  0  0  0
    5.5046   53.9917   22.1012 C   0  0  0  0  0  0
    4.1518   54.0967   22.4037 C   0  0  0  0  0  0
   -0.0418   49.4978   22.4222 C   0  0  0  0  0  0
   -1.4909   49.2860   21.8977 C   0  0  0  0  0  0
   -2.3179   48.4136   22.7451 N   0  0  0  0  0  0
   -3.3136   50.5627   29.1175 C   0  0  0  0  0  0
   -8.6176   51.1903   28.9151 H   0  0  0  0  0  0
   -8.9621   51.9178   30.4986 H   0  0  0  0  0  0
   -8.0051   52.7904   29.3066 H   0  0  0  0  0  0
   -7.7498   50.7318   32.1877 H   0  0  0  0  0  0
   -5.6527   49.7857   33.0761 H   0  0  0  0  0  0
   -3.6327   49.7009   31.6651 H   0  0  0  0  0  0
   -5.9970   49.6756   27.4422 H   0  0  0  0  0  0
   -6.9575   50.9016   26.6428 H   0  0  0  0  0  0
   -4.4117   48.8358   25.9471 H   0  0  0  0  0  0
   -2.1006   51.4419   23.4317 H   0  0  0  0  0  0
   -3.3374   53.3318   24.2098 H   0  0  0  0  0  0
   -5.4100   55.2909   26.4863 H   0  0  0  0  0  0
   -3.7857   54.6775   26.2138 H   0  0  0  0  0  0
   -4.8961   54.8978   24.8412 H   0  0  0  0  0  0
    1.4025   52.1873   23.4476 H   0  0  0  0  0  0
    1.2023   53.1243   27.6188 H   0  0  0  0  0  0
    0.0247   51.0779   28.0935 H   0  0  0  0  0  0
    1.6196   54.2598   23.2249 H   0  0  0  0  0  0
    2.1556   55.6489   24.0817 H   0  0  0  0  0  0
    4.4099   54.7071   25.7445 H   0  0  0  0  0  0
    6.8108   54.4959   25.1997 H   0  0  0  0  0  0
    7.5072   54.0637   22.8804 H   0  0  0  0  0  0
    5.8164   53.8102   21.0828 H   0  0  0  0  0  0
    3.4199   54.0070   21.6128 H   0  0  0  0  0  0
    0.4282   50.3243   21.8878 H   0  0  0  0  0  0
    0.5629   48.6209   22.1947 H   0  0  0  0  0  0
   -1.9791   50.2501   21.7697 H   0  0  0  0  0  0
   -1.4361   48.8551   20.8967 H   0  0  0  0  0  0
   -2.0130   47.4587   22.6229 H   0  0  0  0  0  0
   -3.2964   49.6970   28.4568 H   0  0  0  0  0  0
   -3.2345   51.4612   28.5058 H   0  0  0  0  0  0
   -2.4278   50.5371   29.7522 H   0  0  0  0  0  0
   -1.0590   48.8771   26.9508 H   0  0  0  0  0  0
  1  2  1  0  0  0
  1 42  1  0  0  0
  1 43  1  0  0  0
  1 44  1  0  0  0
  2  7  2  0  0  0
  2  3  1  0  0  0
  3  4  2  0  0  0
  3 45  1  0  0  0
  4  5  1  0  0  0
  4 46  1  0  0  0
  5  6  2  0  0  0
  5 47  1  0  0  0
  6  7  1  0  0  0
  6 41  1  0  0  0
  7  8  1  0  0  0
  8  9  1  0  0  0
  9 10  1  0  0  0
  9 48  1  0  0  0
  9 49  1  0  0  0
 10 15  2  0  0  0
 10 11  1  0  0  0
 11 12  2  0  0  0
 11 50  1  0  0  0
 12 13  1  0  0  0
 12 18  1  0  0  0
 13 14  2  0  0  0
 13 51  1  0  0  0
 14 15  1  0  0  0
 14 52  1  0  0  0
 15 16  1  0  0  0
 16 17  1  0  0  0
 17 53  1  0  0  0
 17 54  1  0  0  0
 17 55  1  0  0  0
 18 19  1  0  0  0
 18 40  1  0  0  0
 18 20  1  0  0  0
 20 21  1  0  0  0
 20 29  1  0  0  0
 20 22  1  0  0  0
 22 23  2  0  0  0
 22 38  1  0  0  0
 23 28  1  0  0  0
 23 24  1  0  0  0
 24 25  2  0  0  0
 24 56  1  0  0  0
 25 26  1  0  0  0
 25 30  1  0  0  0
 26 27  2  0  0  0
 26 57  1  0  0  0
 27 28  1  0  0  0
 27 58  1  0  0  0
 28 29  2  0  0  0
 29 74  1  0  0  0
 30 31  1  0  0  0
 31 32  1  0  0  0
 31 59  1  0  0  0
 31 60  1  0  0  0
 32 37  2  0  0  0
 32 33  1  0  0  0
 33 34  2  0  0  0
 33 61  1  0  0  0
 34 35  1  0  0  0
 34 62  1  0  0  0
 35 36  2  0  0  0
 35 63  1  0  0  0
 36 37  1  0  0  0
 36 64  1  0  0  0
 37 65  1  0  0  0
 38 39  1  0  0  0
 38 66  1  0  0  0
 38 67  1  0  0  0
 39 40  1  0  0  0
 39 68  1  0  0  0
 39 69  1  0  0  0
 40 70  1  0  0  0
 41 71  1  0  0  0
 41 72  1  0  0  0
 41 73  1  0  0  0
M  CHG  1  29   1
M  END
> <i_i_glide_confnum>
117

> <i_i_glide_lignum>
5722

> <i_i_glide_posenum>
320

> <i_i_glide_rotatable_bonds>
8

> <i_m_Source_File_Index>
2030

> <b_m_subgroup_collapsed>
0

> <r_i_docking_score>
-4.4293

> <r_i_glide_ecoul>
-2.79459

> <r_i_glide_eff_state_penalty>
0

> <r_i_glide_einternal>
2.95315

> <r_i_glide_emodel>
-53.7895

> <r_i_glide_energy>
-42.1392

> <r_i_glide_erotb>
0.532601

> <r_i_glide_esite>
-0.1

> <r_i_glide_evdw>
-39.3446

> <r_i_glide_gscore>
-4.4293

> <r_i_glide_hbond>
-0.2

> <r_i_glide_ligand_efficiency>
-0.113572

> <r_i_glide_ligand_efficiency_ln>
-0.949767

> <r_i_glide_ligand_efficiency_sa>
-0.385146

> <r_i_glide_lipo>
-2.23381

> <r_i_glide_metal>
0

> <r_i_glide_rewards>
-0.0416667

> <s_i_glide_gridfile>
wee1_glide-grid

> <s_m_Source_File>
wee1_decoys_glide_SP.sdf

> <s_m_Source_Path>
/Users/zhangxujun/Desktop

> <s_m_entry_id>
2305

> <s_m_entry_name>
wee1_decoys_glide_SP.2030

> <s_m_subgroup_title>
wee1_decoys_glide_SP

> <s_m_subgroupid>
wee1_decoys_glide_SP


$$$$
