ZINC22122249_1710
                    3D
 Schrodinger Suite 2024-2.
 37 38  0  0  1  0            999 V2000
    3.3887   54.1974   22.6780 C   0  0  0  0  0  0
    2.5194   53.5759   23.7701 C   0  0  0  0  0  0
    2.8182   53.8090   25.1219 C   0  0  0  0  0  0
    1.9720   53.2883   26.0949 C   0  0  0  0  0  0
    0.9125   52.5006   25.8163 N   0  0  0  0  0  0
    0.6644   52.1970   24.5184 C   0  0  0  0  0  0
    1.4286   52.7280   23.4550 C   0  0  0  0  0  0
    1.1153   52.3787   22.0671 C   0  0  0  0  0  0
    0.8642   52.0971   20.9731 N   0  0  0  0  0  0
   -0.6749   51.0506   24.2575 S   0  0  0  0  0  0
   -0.1475   49.4617   24.9824 C   0  0  1  0  0  0
    0.2148   49.5442   26.4802 C   0  0  0  0  0  0
   -1.1518   48.3347   24.6527 C   0  0  0  0  0  0
   -1.2250   47.9356   23.4868 O   0  0  0  0  0  0
   -1.8788   47.8404   25.6817 N   0  0  0  0  0  0
   -2.6441   46.7376   25.6950 C   0  0  0  0  0  0
   -3.0556   46.0968   24.7295 O   0  0  0  0  0  0
   -2.8964   46.3734   26.9446 N   0  0  0  0  0  0
    2.3780   53.7328   27.4786 C   0  0  0  0  0  0
    3.8049   54.2381   27.2664 C   0  0  0  0  0  0
    3.9092   54.6289   25.7877 C   0  0  0  0  0  0
    3.7670   53.4278   22.0038 H   0  0  0  0  0  0
    2.8013   54.8961   22.0819 H   0  0  0  0  0  0
    4.2496   54.7299   23.0798 H   0  0  0  0  0  0
    0.7661   49.1852   24.4526 H   0  0  0  0  0  0
    0.4186   48.5523   26.8817 H   0  0  0  0  0  0
    1.1044   50.1310   26.6584 H   0  0  0  0  0  0
   -0.5811   50.0126   27.0600 H   0  0  0  0  0  0
   -1.6951   48.2308   26.6025 H   0  0  0  0  0  0
   -2.5384   46.9602   27.6990 H   0  0  0  0  0  0
   -3.3754   45.5136   27.1629 H   0  0  0  0  0  0
    2.3506   52.9275   28.2135 H   0  0  0  0  0  0
    1.7269   54.5323   27.8344 H   0  0  0  0  0  0
    4.5071   53.4265   27.4700 H   0  0  0  0  0  0
    4.0668   55.0551   27.9401 H   0  0  0  0  0  0
    3.7249   55.6967   25.6811 H   0  0  0  0  0  0
    4.9077   54.4182   25.4007 H   0  0  0  0  0  0
  1  2  1  0  0  0
  1 22  1  0  0  0
  1 23  1  0  0  0
  1 24  1  0  0  0
  2  7  2  0  0  0
  2  3  1  0  0  0
  3 21  1  0  0  0
  3  4  2  0  0  0
  4  5  1  0  0  0
  4 19  1  0  0  0
  5  6  2  0  0  0
  6  7  1  0  0  0
  6 10  1  0  0  0
  7  8  1  0  0  0
  8  9  3  0  0  0
 10 11  1  0  0  0
 11 12  1  0  0  0
 11 13  1  0  0  0
 11 25  1  0  0  0
 12 26  1  0  0  0
 12 27  1  0  0  0
 12 28  1  0  0  0
 13 14  2  0  0  0
 13 15  1  0  0  0
 15 16  1  0  0  0
 15 29  1  0  0  0
 16 17  2  0  0  0
 16 18  1  0  0  0
 18 30  1  0  0  0
 18 31  1  0  0  0
 19 20  1  0  0  0
 19 32  1  0  0  0
 19 33  1  0  0  0
 20 21  1  0  0  0
 20 34  1  0  0  0
 20 35  1  0  0  0
 21 36  1  0  0  0
 21 37  1  0  0  0
M  END
> <i_i_glide_confnum>
15

> <i_i_glide_lignum>
1711

> <i_i_glide_posenum>
362

> <i_i_glide_rotatable_bonds>
6

> <i_m_Source_File_Index>
3639

> <b_m_subgroup_collapsed>
0

> <r_i_docking_score>
-5.91737

> <r_i_glide_ecoul>
-10.5359

> <r_i_glide_eff_state_penalty>
0

> <r_i_glide_einternal>
9.20877

> <r_i_glide_emodel>
-48.5833

> <r_i_glide_energy>
-37.2311

> <r_i_glide_erotb>
0.79625

> <r_i_glide_esite>
-0.352219

> <r_i_glide_evdw>
-26.6952

> <r_i_glide_gscore>
-5.91737

> <r_i_glide_hbond>
-0.378913

> <r_i_glide_ligand_efficiency>
-0.28178

> <r_i_glide_ligand_efficiency_ln>
-1.46306

> <r_i_glide_ligand_efficiency_sa>
-0.777409

> <r_i_glide_lipo>
-1.65736

> <r_i_glide_metal>
0

> <r_i_glide_rewards>
-1.40999

> <s_i_glide_gridfile>
wee1_glide-grid

> <s_m_Source_File>
wee1_decoys_glide_SP.sdf

> <s_m_Source_Path>
/Users/zhangxujun/Desktop

> <s_m_entry_id>
3914

> <s_m_entry_name>
wee1_decoys_glide_SP.3639

> <s_m_subgroup_title>
wee1_decoys_glide_SP

> <s_m_subgroupid>
wee1_decoys_glide_SP


$$$$
