ZINC39608931_630
                    3D
 Schrodinger Suite 2024-2.
 79 83  0  0  1  0            999 V2000
    0.3051   53.5300   30.6356 C   0  0  0  0  0  0
    1.0130   54.5144   29.9485 C   0  0  0  0  0  0
    1.3248   54.3281   28.6029 C   0  0  0  0  0  0
    0.9325   53.1560   27.9455 C   0  0  0  0  0  0
    0.2169   52.1770   28.6447 C   0  0  0  0  0  0
   -0.0959   52.3649   29.9896 C   0  0  0  0  0  0
    1.2540   52.9312   26.4680 C   0  0  0  0  0  0
    2.3212   53.7720   26.0346 O   0  0  0  0  0  0
    2.9182   53.4368   24.7821 C   0  0  2  0  0  0
    3.0366   52.3598   24.7519 H   0  0  0  0  0  0
    4.2886   54.1108   24.7066 C   0  0  0  0  0  0
    4.6146   54.1218   23.2123 C   0  0  0  0  0  0
    3.2683   54.2937   22.4935 C   0  0  0  0  0  0
    2.1647   53.9681   23.5341 C   0  0  1  0  0  0
    1.7319   54.9129   23.8623 H   0  0  0  0  0  0
    1.1083   53.0651   23.0451 N   0  0  0  0  0  0
    1.2913   51.8533   22.4887 C   0  0  0  0  0  0
    2.4100   51.3883   22.2656 O   0  0  0  0  0  0
    0.0108   51.0578   22.1236 C   0  0  1  0  0  0
   -0.7753   51.7626   21.8453 H   0  0  0  0  0  0
    0.3145   50.1343   20.9194 C   0  0  0  0  0  0
   -0.5468   48.9717   21.1450 N   0  0  0  0  0  0
   -1.2565   49.0311   22.4234 C   0  0  0  0  0  0
   -0.4813   50.0892   23.2397 C   0  0  0  0  0  0
   -1.3521   50.8117   24.3017 C   0  0  0  0  0  0
   -1.8756   49.8561   25.3918 C   0  0  0  0  0  0
   -0.6517   49.2236   26.0817 N   0  3  0  0  0  0
    0.2519   48.4442   25.1082 C   0  0  0  0  0  0
    0.7038   49.4217   24.0163 C   0  0  0  0  0  0
   -0.6152   47.9010   20.3192 C   0  0  0  0  0  0
   -1.3326   46.9298   20.5700 O   0  0  0  0  0  0
    0.2510   47.9047   19.0423 C   0  0  0  0  0  0
    0.2260   46.5937   18.2186 C   0  0  0  0  0  0
    1.4397   46.4502   17.2786 C   0  0  0  0  0  0
    1.4647   45.1394   16.4826 C   0  0  0  0  0  0
    2.4714   45.3805   15.3537 C   0  0  0  0  0  0
    2.4532   46.8947   15.0933 C   0  0  0  0  0  0
    1.5543   47.5107   16.1755 C   0  0  0  0  0  0
    0.0572   53.6668   31.6787 H   0  0  0  0  0  0
    1.3094   55.4221   30.4542 H   0  0  0  0  0  0
    1.8676   55.0990   28.0769 H   0  0  0  0  0  0
   -0.1011   51.2694   28.1554 H   0  0  0  0  0  0
   -0.6516   51.6126   30.5340 H   0  0  0  0  0  0
    0.3682   53.1454   25.8716 H   0  0  0  0  0  0
    1.5048   51.8794   26.3271 H   0  0  0  0  0  0
    4.2558   55.1210   25.1201 H   0  0  0  0  0  0
    5.0446   53.5466   25.2541 H   0  0  0  0  0  0
    5.3344   54.8966   22.9484 H   0  0  0  0  0  0
    5.0619   53.1666   22.9273 H   0  0  0  0  0  0
    3.2476   53.6469   21.6169 H   0  0  0  0  0  0
    3.1437   55.2967   22.1034 H   0  0  0  0  0  0
    0.1617   53.3639   23.2161 H   0  0  0  0  0  0
    1.3321   49.7393   20.9617 H   0  0  0  0  0  0
    0.1180   50.6321   19.9688 H   0  0  0  0  0  0
   -2.2514   49.4297   22.2208 H   0  0  0  0  0  0
   -1.3788   48.0840   22.9493 H   0  0  0  0  0  0
   -0.8027   51.6348   24.7530 H   0  0  0  0  0  0
   -2.2083   51.2784   23.8136 H   0  0  0  0  0  0
   -2.4275   50.3751   26.1771 H   0  0  0  0  0  0
   -2.4862   49.0359   25.0080 H   0  0  0  0  0  0
   -0.1031   49.9639   26.4930 H   0  0  0  0  0  0
    1.1042   48.0977   25.6871 H   0  0  0  0  0  0
   -0.3113   47.5815   24.7522 H   0  0  0  0  0  0
    1.3550   48.8955   23.3169 H   0  0  0  0  0  0
    1.3517   50.1626   24.4826 H   0  0  0  0  0  0
    1.2802   48.0917   19.3530 H   0  0  0  0  0  0
   -0.0487   48.7383   18.4062 H   0  0  0  0  0  0
   -0.7028   46.5396   17.6464 H   0  0  0  0  0  0
    0.2224   45.7294   18.8860 H   0  0  0  0  0  0
    2.3648   46.4972   17.8556 H   0  0  0  0  0  0
    0.4822   44.9714   16.0367 H   0  0  0  0  0  0
    1.6647   44.2610   17.0948 H   0  0  0  0  0  0
    2.2302   44.8022   14.4610 H   0  0  0  0  0  0
    3.4674   45.0765   15.6817 H   0  0  0  0  0  0
    2.0867   47.1321   14.0938 H   0  0  0  0  0  0
    3.4653   47.2969   15.1704 H   0  0  0  0  0  0
    1.9013   48.4771   16.5477 H   0  0  0  0  0  0
    0.5692   47.6805   15.7356 H   0  0  0  0  0  0
   -0.9410   48.6598   26.8977 H   0  0  0  0  0  0
  1  6  2  0  0  0
  1  2  1  0  0  0
  1 39  1  0  0  0
  2  3  2  0  0  0
  2 40  1  0  0  0
  3  4  1  0  0  0
  3 41  1  0  0  0
  4  5  2  0  0  0
  4  7  1  0  0  0
  5  6  1  0  0  0
  5 42  1  0  0  0
  6 43  1  0  0  0
  7  8  1  0  0  0
  7 44  1  0  0  0
  7 45  1  0  0  0
  8  9  1  0  0  0
  9 10  1  0  0  0
  9 14  1  0  0  0
  9 11  1  0  0  0
 11 12  1  0  0  0
 11 46  1  0  0  0
 11 47  1  0  0  0
 12 13  1  0  0  0
 12 48  1  0  0  0
 12 49  1  0  0  0
 13 14  1  0  0  0
 13 50  1  0  0  0
 13 51  1  0  0  0
 14 15  1  0  0  0
 14 16  1  0  0  0
 16 17  1  0  0  0
 16 52  1  0  0  0
 17 18  2  0  0  0
 17 19  1  0  0  0
 19 20  1  0  0  0
 19 24  1  0  0  0
 19 21  1  0  0  0
 21 22  1  0  0  0
 21 53  1  0  0  0
 21 54  1  0  0  0
 22 23  1  0  0  0
 22 30  1  0  0  0
 23 24  1  0  0  0
 23 55  1  0  0  0
 23 56  1  0  0  0
 24 29  1  0  0  0
 24 25  1  0  0  0
 25 26  1  0  0  0
 25 57  1  0  0  0
 25 58  1  0  0  0
 26 27  1  0  0  0
 26 59  1  0  0  0
 26 60  1  0  0  0
 27 28  1  0  0  0
 27 61  1  0  0  0
 27 79  1  0  0  0
 28 29  1  0  0  0
 28 62  1  0  0  0
 28 63  1  0  0  0
 29 64  1  0  0  0
 29 65  1  0  0  0
 30 31  2  0  0  0
 30 32  1  0  0  0
 32 33  1  0  0  0
 32 66  1  0  0  0
 32 67  1  0  0  0
 33 34  1  0  0  0
 33 68  1  0  0  0
 33 69  1  0  0  0
 34 38  1  0  0  0
 34 35  1  0  0  0
 34 70  1  0  0  0
 35 36  1  0  0  0
 35 71  1  0  0  0
 35 72  1  0  0  0
 36 37  1  0  0  0
 36 73  1  0  0  0
 36 74  1  0  0  0
 37 38  1  0  0  0
 37 75  1  0  0  0
 37 76  1  0  0  0
 38 77  1  0  0  0
 38 78  1  0  0  0
M  CHG  1  27   1
M  END
> <i_i_glide_confnum>
2036

> <i_i_glide_lignum>
631

> <i_i_glide_posenum>
24

> <i_i_glide_rotatable_bonds>
10

> <i_m_Source_File_Index>
4875

> <b_m_subgroup_collapsed>
0

> <r_i_docking_score>
-4.2079

> <r_i_glide_ecoul>
-5.29478

> <r_i_glide_eff_state_penalty>
0

> <r_i_glide_einternal>
7.03973

> <r_i_glide_emodel>
-51.1834

> <r_i_glide_energy>
-41.2644

> <r_i_glide_erotb>
0.784012

> <r_i_glide_esite>
-0.1

> <r_i_glide_evdw>
-35.9696

> <r_i_glide_gscore>
-4.2079

> <r_i_glide_hbond>
-0.2

> <r_i_glide_ligand_efficiency>
-0.120226

> <r_i_glide_ligand_efficiency_ln>
-0.923728

> <r_i_glide_ligand_efficiency_sa>
-0.393266

> <r_i_glide_lipo>
-1.86694

> <r_i_glide_metal>
0

> <r_i_glide_rewards>
-0.232275

> <s_i_glide_gridfile>
wee1_glide-grid

> <s_m_Source_File>
wee1_decoys_glide_SP.sdf

> <s_m_Source_Path>
/Users/zhangxujun/Desktop

> <s_m_entry_id>
5150

> <s_m_entry_name>
wee1_decoys_glide_SP.4875

> <s_m_subgroup_title>
wee1_decoys_glide_SP

> <s_m_subgroupid>
wee1_decoys_glide_SP


$$$$
