ZINC39686586_648
                    3D
 Schrodinger Suite 2024-2.
 69 72  0  0  1  0            999 V2000
   -4.3187   46.0413   26.7767 C   0  0  0  0  0  0
   -3.5430   46.5359   25.5665 C   0  0  0  0  0  0
   -2.1816   46.8177   25.6823 C   0  0  0  0  0  0
   -1.4611   47.2832   24.5862 C   0  0  0  0  0  0
   -2.0923   47.4828   23.3508 C   0  0  0  0  0  0
   -3.4629   47.1976   23.2325 C   0  0  0  0  0  0
   -4.1806   46.7228   24.3341 C   0  0  0  0  0  0
   -5.4998   46.4404   24.2036 F   0  0  0  0  0  0
   -4.1079   47.3796   22.0548 F   0  0  0  0  0  0
   -1.2984   47.9721   22.1647 C   0  0  0  0  0  0
   -1.2953   47.2859   21.1408 O   0  0  0  0  0  0
   -0.5753   49.1173   22.2749 N   0  0  0  0  0  0
   -0.6061   50.0701   23.3863 C   0  0  0  0  0  0
    0.7677   50.7612   23.2788 C   0  0  1  0  0  0
    1.5124   50.1326   23.7738 H   0  0  0  0  0  0
    1.0588   50.8146   21.7479 C   0  0  0  0  0  0
    0.4306   49.4757   21.2736 C   0  0  0  0  0  0
    2.5691   50.9276   21.4350 C   0  0  0  0  0  0
    2.8493   50.7773   19.9251 C   0  0  0  0  0  0
    2.1081   51.9087   19.1776 N   0  3  0  0  0  0
    0.5947   51.9912   19.4885 C   0  0  0  0  0  0
    0.4021   52.0336   21.0216 C   0  0  0  0  0  0
    0.6914   52.1268   24.0082 C   0  0  0  0  0  0
   -0.3213   52.8307   23.9561 O   0  0  0  0  0  0
    1.7560   52.4514   24.7580 N   0  0  0  0  0  0
    1.8991   53.6638   25.5652 C   0  0  1  0  0  0
    1.4047   54.4900   25.0465 H   0  0  0  0  0  0
    1.2407   53.4487   26.9428 C   0  0  0  0  0  0
    3.3810   54.0728   25.7535 C   0  0  0  0  0  0
    4.2735   54.2450   24.5175 C   0  0  0  0  0  0
    3.7857   54.0991   23.2084 C   0  0  0  0  0  0
    4.6376   54.2078   22.1092 C   0  0  0  0  0  0
    5.9817   54.5001   22.3063 C   0  0  0  0  0  0
    6.4722   54.6938   23.5948 C   0  0  0  0  0  0
    5.6304   54.5646   24.7025 C   0  0  0  0  0  0
    6.1433   54.8204   25.9526 O   0  0  0  0  0  0
    6.7071   53.6959   26.6103 C   0  0  0  0  0  0
   -3.6813   45.9199   27.6577 H   0  0  0  0  0  0
   -5.1135   46.7483   27.0268 H   0  0  0  0  0  0
   -4.7926   45.0809   26.5646 H   0  0  0  0  0  0
   -1.6786   46.6955   26.6298 H   0  0  0  0  0  0
   -0.4058   47.4841   24.7163 H   0  0  0  0  0  0
   -0.7474   49.6573   24.3857 H   0  0  0  0  0  0
   -1.4116   50.7736   23.1538 H   0  0  0  0  0  0
    0.0924   49.4634   20.2382 H   0  0  0  0  0  0
    1.2071   48.7131   21.3570 H   0  0  0  0  0  0
    2.9934   51.8469   21.8344 H   0  0  0  0  0  0
    3.1043   50.1223   21.9408 H   0  0  0  0  0  0
    3.9050   50.9046   19.6826 H   0  0  0  0  0  0
    2.5046   49.8320   19.5014 H   0  0  0  0  0  0
    2.5322   52.7922   19.4283 H   0  0  0  0  0  0
    0.2363   52.9028   19.0051 H   0  0  0  0  0  0
    0.1265   51.1378   18.9986 H   0  0  0  0  0  0
   -0.6694   52.0409   21.2251 H   0  0  0  0  0  0
    0.7734   52.9816   21.4113 H   0  0  0  0  0  0
    2.5650   51.8508   24.7270 H   0  0  0  0  0  0
    1.2799   54.3596   27.5428 H   0  0  0  0  0  0
    0.1951   53.1485   26.8602 H   0  0  0  0  0  0
    1.7624   52.6792   27.5126 H   0  0  0  0  0  0
    3.8529   53.3087   26.3693 H   0  0  0  0  0  0
    3.4333   54.9953   26.3330 H   0  0  0  0  0  0
    2.7419   53.9190   23.0088 H   0  0  0  0  0  0
    4.2494   54.0903   21.1106 H   0  0  0  0  0  0
    6.6427   54.6028   21.4578 H   0  0  0  0  0  0
    7.5042   54.9611   23.7416 H   0  0  0  0  0  0
    7.2968   54.0328   27.4618 H   0  0  0  0  0  0
    5.9427   53.0176   26.9883 H   0  0  0  0  0  0
    7.3670   53.1270   25.9562 H   0  0  0  0  0  0
    2.2587   51.7975   18.1827 H   0  0  0  0  0  0
  1  2  1  0  0  0
  1 38  1  0  0  0
  1 39  1  0  0  0
  1 40  1  0  0  0
  2  7  2  0  0  0
  2  3  1  0  0  0
  3  4  2  0  0  0
  3 41  1  0  0  0
  4  5  1  0  0  0
  4 42  1  0  0  0
  5  6  2  0  0  0
  5 10  1  0  0  0
  6  7  1  0  0  0
  6  9  1  0  0  0
  7  8  1  0  0  0
 10 11  2  0  0  0
 10 12  1  0  0  0
 12 17  1  0  0  0
 12 13  1  0  0  0
 13 14  1  0  0  0
 13 43  1  0  0  0
 13 44  1  0  0  0
 14 15  1  0  0  0
 14 16  1  0  0  0
 14 23  1  0  0  0
 16 22  1  0  0  0
 16 17  1  0  0  0
 16 18  1  0  0  0
 17 45  1  0  0  0
 17 46  1  0  0  0
 18 19  1  0  0  0
 18 47  1  0  0  0
 18 48  1  0  0  0
 19 20  1  0  0  0
 19 49  1  0  0  0
 19 50  1  0  0  0
 20 21  1  0  0  0
 20 51  1  0  0  0
 20 69  1  0  0  0
 21 22  1  0  0  0
 21 52  1  0  0  0
 21 53  1  0  0  0
 22 54  1  0  0  0
 22 55  1  0  0  0
 23 24  2  0  0  0
 23 25  1  0  0  0
 25 26  1  0  0  0
 25 56  1  0  0  0
 26 27  1  0  0  0
 26 28  1  0  0  0
 26 29  1  0  0  0
 28 57  1  0  0  0
 28 58  1  0  0  0
 28 59  1  0  0  0
 29 30  1  0  0  0
 29 60  1  0  0  0
 29 61  1  0  0  0
 30 35  2  0  0  0
 30 31  1  0  0  0
 31 32  2  0  0  0
 31 62  1  0  0  0
 32 33  1  0  0  0
 32 63  1  0  0  0
 33 34  2  0  0  0
 33 64  1  0  0  0
 34 35  1  0  0  0
 34 65  1  0  0  0
 35 36  1  0  0  0
 36 37  1  0  0  0
 37 66  1  0  0  0
 37 67  1  0  0  0
 37 68  1  0  0  0
M  CHG  1  20   1
M  END
> <i_i_glide_confnum>
27

> <i_i_glide_lignum>
649

> <i_i_glide_posenum>
172

> <i_i_glide_rotatable_bonds>
8

> <i_m_Source_File_Index>
3084

> <b_m_subgroup_collapsed>
0

> <r_i_docking_score>
-4.6812

> <r_i_glide_ecoul>
-5.30292

> <r_i_glide_eff_state_penalty>
0

> <r_i_glide_einternal>
12.3627

> <r_i_glide_emodel>
-50.6057

> <r_i_glide_energy>
-42.2077

> <r_i_glide_erotb>
0.600887

> <r_i_glide_esite>
-0.030838

> <r_i_glide_evdw>
-36.9048

> <r_i_glide_gscore>
-4.6812

> <r_i_glide_hbond>
0

> <r_i_glide_ligand_efficiency>
-0.133749

> <r_i_glide_ligand_efficiency_ln>
-1.02763

> <r_i_glide_ligand_efficiency_sa>
-0.437501

> <r_i_glide_lipo>
-2.33599

> <r_i_glide_metal>
0

> <r_i_glide_rewards>
-0.274581

> <s_i_glide_gridfile>
wee1_glide-grid

> <s_m_Source_File>
wee1_decoys_glide_SP.sdf

> <s_m_Source_Path>
/Users/zhangxujun/Desktop

> <s_m_entry_id>
3359

> <s_m_entry_name>
wee1_decoys_glide_SP.3084

> <s_m_subgroup_title>
wee1_decoys_glide_SP

> <s_m_subgroupid>
wee1_decoys_glide_SP


$$$$
