ZINC27500571_2764
                    3D
 Schrodinger Suite 2024-2.
 54 57  0  0  1  0            999 V2000
   -1.8513   50.3797   23.2705 C   0  0  0  0  0  0
   -1.3155   50.9058   24.5892 C   0  0  0  0  0  0
   -0.2177   50.2886   25.1912 C   0  0  0  0  0  0
    0.2767   50.7789   26.3966 C   0  0  0  0  0  0
   -0.3134   51.8952   26.9917 C   0  0  0  0  0  0
   -1.4229   52.4967   26.4017 C   0  0  0  0  0  0
   -1.9175   52.0101   25.1951 C   0  0  0  0  0  0
    0.3505   52.5002   28.5426 S   0  0  0  0  0  0
    0.5568   51.3025   29.3462 O   0  0  0  0  0  0
   -0.4836   53.6034   29.0178 O   0  0  0  0  0  0
    1.9410   53.1506   28.1584 N   0  0  0  0  0  0
    2.1593   54.6100   28.0775 C   0  0  0  0  0  0
    3.3601   55.0282   28.9379 C   0  0  0  0  0  0
    4.6873   54.2362   28.7244 C   0  0  0  0  0  0
    4.3383   52.7309   28.8710 C   0  0  0  0  0  0
    3.1015   52.2369   28.0862 C   0  0  0  0  0  0
    5.3310   54.4969   27.3290 C   0  0  0  0  0  0
    6.4974   54.8956   27.2778 O   0  0  0  0  0  0
    4.5829   54.2708   26.2293 N   0  0  0  0  0  0
    5.0075   54.4619   24.9632 N   0  0  0  0  0  0
    4.1323   54.0967   24.1183 C   0  0  0  0  0  0
    4.3744   54.0965   22.6785 C   0  0  0  0  0  0
    3.5149   53.5894   21.7205 C   0  0  0  0  0  0
    4.0360   53.7443   20.4625 N   0  0  0  0  0  0
    3.5520   53.4433   19.6284 H   0  0  0  0  0  0
    5.2481   54.3864   20.5395 C   0  0  0  0  0  0
    5.5080   54.5999   21.9298 C   0  0  0  0  0  0
    6.7136   55.2345   22.2824 C   0  0  0  0  0  0
    7.5983   55.6358   21.2825 C   0  0  0  0  0  0
    7.3098   55.4189   19.9380 C   0  0  0  0  0  0
    6.1324   54.7915   19.5327 C   0  0  0  0  0  0
   -1.0657   49.8942   22.6908 H   0  0  0  0  0  0
   -2.6550   49.6645   23.4447 H   0  0  0  0  0  0
   -2.2363   51.1927   22.6544 H   0  0  0  0  0  0
    0.2445   49.4216   24.7405 H   0  0  0  0  0  0
    1.1041   50.2785   26.8775 H   0  0  0  0  0  0
   -1.9033   53.3365   26.8794 H   0  0  0  0  0  0
   -2.7734   52.4848   24.7390 H   0  0  0  0  0  0
    1.2619   55.1334   28.4076 H   0  0  0  0  0  0
    2.2847   54.8874   27.0333 H   0  0  0  0  0  0
    3.0883   54.9189   29.9878 H   0  0  0  0  0  0
    3.5044   56.0967   28.9087 H   0  0  0  0  0  0
    5.4488   54.5493   29.4417 H   0  0  0  0  0  0
    5.2173   52.1123   28.6836 H   0  0  0  0  0  0
    4.2077   52.5283   29.9351 H   0  0  0  0  0  0
    2.7974   51.2557   28.4430 H   0  0  0  0  0  0
    3.3218   52.1063   27.0345 H   0  0  0  0  0  0
    3.6467   53.9076   26.3214 H   0  0  0  0  0  0
    3.1395   53.7258   24.3727 H   0  0  0  0  0  0
    2.5470   53.1209   21.8297 H   0  0  0  0  0  0
    6.9623   55.4061   23.3193 H   0  0  0  0  0  0
    8.5361   56.0966   21.5598 H   0  0  0  0  0  0
    8.0255   55.7330   19.1921 H   0  0  0  0  0  0
    5.9247   54.6201   18.4864 H   0  0  0  0  0  0
  1  2  1  0  0  0
  1 32  1  0  0  0
  1 33  1  0  0  0
  1 34  1  0  0  0
  2  7  2  0  0  0
  2  3  1  0  0  0
  3  4  2  0  0  0
  3 35  1  0  0  0
  4  5  1  0  0  0
  4 36  1  0  0  0
  5  6  2  0  0  0
  5  8  1  0  0  0
  6  7  1  0  0  0
  6 37  1  0  0  0
  7 38  1  0  0  0
  8  9  2  0  0  0
  8 10  2  0  0  0
  8 11  1  0  0  0
 11 16  1  0  0  0
 11 12  1  0  0  0
 12 13  1  0  0  0
 12 39  1  0  0  0
 12 40  1  0  0  0
 13 14  1  0  0  0
 13 41  1  0  0  0
 13 42  1  0  0  0
 14 15  1  0  0  0
 14 17  1  0  0  0
 14 43  1  0  0  0
 15 16  1  0  0  0
 15 44  1  0  0  0
 15 45  1  0  0  0
 16 46  1  0  0  0
 16 47  1  0  0  0
 17 18  2  0  0  0
 17 19  1  0  0  0
 19 20  1  0  0  0
 19 48  1  0  0  0
 20 21  2  0  0  0
 21 22  1  0  0  0
 21 49  1  0  0  0
 22 27  1  0  0  0
 22 23  2  0  0  0
 23 24  1  0  0  0
 23 50  1  0  0  0
 24 25  1  0  0  0
 24 26  1  0  0  0
 26 31  2  0  0  0
 26 27  1  0  0  0
 27 28  2  0  0  0
 28 29  1  0  0  0
 28 51  1  0  0  0
 29 30  2  0  0  0
 29 52  1  0  0  0
 30 31  1  0  0  0
 30 53  1  0  0  0
 31 54  1  0  0  0
M  END
> <i_i_glide_confnum>
139

> <i_i_glide_lignum>
2765

> <i_i_glide_posenum>
346

> <i_i_glide_rotatable_bonds>
6

> <i_m_Source_File_Index>
1659

> <b_m_subgroup_collapsed>
0

> <r_i_docking_score>
-5.38003

> <r_i_glide_ecoul>
-4.12439

> <r_i_glide_eff_state_penalty>
0

> <r_i_glide_einternal>
9.04923

> <r_i_glide_emodel>
-54.5539

> <r_i_glide_energy>
-42.5206

> <r_i_glide_erotb>
0.55015

> <r_i_glide_esite>
-0.00795282

> <r_i_glide_evdw>
-38.3963

> <r_i_glide_gscore>
-5.38003

> <r_i_glide_hbond>
0

> <r_i_glide_ligand_efficiency>
-0.179334

> <r_i_glide_ligand_efficiency_ln>
-1.2224

> <r_i_glide_ligand_efficiency_sa>
-0.557234

> <r_i_glide_lipo>
-2.20645

> <r_i_glide_metal>
0

> <r_i_glide_rewards>
-1.17731

> <s_i_glide_gridfile>
wee1_glide-grid

> <s_m_Source_File>
wee1_decoys_glide_SP.sdf

> <s_m_Source_Path>
/Users/zhangxujun/Desktop

> <s_m_entry_id>
1934

> <s_m_entry_name>
wee1_decoys_glide_SP.1659

> <s_m_subgroup_title>
wee1_decoys_glide_SP

> <s_m_subgroupid>
wee1_decoys_glide_SP


$$$$
