ZINC54939202_1335
                    3D
 Schrodinger Suite 2024-2.
 54 57  0  0  1  0            999 V2000
    2.7042   51.7653   18.6402 C   0  0  0  0  0  0
    2.6004   51.0103   19.9875 C   0  0  2  0  0  0
    3.2466   50.1308   19.9159 H   0  0  0  0  0  0
    1.1840   50.5414   20.3120 C   0  0  0  0  0  0
    0.1125   51.4454   20.3173 C   0  0  0  0  0  0
   -1.1737   51.0005   20.6156 C   0  0  0  0  0  0
   -1.3929   49.6540   20.8965 C   0  0  0  0  0  0
   -0.3347   48.7451   20.8837 C   0  0  0  0  0  0
    0.9534   49.1899   20.5926 C   0  0  0  0  0  0
    3.2360   51.7864   21.1740 N   0  3  1  0  0  0
    4.7738   51.8407   21.1727 C   0  0  0  0  0  0
    5.1480   53.0773   21.9983 C   0  0  0  0  0  0
    3.8537   53.8363   22.3312 C   0  0  1  0  0  0
    3.9847   54.8982   22.1042 H   0  0  0  0  0  0
    2.8056   53.2514   21.3784 C   0  0  0  0  0  0
    3.4537   53.7102   23.7424 N   0  0  0  0  0  0
    4.1284   54.2618   24.7849 C   0  0  0  0  0  0
    5.1757   54.8944   24.6257 O   0  0  0  0  0  0
    3.5712   54.0463   26.1611 C   0  0  0  0  0  0
    4.2887   54.1924   27.1551 O   0  0  0  0  0  0
    2.2616   53.6927   26.2263 N   0  0  0  0  0  0
    1.5548   53.3623   27.3979 C   0  0  0  0  0  0
    0.9306   52.1136   27.4240 C   0  0  0  0  0  0
    0.1991   51.6967   28.5300 C   0  0  0  0  0  0
    0.0729   52.5104   29.6496 C   0  0  0  0  0  0
    0.6580   53.7995   29.6579 C   0  0  0  0  0  0
    1.3998   54.2487   28.5173 C   0  0  0  0  0  0
    1.9329   55.5049   28.4837 N   0  0  0  0  0  0
    1.7873   56.3148   29.5545 C   0  0  0  0  0  0
    1.1045   55.9433   30.7024 C   0  0  0  0  0  0
    0.5303   54.6749   30.7658 C   0  0  0  0  0  0
    2.4215   51.1043   17.8198 H   0  0  0  0  0  0
    2.0512   52.6355   18.5847 H   0  0  0  0  0  0
    3.7206   52.0963   18.4225 H   0  0  0  0  0  0
    0.2689   52.4910   20.0921 H   0  0  0  0  0  0
   -2.0029   51.6938   20.6254 H   0  0  0  0  0  0
   -2.3914   49.3078   21.1251 H   0  0  0  0  0  0
   -0.5153   47.7009   21.0992 H   0  0  0  0  0  0
    1.7669   48.4759   20.5823 H   0  0  0  0  0  0
    5.1114   51.9267   20.1379 H   0  0  0  0  0  0
    5.1046   50.8979   21.5960 H   0  0  0  0  0  0
    5.7783   53.7161   21.3760 H   0  0  0  0  0  0
    5.7430   52.8234   22.8801 H   0  0  0  0  0  0
    1.7690   53.2840   21.7140 H   0  0  0  0  0  0
    2.8666   53.6968   20.3898 H   0  0  0  0  0  0
    2.6223   53.1706   23.9175 H   0  0  0  0  0  0
    1.7514   53.5631   25.3700 H   0  0  0  0  0  0
    1.0157   51.4419   26.5815 H   0  0  0  0  0  0
   -0.2695   50.7213   28.5195 H   0  0  0  0  0  0
   -0.4887   52.1721   30.5106 H   0  0  0  0  0  0
    2.2555   57.2861   29.4899 H   0  0  0  0  0  0
    1.0777   56.6200   31.5436 H   0  0  0  0  0  0
   -0.0020   54.3537   31.6508 H   0  0  0  0  0  0
    2.9472   51.2810   22.0005 H   0  0  0  0  0  0
  1  2  1  0  0  0
  1 32  1  0  0  0
  1 33  1  0  0  0
  1 34  1  0  0  0
  2  3  1  0  0  0
  2  4  1  0  0  0
  2 10  1  0  0  0
  4  9  2  0  0  0
  4  5  1  0  0  0
  5  6  2  0  0  0
  5 35  1  0  0  0
  6  7  1  0  0  0
  6 36  1  0  0  0
  7  8  2  0  0  0
  7 37  1  0  0  0
  8  9  1  0  0  0
  8 38  1  0  0  0
  9 39  1  0  0  0
 10 15  1  0  0  0
 10 11  1  0  0  0
 10 54  1  0  0  0
 11 12  1  0  0  0
 11 40  1  0  0  0
 11 41  1  0  0  0
 12 13  1  0  0  0
 12 42  1  0  0  0
 12 43  1  0  0  0
 13 14  1  0  0  0
 13 15  1  0  0  0
 13 16  1  0  0  0
 15 44  1  0  0  0
 15 45  1  0  0  0
 16 17  1  0  0  0
 16 46  1  0  0  0
 17 18  2  0  0  0
 17 19  1  0  0  0
 19 20  2  0  0  0
 19 21  1  0  0  0
 21 22  1  0  0  0
 21 47  1  0  0  0
 22 27  2  0  0  0
 22 23  1  0  0  0
 23 24  2  0  0  0
 23 48  1  0  0  0
 24 25  1  0  0  0
 24 49  1  0  0  0
 25 26  2  0  0  0
 25 50  1  0  0  0
 26 31  1  0  0  0
 26 27  1  0  0  0
 27 28  1  0  0  0
 28 29  2  0  0  0
 29 30  1  0  0  0
 29 51  1  0  0  0
 30 31  2  0  0  0
 30 52  1  0  0  0
 31 53  1  0  0  0
M  CHG  1  10   1
M  END
> <i_i_glide_confnum>
2

> <i_i_glide_lignum>
1336

> <i_i_glide_posenum>
25

> <i_i_glide_rotatable_bonds>
7

> <i_m_Source_File_Index>
2379

> <b_m_subgroup_collapsed>
0

> <r_i_docking_score>
-5.04555

> <r_i_glide_ecoul>
-3.0386

> <r_i_glide_eff_state_penalty>
0

> <r_i_glide_einternal>
15.0816

> <r_i_glide_emodel>
-51.7614

> <r_i_glide_energy>
-43.7808

> <r_i_glide_erotb>
0.771111

> <r_i_glide_esite>
-0.00561206

> <r_i_glide_evdw>
-40.7422

> <r_i_glide_gscore>
-5.04555

> <r_i_glide_hbond>
0

> <r_i_glide_ligand_efficiency>
-0.173984

> <r_i_glide_ligand_efficiency_ln>
-1.1553

> <r_i_glide_ligand_efficiency_sa>
-0.534535

> <r_i_glide_lipo>
-1.96409

> <r_i_glide_metal>
0

> <r_i_glide_rewards>
-1.35406

> <s_i_glide_gridfile>
wee1_glide-grid

> <s_m_Source_File>
wee1_decoys_glide_SP.sdf

> <s_m_Source_Path>
/Users/zhangxujun/Desktop

> <s_m_entry_id>
2654

> <s_m_entry_name>
wee1_decoys_glide_SP.2379

> <s_m_subgroup_title>
wee1_decoys_glide_SP

> <s_m_subgroupid>
wee1_decoys_glide_SP


$$$$
