ZINC00650837_2329
                    3D
 Schrodinger Suite 2024-2.
 57 61  0  0  1  0            999 V2000
    1.0623   57.1262   16.2009 C   0  0  0  0  0  0
    0.7533   55.7885   15.8205 O   0  0  0  0  0  0
    1.6029   54.7665   16.1958 C   0  0  0  0  0  0
    1.3245   53.5018   15.6739 C   0  0  0  0  0  0
    2.1418   52.4119   15.9708 C   0  0  0  0  0  0
    3.2484   52.5785   16.7990 C   0  0  0  0  0  0
    3.5391   53.8298   17.3519 C   0  0  0  0  0  0
    2.7094   54.9189   17.0487 C   0  0  0  0  0  0
    4.7500   53.9950   18.2722 C   0  0  1  0  0  0
    5.2726   53.0354   18.2166 H   0  0  0  0  0  0
    5.7225   55.1043   17.8017 C   0  0  0  0  0  0
    6.9830   55.2403   18.6885 C   0  0  2  0  0  0
    7.6020   54.3585   18.5138 H   0  0  0  0  0  0
    6.5432   55.1631   20.0901 N   0  0  0  0  0  0
    5.3865   54.5564   20.5576 C   0  0  0  0  0  0
    5.4700   54.5661   21.9496 C   0  0  0  0  0  0
    6.7271   55.1535   22.1983 C   0  0  0  0  0  0
    7.3622   55.4891   21.1059 N   0  0  0  0  0  0
    4.4823   54.0966   22.8971 C   0  0  0  0  0  0
    3.4394   53.5706   22.5133 O   0  0  0  0  0  0
    4.8210   54.3255   24.1856 N   0  0  0  0  0  0
    4.0849   54.0594   25.3371 C   0  0  0  0  0  0
    4.5928   54.0416   26.6422 C   0  0  0  0  0  0
    3.6220   53.6805   27.6033 C   0  0  0  0  0  0
    2.3608   53.4672   27.0272 C   0  0  0  0  0  0
    2.3755   53.6960   25.3122 S   0  0  0  0  0  0
    1.0938   53.1163   27.7977 C   0  0  0  0  0  0
    1.4932   52.5207   29.1621 C   0  0  0  0  0  0
    2.5231   53.4086   29.8834 C   0  0  0  0  0  0
    3.8615   53.5323   29.1115 C   0  0  0  0  0  0
    5.9921   54.2971   26.9591 C   0  0  0  0  0  0
    7.1042   54.4971   27.2030 N   0  0  0  0  0  0
    4.3903   54.1537   19.6824 N   0  0  0  0  0  0
    7.8534   56.4769   18.3446 C   0  0  0  0  0  0
    8.1062   56.5344   17.0389 F   0  0  0  0  0  0
    7.2443   57.6163   18.6777 F   0  0  0  0  0  0
    9.0310   56.4484   18.9667 F   0  0  0  0  0  0
    0.3266   57.8054   15.7733 H   0  0  0  0  0  0
    1.0258   57.2494   17.2812 H   0  0  0  0  0  0
    2.0446   57.4332   15.8363 H   0  0  0  0  0  0
    0.4726   53.3689   15.0256 H   0  0  0  0  0  0
    1.9222   51.4386   15.5570 H   0  0  0  0  0  0
    3.8735   51.7201   17.0131 H   0  0  0  0  0  0
    2.9353   55.8803   17.4829 H   0  0  0  0  0  0
    5.2064   56.0655   17.7619 H   0  0  0  0  0  0
    6.0239   54.9202   16.7684 H   0  0  0  0  0  0
    7.1848   55.3324   23.1596 H   0  0  0  0  0  0
    5.7651   54.6394   24.3411 H   0  0  0  0  0  0
    0.4697   52.4135   27.2449 H   0  0  0  0  0  0
    0.4950   54.0129   27.9514 H   0  0  0  0  0  0
    1.8987   51.5163   29.0252 H   0  0  0  0  0  0
    0.6025   52.4026   29.7819 H   0  0  0  0  0  0
    2.7107   53.0087   30.8797 H   0  0  0  0  0  0
    2.0935   54.4036   30.0277 H   0  0  0  0  0  0
    4.4339   54.3722   29.5039 H   0  0  0  0  0  0
    4.4640   52.6404   29.2901 H   0  0  0  0  0  0
    3.7561   53.4325   19.9954 H   0  0  0  0  0  0
  1  2  1  0  0  0
  1 38  1  0  0  0
  1 39  1  0  0  0
  1 40  1  0  0  0
  2  3  1  0  0  0
  3  8  2  0  0  0
  3  4  1  0  0  0
  4  5  2  0  0  0
  4 41  1  0  0  0
  5  6  1  0  0  0
  5 42  1  0  0  0
  6  7  2  0  0  0
  6 43  1  0  0  0
  7  8  1  0  0  0
  7  9  1  0  0  0
  8 44  1  0  0  0
  9 10  1  0  0  0
  9 33  1  0  0  0
  9 11  1  0  0  0
 11 12  1  0  0  0
 11 45  1  0  0  0
 11 46  1  0  0  0
 12 13  1  0  0  0
 12 14  1  0  0  0
 12 34  1  0  0  0
 14 18  1  0  0  0
 14 15  1  0  0  0
 15 16  2  0  0  0
 15 33  1  0  0  0
 16 17  1  0  0  0
 16 19  1  0  0  0
 17 18  2  0  0  0
 17 47  1  0  0  0
 19 20  2  0  0  0
 19 21  1  0  0  0
 21 22  1  0  0  0
 21 48  1  0  0  0
 22 26  1  0  0  0
 22 23  2  0  0  0
 23 24  1  0  0  0
 23 31  1  0  0  0
 24 30  1  0  0  0
 24 25  2  0  0  0
 25 26  1  0  0  0
 25 27  1  0  0  0
 27 28  1  0  0  0
 27 49  1  0  0  0
 27 50  1  0  0  0
 28 29  1  0  0  0
 28 51  1  0  0  0
 28 52  1  0  0  0
 29 30  1  0  0  0
 29 53  1  0  0  0
 29 54  1  0  0  0
 30 55  1  0  0  0
 30 56  1  0  0  0
 31 32  3  0  0  0
 33 57  1  0  0  0
 34 35  1  0  0  0
 34 36  1  0  0  0
 34 37  1  0  0  0
M  END
> <i_i_glide_confnum>
48

> <i_i_glide_lignum>
2330

> <i_i_glide_posenum>
171

> <i_i_glide_rotatable_bonds>
7

> <i_m_Source_File_Index>
1212

> <b_m_subgroup_collapsed>
0

> <r_i_docking_score>
-5.49737

> <r_i_glide_ecoul>
-2.14583

> <r_i_glide_eff_state_penalty>
0

> <r_i_glide_einternal>
3.59576

> <r_i_glide_emodel>
-60.5148

> <r_i_glide_energy>
-46.2209

> <r_i_glide_erotb>
0.324848

> <r_i_glide_esite>
-0.0493061

> <r_i_glide_evdw>
-44.0751

> <r_i_glide_gscore>
-5.49737

> <r_i_glide_hbond>
-0.108105

> <r_i_glide_ligand_efficiency>
-0.157068

> <r_i_glide_ligand_efficiency_ln>
-1.20679

> <r_i_glide_ligand_efficiency_sa>
-0.513779

> <r_i_glide_lipo>
-2.19492

> <r_i_glide_metal>
0

> <r_i_glide_rewards>
-0.944257

> <s_i_glide_gridfile>
wee1_glide-grid

> <s_m_Source_File>
wee1_decoys_glide_SP.sdf

> <s_m_Source_Path>
/Users/zhangxujun/Desktop

> <s_m_entry_id>
1487

> <s_m_entry_name>
wee1_decoys_glide_SP.1212

> <s_m_subgroup_title>
wee1_decoys_glide_SP

> <s_m_subgroupid>
wee1_decoys_glide_SP


$$$$
