ZINC35642737_2916
                    3D
 Schrodinger Suite 2024-2.
 72 74  0  0  1  0            999 V2000
    1.4517   45.5494   13.8679 C   0  0  0  0  0  0
    1.4592   47.0063   14.3510 C   0  0  0  0  0  0
    1.4739   47.1289   15.8847 C   0  0  0  0  0  0
    1.5044   48.5164   16.3432 N   0  0  0  0  0  0
    0.4202   49.2846   16.5890 C   0  0  0  0  0  0
   -0.7201   48.8516   16.4014 O   0  0  0  0  0  0
    0.6592   50.5548   17.0348 N   0  0  0  0  0  0
   -0.4676   51.4418   17.3803 C   0  0  0  0  0  0
   -0.2705   52.3111   18.6474 C   0  0  0  0  0  0
    0.2635   51.5856   19.8991 C   0  0  0  0  0  0
    1.8081   51.4403   19.9276 N   0  3  2  0  0  0
    2.4527   50.6428   18.7720 C   0  0  0  0  0  0
    1.9909   51.0766   17.3743 C   0  0  0  0  0  0
    2.3566   50.9403   21.2937 C   0  0  0  0  0  0
    2.2632   52.0181   22.4001 C   0  0  0  0  0  0
    3.1032   53.0950   22.4747 C   0  0  0  0  0  0
    2.8857   54.1523   23.5861 C   0  0  1  0  0  0
    3.1029   55.1501   23.2019 H   0  0  0  0  0  0
    1.4499   54.0965   23.9438 N   0  0  0  0  0  0
    0.7405   52.9426   24.0480 C   0  0  0  0  0  0
   -0.1649   52.8966   24.8801 O   0  0  0  0  0  0
    1.1512   51.9101   23.2334 N   0  0  0  0  0  0
    0.2950   50.6965   23.3349 C   0  0  0  0  0  0
    0.9608   49.5661   24.1340 C   0  0  0  0  0  0
    3.8612   54.0964   24.7861 C   0  0  0  0  0  0
    3.4424   53.6969   26.0656 C   0  0  0  0  0  0
    4.3331   53.6969   27.1375 C   0  0  0  0  0  0
    5.6519   54.0967   26.9426 C   0  0  0  0  0  0
    6.0813   54.5104   25.6873 C   0  0  0  0  0  0
    5.1864   54.5194   24.6225 C   0  0  0  0  0  0
    6.5221   54.0764   27.9760 F   0  0  0  0  0  0
    4.3365   53.2357   21.6561 C   0  0  0  0  0  0
    5.0276   52.2879   21.2808 O   0  0  0  0  0  0
    4.6200   54.5228   21.3486 O   0  0  0  0  0  0
    5.7407   54.8859   20.5416 C   0  0  0  0  0  0
    6.9428   55.2969   21.4057 C   0  0  0  0  0  0
    1.4922   45.4983   12.7793 H   0  0  0  0  0  0
    0.5459   45.0325   14.1898 H   0  0  0  0  0  0
    2.3062   44.9953   14.2591 H   0  0  0  0  0  0
    2.3311   47.5176   13.9390 H   0  0  0  0  0  0
    0.5828   47.5201   13.9495 H   0  0  0  0  0  0
    0.6269   46.5876   16.3145 H   0  0  0  0  0  0
    2.3529   46.6171   16.2812 H   0  0  0  0  0  0
    2.4391   48.8968   16.4817 H   0  0  0  0  0  0
   -0.5813   52.1408   16.5505 H   0  0  0  0  0  0
   -1.3972   50.8787   17.4805 H   0  0  0  0  0  0
    0.3869   53.1521   18.4181 H   0  0  0  0  0  0
   -1.2283   52.7741   18.8829 H   0  0  0  0  0  0
    0.0350   52.1928   20.7751 H   0  0  0  0  0  0
   -0.1570   50.5872   20.0320 H   0  0  0  0  0  0
    2.3202   49.5766   18.9672 H   0  0  0  0  0  0
    3.5044   50.8753   18.8814 H   0  0  0  0  0  0
    2.7040   50.6641   16.6618 H   0  0  0  0  0  0
    2.0895   52.1464   17.1889 H   0  0  0  0  0  0
    1.8567   49.9933   21.4872 H   0  0  0  0  0  0
    3.3922   50.6524   21.1314 H   0  0  0  0  0  0
    1.1178   54.8251   24.5578 H   0  0  0  0  0  0
   -0.6575   50.8959   23.8314 H   0  0  0  0  0  0
   -0.0126   50.3507   22.3503 H   0  0  0  0  0  0
    0.3403   48.6693   24.1336 H   0  0  0  0  0  0
    1.9291   49.2968   23.7166 H   0  0  0  0  0  0
    1.1044   49.8500   25.1767 H   0  0  0  0  0  0
    2.4289   53.3746   26.2502 H   0  0  0  0  0  0
    4.0058   53.3788   28.1163 H   0  0  0  0  0  0
    7.1035   54.8211   25.5371 H   0  0  0  0  0  0
    5.5340   54.8680   23.6666 H   0  0  0  0  0  0
    6.0153   54.0870   19.8508 H   0  0  0  0  0  0
    5.4452   55.7312   19.9193 H   0  0  0  0  0  0
    7.7991   55.5554   20.7815 H   0  0  0  0  0  0
    6.7071   56.1644   22.0202 H   0  0  0  0  0  0
    7.2541   54.4967   22.0768 H   0  0  0  0  0  0
    2.1710   52.3795   19.8186 H   0  0  0  0  0  0
  1  2  1  0  0  0
  1 37  1  0  0  0
  1 38  1  0  0  0
  1 39  1  0  0  0
  2  3  1  0  0  0
  2 40  1  0  0  0
  2 41  1  0  0  0
  3  4  1  0  0  0
  3 42  1  0  0  0
  3 43  1  0  0  0
  4  5  1  0  0  0
  4 44  1  0  0  0
  5  6  2  0  0  0
  5  7  1  0  0  0
  7 13  1  0  0  0
  7  8  1  0  0  0
  8  9  1  0  0  0
  8 45  1  0  0  0
  8 46  1  0  0  0
  9 10  1  0  0  0
  9 47  1  0  0  0
  9 48  1  0  0  0
 10 11  1  0  0  0
 10 49  1  0  0  0
 10 50  1  0  0  0
 11 12  1  0  0  0
 11 14  1  0  0  0
 11 72  1  0  0  0
 12 13  1  0  0  0
 12 51  1  0  0  0
 12 52  1  0  0  0
 13 53  1  0  0  0
 13 54  1  0  0  0
 14 15  1  0  0  0
 14 55  1  0  0  0
 14 56  1  0  0  0
 15 22  1  0  0  0
 15 16  2  0  0  0
 16 17  1  0  0  0
 16 32  1  0  0  0
 17 18  1  0  0  0
 17 19  1  0  0  0
 17 25  1  0  0  0
 19 20  1  0  0  0
 19 57  1  0  0  0
 20 21  2  0  0  0
 20 22  1  0  0  0
 22 23  1  0  0  0
 23 24  1  0  0  0
 23 58  1  0  0  0
 23 59  1  0  0  0
 24 60  1  0  0  0
 24 61  1  0  0  0
 24 62  1  0  0  0
 25 30  2  0  0  0
 25 26  1  0  0  0
 26 27  2  0  0  0
 26 63  1  0  0  0
 27 28  1  0  0  0
 27 64  1  0  0  0
 28 29  2  0  0  0
 28 31  1  0  0  0
 29 30  1  0  0  0
 29 65  1  0  0  0
 30 66  1  0  0  0
 32 33  2  0  0  0
 32 34  1  0  0  0
 34 35  1  0  0  0
 35 36  1  0  0  0
 35 67  1  0  0  0
 35 68  1  0  0  0
 36 69  1  0  0  0
 36 70  1  0  0  0
 36 71  1  0  0  0
M  CHG  1  11   1
M  END
> <i_i_glide_confnum>
54

> <i_i_glide_lignum>
2917

> <i_i_glide_posenum>
323

> <i_i_glide_rotatable_bonds>
11

> <i_m_Source_File_Index>
494

> <b_m_subgroup_collapsed>
0

> <r_i_docking_score>
-5.65198

> <r_i_glide_ecoul>
-4.3949

> <r_i_glide_eff_state_penalty>
0

> <r_i_glide_einternal>
7.63175

> <r_i_glide_emodel>
-56.3522

> <r_i_glide_energy>
-43.524

> <r_i_glide_erotb>
0.676472

> <r_i_glide_esite>
-0.177164

> <r_i_glide_evdw>
-39.1291

> <r_i_glide_gscore>
-5.65198

> <r_i_glide_hbond>
-0.16

> <r_i_glide_ligand_efficiency>
-0.161485

> <r_i_glide_ligand_efficiency_ln>
-1.24073

> <r_i_glide_ligand_efficiency_sa>
-0.528228

> <r_i_glide_lipo>
-2.29185

> <r_i_glide_metal>
0

> <r_i_glide_rewards>
-1.08374

> <s_i_glide_gridfile>
wee1_glide-grid

> <s_m_Source_File>
wee1_decoys_glide_SP.sdf

> <s_m_Source_Path>
/Users/zhangxujun/Desktop

> <s_m_entry_id>
769

> <s_m_entry_name>
wee1_decoys_glide_SP.494

> <s_m_subgroup_title>
wee1_decoys_glide_SP

> <s_m_subgroupid>
wee1_decoys_glide_SP


$$$$
