ZINC19104012_1524
                    3D
 Schrodinger Suite 2024-2.
 37 40  0  0  1  0            999 V2000
    4.9925   54.6733   21.2361 C   0  0  0  0  0  0
    6.3058   54.8967   21.6290 C   0  0  0  0  0  0
    6.6383   54.8324   22.9771 C   0  0  0  0  0  0
    5.6810   54.5023   23.9309 C   0  0  0  0  0  0
    4.3462   54.2381   23.5459 C   0  0  0  0  0  0
    4.0154   54.3956   22.1908 C   0  0  0  0  0  0
    3.3853   53.9166   24.5428 N   0  0  0  0  0  0
    3.7746   54.3128   25.9076 C   0  0  0  0  0  0
    5.2397   53.9179   26.1628 C   0  0  1  0  0  0
    5.3569   52.8504   26.0816 H   0  0  0  0  0  0
    6.1076   54.5805   25.2446 O   0  0  0  0  0  0
    5.7149   54.2171   27.5979 C   0  0  0  0  0  0
    4.9285   54.5093   28.4957 O   0  0  0  0  0  0
    7.0157   54.0956   27.8481 N   0  0  0  0  0  0
    1.6826   53.4113   24.2465 S   0  0  0  0  0  0
    1.1036   53.2743   25.5844 O   0  0  0  0  0  0
    1.1143   54.3763   23.3005 O   0  0  0  0  0  0
    1.6091   51.7848   23.4314 C   0  0  0  0  0  0
    2.1260   51.6188   22.1366 C   0  0  0  0  0  0
    1.9644   50.4472   21.4025 C   0  0  0  0  0  0
    1.2412   49.3742   21.9090 C   0  0  0  0  0  0
    0.7061   49.4986   23.1960 C   0  0  0  0  0  0
    0.8922   50.6789   23.9546 C   0  0  0  0  0  0
    0.3039   50.6377   25.1745 N   0  0  0  0  0  0
   -0.4170   49.1357   25.2826 S   0  0  0  0  0  0
   -0.0303   48.5256   23.7808 N   0  0  0  0  0  0
    4.7161   54.7713   20.1960 H   0  0  0  0  0  0
    7.0573   55.1520   20.8963 H   0  0  0  0  0  0
    7.6314   55.0718   23.2922 H   0  0  0  0  0  0
    2.9973   54.3567   21.8453 H   0  0  0  0  0  0
    3.1239   53.8501   26.6500 H   0  0  0  0  0  0
    3.6240   55.3867   26.0212 H   0  0  0  0  0  0
    7.6439   53.7716   27.1295 H   0  0  0  0  0  0
    7.3565   54.3431   28.7681 H   0  0  0  0  0  0
    2.6446   52.4040   21.6294 H   0  0  0  0  0  0
    2.3828   50.3841   20.4073 H   0  0  0  0  0  0
    1.0887   48.4942   21.3086 H   0  0  0  0  0  0
  1  6  2  0  0  0
  1  2  1  0  0  0
  1 27  1  0  0  0
  2  3  2  0  0  0
  2 28  1  0  0  0
  3  4  1  0  0  0
  3 29  1  0  0  0
  4 11  1  0  0  0
  4  5  2  0  0  0
  5  6  1  0  0  0
  5  7  1  0  0  0
  6 30  1  0  0  0
  7  8  1  0  0  0
  7 15  1  0  0  0
  8  9  1  0  0  0
  8 31  1  0  0  0
  8 32  1  0  0  0
  9 10  1  0  0  0
  9 11  1  0  0  0
  9 12  1  0  0  0
 12 13  2  0  0  0
 12 14  1  0  0  0
 14 33  1  0  0  0
 14 34  1  0  0  0
 15 16  2  0  0  0
 15 17  2  0  0  0
 15 18  1  0  0  0
 18 23  1  0  0  0
 18 19  2  0  0  0
 19 20  1  0  0  0
 19 35  1  0  0  0
 20 21  2  0  0  0
 20 36  1  0  0  0
 21 22  1  0  0  0
 21 37  1  0  0  0
 22 26  2  0  0  0
 22 23  1  0  0  0
 23 24  2  0  0  0
 24 25  1  0  0  0
 25 26  1  0  0  0
M  END
> <i_i_glide_confnum>
12

> <i_i_glide_lignum>
1525

> <i_i_glide_posenum>
384

> <i_i_glide_rotatable_bonds>
3

> <i_m_Source_File_Index>
3391

> <b_m_subgroup_collapsed>
0

> <r_i_docking_score>
-5.8165

> <r_i_glide_ecoul>
-5.14661

> <r_i_glide_eff_state_penalty>
0

> <r_i_glide_einternal>
8.36165

> <r_i_glide_emodel>
-50.8376

> <r_i_glide_energy>
-42.1728

> <r_i_glide_erotb>
0.273243

> <r_i_glide_esite>
0

> <r_i_glide_evdw>
-37.0262

> <r_i_glide_gscore>
-5.8165

> <r_i_glide_hbond>
-0.15605

> <r_i_glide_ligand_efficiency>
-0.23266

> <r_i_glide_ligand_efficiency_ln>
-1.37868

> <r_i_glide_ligand_efficiency_sa>
-0.680302

> <r_i_glide_lipo>
-2.06177

> <r_i_glide_metal>
0

> <r_i_glide_rewards>
-1.24862

> <s_i_glide_gridfile>
wee1_glide-grid

> <s_m_Source_File>
wee1_decoys_glide_SP.sdf

> <s_m_Source_Path>
/Users/zhangxujun/Desktop

> <s_m_entry_id>
3666

> <s_m_entry_name>
wee1_decoys_glide_SP.3391

> <s_m_subgroup_title>
wee1_decoys_glide_SP

> <s_m_subgroupid>
wee1_decoys_glide_SP


$$$$
