ZINC35684478_2686
                    3D
 Schrodinger Suite 2024-2.
 52 55  0  0  1  0            999 V2000
    4.2752   53.4695   22.9066 C   0  0  0  0  0  0
    5.1561   54.2235   21.9334 C   0  0  0  0  0  0
    4.8059   54.2538   20.5851 C   0  0  0  0  0  0
    5.5856   54.9708   19.6857 C   0  0  0  0  0  0
    6.7166   55.6646   20.1268 C   0  0  0  0  0  0
    7.0918   55.5900   21.4733 C   0  0  0  0  0  0
    6.3080   54.8772   22.3772 C   0  0  0  0  0  0
    7.4950   56.4930   19.1574 C   0  0  0  0  0  0
    6.9757   57.3134   18.1248 C   0  0  0  0  0  0
    8.1087   57.8593   17.5517 C   0  0  0  0  0  0
    9.1862   57.3911   18.2588 N   0  0  0  0  0  0
    8.8135   56.5442   19.2248 N   0  0  0  0  0  0
   10.5450   57.9164   18.0649 C   0  0  1  0  0  0
   11.2738   57.2200   18.4805 H   0  0  0  0  0  0
   10.6988   58.1165   16.5099 C   0  0  0  0  0  0
    9.5127   58.8933   15.8551 C   0  0  0  0  0  0
    9.6301   59.5989   14.8584 O   0  0  0  0  0  0
    8.3248   58.7004   16.4731 N   0  0  0  0  0  0
   10.7929   59.2758   18.7794 C   0  0  0  0  0  0
    9.8789   60.0967   18.8817 O   0  0  0  0  0  0
   12.0389   59.5233   19.2379 N   0  0  0  0  0  0
   12.4791   60.7660   19.7274 C   0  0  0  0  0  0
   12.3045   61.9405   18.9838 C   0  0  0  0  0  0
   12.7619   63.1585   19.4824 C   0  0  0  0  0  0
   13.4018   63.2107   20.7203 C   0  0  0  0  0  0
   13.6033   62.0449   21.4745 C   0  0  0  0  0  0
   13.1413   60.8239   20.9572 C   0  0  0  0  0  0
   14.3037   62.1324   22.7980 C   0  0  0  0  0  0
   14.7320   63.1836   23.2726 O   0  0  0  0  0  0
   14.4765   60.8501   23.6120 C   0  0  0  0  0  0
    5.5367   57.6220   17.7667 C   0  0  0  0  0  0
    3.3519   54.0212   23.0853 H   0  0  0  0  0  0
    4.0063   52.5008   22.4820 H   0  0  0  0  0  0
    4.7781   53.2969   23.8591 H   0  0  0  0  0  0
    3.9221   53.7397   20.2340 H   0  0  0  0  0  0
    5.2989   54.9911   18.6441 H   0  0  0  0  0  0
    7.9780   56.0966   21.8288 H   0  0  0  0  0  0
    6.5940   54.8434   23.4185 H   0  0  0  0  0  0
   11.6135   58.6566   16.2608 H   0  0  0  0  0  0
   10.7335   57.1457   16.0142 H   0  0  0  0  0  0
    7.5569   59.2165   16.0686 H   0  0  0  0  0  0
   12.6912   58.7548   19.2806 H   0  0  0  0  0  0
   11.8222   61.9089   18.0165 H   0  0  0  0  0  0
   12.6327   64.0625   18.9042 H   0  0  0  0  0  0
   13.7494   64.1688   21.0826 H   0  0  0  0  0  0
   13.2795   59.9119   21.5136 H   0  0  0  0  0  0
   15.0710   60.1255   23.0574 H   0  0  0  0  0  0
   14.9756   61.0578   24.5581 H   0  0  0  0  0  0
   13.5056   60.4045   23.8236 H   0  0  0  0  0  0
    5.3946   58.6989   17.6681 H   0  0  0  0  0  0
    5.2549   57.1878   16.8077 H   0  0  0  0  0  0
    4.8209   57.2969   18.5197 H   0  0  0  0  0  0
  1  2  1  0  0  0
  1 32  1  0  0  0
  1 33  1  0  0  0
  1 34  1  0  0  0
  2  7  2  0  0  0
  2  3  1  0  0  0
  3  4  2  0  0  0
  3 35  1  0  0  0
  4  5  1  0  0  0
  4 36  1  0  0  0
  5  6  2  0  0  0
  5  8  1  0  0  0
  6  7  1  0  0  0
  6 37  1  0  0  0
  7 38  1  0  0  0
  8 12  2  0  0  0
  8  9  1  0  0  0
  9 10  2  0  0  0
  9 31  1  0  0  0
 10 18  1  0  0  0
 10 11  1  0  0  0
 11 12  1  0  0  0
 11 13  1  0  0  0
 13 14  1  0  0  0
 13 15  1  0  0  0
 13 19  1  0  0  0
 15 16  1  0  0  0
 15 39  1  0  0  0
 15 40  1  0  0  0
 16 17  2  0  0  0
 16 18  1  0  0  0
 18 41  1  0  0  0
 19 20  2  0  0  0
 19 21  1  0  0  0
 21 22  1  0  0  0
 21 42  1  0  0  0
 22 27  2  0  0  0
 22 23  1  0  0  0
 23 24  2  0  0  0
 23 43  1  0  0  0
 24 25  1  0  0  0
 24 44  1  0  0  0
 25 26  2  0  0  0
 25 45  1  0  0  0
 26 27  1  0  0  0
 26 28  1  0  0  0
 27 46  1  0  0  0
 28 29  2  0  0  0
 28 30  1  0  0  0
 30 47  1  0  0  0
 30 48  1  0  0  0
 30 49  1  0  0  0
 31 50  1  0  0  0
 31 51  1  0  0  0
 31 52  1  0  0  0
M  END
> <i_i_glide_confnum>
3

> <i_i_glide_lignum>
2687

> <i_i_glide_posenum>
316

> <i_i_glide_rotatable_bonds>
5

> <i_m_Source_File_Index>
3882

> <b_m_subgroup_collapsed>
0

> <r_i_docking_score>
-3.18006

> <r_i_glide_ecoul>
-4.25733

> <r_i_glide_eff_state_penalty>
0

> <r_i_glide_einternal>
0.420861

> <r_i_glide_emodel>
-38.2215

> <r_i_glide_energy>
-31.9784

> <r_i_glide_erotb>
0.484651

> <r_i_glide_esite>
-0.0772151

> <r_i_glide_evdw>
-27.7211

> <r_i_glide_gscore>
-3.18006

> <r_i_glide_hbond>
-0.16

> <r_i_glide_ligand_efficiency>
-0.106002

> <r_i_glide_ligand_efficiency_ln>
-0.722545

> <r_i_glide_ligand_efficiency_sa>
-0.329373

> <r_i_glide_lipo>
-1.17878

> <r_i_glide_metal>
0

> <r_i_glide_rewards>
-0.224062

> <s_i_glide_gridfile>
wee1_glide-grid

> <s_m_Source_File>
wee1_decoys_glide_SP.sdf

> <s_m_Source_Path>
/Users/zhangxujun/Desktop

> <s_m_entry_id>
4157

> <s_m_entry_name>
wee1_decoys_glide_SP.3882

> <s_m_subgroup_title>
wee1_decoys_glide_SP

> <s_m_subgroupid>
wee1_decoys_glide_SP


$$$$
