ZINC36161521_4889
                    3D
 Schrodinger Suite 2024-2.
 67 70  0  0  1  0            999 V2000
    2.1534   53.3772   29.5250 C   0  0  0  0  0  0
    2.8414   53.9122   28.2553 C   0  0  1  0  0  0
    2.7666   55.0013   28.2938 H   0  0  0  0  0  0
    4.3200   53.4802   28.1943 C   0  0  0  0  0  0
    5.0769   54.1825   27.0491 C   0  0  0  0  0  0
    4.2569   54.0954   25.7562 C   0  0  0  0  0  0
    2.8934   53.7581   25.7536 C   0  0  0  0  0  0
    2.2187   53.7120   24.1468 S   0  0  0  0  0  0
    3.7592   54.0988   23.4659 C   0  0  0  0  0  0
    4.7502   54.2257   24.4432 C   0  0  0  0  0  0
    6.1179   54.4977   24.0106 C   0  0  0  0  0  0
    7.1044   54.6895   24.7112 O   0  0  0  0  0  0
    6.1995   54.5501   22.6425 N   0  0  0  0  0  0
    7.1388   54.7251   22.3189 H   0  0  0  0  0  0
    5.1710   54.4433   21.7196 C   0  0  0  0  0  0
    3.9582   54.2394   22.1217 N   0  0  0  0  0  0
    5.5509   54.5844   20.2334 C   0  0  0  0  0  0
    4.3042   54.6797   19.2919 N   0  3  2  0  0  0
    3.8057   53.3497   18.6384 C   0  0  0  0  0  0
    3.5208   52.2150   19.6485 C   0  0  1  0  0  0
    2.9666   52.5987   20.5028 H   0  0  0  0  0  0
    2.6572   51.0798   19.0576 C   0  0  0  0  0  0
    2.4524   50.0801   20.0549 O   0  0  0  0  0  0
    2.2696   48.7543   19.5704 C   0  0  0  0  0  0
    0.9548   48.5863   18.8296 C   0  0  0  0  0  0
   -0.0337   47.7548   19.1979 C   0  0  0  0  0  0
    4.7617   51.6967   20.0817 O   0  0  0  0  0  0
    4.4537   55.8642   18.2826 C   0  0  0  0  0  0
    5.6747   55.6972   17.3420 C   0  0  0  0  0  0
    5.8374   56.9363   16.4323 C   0  0  0  0  0  0
    4.5408   57.2844   15.6648 C   0  0  0  0  0  0
    3.3000   57.3598   16.5832 C   0  0  0  0  0  0
    3.1721   56.0891   17.4463 C   0  0  0  0  0  0
    2.0899   53.4081   26.9989 C   0  0  0  0  0  0
    2.1576   52.2866   29.5554 H   0  0  0  0  0  0
    2.6521   53.7317   30.4259 H   0  0  0  0  0  0
    1.1140   53.7036   29.5795 H   0  0  0  0  0  0
    4.8133   53.7237   29.1367 H   0  0  0  0  0  0
    4.3966   52.3948   28.1249 H   0  0  0  0  0  0
    6.0602   53.7249   26.9329 H   0  0  0  0  0  0
    5.2624   55.2272   27.3021 H   0  0  0  0  0  0
    6.1744   53.7779   19.8492 H   0  0  0  0  0  0
    6.1051   55.5160   20.1174 H   0  0  0  0  0  0
    4.5374   53.0624   17.8810 H   0  0  0  0  0  0
    2.8666   53.6085   18.1535 H   0  0  0  0  0  0
    3.1044   50.6742   18.1516 H   0  0  0  0  0  0
    1.6855   51.4698   18.7515 H   0  0  0  0  0  0
    2.2863   48.0914   20.4360 H   0  0  0  0  0  0
    3.1042   48.4476   18.9363 H   0  0  0  0  0  0
    0.8314   49.1954   17.9454 H   0  0  0  0  0  0
    0.0506   47.1319   20.0767 H   0  0  0  0  0  0
   -0.9453   47.6871   18.6222 H   0  0  0  0  0  0
    5.1042   51.1366   19.3460 H   0  0  0  0  0  0
    4.6100   56.7636   18.8818 H   0  0  0  0  0  0
    6.5931   55.4966   17.8926 H   0  0  0  0  0  0
    5.5415   54.8089   16.7236 H   0  0  0  0  0  0
    6.1323   57.7947   17.0391 H   0  0  0  0  0  0
    6.6540   56.7762   15.7266 H   0  0  0  0  0  0
    4.6668   58.2313   15.1373 H   0  0  0  0  0  0
    4.3693   56.5320   14.8934 H   0  0  0  0  0  0
    3.3699   58.2411   17.2247 H   0  0  0  0  0  0
    2.3996   57.4993   15.9830 H   0  0  0  0  0  0
    3.0056   55.2461   16.7756 H   0  0  0  0  0  0
    2.2873   56.0966   18.0777 H   0  0  0  0  0  0
    1.1042   53.8597   26.9539 H   0  0  0  0  0  0
    1.9546   52.3266   27.0471 H   0  0  0  0  0  0
    3.5489   54.9501   19.9128 H   0  0  0  0  0  0
  1  2  1  0  0  0
  1 35  1  0  0  0
  1 36  1  0  0  0
  1 37  1  0  0  0
  2  3  1  0  0  0
  2 34  1  0  0  0
  2  4  1  0  0  0
  4  5  1  0  0  0
  4 38  1  0  0  0
  4 39  1  0  0  0
  5  6  1  0  0  0
  5 40  1  0  0  0
  5 41  1  0  0  0
  6 10  1  0  0  0
  6  7  2  0  0  0
  7  8  1  0  0  0
  7 34  1  0  0  0
  8  9  1  0  0  0
  9 16  1  0  0  0
  9 10  2  0  0  0
 10 11  1  0  0  0
 11 12  2  0  0  0
 11 13  1  0  0  0
 13 14  1  0  0  0
 13 15  1  0  0  0
 15 16  2  0  0  0
 15 17  1  0  0  0
 17 18  1  0  0  0
 17 42  1  0  0  0
 17 43  1  0  0  0
 18 19  1  0  0  0
 18 28  1  0  0  0
 18 67  1  0  0  0
 19 20  1  0  0  0
 19 44  1  0  0  0
 19 45  1  0  0  0
 20 21  1  0  0  0
 20 22  1  0  0  0
 20 27  1  0  0  0
 22 23  1  0  0  0
 22 46  1  0  0  0
 22 47  1  0  0  0
 23 24  1  0  0  0
 24 25  1  0  0  0
 24 48  1  0  0  0
 24 49  1  0  0  0
 25 26  2  0  0  0
 25 50  1  0  0  0
 26 51  1  0  0  0
 26 52  1  0  0  0
 27 53  1  0  0  0
 28 33  1  0  0  0
 28 29  1  0  0  0
 28 54  1  0  0  0
 29 30  1  0  0  0
 29 55  1  0  0  0
 29 56  1  0  0  0
 30 31  1  0  0  0
 30 57  1  0  0  0
 30 58  1  0  0  0
 31 32  1  0  0  0
 31 59  1  0  0  0
 31 60  1  0  0  0
 32 33  1  0  0  0
 32 61  1  0  0  0
 32 62  1  0  0  0
 33 63  1  0  0  0
 33 64  1  0  0  0
 34 65  1  0  0  0
 34 66  1  0  0  0
M  CHG  1  18   1
M  END
> <i_i_glide_confnum>
285

> <i_i_glide_lignum>
4890

> <i_i_glide_posenum>
244

> <i_i_glide_rotatable_bonds>
10

> <i_m_Source_File_Index>
3831

> <b_m_subgroup_collapsed>
0

> <r_i_docking_score>
-5.79768

> <r_i_glide_ecoul>
-9.76594

> <r_i_glide_eff_state_penalty>
0

> <r_i_glide_einternal>
3.78141

> <r_i_glide_emodel>
-64.5941

> <r_i_glide_energy>
-45.5049

> <r_i_glide_erotb>
0.903177

> <r_i_glide_esite>
-6.29219e-05

> <r_i_glide_evdw>
-35.7389

> <r_i_glide_gscore>
-5.79768

> <r_i_glide_hbond>
-0.0547446

> <r_i_glide_ligand_efficiency>
-0.187022

> <r_i_glide_ligand_efficiency_ln>
-1.30755

> <r_i_glide_ligand_efficiency_sa>
-0.587507

> <r_i_glide_lipo>
-2.77781

> <r_i_glide_metal>
0

> <r_i_glide_rewards>
-0.616399

> <s_i_glide_gridfile>
wee1_glide-grid

> <s_m_Source_File>
wee1_decoys_glide_SP.sdf

> <s_m_Source_Path>
/Users/zhangxujun/Desktop

> <s_m_entry_id>
4106

> <s_m_entry_name>
wee1_decoys_glide_SP.3831

> <s_m_subgroup_title>
wee1_decoys_glide_SP

> <s_m_subgroupid>
wee1_decoys_glide_SP


$$$$
