ZINC39444819_2775
                    3D
 Schrodinger Suite 2024-2.
 52 56  0  0  1  0            999 V2000
    1.7306   50.1416   22.1235 C   0  0  0  0  0  0
    1.3628   50.2534   23.4636 C   0  0  0  0  0  0
    0.8362   51.4551   23.9415 C   0  0  0  0  0  0
    0.6886   52.5496   23.0893 C   0  0  0  0  0  0
    1.0407   52.4333   21.7512 C   0  0  0  0  0  0
    1.5424   51.2218   21.2541 C   0  0  0  0  0  0
    1.8921   51.0380   19.9042 N   0  0  0  0  0  0
    1.3280   51.6312   18.8295 C   0  0  0  0  0  0
    0.3706   52.4088   18.8982 O   0  0  0  0  0  0
    1.9042   51.2093   17.4620 C   0  0  1  0  0  0
    2.9641   50.9647   17.5634 H   0  0  0  0  0  0
    1.1054   50.0982   16.8521 C   0  0  0  0  0  0
    0.6160   50.6111   15.7207 C   0  0  0  0  0  0
    1.0039   51.8912   15.5383 N   0  0  0  0  0  0
    1.7509   52.2681   16.4979 N   0  0  0  0  0  0
    0.9183   48.4729   17.5201 Cl  0  0  0  0  0  0
    0.4140   51.6525   25.6650 S   0  0  0  0  0  0
   -0.7856   52.4963   25.7295 O   0  0  0  0  0  0
    0.4351   50.3246   26.2855 O   0  0  0  0  0  0
    1.7747   52.5964   26.2762 N   0  0  0  0  0  0
    1.9462   52.9353   27.7078 C   0  0  0  0  0  0
    3.3948   53.4851   27.8504 C   0  0  0  0  0  0
    3.6252   53.9408   29.3132 C   0  0  1  0  0  0
    2.5790   55.0428   29.6503 C   0  0  0  0  0  0
    1.1503   54.4742   29.5447 C   0  0  1  0  0  0
    0.9345   54.0410   28.0820 C   0  0  0  0  0  0
    0.9835   53.2516   30.4856 C   0  0  0  0  0  0
    2.0112   52.1504   30.1036 C   0  0  2  0  0  0
    3.4517   52.7060   30.2379 C   0  0  0  0  0  0
    1.7493   51.7081   28.6411 C   0  0  0  0  0  0
    2.1411   49.2092   21.7626 H   0  0  0  0  0  0
    1.4998   49.4118   24.1252 H   0  0  0  0  0  0
    0.3088   53.4897   23.4641 H   0  0  0  0  0  0
    0.9269   53.2948   21.1101 H   0  0  0  0  0  0
    2.5480   50.2954   19.7131 H   0  0  0  0  0  0
   -0.0120   50.1409   14.9804 H   0  0  0  0  0  0
    1.9227   53.4327   25.7045 H   0  0  0  0  0  0
    4.1266   52.7225   27.5752 H   0  0  0  0  0  0
    3.5636   54.3222   27.1711 H   0  0  0  0  0  0
    4.6355   54.3438   29.4189 H   0  0  0  0  0  0
    2.7024   55.8960   28.9797 H   0  0  0  0  0  0
    2.7043   55.4491   30.6400 H   0  0  0  0  0  0
    0.4296   55.2438   29.8180 H   0  0  0  0  0  0
    1.1028   54.8960   27.4262 H   0  0  0  0  0  0
   -0.0924   53.7016   27.9396 H   0  0  0  0  0  0
    1.1044   53.5495   31.5276 H   0  0  0  0  0  0
   -0.0348   52.8594   30.4143 H   0  0  0  0  0  0
    1.9011   51.2969   30.7692 H   0  0  0  0  0  0
    4.1758   51.9336   29.9708 H   0  0  0  0  0  0
    3.6677   52.9513   31.2781 H   0  0  0  0  0  0
    0.7343   51.3122   28.5666 H   0  0  0  0  0  0
    2.4176   50.8968   28.3598 H   0  0  0  0  0  0
  1  6  2  0  0  0
  1  2  1  0  0  0
  1 31  1  0  0  0
  2  3  2  0  0  0
  2 32  1  0  0  0
  3  4  1  0  0  0
  3 17  1  0  0  0
  4  5  2  0  0  0
  4 33  1  0  0  0
  5  6  1  0  0  0
  5 34  1  0  0  0
  6  7  1  0  0  0
  7  8  1  0  0  0
  7 35  1  0  0  0
  8  9  2  0  0  0
  8 10  1  0  0  0
 10 11  1  0  0  0
 10 15  1  0  0  0
 10 12  1  0  0  0
 12 13  2  0  0  0
 12 16  1  0  0  0
 13 14  1  0  0  0
 13 36  1  0  0  0
 14 15  2  0  0  0
 17 18  2  0  0  0
 17 19  2  0  0  0
 17 20  1  0  0  0
 20 21  1  0  0  0
 20 37  1  0  0  0
 21 26  1  0  0  0
 21 30  1  0  0  0
 21 22  1  0  0  0
 22 23  1  0  0  0
 22 38  1  0  0  0
 22 39  1  0  0  0
 23 29  1  0  0  0
 23 24  1  0  0  0
 23 40  1  0  0  0
 24 25  1  0  0  0
 24 41  1  0  0  0
 24 42  1  0  0  0
 25 26  1  0  0  0
 25 27  1  0  0  0
 25 43  1  0  0  0
 26 44  1  0  0  0
 26 45  1  0  0  0
 27 28  1  0  0  0
 27 46  1  0  0  0
 27 47  1  0  0  0
 28 29  1  0  0  0
 28 30  1  0  0  0
 28 48  1  0  0  0
 29 49  1  0  0  0
 29 50  1  0  0  0
 30 51  1  0  0  0
 30 52  1  0  0  0
M  END
> <i_i_glide_confnum>
148

> <i_i_glide_lignum>
2776

> <i_i_glide_posenum>
171

> <i_i_glide_rotatable_bonds>
6

> <i_m_Source_File_Index>
3712

> <b_m_subgroup_collapsed>
0

> <r_i_docking_score>
-0.680547

> <r_i_glide_ecoul>
-1.24333

> <r_i_glide_eff_state_penalty>
0

> <r_i_glide_einternal>
4.78525

> <r_i_glide_emodel>
-25.7208

> <r_i_glide_energy>
-34.7018

> <r_i_glide_erotb>
0.631804

> <r_i_glide_esite>
-0.132731

> <r_i_glide_evdw>
-33.4584

> <r_i_glide_gscore>
-0.680547

> <r_i_glide_hbond>
0

> <r_i_glide_ligand_efficiency>
-0.0234671

> <r_i_glide_ligand_efficiency_ln>
-0.155828

> <r_i_glide_ligand_efficiency_sa>
-0.0720985

> <r_i_glide_lipo>
-1.73419

> <r_i_glide_metal>
0

> <r_i_glide_rewards>
2.414

> <s_i_glide_gridfile>
wee1_glide-grid

> <s_m_Source_File>
wee1_decoys_glide_SP.sdf

> <s_m_Source_Path>
/Users/zhangxujun/Desktop

> <s_m_entry_id>
3987

> <s_m_entry_name>
wee1_decoys_glide_SP.3712

> <s_m_subgroup_title>
wee1_decoys_glide_SP

> <s_m_subgroupid>
wee1_decoys_glide_SP


$$$$
