ZINC49549400_1796
                    3D
 Schrodinger Suite 2024-2.
 38 40  0  0  1  0            999 V2000
    0.4154   52.1031   29.5011 C   0  0  0  0  0  0
    1.6470   52.9623   29.8572 C   0  0  2  0  0  0
    1.2959   53.9043   30.2812 H   0  0  0  0  0  0
    2.5650   53.3390   28.6810 C   0  0  0  0  0  0
    3.8906   53.7251   28.9227 C   0  0  0  0  0  0
    4.7289   54.0977   27.8734 C   0  0  0  0  0  0
    4.2439   54.0966   26.5578 C   0  0  0  0  0  0
    2.9248   53.7145   26.3141 C   0  0  0  0  0  0
    2.0911   53.3431   27.3637 C   0  0  0  0  0  0
    4.9900   54.4444   25.4174 N   0  0  0  0  0  0
    6.2923   54.7711   25.2826 C   0  0  0  0  0  0
    7.0785   54.8978   26.2175 O   0  0  0  0  0  0
    6.7286   55.0339   24.0317 N   0  0  0  0  0  0
    6.1724   54.7679   22.7829 C   0  0  0  0  0  0
    6.7041   55.2970   21.7018 N   0  0  0  0  0  0
    6.0472   54.9154   20.6249 C   0  0  0  0  0  0
    4.9994   54.0494   20.8012 C   0  0  0  0  0  0
    4.8089   53.6967   22.4822 S   0  0  0  0  0  0
    4.3553   53.6183   19.5171 C   0  0  0  0  0  0
    5.0098   54.5882   18.5109 C   0  0  0  0  0  0
    6.2549   55.2283   19.1683 C   0  0  0  0  0  0
    2.3255   52.2761   30.8914 O   0  0  0  0  0  0
   -0.2673   52.6310   28.8357 H   0  0  0  0  0  0
    0.7050   51.1710   29.0145 H   0  0  0  0  0  0
   -0.1656   51.8432   30.3886 H   0  0  0  0  0  0
    4.2805   53.7369   29.9299 H   0  0  0  0  0  0
    5.7406   54.3849   28.1109 H   0  0  0  0  0  0
    2.5323   53.7020   25.3077 H   0  0  0  0  0  0
    1.0764   53.0606   27.1311 H   0  0  0  0  0  0
    4.4695   54.4014   24.5559 H   0  0  0  0  0  0
    3.2697   53.7250   19.5195 H   0  0  0  0  0  0
    4.5823   52.5780   19.2755 H   0  0  0  0  0  0
    4.2940   55.3740   18.2615 H   0  0  0  0  0  0
    5.2567   54.0894   17.5726 H   0  0  0  0  0  0
    7.1783   54.7902   18.7869 H   0  0  0  0  0  0
    6.2945   56.2985   18.9624 H   0  0  0  0  0  0
    1.6915   52.0964   31.5921 H   0  0  0  0  0  0
    7.6500   55.4494   23.9896 H   0  0  0  0  0  0
  1  2  1  0  0  0
  1 23  1  0  0  0
  1 24  1  0  0  0
  1 25  1  0  0  0
  2  3  1  0  0  0
  2  4  1  0  0  0
  2 22  1  0  0  0
  4  9  2  0  0  0
  4  5  1  0  0  0
  5  6  2  0  0  0
  5 26  1  0  0  0
  6  7  1  0  0  0
  6 27  1  0  0  0
  7  8  2  0  0  0
  7 10  1  0  0  0
  8  9  1  0  0  0
  8 28  1  0  0  0
  9 29  1  0  0  0
 10 11  1  0  0  0
 10 30  1  0  0  0
 11 12  2  0  0  0
 11 13  1  0  0  0
 13 14  1  0  0  0
 13 38  1  0  0  0
 14 18  1  0  0  0
 14 15  2  0  0  0
 15 16  1  0  0  0
 16 21  1  0  0  0
 16 17  2  0  0  0
 17 18  1  0  0  0
 17 19  1  0  0  0
 19 20  1  0  0  0
 19 31  1  0  0  0
 19 32  1  0  0  0
 20 21  1  0  0  0
 20 33  1  0  0  0
 20 34  1  0  0  0
 21 35  1  0  0  0
 21 36  1  0  0  0
 22 37  1  0  0  0
M  END
> <i_i_glide_confnum>
13

> <i_i_glide_lignum>
1797

> <i_i_glide_posenum>
167

> <i_i_glide_rotatable_bonds>
6

> <i_m_Source_File_Index>
3361

> <b_m_subgroup_collapsed>
0

> <r_i_docking_score>
-5.97572

> <r_i_glide_ecoul>
-7.24266

> <r_i_glide_eff_state_penalty>
0

> <r_i_glide_einternal>
3.48833

> <r_i_glide_emodel>
-60.8243

> <r_i_glide_energy>
-47.4041

> <r_i_glide_erotb>
0.56056

> <r_i_glide_esite>
0

> <r_i_glide_evdw>
-40.1615

> <r_i_glide_gscore>
-5.97572

> <r_i_glide_hbond>
-0.75899

> <r_i_glide_ligand_efficiency>
-0.284558

> <r_i_glide_ligand_efficiency_ln>
-1.47748

> <r_i_glide_ligand_efficiency_sa>
-0.785074

> <r_i_glide_lipo>
-2.24244

> <r_i_glide_metal>
0

> <r_i_glide_rewards>
-0.440381

> <s_i_glide_gridfile>
wee1_glide-grid

> <s_m_Source_File>
wee1_decoys_glide_SP.sdf

> <s_m_Source_Path>
/Users/zhangxujun/Desktop

> <s_m_entry_id>
3636

> <s_m_entry_name>
wee1_decoys_glide_SP.3361

> <s_m_subgroup_title>
wee1_decoys_glide_SP

> <s_m_subgroupid>
wee1_decoys_glide_SP


$$$$
