ZINC44855391_5258
                    3D
 Schrodinger Suite 2024-2.
 62 65  0  0  1  0            999 V2000
   -5.3643   46.3489   20.2375 C   0  0  0  0  0  0
   -4.2462   46.7408   21.1845 C   0  0  0  0  0  0
   -2.9287   46.3786   20.9028 C   0  0  0  0  0  0
   -1.9040   46.7298   21.7795 C   0  0  0  0  0  0
   -2.1536   47.4524   22.9524 C   0  0  0  0  0  0
   -3.4961   47.7899   23.2311 C   0  0  0  0  0  0
   -4.5267   47.4369   22.3602 C   0  0  0  0  0  0
   -3.9112   48.3761   24.4136 O   0  0  0  0  0  0
   -2.9252   49.0841   25.1715 C   0  0  0  0  0  0
   -1.6737   48.1663   25.2880 C   0  0  0  0  0  0
   -1.0255   47.8483   23.9234 C   0  0  2  0  0  0
   -0.3874   46.9771   24.0826 H   0  0  0  0  0  0
   -0.0555   48.8968   23.5610 N   0  0  0  0  0  0
    0.2372   49.4879   22.3856 C   0  0  0  0  0  0
   -0.2951   49.2031   21.3139 O   0  0  0  0  0  0
    1.2864   50.6218   22.4629 C   0  0  2  0  0  0
    0.5257   51.9461   22.6699 C   0  0  0  0  0  0
    1.5663   53.0172   23.0000 C   0  0  0  0  0  0
    2.5584   53.1629   21.8178 N   0  3  2  0  0  0
    3.2191   51.8327   21.3567 C   0  0  0  0  0  0
    2.1468   50.7257   21.1788 C   0  0  0  0  0  0
    3.5835   54.3057   22.0610 C   0  0  0  0  0  0
    4.4472   54.2345   23.3237 C   0  0  0  0  0  0
    3.8802   54.4966   24.5765 C   0  0  0  0  0  0
    4.6719   54.5197   25.7176 C   0  0  0  0  0  0
    6.0427   54.3186   25.6083 C   0  0  0  0  0  0
    6.6277   54.0966   24.3625 C   0  0  0  0  0  0
    5.8291   54.0450   23.2210 C   0  0  0  0  0  0
    7.1044   54.3512   27.1852 Br  0  0  0  0  0  0
   -2.6384   50.4425   24.4940 C   0  0  0  0  0  0
   -3.5565   49.2522   26.5640 C   0  0  0  0  0  0
   -6.3067   46.2233   20.7717 H   0  0  0  0  0  0
   -5.4951   47.1092   19.4684 H   0  0  0  0  0  0
   -5.1489   45.3971   19.7509 H   0  0  0  0  0  0
   -2.6940   45.8324   20.0020 H   0  0  0  0  0  0
   -0.8953   46.4438   21.5345 H   0  0  0  0  0  0
   -5.5450   47.6960   22.6100 H   0  0  0  0  0  0
   -0.9532   48.5915   25.9899 H   0  0  0  0  0  0
   -1.9938   47.2206   25.7328 H   0  0  0  0  0  0
    0.5158   49.1863   24.3424 H   0  0  0  0  0  0
    1.9072   50.3703   23.3266 H   0  0  0  0  0  0
   -0.0157   52.2670   21.7772 H   0  0  0  0  0  0
   -0.1332   51.9086   23.5388 H   0  0  0  0  0  0
    2.1311   52.7357   23.8886 H   0  0  0  0  0  0
    1.0928   53.9905   23.1339 H   0  0  0  0  0  0
    3.9881   51.5721   22.0817 H   0  0  0  0  0  0
    3.6967   52.0424   20.3975 H   0  0  0  0  0  0
    2.6959   49.7998   20.9938 H   0  0  0  0  0  0
    1.5484   51.0028   20.3074 H   0  0  0  0  0  0
    4.1902   54.3332   21.1541 H   0  0  0  0  0  0
    2.9902   55.2258   22.0835 H   0  0  0  0  0  0
    2.8290   54.7165   24.6788 H   0  0  0  0  0  0
    4.2289   54.7150   26.6835 H   0  0  0  0  0  0
    7.6943   53.9525   24.2812 H   0  0  0  0  0  0
    6.2949   53.8842   22.2591 H   0  0  0  0  0  0
   -1.8373   50.9719   25.0053 H   0  0  0  0  0  0
   -2.3608   50.3348   23.4466 H   0  0  0  0  0  0
   -3.5227   51.0799   24.5144 H   0  0  0  0  0  0
   -2.8960   49.8009   27.2375 H   0  0  0  0  0  0
   -4.5014   49.7933   26.5087 H   0  0  0  0  0  0
   -3.7661   48.2871   27.0272 H   0  0  0  0  0  0
    1.9869   53.4679   21.0357 H   0  0  0  0  0  0
  1  2  1  0  0  0
  1 32  1  0  0  0
  1 33  1  0  0  0
  1 34  1  0  0  0
  2  7  2  0  0  0
  2  3  1  0  0  0
  3  4  2  0  0  0
  3 35  1  0  0  0
  4  5  1  0  0  0
  4 36  1  0  0  0
  5 11  1  0  0  0
  5  6  2  0  0  0
  6  7  1  0  0  0
  6  8  1  0  0  0
  7 37  1  0  0  0
  8  9  1  0  0  0
  9 10  1  0  0  0
  9 30  1  0  0  0
  9 31  1  0  0  0
 10 11  1  0  0  0
 10 38  1  0  0  0
 10 39  1  0  0  0
 11 12  1  0  0  0
 11 13  1  0  0  0
 13 14  1  0  0  0
 13 40  1  0  0  0
 14 15  2  0  0  0
 14 16  1  0  0  0
 16 21  1  0  0  0
 16 17  1  0  0  0
 16 41  1  0  0  0
 17 18  1  0  0  0
 17 42  1  0  0  0
 17 43  1  0  0  0
 18 19  1  0  0  0
 18 44  1  0  0  0
 18 45  1  0  0  0
 19 20  1  0  0  0
 19 22  1  0  0  0
 19 62  1  0  0  0
 20 21  1  0  0  0
 20 46  1  0  0  0
 20 47  1  0  0  0
 21 48  1  0  0  0
 21 49  1  0  0  0
 22 23  1  0  0  0
 22 50  1  0  0  0
 22 51  1  0  0  0
 23 28  2  0  0  0
 23 24  1  0  0  0
 24 25  2  0  0  0
 24 52  1  0  0  0
 25 26  1  0  0  0
 25 53  1  0  0  0
 26 27  2  0  0  0
 26 29  1  0  0  0
 27 28  1  0  0  0
 27 54  1  0  0  0
 28 55  1  0  0  0
 30 56  1  0  0  0
 30 57  1  0  0  0
 30 58  1  0  0  0
 31 59  1  0  0  0
 31 60  1  0  0  0
 31 61  1  0  0  0
M  CHG  1  19   1
M  END
> <i_i_glide_confnum>
59

> <i_i_glide_lignum>
5259

> <i_i_glide_posenum>
222

> <i_i_glide_rotatable_bonds>
5

> <i_m_Source_File_Index>
74

> <b_m_subgroup_collapsed>
0

> <r_i_docking_score>
-3.80345

> <r_i_glide_ecoul>
-1.94696

> <r_i_glide_eff_state_penalty>
0

> <r_i_glide_einternal>
14.7275

> <r_i_glide_emodel>
-36.2966

> <r_i_glide_energy>
-33.3603

> <r_i_glide_erotb>
0.452963

> <r_i_glide_esite>
-0.00732719

> <r_i_glide_evdw>
-31.4133

> <r_i_glide_gscore>
-3.80345

> <r_i_glide_hbond>
0

> <r_i_glide_ligand_efficiency>
-0.126782

> <r_i_glide_ligand_efficiency_ln>
-0.864184

> <r_i_glide_ligand_efficiency_sa>
-0.39394

> <r_i_glide_lipo>
-2.11315

> <r_i_glide_metal>
0

> <r_i_glide_rewards>
-0.273224

> <s_i_glide_gridfile>
wee1_glide-grid

> <s_m_Source_File>
wee1_decoys_glide_SP.sdf

> <s_m_Source_Path>
/Users/zhangxujun/Desktop

> <s_m_entry_id>
349

> <s_m_entry_name>
wee1_decoys_glide_SP.74

> <s_m_subgroup_title>
wee1_decoys_glide_SP

> <s_m_subgroupid>
wee1_decoys_glide_SP


$$$$
