ZINC13243388_5884
                    3D
 Schrodinger Suite 2024-2.
 57 60  0  0  1  0            999 V2000
    0.7788   53.3967   31.7087 C   0  0  0  0  0  0
    0.8886   53.3160   30.2000 C   0  0  0  0  0  0
    1.3328   54.4138   29.4649 C   0  0  0  0  0  0
    1.4713   54.3032   28.0823 C   0  0  0  0  0  0
    1.1884   53.0888   27.4423 C   0  0  0  0  0  0
    0.7408   51.9996   28.1881 C   0  0  0  0  0  0
    0.5571   52.1266   29.5576 C   0  0  0  0  0  0
    1.3364   52.9547   26.0397 N   0  0  0  0  0  0
    2.4115   53.2961   25.2235 C   0  0  0  0  0  0
    2.1078   53.0629   23.9659 N   0  0  0  0  0  0
    0.8212   52.5522   23.9186 N   0  0  0  0  0  0
    0.3745   52.4985   25.1445 C   0  0  0  0  0  0
   -1.3033   52.0918   25.5262 S   0  0  0  0  0  0
   -1.1471   50.2877   25.7419 C   0  0  0  0  0  0
   -2.2873   49.4685   25.1263 C   0  0  0  0  0  0
   -2.9743   49.9242   24.2066 O   0  0  0  0  0  0
   -2.4849   48.2568   25.6817 N   0  0  0  0  0  0
   -3.5669   47.4123   25.3680 C   0  0  0  0  0  0
   -4.6406   47.4027   26.2862 C   0  0  0  0  0  0
   -5.7625   46.6098   26.0405 C   0  0  0  0  0  0
   -5.8291   45.8194   24.9029 C   0  0  0  0  0  0
   -4.7637   45.7994   24.0101 C   0  0  0  0  0  0
   -3.6017   46.5675   24.2182 C   0  0  0  0  0  0
   -2.4629   46.4009   23.2356 C   0  0  0  0  0  0
   -1.5099   47.2106   23.2357 O   0  0  0  0  0  0
   -4.6282   48.2484   27.5577 C   0  0  0  0  0  0
    3.7595   53.8461   25.6316 C   0  0  0  0  0  0
    4.5620   54.4969   24.6814 C   0  0  0  0  0  0
    5.8113   55.0168   25.0256 C   0  0  0  0  0  0
    6.2771   54.8956   26.3318 C   0  0  0  0  0  0
    5.5096   54.2348   27.2866 C   0  0  0  0  0  0
    4.2738   53.6960   26.9268 C   0  0  0  0  0  0
    6.0187   54.0805   28.7026 C   0  0  0  0  0  0
    0.7017   54.4262   32.0601 H   0  0  0  0  0  0
   -0.0969   52.8760   32.0683 H   0  0  0  0  0  0
    1.6289   52.8961   32.1682 H   0  0  0  0  0  0
    1.5808   55.3454   29.9544 H   0  0  0  0  0  0
    1.8235   55.1560   27.5275 H   0  0  0  0  0  0
    0.5428   51.0488   27.7232 H   0  0  0  0  0  0
    0.1632   51.2967   30.1147 H   0  0  0  0  0  0
   -1.1257   50.0908   26.8128 H   0  0  0  0  0  0
   -0.2093   49.9294   25.3132 H   0  0  0  0  0  0
   -2.0239   48.0861   26.5746 H   0  0  0  0  0  0
   -6.5920   46.6035   26.7328 H   0  0  0  0  0  0
   -6.7042   45.2127   24.7159 H   0  0  0  0  0  0
   -4.8550   45.1626   23.1410 H   0  0  0  0  0  0
   -4.3783   49.2844   27.3287 H   0  0  0  0  0  0
   -5.5967   48.2561   28.0618 H   0  0  0  0  0  0
   -3.8753   47.8732   28.2524 H   0  0  0  0  0  0
    4.2151   54.6125   23.6639 H   0  0  0  0  0  0
    6.4127   55.5193   24.2819 H   0  0  0  0  0  0
    7.2319   55.3101   26.6108 H   0  0  0  0  0  0
    3.7336   53.1338   27.6699 H   0  0  0  0  0  0
    7.1094   54.0952   28.7381 H   0  0  0  0  0  0
    5.6367   54.8814   29.3370 H   0  0  0  0  0  0
    5.6998   53.1221   29.1115 H   0  0  0  0  0  0
   -2.4959   45.3905   22.4882 O   0  5  0  0  0  0
  1  2  1  0  0  0
  1 34  1  0  0  0
  1 35  1  0  0  0
  1 36  1  0  0  0
  2  7  2  0  0  0
  2  3  1  0  0  0
  3  4  2  0  0  0
  3 37  1  0  0  0
  4  5  1  0  0  0
  4 38  1  0  0  0
  5  6  2  0  0  0
  5  8  1  0  0  0
  6  7  1  0  0  0
  6 39  1  0  0  0
  7 40  1  0  0  0
  8 12  1  0  0  0
  8  9  1  0  0  0
  9 10  2  0  0  0
  9 27  1  0  0  0
 10 11  1  0  0  0
 11 12  2  0  0  0
 12 13  1  0  0  0
 13 14  1  0  0  0
 14 15  1  0  0  0
 14 41  1  0  0  0
 14 42  1  0  0  0
 15 16  2  0  0  0
 15 17  1  0  0  0
 17 18  1  0  0  0
 17 43  1  0  0  0
 18 23  2  0  0  0
 18 19  1  0  0  0
 19 20  2  0  0  0
 19 26  1  0  0  0
 20 21  1  0  0  0
 20 44  1  0  0  0
 21 22  2  0  0  0
 21 45  1  0  0  0
 22 23  1  0  0  0
 22 46  1  0  0  0
 23 24  1  0  0  0
 24 25  2  0  0  0
 24 57  1  0  0  0
 26 47  1  0  0  0
 26 48  1  0  0  0
 26 49  1  0  0  0
 27 32  2  0  0  0
 27 28  1  0  0  0
 28 29  2  0  0  0
 28 50  1  0  0  0
 29 30  1  0  0  0
 29 51  1  0  0  0
 30 31  2  0  0  0
 30 52  1  0  0  0
 31 32  1  0  0  0
 31 33  1  0  0  0
 32 53  1  0  0  0
 33 54  1  0  0  0
 33 55  1  0  0  0
 33 56  1  0  0  0
M  CHG  1  57  -1
M  END
> <i_i_glide_confnum>
34

> <i_i_glide_lignum>
5885

> <i_i_glide_posenum>
190

> <i_i_glide_rotatable_bonds>
8

> <i_m_Source_File_Index>
472

> <b_m_subgroup_collapsed>
0

> <r_i_docking_score>
-6.23466

> <r_i_glide_ecoul>
-5.49248

> <r_i_glide_eff_state_penalty>
0

> <r_i_glide_einternal>
4.48697

> <r_i_glide_emodel>
-67.526

> <r_i_glide_energy>
-46.2311

> <r_i_glide_erotb>
0.636325

> <r_i_glide_esite>
-0.185378

> <r_i_glide_evdw>
-40.7387

> <r_i_glide_gscore>
-6.23466

> <r_i_glide_hbond>
-0.27404

> <r_i_glide_ligand_efficiency>
-0.183372

> <r_i_glide_ligand_efficiency_ln>
-1.37741

> <r_i_glide_ligand_efficiency_sa>
-0.594056

> <r_i_glide_lipo>
-2.65952

> <r_i_glide_metal>
0

> <r_i_glide_rewards>
-0.891245

> <s_i_glide_gridfile>
wee1_glide-grid

> <s_m_Source_File>
wee1_decoys_glide_SP.sdf

> <s_m_Source_Path>
/Users/zhangxujun/Desktop

> <s_m_entry_id>
747

> <s_m_entry_name>
wee1_decoys_glide_SP.472

> <s_m_subgroup_title>
wee1_decoys_glide_SP

> <s_m_subgroupid>
wee1_decoys_glide_SP


$$$$
