ZINC39666152_4899
                    3D
 Schrodinger Suite 2024-2.
 74 76  0  0  1  0            999 V2000
   -4.4976   49.5581   28.4731 C   0  0  0  0  0  0
   -3.9159   50.0648   27.1470 C   0  0  0  0  0  0
   -3.9343   51.5995   27.0324 C   0  0  0  0  0  0
   -3.3083   52.1425   25.7316 C   0  0  0  0  0  0
   -1.7856   51.9035   25.6237 C   0  0  0  0  0  0
   -1.0854   52.6604   24.4689 C   0  0  0  0  0  0
   -1.3275   52.0763   23.0592 C   0  0  0  0  0  0
   -2.4897   51.9505   22.6685 O   0  0  0  0  0  0
   -0.2748   51.7694   22.2588 N   0  0  0  0  0  0
    1.1349   51.9075   22.6136 C   0  0  0  0  0  0
    1.8873   51.1028   21.5243 C   0  0  1  0  0  0
    1.9556   50.0869   21.9188 H   0  0  0  0  0  0
    0.9457   51.1663   20.2703 C   0  0  0  0  0  0
   -0.4484   51.1647   20.9398 C   0  0  0  0  0  0
    1.0130   52.4378   19.3841 C   0  0  0  0  0  0
    2.3376   52.6015   18.6038 C   0  0  0  0  0  0
    2.6923   51.2959   17.8488 N   0  3  0  0  0  0
    2.3286   49.9346   18.5026 C   0  0  0  0  0  0
    0.9953   50.0080   19.2533 C   0  0  0  0  0  0
    3.3651   51.5994   21.4420 C   0  0  0  0  0  0
    4.1942   50.8967   20.8807 O   0  0  0  0  0  0
    3.7724   52.7122   22.0791 N   0  0  0  0  0  0
    5.1868   53.0496   22.3067 C   0  0  0  0  0  0
    5.4169   54.5537   22.5142 C   0  0  1  0  0  0
    4.5849   54.8963   23.1297 H   0  0  0  0  0  0
    6.7020   54.8389   23.3178 C   0  0  0  0  0  0
    5.3114   55.2896   21.2827 O   0  0  0  0  0  0
    6.3058   55.1508   20.3439 C   0  0  0  0  0  0
    6.0949   54.3328   19.2332 C   0  0  0  0  0  0
    7.0985   54.1770   18.2815 C   0  0  0  0  0  0
    8.3128   54.8505   18.4372 C   0  0  0  0  0  0
    8.5113   55.6961   19.5295 C   0  0  0  0  0  0
    7.5044   55.8500   20.4765 C   0  0  0  0  0  0
    9.4234   54.6404   17.4253 C   0  0  0  0  0  0
   -4.4642   48.4694   28.5176 H   0  0  0  0  0  0
   -5.5351   49.8679   28.6025 H   0  0  0  0  0  0
   -3.9235   49.9291   29.3231 H   0  0  0  0  0  0
   -2.8948   49.6953   27.0585 H   0  0  0  0  0  0
   -4.4690   49.6267   26.3149 H   0  0  0  0  0  0
   -4.9665   51.9457   27.1007 H   0  0  0  0  0  0
   -3.4187   52.0299   27.8913 H   0  0  0  0  0  0
   -3.8245   51.7057   24.8771 H   0  0  0  0  0  0
   -3.5020   53.2147   25.6802 H   0  0  0  0  0  0
   -1.3265   52.2287   26.5591 H   0  0  0  0  0  0
   -1.5689   50.8358   25.5531 H   0  0  0  0  0  0
   -1.4064   53.6967   24.4586 H   0  0  0  0  0  0
   -0.0230   52.6974   24.7019 H   0  0  0  0  0  0
    1.3408   52.9745   22.5321 H   0  0  0  0  0  0
    1.3760   51.5106   23.6009 H   0  0  0  0  0  0
   -0.7377   50.1282   21.1245 H   0  0  0  0  0  0
   -1.2357   51.5840   20.3109 H   0  0  0  0  0  0
    0.1800   52.4720   18.6792 H   0  0  0  0  0  0
    0.8569   53.2961   20.0253 H   0  0  0  0  0  0
    2.2696   53.3829   17.8452 H   0  0  0  0  0  0
    3.1946   52.8440   19.2228 H   0  0  0  0  0  0
    2.2635   51.3162   16.9338 H   0  0  0  0  0  0
    2.2944   49.2072   17.6898 H   0  0  0  0  0  0
    3.1612   49.6538   19.1415 H   0  0  0  0  0  0
    0.8422   49.0594   19.7708 H   0  0  0  0  0  0
    0.1711   50.0728   18.5405 H   0  0  0  0  0  0
    3.0882   53.3044   22.5226 H   0  0  0  0  0  0
    5.5070   52.5196   23.2012 H   0  0  0  0  0  0
    5.8513   52.6815   21.5215 H   0  0  0  0  0  0
    6.6651   54.3659   24.2987 H   0  0  0  0  0  0
    7.5852   54.4515   22.8124 H   0  0  0  0  0  0
    6.8422   55.9069   23.4796 H   0  0  0  0  0  0
    5.1643   53.8029   19.1238 H   0  0  0  0  0  0
    6.9376   53.5214   17.4374 H   0  0  0  0  0  0
    9.4496   56.2202   19.6560 H   0  0  0  0  0  0
    7.6625   56.4951   21.3274 H   0  0  0  0  0  0
    9.1278   55.0284   16.4494 H   0  0  0  0  0  0
   10.3553   55.1193   17.7300 H   0  0  0  0  0  0
    9.6230   53.5751   17.3080 H   0  0  0  0  0  0
    3.6976   51.2460   17.6801 H   0  0  0  0  0  0
  1  2  1  0  0  0
  1 35  1  0  0  0
  1 36  1  0  0  0
  1 37  1  0  0  0
  2  3  1  0  0  0
  2 38  1  0  0  0
  2 39  1  0  0  0
  3  4  1  0  0  0
  3 40  1  0  0  0
  3 41  1  0  0  0
  4  5  1  0  0  0
  4 42  1  0  0  0
  4 43  1  0  0  0
  5  6  1  0  0  0
  5 44  1  0  0  0
  5 45  1  0  0  0
  6  7  1  0  0  0
  6 46  1  0  0  0
  6 47  1  0  0  0
  7  8  2  0  0  0
  7  9  1  0  0  0
  9 14  1  0  0  0
  9 10  1  0  0  0
 10 11  1  0  0  0
 10 48  1  0  0  0
 10 49  1  0  0  0
 11 12  1  0  0  0
 11 13  1  0  0  0
 11 20  1  0  0  0
 13 19  1  0  0  0
 13 14  1  0  0  0
 13 15  1  0  0  0
 14 50  1  0  0  0
 14 51  1  0  0  0
 15 16  1  0  0  0
 15 52  1  0  0  0
 15 53  1  0  0  0
 16 17  1  0  0  0
 16 54  1  0  0  0
 16 55  1  0  0  0
 17 18  1  0  0  0
 17 56  1  0  0  0
 17 74  1  0  0  0
 18 19  1  0  0  0
 18 57  1  0  0  0
 18 58  1  0  0  0
 19 59  1  0  0  0
 19 60  1  0  0  0
 20 21  2  0  0  0
 20 22  1  0  0  0
 22 23  1  0  0  0
 22 61  1  0  0  0
 23 24  1  0  0  0
 23 62  1  0  0  0
 23 63  1  0  0  0
 24 25  1  0  0  0
 24 26  1  0  0  0
 24 27  1  0  0  0
 26 64  1  0  0  0
 26 65  1  0  0  0
 26 66  1  0  0  0
 27 28  1  0  0  0
 28 33  2  0  0  0
 28 29  1  0  0  0
 29 30  2  0  0  0
 29 67  1  0  0  0
 30 31  1  0  0  0
 30 68  1  0  0  0
 31 32  2  0  0  0
 31 34  1  0  0  0
 32 33  1  0  0  0
 32 69  1  0  0  0
 33 70  1  0  0  0
 34 71  1  0  0  0
 34 72  1  0  0  0
 34 73  1  0  0  0
M  CHG  1  17   1
M  END
> <i_i_glide_confnum>
151

> <i_i_glide_lignum>
4900

> <i_i_glide_posenum>
284

> <i_i_glide_rotatable_bonds>
12

> <i_m_Source_File_Index>
4010

> <b_m_subgroup_collapsed>
0

> <r_i_docking_score>
-1.66469

> <r_i_glide_ecoul>
-6.93297

> <r_i_glide_eff_state_penalty>
0

> <r_i_glide_einternal>
12.302

> <r_i_glide_emodel>
-26.0292

> <r_i_glide_energy>
-34.4728

> <r_i_glide_erotb>
1.11291

> <r_i_glide_esite>
-0.1

> <r_i_glide_evdw>
-27.5398

> <r_i_glide_gscore>
-1.66469

> <r_i_glide_hbond>
-0.288835

> <r_i_glide_ligand_efficiency>
-0.0520215

> <r_i_glide_ligand_efficiency_ln>
-0.372769

> <r_i_glide_ligand_efficiency_sa>
-0.165158

> <r_i_glide_lipo>
-1.48595

> <r_i_glide_metal>
0

> <r_i_glide_rewards>
1.51413

> <s_i_glide_gridfile>
wee1_glide-grid

> <s_m_Source_File>
wee1_decoys_glide_SP.sdf

> <s_m_Source_Path>
/Users/zhangxujun/Desktop

> <s_m_entry_id>
4285

> <s_m_entry_name>
wee1_decoys_glide_SP.4010

> <s_m_subgroup_title>
wee1_decoys_glide_SP

> <s_m_subgroupid>
wee1_decoys_glide_SP


$$$$
