ZINC36013493_5399
                    3D
 Schrodinger Suite 2024-2.
 73 76  0  0  1  0            999 V2000
    1.2124   55.7632   30.1710 C   0  0  0  0  0  0
    2.2542   56.2044   29.1432 C   0  0  0  0  0  0
    2.6978   55.1055   28.1509 C   0  0  0  0  0  0
    3.6757   54.1203   28.6828 N   0  0  0  0  0  0
    5.1265   54.4215   28.5647 C   0  0  0  0  0  0
    5.7435   54.2819   27.1550 C   0  0  0  0  0  0
    6.9688   54.3572   27.0493 O   0  0  0  0  0  0
    4.8961   54.2756   26.1058 N   0  0  0  0  0  0
    5.1485   54.3479   24.7283 C   0  0  0  0  0  0
    6.3861   54.6713   24.1582 C   0  0  0  0  0  0
    6.5162   54.7414   22.7752 C   0  0  0  0  0  0
    5.4199   54.4925   21.9376 C   0  0  0  0  0  0
    4.1905   54.1615   22.5209 C   0  0  0  0  0  0
    4.0538   54.0966   23.9028 C   0  0  0  0  0  0
    5.5485   54.5580   20.5531 N   0  0  0  0  0  0
    6.4835   55.4357   19.8344 C   0  0  0  0  0  0
    7.3568   54.7287   18.7721 C   0  0  0  0  0  0
    6.5247   53.8666   17.9118 N   0  0  0  0  0  0
    5.5771   52.9662   18.5998 C   0  0  0  0  0  0
    4.7479   53.7534   19.6268 C   0  0  0  0  0  0
    6.7503   53.8412   16.5608 C   0  0  0  0  0  0
    7.5281   54.6254   16.0127 O   0  0  0  0  0  0
    6.0364   52.9127   15.8778 N   0  0  0  0  0  0
    5.9466   52.6666   14.4939 C   0  0  0  0  0  0
    6.4583   53.5087   13.4901 C   0  0  0  0  0  0
    6.2976   53.1748   12.1449 C   0  0  0  0  0  0
    5.6285   52.0053   11.7879 C   0  0  0  0  0  0
    5.1163   51.1598   12.7768 C   0  0  0  0  0  0
    5.2713   51.5007   14.1219 C   0  0  0  0  0  0
    4.3721   49.8931   12.3933 C   0  0  0  0  0  0
    3.3099   52.8951   29.1631 C   0  0  0  0  0  0
    4.0979   52.0991   29.6812 O   0  0  0  0  0  0
    1.8690   52.4811   29.0537 C   0  0  0  0  0  0
    1.0607   52.4621   30.1925 C   0  0  0  0  0  0
   -0.2749   52.0964   30.0822 C   0  0  0  0  0  0
   -0.7902   51.7027   28.8499 C   0  0  0  0  0  0
    0.0141   51.7033   27.7139 C   0  0  0  0  0  0
    1.3452   52.0977   27.8138 C   0  0  0  0  0  0
    0.8251   56.6164   30.7337 H   0  0  0  0  0  0
    0.3676   55.2601   29.7022 H   0  0  0  0  0  0
    1.6454   55.0694   30.8815 H   0  0  0  0  0  0
    3.1043   56.6464   29.6581 H   0  0  0  0  0  0
    1.8099   57.0148   28.5668 H   0  0  0  0  0  0
    3.1192   55.6080   27.2869 H   0  0  0  0  0  0
    1.8024   54.6202   27.7665 H   0  0  0  0  0  0
    5.2232   55.4718   28.8212 H   0  0  0  0  0  0
    5.7743   53.9267   29.2819 H   0  0  0  0  0  0
    3.9231   54.1764   26.3456 H   0  0  0  0  0  0
    7.2604   54.8802   24.7521 H   0  0  0  0  0  0
    7.4884   54.9746   22.3672 H   0  0  0  0  0  0
    3.3194   53.9842   21.9088 H   0  0  0  0  0  0
    3.0876   53.8547   24.3205 H   0  0  0  0  0  0
    5.8539   56.1811   19.3439 H   0  0  0  0  0  0
    7.1184   55.9966   20.5190 H   0  0  0  0  0  0
    7.9031   55.4901   18.2133 H   0  0  0  0  0  0
    8.0832   54.0972   19.2822 H   0  0  0  0  0  0
    6.1372   52.1904   19.1238 H   0  0  0  0  0  0
    4.8579   52.4959   17.9304 H   0  0  0  0  0  0
    4.1152   53.0419   20.1612 H   0  0  0  0  0  0
    4.0743   54.4483   19.1222 H   0  0  0  0  0  0
    5.4967   52.2713   16.4423 H   0  0  0  0  0  0
    6.9695   54.4278   13.7237 H   0  0  0  0  0  0
    6.6887   53.8295   11.3791 H   0  0  0  0  0  0
    5.5076   51.7585   10.7415 H   0  0  0  0  0  0
    4.8595   50.8488   14.8818 H   0  0  0  0  0  0
    3.8399   50.0226   11.4494 H   0  0  0  0  0  0
    5.0655   49.0569   12.2958 H   0  0  0  0  0  0
    3.6211   49.6404   13.1438 H   0  0  0  0  0  0
    1.4508   52.7268   31.1650 H   0  0  0  0  0  0
   -0.8964   52.0708   30.9646 H   0  0  0  0  0  0
   -1.8171   51.3736   28.7764 H   0  0  0  0  0  0
   -0.3932   51.3879   26.7636 H   0  0  0  0  0  0
    1.9654   52.0954   26.9266 H   0  0  0  0  0  0
  1  2  1  0  0  0
  1 39  1  0  0  0
  1 40  1  0  0  0
  1 41  1  0  0  0
  2  3  1  0  0  0
  2 42  1  0  0  0
  2 43  1  0  0  0
  3  4  1  0  0  0
  3 44  1  0  0  0
  3 45  1  0  0  0
  4  5  1  0  0  0
  4 31  1  0  0  0
  5  6  1  0  0  0
  5 46  1  0  0  0
  5 47  1  0  0  0
  6  7  2  0  0  0
  6  8  1  0  0  0
  8  9  1  0  0  0
  8 48  1  0  0  0
  9 14  2  0  0  0
  9 10  1  0  0  0
 10 11  2  0  0  0
 10 49  1  0  0  0
 11 12  1  0  0  0
 11 50  1  0  0  0
 12 13  2  0  0  0
 12 15  1  0  0  0
 13 14  1  0  0  0
 13 51  1  0  0  0
 14 52  1  0  0  0
 15 20  1  0  0  0
 15 16  1  0  0  0
 16 17  1  0  0  0
 16 53  1  0  0  0
 16 54  1  0  0  0
 17 18  1  0  0  0
 17 55  1  0  0  0
 17 56  1  0  0  0
 18 19  1  0  0  0
 18 21  1  0  0  0
 19 20  1  0  0  0
 19 57  1  0  0  0
 19 58  1  0  0  0
 20 59  1  0  0  0
 20 60  1  0  0  0
 21 22  2  0  0  0
 21 23  1  0  0  0
 23 24  1  0  0  0
 23 61  1  0  0  0
 24 29  2  0  0  0
 24 25  1  0  0  0
 25 26  2  0  0  0
 25 62  1  0  0  0
 26 27  1  0  0  0
 26 63  1  0  0  0
 27 28  2  0  0  0
 27 64  1  0  0  0
 28 29  1  0  0  0
 28 30  1  0  0  0
 29 65  1  0  0  0
 30 66  1  0  0  0
 30 67  1  0  0  0
 30 68  1  0  0  0
 31 32  2  0  0  0
 31 33  1  0  0  0
 33 38  2  0  0  0
 33 34  1  0  0  0
 34 35  2  0  0  0
 34 69  1  0  0  0
 35 36  1  0  0  0
 35 70  1  0  0  0
 36 37  2  0  0  0
 36 71  1  0  0  0
 37 38  1  0  0  0
 37 72  1  0  0  0
 38 73  1  0  0  0
M  END
> <i_i_glide_confnum>
137

> <i_i_glide_lignum>
5400

> <i_i_glide_posenum>
375

> <i_i_glide_rotatable_bonds>
12

> <i_m_Source_File_Index>
2794

> <b_m_subgroup_collapsed>
0

> <r_i_docking_score>
-6.69425

> <r_i_glide_ecoul>
-4.95954

> <r_i_glide_eff_state_penalty>
0

> <r_i_glide_einternal>
6.33471

> <r_i_glide_emodel>
-79.9005

> <r_i_glide_energy>
-58.0174

> <r_i_glide_erotb>
0.777335

> <r_i_glide_esite>
-0.0525217

> <r_i_glide_evdw>
-53.0578

> <r_i_glide_gscore>
-6.69425

> <r_i_glide_hbond>
-0.0532894

> <r_i_glide_ligand_efficiency>
-0.176164

> <r_i_glide_ligand_efficiency_ln>
-1.44348

> <r_i_glide_ligand_efficiency_sa>
-0.59226

> <r_i_glide_lipo>
-3.09103

> <r_i_glide_metal>
0

> <r_i_glide_rewards>
-0.877921

> <s_i_glide_gridfile>
wee1_glide-grid

> <s_m_Source_File>
wee1_decoys_glide_SP.sdf

> <s_m_Source_Path>
/Users/zhangxujun/Desktop

> <s_m_entry_id>
3069

> <s_m_entry_name>
wee1_decoys_glide_SP.2794

> <s_m_subgroup_title>
wee1_decoys_glide_SP

> <s_m_subgroupid>
wee1_decoys_glide_SP


$$$$
