ZINC56807135_2525
                    3D
 Schrodinger Suite 2024-2.
 64 67  0  0  1  0            999 V2000
    8.0534   55.6951   21.1891 C   0  0  0  0  0  0
    6.6396   55.1729   20.8605 C   0  0  0  0  0  0
    5.8711   54.5262   22.0260 C   0  0  0  0  0  0
    4.8925   53.8306   21.7631 O   0  0  0  0  0  0
    6.3047   54.7832   23.2781 N   0  0  0  0  0  0
    5.6528   54.4965   24.4908 C   0  0  0  0  0  0
    4.2635   54.3520   24.6049 C   0  0  0  0  0  0
    3.6903   54.0964   25.8443 C   0  0  0  0  0  0
    4.4875   53.9925   26.9916 C   0  0  0  0  0  0
    5.8722   54.1531   26.8735 C   0  0  0  0  0  0
    6.4453   54.4136   25.6329 C   0  0  0  0  0  0
    3.9057   53.6586   28.3745 C   0  0  1  0  0  0
    4.6071   52.9510   28.8227 H   0  0  0  0  0  0
    3.8947   54.8929   29.2984 C   0  0  0  0  0  0
    2.6447   52.8944   28.3872 N   0  0  0  0  0  0
    1.4140   53.3485   28.0981 C   0  0  0  0  0  0
    1.1042   54.5369   28.0818 O   0  0  0  0  0  0
    0.6009   52.3512   27.7240 N   0  0  0  0  0  0
   -0.5907   52.4464   26.8602 C   0  0  1  0  0  0
   -0.3024   52.6437   25.3297 C   0  0  2  0  0  0
    0.3000   53.5426   25.1804 H   0  0  0  0  0  0
   -1.6053   52.7084   24.4524 C   0  0  0  0  0  0
   -2.7567   51.7388   24.8332 C   0  0  0  0  0  0
   -2.8752   51.5102   26.3512 C   0  0  0  0  0  0
   -1.5038   51.2168   27.0063 C   0  0  1  0  0  0
   -1.6905   51.0521   28.0716 H   0  0  0  0  0  0
   -0.7866   49.9489   26.4817 C   0  0  0  0  0  0
   -0.2188   50.1863   25.0658 N   0  3  1  0  0  0
    0.5777   51.4837   24.8601 C   0  0  0  0  0  0
    0.6187   49.0113   24.6107 C   0  0  0  0  0  0
   -0.0934   47.8106   24.0823 C   0  0  0  0  0  0
    0.6672   48.7362   23.1387 C   0  0  0  0  0  0
    8.5237   56.1042   20.2941 H   0  0  0  0  0  0
    8.7051   54.8985   21.5421 H   0  0  0  0  0  0
    8.0357   56.4917   21.9326 H   0  0  0  0  0  0
    6.0302   55.9947   20.4857 H   0  0  0  0  0  0
    6.7024   54.4550   20.0436 H   0  0  0  0  0  0
    7.2205   55.2029   23.3583 H   0  0  0  0  0  0
    3.6162   54.4511   23.7465 H   0  0  0  0  0  0
    2.6215   53.9923   25.8858 H   0  0  0  0  0  0
    6.5081   54.0739   27.7439 H   0  0  0  0  0  0
    7.5097   54.5266   25.5562 H   0  0  0  0  0  0
    4.8995   55.2891   29.4544 H   0  0  0  0  0  0
    3.2870   55.6968   28.8815 H   0  0  0  0  0  0
    3.4830   54.6449   30.2743 H   0  0  0  0  0  0
    2.7640   51.8956   28.3842 H   0  0  0  0  0  0
    0.7492   51.4500   28.1532 H   0  0  0  0  0  0
   -1.1519   53.2977   27.2375 H   0  0  0  0  0  0
   -2.0272   53.6965   24.5050 H   0  0  0  0  0  0
   -1.3594   52.5948   23.3950 H   0  0  0  0  0  0
   -2.6276   50.7822   24.3273 H   0  0  0  0  0  0
   -3.7032   52.1242   24.4494 H   0  0  0  0  0  0
   -3.5483   50.6665   26.5153 H   0  0  0  0  0  0
   -3.3395   52.3801   26.8190 H   0  0  0  0  0  0
    0.0489   49.6606   27.1166 H   0  0  0  0  0  0
   -1.4855   49.1188   26.3824 H   0  0  0  0  0  0
    0.7854   51.5528   23.7909 H   0  0  0  0  0  0
    1.5043   51.4018   25.4175 H   0  0  0  0  0  0
    1.5041   48.8968   25.2427 H   0  0  0  0  0  0
    0.3144   46.8891   24.4790 H   0  0  0  0  0  0
   -1.1842   47.8072   24.0679 H   0  0  0  0  0  0
    0.1019   49.3785   22.4611 H   0  0  0  0  0  0
    1.6498   48.4968   22.7312 H   0  0  0  0  0  0
   -1.0248   50.2731   24.4650 H   0  0  0  0  0  0
  1  2  1  0  0  0
  1 33  1  0  0  0
  1 34  1  0  0  0
  1 35  1  0  0  0
  2  3  1  0  0  0
  2 36  1  0  0  0
  2 37  1  0  0  0
  3  4  2  0  0  0
  3  5  1  0  0  0
  5  6  1  0  0  0
  5 38  1  0  0  0
  6 11  2  0  0  0
  6  7  1  0  0  0
  7  8  2  0  0  0
  7 39  1  0  0  0
  8  9  1  0  0  0
  8 40  1  0  0  0
  9 10  2  0  0  0
  9 12  1  0  0  0
 10 11  1  0  0  0
 10 41  1  0  0  0
 11 42  1  0  0  0
 12 13  1  0  0  0
 12 14  1  0  0  0
 12 15  1  0  0  0
 14 43  1  0  0  0
 14 44  1  0  0  0
 14 45  1  0  0  0
 15 16  1  0  0  0
 15 46  1  0  0  0
 16 17  2  0  0  0
 16 18  1  0  0  0
 18 19  1  0  0  0
 18 47  1  0  0  0
 19 25  1  0  0  0
 19 20  1  0  0  0
 19 48  1  0  0  0
 20 21  1  0  0  0
 20 29  1  0  0  0
 20 22  1  0  0  0
 22 23  1  0  0  0
 22 49  1  0  0  0
 22 50  1  0  0  0
 23 24  1  0  0  0
 23 51  1  0  0  0
 23 52  1  0  0  0
 24 25  1  0  0  0
 24 53  1  0  0  0
 24 54  1  0  0  0
 25 26  1  0  0  0
 25 27  1  0  0  0
 27 28  1  0  0  0
 27 55  1  0  0  0
 27 56  1  0  0  0
 28 29  1  0  0  0
 28 30  1  0  0  0
 28 64  1  0  0  0
 29 57  1  0  0  0
 29 58  1  0  0  0
 30 32  1  0  0  0
 30 31  1  0  0  0
 30 59  1  0  0  0
 31 32  1  0  0  0
 31 60  1  0  0  0
 31 61  1  0  0  0
 32 62  1  0  0  0
 32 63  1  0  0  0
M  CHG  1  28   1
M  END
> <i_i_glide_confnum>
45

> <i_i_glide_lignum>
2526

> <i_i_glide_posenum>
377

> <i_i_glide_rotatable_bonds>
9

> <i_m_Source_File_Index>
2635

> <b_m_subgroup_collapsed>
0

> <r_i_docking_score>
-4.72665

> <r_i_glide_ecoul>
-0.126018

> <r_i_glide_eff_state_penalty>
0

> <r_i_glide_einternal>
3.23085

> <r_i_glide_emodel>
-49.178

> <r_i_glide_energy>
-37.6955

> <r_i_glide_erotb>
0.981989

> <r_i_glide_esite>
-0.0219785

> <r_i_glide_evdw>
-37.5695

> <r_i_glide_gscore>
-4.72665

> <r_i_glide_hbond>
0

> <r_i_glide_ligand_efficiency>
-0.162988

> <r_i_glide_ligand_efficiency_ln>
-1.08228

> <r_i_glide_ligand_efficiency_sa>
-0.50075

> <r_i_glide_lipo>
-2.62509

> <r_i_glide_metal>
0

> <r_i_glide_rewards>
-1.16419

> <s_i_glide_gridfile>
wee1_glide-grid

> <s_m_Source_File>
wee1_decoys_glide_SP.sdf

> <s_m_Source_Path>
/Users/zhangxujun/Desktop

> <s_m_entry_id>
2910

> <s_m_entry_name>
wee1_decoys_glide_SP.2635

> <s_m_subgroup_title>
wee1_decoys_glide_SP

> <s_m_subgroupid>
wee1_decoys_glide_SP


$$$$
