ZINC58900646_852
                    3D
 Schrodinger Suite 2024-2.
 51 53  0  0  1  0            999 V2000
   -5.8778   43.1936   19.2099 C   0  0  0  0  0  0
   -4.5180   43.2331   19.6324 O   0  0  0  0  0  0
   -4.1406   44.1419   20.6081 C   0  0  0  0  0  0
   -5.0560   44.9328   21.3219 C   0  0  0  0  0  0
   -4.6185   45.8435   22.2803 C   0  0  0  0  0  0
   -3.2586   45.9881   22.5636 C   0  0  0  0  0  0
   -2.3472   45.1987   21.8502 C   0  0  0  0  0  0
   -2.7690   44.2766   20.8759 C   0  0  0  0  0  0
   -1.8954   43.4871   20.1460 O   0  0  0  0  0  0
   -0.4930   43.6927   20.2736 C   0  0  0  0  0  0
   -2.8310   46.9670   23.5710 C   0  0  0  0  0  0
   -1.6546   47.0190   24.0794 N   0  0  0  0  0  0
   -1.2963   48.0747   24.9024 N   0  0  0  0  0  0
   -1.5829   49.4021   24.7631 C   0  0  0  0  0  0
   -2.3495   49.8640   23.9116 O   0  0  0  0  0  0
   -0.9288   50.3410   25.7516 C   0  0  0  0  0  0
   -1.5743   51.5378   26.0845 C   0  0  0  0  0  0
   -1.0190   52.4013   27.0207 C   0  0  0  0  0  0
    0.2003   52.1016   27.6191 C   0  0  0  0  0  0
    0.8671   50.9237   27.2816 C   0  0  0  0  0  0
    0.3043   50.0465   26.3531 C   0  0  0  0  0  0
    0.6501   52.9590   28.6301 N   0  0  0  0  0  0
    1.8997   53.3669   28.9351 C   0  0  0  0  0  0
    2.1322   53.7293   30.0860 O   0  0  0  0  0  0
    2.9914   53.5043   27.8896 C   0  0  0  0  0  0
    2.7045   53.7060   26.5301 C   0  0  0  0  0  0
    3.7271   54.0136   25.6326 C   0  0  0  0  0  0
    5.0446   54.0963   26.0799 C   0  0  0  0  0  0
    5.3501   53.8553   27.4152 C   0  0  0  0  0  0
    4.3292   53.5620   28.3131 C   0  0  0  0  0  0
    6.4431   54.5370   24.8658 Br  0  0  0  0  0  0
   -5.9796   42.4963   18.3789 H   0  0  0  0  0  0
   -6.5343   42.8527   20.0117 H   0  0  0  0  0  0
   -6.2183   44.1684   18.8562 H   0  0  0  0  0  0
   -6.1180   44.8605   21.1451 H   0  0  0  0  0  0
   -5.3559   46.4391   22.8013 H   0  0  0  0  0  0
   -1.2958   45.3219   22.0576 H   0  0  0  0  0  0
    0.0304   43.0433   19.5720 H   0  0  0  0  0  0
   -0.2141   44.7208   20.0371 H   0  0  0  0  0  0
   -0.1438   43.4429   21.2766 H   0  0  0  0  0  0
   -3.6117   47.6623   23.8713 H   0  0  0  0  0  0
   -0.5025   47.8602   25.4903 H   0  0  0  0  0  0
   -2.5262   51.7941   25.6404 H   0  0  0  0  0  0
   -1.5470   53.3025   27.2802 H   0  0  0  0  0  0
    1.8014   50.6657   27.7581 H   0  0  0  0  0  0
    0.8345   49.1313   26.1277 H   0  0  0  0  0  0
   -0.0498   53.2000   29.3139 H   0  0  0  0  0  0
    1.6897   53.6949   26.1611 H   0  0  0  0  0  0
    3.4969   54.1984   24.5935 H   0  0  0  0  0  0
    6.3724   53.9156   27.7598 H   0  0  0  0  0  0
    4.5876   53.4165   29.3530 H   0  0  0  0  0  0
  1  2  1  0  0  0
  1 32  1  0  0  0
  1 33  1  0  0  0
  1 34  1  0  0  0
  2  3  1  0  0  0
  3  8  2  0  0  0
  3  4  1  0  0  0
  4  5  2  0  0  0
  4 35  1  0  0  0
  5  6  1  0  0  0
  5 36  1  0  0  0
  6  7  2  0  0  0
  6 11  1  0  0  0
  7  8  1  0  0  0
  7 37  1  0  0  0
  8  9  1  0  0  0
  9 10  1  0  0  0
 10 38  1  0  0  0
 10 39  1  0  0  0
 10 40  1  0  0  0
 11 12  2  0  0  0
 11 41  1  0  0  0
 12 13  1  0  0  0
 13 14  1  0  0  0
 13 42  1  0  0  0
 14 15  2  0  0  0
 14 16  1  0  0  0
 16 21  2  0  0  0
 16 17  1  0  0  0
 17 18  2  0  0  0
 17 43  1  0  0  0
 18 19  1  0  0  0
 18 44  1  0  0  0
 19 20  2  0  0  0
 19 22  1  0  0  0
 20 21  1  0  0  0
 20 45  1  0  0  0
 21 46  1  0  0  0
 22 23  1  0  0  0
 22 47  1  0  0  0
 23 24  2  0  0  0
 23 25  1  0  0  0
 25 30  2  0  0  0
 25 26  1  0  0  0
 26 27  2  0  0  0
 26 48  1  0  0  0
 27 28  1  0  0  0
 27 49  1  0  0  0
 28 29  2  0  0  0
 28 31  1  0  0  0
 29 30  1  0  0  0
 29 50  1  0  0  0
 30 51  1  0  0  0
M  END
> <i_i_glide_confnum>
61

> <i_i_glide_lignum>
853

> <i_i_glide_posenum>
366

> <i_i_glide_rotatable_bonds>
9

> <i_m_Source_File_Index>
4051

> <b_m_subgroup_collapsed>
0

> <r_i_docking_score>
-2.22758

> <r_i_glide_ecoul>
-4.99058

> <r_i_glide_eff_state_penalty>
0

> <r_i_glide_einternal>
11.9631

> <r_i_glide_emodel>
-32.2427

> <r_i_glide_energy>
-39.4331

> <r_i_glide_erotb>
0.610599

> <r_i_glide_esite>
-0.125814

> <r_i_glide_evdw>
-34.4425

> <r_i_glide_gscore>
-2.22758

> <r_i_glide_hbond>
-0.31753

> <r_i_glide_ligand_efficiency>
-0.0718575

> <r_i_glide_ligand_efficiency_ln>
-0.502388

> <r_i_glide_ligand_efficiency_sa>
-0.225732

> <r_i_glide_lipo>
-1.81029

> <r_i_glide_metal>
0

> <r_i_glide_rewards>
1.88617

> <s_i_glide_gridfile>
wee1_glide-grid

> <s_m_Source_File>
wee1_decoys_glide_SP.sdf

> <s_m_Source_Path>
/Users/zhangxujun/Desktop

> <s_m_entry_id>
4326

> <s_m_entry_name>
wee1_decoys_glide_SP.4051

> <s_m_subgroup_title>
wee1_decoys_glide_SP

> <s_m_subgroupid>
wee1_decoys_glide_SP


$$$$
