ZINC34388371_5303
                    3D
 Schrodinger Suite 2024-2.
 73 77  0  0  1  0            999 V2000
    2.3707   55.6201   16.6053 C   0  0  0  0  0  0
    2.7075   54.4286   15.6905 C   0  0  0  0  0  0
    4.0063   53.6328   16.0329 C   0  0  1  0  0  0
    3.9151   53.3821   17.0915 H   0  0  0  0  0  0
    3.9608   52.2633   15.3204 C   0  0  0  0  0  0
    5.3775   54.4113   15.8721 C   0  0  2  0  0  0
    6.5933   53.6457   16.4865 C   0  0  2  0  0  0
    6.2020   53.1466   17.3810 H   0  0  0  0  0  0
    7.5811   54.6967   16.7705 C   0  0  1  0  0  0
    7.9446   55.2389   15.8899 H   0  0  0  0  0  0
    6.7859   55.7017   17.5954 C   0  0  1  0  0  0
    7.1505   56.7207   17.4469 H   0  0  0  0  0  0
    5.4408   55.6598   16.8207 N   0  3  0  0  0  0
    6.6202   55.4506   19.0998 C   0  0  0  0  0  0
    7.6294   55.9091   19.9478 C   0  0  0  0  0  0
    7.5460   55.6971   21.3179 C   0  0  0  0  0  0
    6.4504   55.0294   21.8645 C   0  0  0  0  0  0
    5.4299   54.5783   21.0209 C   0  0  0  0  0  0
    5.5148   54.7824   19.6456 C   0  0  0  0  0  0
    6.4181   54.8245   23.3225 C   0  0  0  0  0  0
    5.3084   54.7205   24.0813 C   0  0  0  0  0  0
    5.2515   54.4884   25.5396 C   0  0  0  0  0  0
    6.4049   54.3691   26.3266 C   0  0  0  0  0  0
    6.3019   54.1148   27.6908 C   0  0  0  0  0  0
    5.0454   53.9850   28.2748 C   0  0  0  0  0  0
    3.8903   54.1026   27.5070 C   0  0  0  0  0  0
    3.9958   54.3550   26.1421 C   0  0  0  0  0  0
    8.7476   53.8765   17.2632 C   0  0  0  0  0  0
    9.5885   54.2466   18.0811 O   0  0  0  0  0  0
    8.6961   52.7265   16.5169 N   0  0  0  0  0  0
    7.4961   52.5870   15.8552 C   0  0  0  0  0  0
    7.1415   51.7403   15.0391 O   0  0  0  0  0  0
    9.8336   51.7552   16.5619 C   0  0  0  0  0  0
    9.6726   50.3843   15.8381 C   0  0  0  0  0  0
    9.8967   50.4194   14.3057 C   0  0  0  0  0  0
   11.2214   51.1008   13.9286 C   0  0  0  0  0  0
   11.3690   52.4728   14.6101 C   0  0  0  0  0  0
   11.2139   52.3403   16.1353 C   0  0  0  0  0  0
    5.5244   54.9923   14.4105 C   0  0  0  0  0  0
    5.3373   56.2187   14.2102 O   0  0  0  0  0  0
    5.8292   54.1958   13.4960 O   0  5  0  0  0  0
    1.3465   55.9534   16.4346 H   0  0  0  0  0  0
    2.4512   55.3555   17.6610 H   0  0  0  0  0  0
    3.0104   56.4787   16.4100 H   0  0  0  0  0  0
    2.7285   54.7609   14.6517 H   0  0  0  0  0  0
    1.8578   53.7456   15.7443 H   0  0  0  0  0  0
    4.0651   52.3516   14.2395 H   0  0  0  0  0  0
    4.7427   51.6013   15.6810 H   0  0  0  0  0  0
    3.0241   51.7397   15.5153 H   0  0  0  0  0  0
    5.3458   56.4714   16.2180 H   0  0  0  0  0  0
    8.4971   56.4136   19.5439 H   0  0  0  0  0  0
    8.3448   56.0519   21.9546 H   0  0  0  0  0  0
    4.5744   54.0511   21.4181 H   0  0  0  0  0  0
    4.7218   54.4017   19.0206 H   0  0  0  0  0  0
    7.3895   54.7344   23.7855 H   0  0  0  0  0  0
    4.3503   54.8185   23.5901 H   0  0  0  0  0  0
    7.3893   54.4585   25.8959 H   0  0  0  0  0  0
    7.1908   54.0220   28.2978 H   0  0  0  0  0  0
    4.9653   53.7885   29.3325 H   0  0  0  0  0  0
    2.9185   53.9960   27.9669 H   0  0  0  0  0  0
    3.0935   54.4380   25.5541 H   0  0  0  0  0  0
    9.9028   51.5017   17.6198 H   0  0  0  0  0  0
    8.7046   49.9556   16.0749 H   0  0  0  0  0  0
   10.3888   49.6832   16.2706 H   0  0  0  0  0  0
    9.0873   50.9446   13.8040 H   0  0  0  0  0  0
    9.8774   49.4049   13.9041 H   0  0  0  0  0  0
   11.2893   51.2091   12.8466 H   0  0  0  0  0  0
   12.0553   50.4568   14.2130 H   0  0  0  0  0  0
   10.6220   53.1658   14.2194 H   0  0  0  0  0  0
   12.3417   52.9029   14.3698 H   0  0  0  0  0  0
   12.0013   51.6862   16.5141 H   0  0  0  0  0  0
   11.4139   53.2999   16.6108 H   0  0  0  0  0  0
    4.6532   55.6796   17.4505 H   0  0  0  0  0  0
  1  2  1  0  0  0
  1 42  1  0  0  0
  1 43  1  0  0  0
  1 44  1  0  0  0
  2  3  1  0  0  0
  2 45  1  0  0  0
  2 46  1  0  0  0
  3  4  1  0  0  0
  3  5  1  0  0  0
  3  6  1  0  0  0
  5 47  1  0  0  0
  5 48  1  0  0  0
  5 49  1  0  0  0
  6 13  1  0  0  0
  6  7  1  0  0  0
  6 39  1  0  0  0
  7  8  1  0  0  0
  7 31  1  0  0  0
  7  9  1  0  0  0
  9 10  1  0  0  0
  9 11  1  0  0  0
  9 28  1  0  0  0
 11 12  1  0  0  0
 11 13  1  0  0  0
 11 14  1  0  0  0
 13 50  1  0  0  0
 13 73  1  0  0  0
 14 19  2  0  0  0
 14 15  1  0  0  0
 15 16  2  0  0  0
 15 51  1  0  0  0
 16 17  1  0  0  0
 16 52  1  0  0  0
 17 18  2  0  0  0
 17 20  1  0  0  0
 18 19  1  0  0  0
 18 53  1  0  0  0
 19 54  1  0  0  0
 20 21  2  0  0  0
 20 55  1  0  0  0
 21 22  1  0  0  0
 21 56  1  0  0  0
 22 27  2  0  0  0
 22 23  1  0  0  0
 23 24  2  0  0  0
 23 57  1  0  0  0
 24 25  1  0  0  0
 24 58  1  0  0  0
 25 26  2  0  0  0
 25 59  1  0  0  0
 26 27  1  0  0  0
 26 60  1  0  0  0
 27 61  1  0  0  0
 28 29  2  0  0  0
 28 30  1  0  0  0
 30 31  1  0  0  0
 30 33  1  0  0  0
 31 32  2  0  0  0
 33 38  1  0  0  0
 33 34  1  0  0  0
 33 62  1  0  0  0
 34 35  1  0  0  0
 34 63  1  0  0  0
 34 64  1  0  0  0
 35 36  1  0  0  0
 35 65  1  0  0  0
 35 66  1  0  0  0
 36 37  1  0  0  0
 36 67  1  0  0  0
 36 68  1  0  0  0
 37 38  1  0  0  0
 37 69  1  0  0  0
 37 70  1  0  0  0
 38 71  1  0  0  0
 38 72  1  0  0  0
 39 40  2  0  0  0
 39 41  1  0  0  0
M  CHG  2  13   1  41  -1
M  END
> <i_i_glide_confnum>
136

> <i_i_glide_lignum>
5304

> <i_i_glide_posenum>
355

> <i_i_glide_rotatable_bonds>
7

> <i_m_Source_File_Index>
5780

> <b_m_subgroup_collapsed>
0

> <r_i_docking_score>
-5.47723

> <r_i_glide_ecoul>
-1.25564

> <r_i_glide_eff_state_penalty>
0

> <r_i_glide_einternal>
3.45267

> <r_i_glide_emodel>
-51.3742

> <r_i_glide_energy>
-39.4578

> <r_i_glide_erotb>
0.407394

> <r_i_glide_esite>
-0.0087541

> <r_i_glide_evdw>
-38.2021

> <r_i_glide_gscore>
-5.47723

> <r_i_glide_hbond>
0

> <r_i_glide_ligand_efficiency>
-0.148033

> <r_i_glide_ligand_efficiency_ln>
-1.18788

> <r_i_glide_ligand_efficiency_sa>
-0.49328

> <r_i_glide_lipo>
-3.4736

> <r_i_glide_metal>
0

> <r_i_glide_rewards>
-0.303819

> <s_i_glide_gridfile>
wee1_glide-grid

> <s_m_Source_File>
wee1_decoys_glide_SP.sdf

> <s_m_Source_Path>
/Users/zhangxujun/Desktop

> <s_m_entry_id>
6055

> <s_m_entry_name>
wee1_decoys_glide_SP.5780

> <s_m_subgroup_title>
wee1_decoys_glide_SP

> <s_m_subgroupid>
wee1_decoys_glide_SP


$$$$
