ZINC59776178_2836
                    3D
 Schrodinger Suite 2024-2.
 66 69  0  0  1  0            999 V2000
    7.1019   55.5758   24.4710 C   0  0  0  0  0  0
    6.2401   54.9113   25.5309 C   0  0  0  0  0  0
    6.6085   54.9635   26.8804 C   0  0  0  0  0  0
    5.8106   54.3860   27.8621 C   0  0  0  0  0  0
    4.6111   53.7619   27.5128 C   0  0  0  0  0  0
    4.2587   53.6961   26.1578 C   0  0  0  0  0  0
    5.0646   54.2446   25.1623 C   0  0  0  0  0  0
    4.7972   54.1046   23.7916 N   0  0  0  0  0  0
    3.6961   53.6969   23.1293 C   0  0  0  0  0  0
    2.6187   53.3946   23.6464 O   0  0  0  0  0  0
    3.9087   53.5962   21.6399 C   0  0  0  0  0  0
    3.2810   52.5913   20.9011 C   0  0  0  0  0  0
    3.5039   52.4814   19.5306 C   0  0  0  0  0  0
    4.3410   53.3829   18.8647 C   0  0  0  0  0  0
    4.9730   54.4108   19.5898 C   0  0  0  0  0  0
    4.7506   54.4966   20.9720 C   0  0  0  0  0  0
    5.7772   55.3276   18.8796 N   0  0  0  0  0  0
    6.5135   56.3792   19.3100 C   0  0  0  0  0  0
    6.7022   56.7224   20.4803 O   0  0  0  0  0  0
    7.0532   57.1421   18.2231 C   0  0  0  0  0  0
    7.4722   56.7808   16.9410 C   0  0  0  0  0  0
    7.9543   57.9400   16.3333 C   0  0  0  0  0  0
    7.8573   58.9440   17.2838 C   0  0  0  0  0  0
    7.3502   58.4503   18.4415 O   0  0  0  0  0  0
    4.5467   53.2085   17.3624 C   0  0  0  0  0  0
    3.7583   53.1032   28.5705 C   0  0  0  0  0  0
    4.3041   52.5667   29.5386 O   0  0  0  0  0  0
    2.4116   53.0963   28.3903 N   0  0  0  0  0  0
    1.5516   52.3217   29.3075 C   0  0  0  0  0  0
    1.0418   53.2890   30.4011 C   0  0  1  0  0  0
    1.9067   53.6663   30.9375 H   0  0  0  0  0  0
    0.2975   54.4754   29.7531 C   0  0  0  0  0  0
    1.2106   55.2349   28.7792 C   0  0  2  0  0  0
    0.6480   55.9690   28.2109 H   0  0  0  0  0  0
    1.7012   54.2125   27.7218 C   0  0  0  0  0  0
    2.2924   56.0358   29.5299 C   0  0  0  0  0  0
    0.1372   52.5728   31.3915 C   0  0  0  0  0  0
    7.9046   56.1703   24.8816 H   0  0  0  0  0  0
    7.5027   54.8200   23.7981 H   0  0  0  0  0  0
    6.4941   56.2422   23.8652 H   0  0  0  0  0  0
    7.5044   55.4611   27.2047 H   0  0  0  0  0  0
    6.1319   54.4429   28.8937 H   0  0  0  0  0  0
    3.3820   53.1319   25.8812 H   0  0  0  0  0  0
    5.5800   54.3439   23.2014 H   0  0  0  0  0  0
    2.6259   51.8776   21.3830 H   0  0  0  0  0  0
    3.0248   51.6839   18.9819 H   0  0  0  0  0  0
    5.1985   55.2946   21.5386 H   0  0  0  0  0  0
    5.7569   55.1952   17.8806 H   0  0  0  0  0  0
    7.4185   55.7990   16.4907 H   0  0  0  0  0  0
    8.3285   58.0356   15.3254 H   0  0  0  0  0  0
    8.0798   60.0027   17.2803 H   0  0  0  0  0  0
    4.0192   52.3365   16.9720 H   0  0  0  0  0  0
    4.2009   54.0885   16.8219 H   0  0  0  0  0  0
    5.6052   53.0708   17.1411 H   0  0  0  0  0  0
    0.7117   51.9282   28.7358 H   0  0  0  0  0  0
    2.0503   51.4290   29.6856 H   0  0  0  0  0  0
   -0.5789   54.0963   29.2282 H   0  0  0  0  0  0
   -0.0945   55.1423   30.5226 H   0  0  0  0  0  0
    2.2289   54.6828   26.8986 H   0  0  0  0  0  0
    0.8438   53.7554   27.2302 H   0  0  0  0  0  0
    3.1021   55.4123   29.9091 H   0  0  0  0  0  0
    2.7047   56.8046   28.8811 H   0  0  0  0  0  0
    1.8677   56.5688   30.3835 H   0  0  0  0  0  0
   -0.7038   52.0937   30.8836 H   0  0  0  0  0  0
    0.6731   51.8086   31.9510 H   0  0  0  0  0  0
   -0.2628   53.2903   32.1118 H   0  0  0  0  0  0
  1  2  1  0  0  0
  1 38  1  0  0  0
  1 39  1  0  0  0
  1 40  1  0  0  0
  2  7  2  0  0  0
  2  3  1  0  0  0
  3  4  2  0  0  0
  3 41  1  0  0  0
  4  5  1  0  0  0
  4 42  1  0  0  0
  5  6  2  0  0  0
  5 26  1  0  0  0
  6  7  1  0  0  0
  6 43  1  0  0  0
  7  8  1  0  0  0
  8  9  1  0  0  0
  8 44  1  0  0  0
  9 10  2  0  0  0
  9 11  1  0  0  0
 11 16  2  0  0  0
 11 12  1  0  0  0
 12 13  2  0  0  0
 12 45  1  0  0  0
 13 14  1  0  0  0
 13 46  1  0  0  0
 14 15  2  0  0  0
 14 25  1  0  0  0
 15 16  1  0  0  0
 15 17  1  0  0  0
 16 47  1  0  0  0
 17 18  1  0  0  0
 17 48  1  0  0  0
 18 19  2  0  0  0
 18 20  1  0  0  0
 20 24  1  0  0  0
 20 21  2  0  0  0
 21 22  1  0  0  0
 21 49  1  0  0  0
 22 23  2  0  0  0
 22 50  1  0  0  0
 23 24  1  0  0  0
 23 51  1  0  0  0
 25 52  1  0  0  0
 25 53  1  0  0  0
 25 54  1  0  0  0
 26 27  2  0  0  0
 26 28  1  0  0  0
 28 35  1  0  0  0
 28 29  1  0  0  0
 29 30  1  0  0  0
 29 55  1  0  0  0
 29 56  1  0  0  0
 30 31  1  0  0  0
 30 32  1  0  0  0
 30 37  1  0  0  0
 32 33  1  0  0  0
 32 57  1  0  0  0
 32 58  1  0  0  0
 33 34  1  0  0  0
 33 35  1  0  0  0
 33 36  1  0  0  0
 35 59  1  0  0  0
 35 60  1  0  0  0
 36 61  1  0  0  0
 36 62  1  0  0  0
 36 63  1  0  0  0
 37 64  1  0  0  0
 37 65  1  0  0  0
 37 66  1  0  0  0
M  END
> <i_i_glide_confnum>
102

> <i_i_glide_lignum>
2837

> <i_i_glide_posenum>
110

> <i_i_glide_rotatable_bonds>
8

> <i_m_Source_File_Index>
4673

> <b_m_subgroup_collapsed>
0

> <r_i_docking_score>
-6.38711

> <r_i_glide_ecoul>
-3.49806

> <r_i_glide_eff_state_penalty>
0

> <r_i_glide_einternal>
3.90415

> <r_i_glide_emodel>
-72.406

> <r_i_glide_energy>
-54.1434

> <r_i_glide_erotb>
0.7216

> <r_i_glide_esite>
0

> <r_i_glide_evdw>
-50.6454

> <r_i_glide_gscore>
-6.38711

> <r_i_glide_hbond>
-0.30431

> <r_i_glide_ligand_efficiency>
-0.182489

> <r_i_glide_ligand_efficiency_ln>
-1.40211

> <r_i_glide_ligand_efficiency_sa>
-0.596933

> <r_i_glide_lipo>
-2.87573

> <r_i_glide_metal>
0

> <r_i_glide_rewards>
-0.871688

> <s_i_glide_gridfile>
wee1_glide-grid

> <s_m_Source_File>
wee1_decoys_glide_SP.sdf

> <s_m_Source_Path>
/Users/zhangxujun/Desktop

> <s_m_entry_id>
4948

> <s_m_entry_name>
wee1_decoys_glide_SP.4673

> <s_m_subgroup_title>
wee1_decoys_glide_SP

> <s_m_subgroupid>
wee1_decoys_glide_SP


$$$$
