ZINC35842959_4070
                    3D
 Schrodinger Suite 2024-2.
 61 64  0  0  1  0            999 V2000
    4.0077   54.0837   24.1922 C   0  0  0  0  0  0
    2.5831   53.5762   24.3170 C   0  0  0  0  0  0
    1.7996   53.4415   23.1726 C   0  0  0  0  0  0
    0.4834   53.0051   23.2815 C   0  0  0  0  0  0
   -0.0732   52.7527   24.5306 C   0  0  0  0  0  0
    0.7240   52.8457   25.6753 C   0  0  0  0  0  0
    2.0490   53.2654   25.5691 C   0  0  0  0  0  0
   -1.8371   52.4158   24.6562 S   0  0  0  0  0  0
   -2.4939   53.2968   23.6820 O   0  0  0  0  0  0
   -2.1876   52.4886   26.0792 O   0  0  0  0  0  0
   -2.0861   50.7426   24.1105 N   0  0  0  0  0  0
   -1.7735   49.6399   25.0496 C   0  0  0  0  0  0
   -0.2690   49.3346   25.1366 C   0  0  0  0  0  0
    0.4443   48.8363   23.8609 C   0  0  0  0  0  0
    0.1134   49.5017   22.5768 N   0  0  0  0  0  0
   -1.2800   49.4065   22.0961 C   0  0  0  0  0  0
   -2.2124   50.4999   22.6503 C   0  0  0  0  0  0
    1.1159   50.1714   21.7657 C   0  0  0  0  0  0
    2.4619   50.3013   22.1525 C   0  0  0  0  0  0
    3.3641   51.0146   21.3613 C   0  0  0  0  0  0
    2.9323   51.5884   20.1655 C   0  0  0  0  0  0
    1.6038   51.4236   19.7760 C   0  0  0  0  0  0
    0.7624   50.7432   20.5852 N   0  3  0  0  0  0
    3.8345   52.2461   19.3294 N   0  0  0  0  0  0
    4.5675   53.3193   19.6687 C   0  0  0  0  0  0
    4.3934   53.9841   20.6930 O   0  0  0  0  0  0
    5.5226   53.5471   18.7475 N   0  0  0  0  0  0
    6.3914   54.6480   18.6879 C   0  0  0  0  0  0
    5.9936   55.9472   19.0373 C   0  0  0  0  0  0
    6.8886   57.0119   18.9288 C   0  0  0  0  0  0
    8.1884   56.7841   18.4754 C   0  0  0  0  0  0
    8.5854   55.4975   18.1122 C   0  0  0  0  0  0
    7.6860   54.4356   18.2060 C   0  0  0  0  0  0
    9.8397   55.2796   17.6591 F   0  0  0  0  0  0
    4.0506   54.8967   23.4678 H   0  0  0  0  0  0
    4.3842   54.4763   25.1370 H   0  0  0  0  0  0
    4.6723   53.2976   23.8369 H   0  0  0  0  0  0
    2.2051   53.6801   22.1989 H   0  0  0  0  0  0
   -0.1170   52.8967   22.3910 H   0  0  0  0  0  0
    0.3069   52.6427   26.6519 H   0  0  0  0  0  0
    2.6520   53.3626   26.4602 H   0  0  0  0  0  0
   -2.3969   48.7716   24.8331 H   0  0  0  0  0  0
   -2.0923   49.9558   26.0447 H   0  0  0  0  0  0
   -0.1199   48.5875   25.9198 H   0  0  0  0  0  0
    0.2514   50.2119   25.5122 H   0  0  0  0  0  0
    0.2231   47.7813   23.6969 H   0  0  0  0  0  0
    1.5040   48.8967   24.0567 H   0  0  0  0  0  0
   -1.3037   49.4022   21.0072 H   0  0  0  0  0  0
   -1.6298   48.4111   22.3744 H   0  0  0  0  0  0
   -2.0879   51.4360   22.1067 H   0  0  0  0  0  0
   -3.2339   50.1611   22.4720 H   0  0  0  0  0  0
    2.8512   49.8855   23.0660 H   0  0  0  0  0  0
    4.3926   51.1197   21.6751 H   0  0  0  0  0  0
    1.1871   51.8150   18.8582 H   0  0  0  0  0  0
    4.0918   51.7484   18.4825 H   0  0  0  0  0  0
    5.7135   52.7947   18.0993 H   0  0  0  0  0  0
    4.9854   56.1382   19.3689 H   0  0  0  0  0  0
    6.5696   58.0130   19.1820 H   0  0  0  0  0  0
    8.8871   57.6034   18.3915 H   0  0  0  0  0  0
    8.0105   53.4472   17.9133 H   0  0  0  0  0  0
   -0.1984   50.6516   20.2913 H   0  0  0  0  0  0
  1  2  1  0  0  0
  1 35  1  0  0  0
  1 36  1  0  0  0
  1 37  1  0  0  0
  2  7  2  0  0  0
  2  3  1  0  0  0
  3  4  2  0  0  0
  3 38  1  0  0  0
  4  5  1  0  0  0
  4 39  1  0  0  0
  5  6  2  0  0  0
  5  8  1  0  0  0
  6  7  1  0  0  0
  6 40  1  0  0  0
  7 41  1  0  0  0
  8  9  2  0  0  0
  8 10  2  0  0  0
  8 11  1  0  0  0
 11 17  1  0  0  0
 11 12  1  0  0  0
 12 13  1  0  0  0
 12 42  1  0  0  0
 12 43  1  0  0  0
 13 14  1  0  0  0
 13 44  1  0  0  0
 13 45  1  0  0  0
 14 15  1  0  0  0
 14 46  1  0  0  0
 14 47  1  0  0  0
 15 16  1  0  0  0
 15 18  1  0  0  0
 16 17  1  0  0  0
 16 48  1  0  0  0
 16 49  1  0  0  0
 17 50  1  0  0  0
 17 51  1  0  0  0
 18 23  2  0  0  0
 18 19  1  0  0  0
 19 20  2  0  0  0
 19 52  1  0  0  0
 20 21  1  0  0  0
 20 53  1  0  0  0
 21 22  2  0  0  0
 21 24  1  0  0  0
 22 23  1  0  0  0
 22 54  1  0  0  0
 23 61  1  0  0  0
 24 25  1  0  0  0
 24 55  1  0  0  0
 25 26  2  0  0  0
 25 27  1  0  0  0
 27 28  1  0  0  0
 27 56  1  0  0  0
 28 33  2  0  0  0
 28 29  1  0  0  0
 29 30  2  0  0  0
 29 57  1  0  0  0
 30 31  1  0  0  0
 30 58  1  0  0  0
 31 32  2  0  0  0
 31 59  1  0  0  0
 32 33  1  0  0  0
 32 34  1  0  0  0
 33 60  1  0  0  0
M  CHG  1  23   1
M  END
> <i_i_glide_confnum>
528

> <i_i_glide_lignum>
4071

> <i_i_glide_posenum>
326

> <i_i_glide_rotatable_bonds>
7

> <i_m_Source_File_Index>
4801

> <b_m_subgroup_collapsed>
0

> <r_i_docking_score>
-3.03684

> <r_i_glide_ecoul>
-4.40109

> <r_i_glide_eff_state_penalty>
0

> <r_i_glide_einternal>
9.66821

> <r_i_glide_emodel>
-39.0265

> <r_i_glide_energy>
-38.2566

> <r_i_glide_erotb>
0.518954

> <r_i_glide_esite>
-0.172665

> <r_i_glide_evdw>
-33.8555

> <r_i_glide_gscore>
-3.03684

> <r_i_glide_hbond>
-0.1034

> <r_i_glide_ligand_efficiency>
-0.0893187

> <r_i_glide_ligand_efficiency_ln>
-0.670922

> <r_i_glide_ligand_efficiency_sa>
-0.289358

> <r_i_glide_lipo>
-1.77483

> <r_i_glide_metal>
0

> <r_i_glide_rewards>
0.848045

> <s_i_glide_gridfile>
wee1_glide-grid

> <s_m_Source_File>
wee1_decoys_glide_SP.sdf

> <s_m_Source_Path>
/Users/zhangxujun/Desktop

> <s_m_entry_id>
5076

> <s_m_entry_name>
wee1_decoys_glide_SP.4801

> <s_m_subgroup_title>
wee1_decoys_glide_SP

> <s_m_subgroupid>
wee1_decoys_glide_SP


$$$$
