ZINC09510383_2746
                    3D
 Schrodinger Suite 2024-2.
 57 61  0  0  1  0            999 V2000
   -3.9468   50.7644   19.9737 C   0  0  0  0  0  0
   -2.8100   49.8348   20.4271 C   0  0  0  0  0  0
   -2.1509   50.3492   21.5805 O   0  0  0  0  0  0
   -1.1220   51.2263   21.4905 C   0  0  0  0  0  0
   -0.7062   51.6517   20.4077 O   0  0  0  0  0  0
   -0.5489   51.6147   22.8217 C   0  0  0  0  0  0
    0.6829   52.1985   22.8464 C   0  0  0  0  0  0
    1.3166   52.5969   23.9674 O   0  0  0  0  0  0
    0.7327   52.4997   25.1801 C   0  0  0  0  0  0
   -0.5217   52.0193   25.3811 C   0  0  0  0  0  0
   -1.3351   51.4290   24.1731 C   0  0  2  0  0  0
   -1.7321   50.0069   24.4674 C   0  0  0  0  0  0
   -0.9495   48.8708   24.6925 C   0  0  0  0  0  0
   -1.5664   47.6692   25.0421 C   0  0  0  0  0  0
   -2.9567   47.6022   25.1581 C   0  0  0  0  0  0
   -3.7370   48.7358   24.9187 C   0  0  0  0  0  0
   -3.1120   49.9378   24.5711 C   0  0  0  0  0  0
   -3.6749   51.1933   24.3153 N   0  0  0  0  0  0
   -2.7231   52.1231   24.0301 C   0  0  0  0  0  0
   -2.8950   53.2979   23.6929 O   0  0  0  0  0  0
   -5.1187   51.4601   24.1646 C   0  0  0  0  0  0
   -5.8097   52.5388   25.0107 C   0  0  0  0  0  0
   -7.1900   52.6890   24.8479 C   0  0  0  0  0  0
   -7.8868   53.6610   25.5594 C   0  0  0  0  0  0
   -7.2012   54.4939   26.4377 C   0  0  0  0  0  0
   -5.8273   54.3578   26.6073 C   0  0  0  0  0  0
   -5.1338   53.3713   25.9117 C   0  0  0  0  0  0
   -1.0877   52.0295   26.7681 C   0  0  0  0  0  0
   -2.2457   51.7038   27.0203 O   0  0  0  0  0  0
   -0.2144   52.5976   27.9005 C   0  0  0  0  0  0
    1.2885   52.4329   27.6289 C   0  0  0  0  0  0
    1.6814   53.0083   26.2583 C   0  0  0  0  0  0
    1.5358   52.4959   21.8131 N   0  0  0  0  0  0
   -4.4510   50.3555   19.0989 H   0  0  0  0  0  0
   -3.5759   51.7569   19.7093 H   0  0  0  0  0  0
   -4.6911   50.8778   20.7635 H   0  0  0  0  0  0
   -3.2260   48.8599   20.6892 H   0  0  0  0  0  0
   -2.1010   49.6579   19.6140 H   0  0  0  0  0  0
    0.1284   48.9177   24.6371 H   0  0  0  0  0  0
   -0.9591   46.8035   25.2626 H   0  0  0  0  0  0
   -3.4287   46.6781   25.4551 H   0  0  0  0  0  0
   -4.8079   48.6646   25.0300 H   0  0  0  0  0  0
   -5.2990   51.6963   23.1166 H   0  0  0  0  0  0
   -5.6611   50.5332   24.3457 H   0  0  0  0  0  0
   -7.7273   52.0579   24.1548 H   0  0  0  0  0  0
   -8.9518   53.7726   25.4218 H   0  0  0  0  0  0
   -7.7365   55.2559   26.9838 H   0  0  0  0  0  0
   -5.2996   55.0147   27.2817 H   0  0  0  0  0  0
   -4.0730   53.2785   26.0764 H   0  0  0  0  0  0
   -0.5201   52.1528   28.8486 H   0  0  0  0  0  0
   -0.4423   53.6625   27.9571 H   0  0  0  0  0  0
    1.5444   51.3720   27.6733 H   0  0  0  0  0  0
    1.8675   52.9148   28.4178 H   0  0  0  0  0  0
    2.6951   52.6697   26.0389 H   0  0  0  0  0  0
    1.7335   54.0951   26.2431 H   0  0  0  0  0  0
    1.2601   52.3108   20.8574 H   0  0  0  0  0  0
    2.4126   52.9681   21.9726 H   0  0  0  0  0  0
  1  2  1  0  0  0
  1 34  1  0  0  0
  1 35  1  0  0  0
  1 36  1  0  0  0
  2  3  1  0  0  0
  2 37  1  0  0  0
  2 38  1  0  0  0
  3  4  1  0  0  0
  4  5  2  0  0  0
  4  6  1  0  0  0
  6 11  1  0  0  0
  6  7  2  0  0  0
  7  8  1  0  0  0
  7 33  1  0  0  0
  8  9  1  0  0  0
  9 32  1  0  0  0
  9 10  2  0  0  0
 10 11  1  0  0  0
 10 28  1  0  0  0
 11 19  1  0  0  0
 11 12  1  0  0  0
 12 17  2  0  0  0
 12 13  1  0  0  0
 13 14  2  0  0  0
 13 39  1  0  0  0
 14 15  1  0  0  0
 14 40  1  0  0  0
 15 16  2  0  0  0
 15 41  1  0  0  0
 16 17  1  0  0  0
 16 42  1  0  0  0
 17 18  1  0  0  0
 18 19  1  0  0  0
 18 21  1  0  0  0
 19 20  2  0  0  0
 21 22  1  0  0  0
 21 43  1  0  0  0
 21 44  1  0  0  0
 22 27  2  0  0  0
 22 23  1  0  0  0
 23 24  2  0  0  0
 23 45  1  0  0  0
 24 25  1  0  0  0
 24 46  1  0  0  0
 25 26  2  0  0  0
 25 47  1  0  0  0
 26 27  1  0  0  0
 26 48  1  0  0  0
 27 49  1  0  0  0
 28 29  2  0  0  0
 28 30  1  0  0  0
 30 31  1  0  0  0
 30 50  1  0  0  0
 30 51  1  0  0  0
 31 32  1  0  0  0
 31 52  1  0  0  0
 31 53  1  0  0  0
 32 54  1  0  0  0
 32 55  1  0  0  0
 33 56  1  0  0  0
 33 57  1  0  0  0
M  END
> <i_i_glide_confnum>
62

> <i_i_glide_lignum>
2747

> <i_i_glide_posenum>
352

> <i_i_glide_rotatable_bonds>
5

> <i_m_Source_File_Index>
4263

> <b_m_subgroup_collapsed>
0

> <r_i_docking_score>
-2.60392

> <r_i_glide_ecoul>
-1.58612

> <r_i_glide_eff_state_penalty>
0

> <r_i_glide_einternal>
3.70236

> <r_i_glide_emodel>
-36.5614

> <r_i_glide_energy>
-32.9383

> <r_i_glide_erotb>
0.404943

> <r_i_glide_esite>
-0.0313123

> <r_i_glide_evdw>
-31.3522

> <r_i_glide_gscore>
-2.60392

> <r_i_glide_hbond>
0

> <r_i_glide_ligand_efficiency>
-0.0789067

> <r_i_glide_ligand_efficiency_ln>
-0.579099

> <r_i_glide_ligand_efficiency_sa>
-0.253096

> <r_i_glide_lipo>
-0.744515

> <r_i_glide_metal>
0

> <r_i_glide_rewards>
-0.427511

> <s_i_glide_gridfile>
wee1_glide-grid

> <s_m_Source_File>
wee1_decoys_glide_SP.sdf

> <s_m_Source_Path>
/Users/zhangxujun/Desktop

> <s_m_entry_id>
4538

> <s_m_entry_name>
wee1_decoys_glide_SP.4263

> <s_m_subgroup_title>
wee1_decoys_glide_SP

> <s_m_subgroupid>
wee1_decoys_glide_SP


$$$$
