ZINC49201679_3838
                    3D
 Schrodinger Suite 2024-2.
 33 34  0  0  1  0            999 V2000
   -1.5942   51.6775   23.3677 C   0  0  0  0  0  0
   -1.1484   51.3790   24.7835 C   0  0  0  0  0  0
   -1.7220   50.5615   25.6726 C   0  0  0  0  0  0
   -1.0782   50.4968   26.8818 N   0  0  0  0  0  0
   -1.2955   49.7825   27.5831 H   0  0  0  0  0  0
    0.0283   51.2913   27.0733 C   0  0  0  0  0  0
    0.6841   51.3534   28.1743 N   0  0  0  0  0  0
    1.8768   52.0136   28.4551 C   0  0  0  0  0  0
    2.5064   51.7001   29.4654 O   0  0  0  0  0  0
    2.3112   52.9472   27.5848 N   0  0  0  0  0  0
    3.5834   53.6714   27.6685 C   0  0  2  0  0  0
    4.2883   52.9732   28.1277 H   0  0  0  0  0  0
    3.4619   54.8917   28.5997 C   0  0  0  0  0  0
    4.2079   54.0132   26.3023 C   0  0  0  0  0  0
    3.4196   54.0970   25.1435 C   0  0  0  0  0  0
    3.9984   54.3220   23.8958 C   0  0  0  0  0  0
    5.3761   54.4967   23.7875 C   0  0  0  0  0  0
    6.1710   54.4534   24.9291 C   0  0  0  0  0  0
    5.5960   54.2058   26.1768 C   0  0  0  0  0  0
    6.7528   54.0949   27.6818 Br  0  0  0  0  0  0
    0.3022   52.0965   25.4769 S   0  0  0  0  0  0
   -2.4899   51.1116   23.1073 H   0  0  0  0  0  0
   -0.8055   51.4131   22.6621 H   0  0  0  0  0  0
   -1.8153   52.7396   23.2585 H   0  0  0  0  0  0
   -2.6091   49.9584   25.5370 H   0  0  0  0  0  0
    1.7258   53.1430   26.7891 H   0  0  0  0  0  0
    4.4436   55.2969   28.8339 H   0  0  0  0  0  0
    2.8528   55.6801   28.1562 H   0  0  0  0  0  0
    3.0054   54.6212   29.5522 H   0  0  0  0  0  0
    2.3494   53.9844   25.1907 H   0  0  0  0  0  0
    3.3764   54.3703   23.0130 H   0  0  0  0  0  0
    5.8255   54.6745   22.8212 H   0  0  0  0  0  0
    7.2391   54.5883   24.8405 H   0  0  0  0  0  0
  1  2  1  0  0  0
  1 22  1  0  0  0
  1 23  1  0  0  0
  1 24  1  0  0  0
  2 21  1  0  0  0
  2  3  2  0  0  0
  3  4  1  0  0  0
  3 25  1  0  0  0
  4  5  1  0  0  0
  4  6  1  0  0  0
  6  7  2  0  0  0
  6 21  1  0  0  0
  7  8  1  0  0  0
  8  9  2  0  0  0
  8 10  1  0  0  0
 10 11  1  0  0  0
 10 26  1  0  0  0
 11 12  1  0  0  0
 11 13  1  0  0  0
 11 14  1  0  0  0
 13 27  1  0  0  0
 13 28  1  0  0  0
 13 29  1  0  0  0
 14 19  2  0  0  0
 14 15  1  0  0  0
 15 16  2  0  0  0
 15 30  1  0  0  0
 16 17  1  0  0  0
 16 31  1  0  0  0
 17 18  2  0  0  0
 17 32  1  0  0  0
 18 19  1  0  0  0
 18 33  1  0  0  0
 19 20  1  0  0  0
M  END
> <i_i_glide_confnum>
15

> <i_i_glide_lignum>
3839

> <i_i_glide_posenum>
394

> <i_i_glide_rotatable_bonds>
4

> <i_m_Source_File_Index>
5659

> <b_m_subgroup_collapsed>
0

> <r_i_docking_score>
-6.54238

> <r_i_glide_ecoul>
-7.73431

> <r_i_glide_eff_state_penalty>
0

> <r_i_glide_einternal>
7.16553

> <r_i_glide_emodel>
-53.6465

> <r_i_glide_energy>
-40.2275

> <r_i_glide_erotb>
0.490697

> <r_i_glide_esite>
-0.1

> <r_i_glide_evdw>
-32.4932

> <r_i_glide_gscore>
-6.54238

> <r_i_glide_hbond>
-0.378642

> <r_i_glide_ligand_efficiency>
-0.344336

> <r_i_glide_ligand_efficiency_ln>
-1.65863

> <r_i_glide_ligand_efficiency_sa>
-0.918826

> <r_i_glide_lipo>
-2.32237

> <r_i_glide_metal>
0

> <r_i_glide_rewards>
-1.44726

> <s_i_glide_gridfile>
wee1_glide-grid

> <s_m_Source_File>
wee1_decoys_glide_SP.sdf

> <s_m_Source_Path>
/Users/zhangxujun/Desktop

> <s_m_entry_id>
5934

> <s_m_entry_name>
wee1_decoys_glide_SP.5659

> <s_m_subgroup_title>
wee1_decoys_glide_SP

> <s_m_subgroupid>
wee1_decoys_glide_SP


$$$$
