ZINC13096565_4423
                    3D
 Schrodinger Suite 2024-2.
 54 58  0  0  1  0            999 V2000
    0.7039   54.2385   30.7756 C   0  0  0  0  0  0
    1.3169   55.3436   30.1873 C   0  0  0  0  0  0
    2.3496   55.1541   29.2756 C   0  0  0  0  0  0
    2.7500   53.8594   28.9242 C   0  0  0  0  0  0
    2.1323   52.7547   29.5238 C   0  0  0  0  0  0
    1.1135   52.9443   30.4544 C   0  0  0  0  0  0
    3.7883   53.6502   27.8223 C   0  0  1  0  0  0
    4.0868   52.6009   27.8613 H   0  0  0  0  0  0
    3.1519   53.9480   26.4426 C   0  0  0  0  0  0
    4.1878   54.0872   25.3412 C   0  0  0  0  0  0
    3.8268   53.9385   24.0042 C   0  0  0  0  0  0
    4.7771   53.9892   22.9711 C   0  0  0  0  0  0
    6.1032   54.2851   23.3072 C   0  0  0  0  0  0
    6.4736   54.4610   24.6384 C   0  0  0  0  0  0
    5.5283   54.3301   25.6645 C   0  0  0  0  0  0
    5.9421   54.3948   27.0965 C   0  0  0  0  0  0
    7.1047   54.4964   27.4748 O   0  0  0  0  0  0
    4.9675   54.4362   28.0512 O   0  0  0  0  0  0
    4.3999   53.6975   21.5350 C   0  0  0  0  0  0
    5.1073   54.1030   20.6112 O   0  0  0  0  0  0
    3.2802   52.9531   21.3957 N   0  0  0  0  0  0
    2.6371   52.4966   20.2468 C   0  0  0  0  0  0
    1.3714   51.8731   20.2058 C   0  0  0  0  0  0
    0.9412   51.6326   18.8737 C   0  0  0  0  0  0
    1.9162   51.9840   17.9279 C   0  0  0  0  0  0
    3.3022   52.7164   18.6511 S   0  0  0  0  0  0
    1.7820   51.8212   16.4226 C   0  0  0  0  0  0
    0.6565   50.8123   16.1250 C   0  0  0  0  0  0
   -0.6170   51.1388   16.9207 C   0  0  0  0  0  0
   -0.4063   51.0303   18.4474 C   0  0  0  0  0  0
    0.5445   51.6088   21.3709 C   0  0  0  0  0  0
   -0.6659   51.8228   21.3905 O   0  0  0  0  0  0
    1.1860   51.1242   22.4379 N   0  0  0  0  0  0
   -0.0914   54.3823   31.4941 H   0  0  0  0  0  0
    0.9993   56.3425   30.4490 H   0  0  0  0  0  0
    2.8168   56.0140   28.8211 H   0  0  0  0  0  0
    2.4215   51.7484   29.2551 H   0  0  0  0  0  0
    0.6291   52.0983   30.9187 H   0  0  0  0  0  0
    2.6425   54.8963   26.5030 H   0  0  0  0  0  0
    2.4004   53.1971   26.1935 H   0  0  0  0  0  0
    2.7850   53.7519   23.7855 H   0  0  0  0  0  0
    6.8631   54.3589   22.5413 H   0  0  0  0  0  0
    7.5135   54.6538   24.8583 H   0  0  0  0  0  0
    2.7843   52.7514   22.2489 H   0  0  0  0  0  0
    2.7182   51.4773   15.9816 H   0  0  0  0  0  0
    1.5436   52.7813   15.9638 H   0  0  0  0  0  0
    0.9917   49.8013   16.3665 H   0  0  0  0  0  0
    0.4405   50.8111   15.0551 H   0  0  0  0  0  0
   -1.4284   50.4763   16.6183 H   0  0  0  0  0  0
   -0.9467   52.1492   16.6699 H   0  0  0  0  0  0
   -1.2379   51.5256   18.9463 H   0  0  0  0  0  0
   -0.4428   49.9830   18.7483 H   0  0  0  0  0  0
    2.1298   50.7766   22.3436 H   0  0  0  0  0  0
    0.6584   50.9222   23.2755 H   0  0  0  0  0  0
  1  6  2  0  0  0
  1  2  1  0  0  0
  1 34  1  0  0  0
  2  3  2  0  0  0
  2 35  1  0  0  0
  3  4  1  0  0  0
  3 36  1  0  0  0
  4  5  2  0  0  0
  4  7  1  0  0  0
  5  6  1  0  0  0
  5 37  1  0  0  0
  6 38  1  0  0  0
  7  8  1  0  0  0
  7 18  1  0  0  0
  7  9  1  0  0  0
  9 10  1  0  0  0
  9 39  1  0  0  0
  9 40  1  0  0  0
 10 15  2  0  0  0
 10 11  1  0  0  0
 11 12  2  0  0  0
 11 41  1  0  0  0
 12 13  1  0  0  0
 12 19  1  0  0  0
 13 14  2  0  0  0
 13 42  1  0  0  0
 14 15  1  0  0  0
 14 43  1  0  0  0
 15 16  1  0  0  0
 16 17  2  0  0  0
 16 18  1  0  0  0
 19 20  2  0  0  0
 19 21  1  0  0  0
 21 22  1  0  0  0
 21 44  1  0  0  0
 22 26  1  0  0  0
 22 23  2  0  0  0
 23 24  1  0  0  0
 23 31  1  0  0  0
 24 30  1  0  0  0
 24 25  2  0  0  0
 25 26  1  0  0  0
 25 27  1  0  0  0
 27 28  1  0  0  0
 27 45  1  0  0  0
 27 46  1  0  0  0
 28 29  1  0  0  0
 28 47  1  0  0  0
 28 48  1  0  0  0
 29 30  1  0  0  0
 29 49  1  0  0  0
 29 50  1  0  0  0
 30 51  1  0  0  0
 30 52  1  0  0  0
 31 32  2  0  0  0
 31 33  1  0  0  0
 33 53  1  0  0  0
 33 54  1  0  0  0
M  END
> <i_i_glide_confnum>
73

> <i_i_glide_lignum>
4424

> <i_i_glide_posenum>
235

> <i_i_glide_rotatable_bonds>
5

> <i_m_Source_File_Index>
1177

> <b_m_subgroup_collapsed>
0

> <r_i_docking_score>
-6.67556

> <r_i_glide_ecoul>
-1.88522

> <r_i_glide_eff_state_penalty>
0

> <r_i_glide_einternal>
1.69728

> <r_i_glide_emodel>
-69.5376

> <r_i_glide_energy>
-50.0544

> <r_i_glide_erotb>
0.401588

> <r_i_glide_esite>
0

> <r_i_glide_evdw>
-48.1692

> <r_i_glide_gscore>
-6.67556

> <r_i_glide_hbond>
-0.0516719

> <r_i_glide_ligand_efficiency>
-0.208611

> <r_i_glide_ligand_efficiency_ln>
-1.49484

> <r_i_glide_ligand_efficiency_sa>
-0.662299

> <r_i_glide_lipo>
-3.22774

> <r_i_glide_metal>
0

> <r_i_glide_rewards>
-1.1065

> <s_i_glide_gridfile>
wee1_glide-grid

> <s_m_Source_File>
wee1_decoys_glide_SP.sdf

> <s_m_Source_Path>
/Users/zhangxujun/Desktop

> <s_m_entry_id>
1452

> <s_m_entry_name>
wee1_decoys_glide_SP.1177

> <s_m_subgroup_title>
wee1_decoys_glide_SP

> <s_m_subgroupid>
wee1_decoys_glide_SP


$$$$
