ZINC15991624_2455
                    3D
 Schrodinger Suite 2024-2.
 56 59  0  0  1  0            999 V2000
    9.0808   60.7237   16.3045 C   0  0  0  0  0  0
    8.8241   59.6817   17.3876 C   0  0  0  0  0  0
    9.3710   59.8240   18.4834 O   0  0  0  0  0  0
    7.9758   58.6859   17.0529 N   0  0  0  0  0  0
    7.5396   57.6089   17.8462 C   0  0  0  0  0  0
    8.2994   57.0428   18.8802 C   0  0  0  0  0  0
    7.7443   56.0532   19.6874 C   0  0  0  0  0  0
    6.4500   55.5822   19.4350 C   0  0  0  0  0  0
    5.7348   56.0754   18.3370 C   0  0  0  0  0  0
    6.2763   57.0898   17.5512 C   0  0  0  0  0  0
    5.7931   54.6141   20.3612 C   0  0  0  0  0  0
    5.0015   53.5181   20.0042 C   0  0  0  0  0  0
    4.3095   52.8019   21.4272 S   0  0  0  0  0  0
    5.1474   53.9971   22.3596 C   0  0  0  0  0  0
    5.9004   54.8177   21.6654 N   0  0  0  0  0  0
    4.8727   54.0722   23.7130 N   0  0  0  0  0  0
    5.6820   54.5417   24.6871 C   0  0  0  0  0  0
    6.8463   54.8954   24.5068 O   0  0  0  0  0  0
    5.0939   54.6072   26.1168 C   0  0  0  0  0  0
    3.5967   54.2316   26.2184 C   0  0  0  0  0  0
    3.1044   54.4756   27.6591 C   0  0  0  0  0  0
    3.9368   53.6428   28.5502 N   0  0  0  0  0  0
    5.3738   54.0004   28.5813 C   0  0  0  0  0  0
    5.9525   53.8433   27.1518 C   0  0  0  0  0  0
    3.4224   52.6923   29.3827 C   0  0  0  0  0  0
    4.0883   52.1047   30.2381 O   0  0  0  0  0  0
    1.9614   52.3421   29.2618 C   0  0  0  0  0  0
    1.4538   51.8431   28.0566 C   0  0  0  0  0  0
    0.1053   51.5276   27.9383 C   0  0  0  0  0  0
   -0.7390   51.6976   29.0307 C   0  0  0  0  0  0
   -0.2406   52.1781   30.2395 C   0  0  0  0  0  0
    1.1097   52.4957   30.3611 C   0  0  0  0  0  0
   -2.4108   51.2935   28.8819 Cl  0  0  0  0  0  0
    8.2178   60.8351   15.6397 H   0  0  0  0  0  0
    9.9674   60.4596   15.7213 H   0  0  0  0  0  0
    9.2557   61.6951   16.7727 H   0  0  0  0  0  0
    7.4898   58.7963   16.1762 H   0  0  0  0  0  0
    9.3008   57.3876   19.0962 H   0  0  0  0  0  0
    8.3158   55.6640   20.5202 H   0  0  0  0  0  0
    4.7368   55.7160   18.1238 H   0  0  0  0  0  0
    5.6894   57.4945   16.7368 H   0  0  0  0  0  0
    4.7700   53.1311   19.0209 H   0  0  0  0  0  0
    4.0099   53.6437   24.0109 H   0  0  0  0  0  0
    5.2216   55.6636   26.3450 H   0  0  0  0  0  0
    2.9927   54.8711   25.5746 H   0  0  0  0  0  0
    3.4219   53.1789   25.9861 H   0  0  0  0  0  0
    3.2799   55.5122   27.9448 H   0  0  0  0  0  0
    2.0292   54.3416   27.7736 H   0  0  0  0  0  0
    5.4581   55.0391   28.9039 H   0  0  0  0  0  0
    5.9443   53.3862   29.2762 H   0  0  0  0  0  0
    5.9461   52.7702   26.9611 H   0  0  0  0  0  0
    6.9766   54.2190   27.1922 H   0  0  0  0  0  0
    2.1022   51.7008   27.2067 H   0  0  0  0  0  0
   -0.2857   51.1351   27.0103 H   0  0  0  0  0  0
   -0.8966   52.2898   31.0905 H   0  0  0  0  0  0
    1.4803   52.8588   31.3102 H   0  0  0  0  0  0
  1  2  1  0  0  0
  1 34  1  0  0  0
  1 35  1  0  0  0
  1 36  1  0  0  0
  2  3  2  0  0  0
  2  4  1  0  0  0
  4  5  1  0  0  0
  4 37  1  0  0  0
  5 10  2  0  0  0
  5  6  1  0  0  0
  6  7  2  0  0  0
  6 38  1  0  0  0
  7  8  1  0  0  0
  7 39  1  0  0  0
  8  9  2  0  0  0
  8 11  1  0  0  0
  9 10  1  0  0  0
  9 40  1  0  0  0
 10 41  1  0  0  0
 11 15  1  0  0  0
 11 12  2  0  0  0
 12 13  1  0  0  0
 12 42  1  0  0  0
 13 14  1  0  0  0
 14 15  2  0  0  0
 14 16  1  0  0  0
 16 17  1  0  0  0
 16 43  1  0  0  0
 17 18  2  0  0  0
 17 19  1  0  0  0
 19 24  1  0  0  0
 19 20  1  0  0  0
 19 44  1  0  0  0
 20 21  1  0  0  0
 20 45  1  0  0  0
 20 46  1  0  0  0
 21 22  1  0  0  0
 21 47  1  0  0  0
 21 48  1  0  0  0
 22 23  1  0  0  0
 22 25  1  0  0  0
 23 24  1  0  0  0
 23 49  1  0  0  0
 23 50  1  0  0  0
 24 51  1  0  0  0
 24 52  1  0  0  0
 25 26  2  0  0  0
 25 27  1  0  0  0
 27 32  2  0  0  0
 27 28  1  0  0  0
 28 29  2  0  0  0
 28 53  1  0  0  0
 29 30  1  0  0  0
 29 54  1  0  0  0
 30 31  2  0  0  0
 30 33  1  0  0  0
 31 32  1  0  0  0
 31 55  1  0  0  0
 32 56  1  0  0  0
M  END
> <i_i_glide_confnum>
170

> <i_i_glide_lignum>
2456

> <i_i_glide_posenum>
342

> <i_i_glide_rotatable_bonds>
8

> <i_m_Source_File_Index>
870

> <b_m_subgroup_collapsed>
0

> <r_i_docking_score>
-6.76587

> <r_i_glide_ecoul>
-6.59445

> <r_i_glide_eff_state_penalty>
0

> <r_i_glide_einternal>
11.8625

> <r_i_glide_emodel>
-78.6635

> <r_i_glide_energy>
-59.9134

> <r_i_glide_erotb>
0.609083

> <r_i_glide_esite>
-0.0860772

> <r_i_glide_evdw>
-53.319

> <r_i_glide_gscore>
-6.76587

> <r_i_glide_hbond>
-0.150642

> <r_i_glide_ligand_efficiency>
-0.205026

> <r_i_glide_ligand_efficiency_ln>
-1.50469

> <r_i_glide_ligand_efficiency_sa>
-0.657629

> <r_i_glide_lipo>
-2.29142

> <r_i_glide_metal>
0

> <r_i_glide_rewards>
-1.1917

> <s_i_glide_gridfile>
wee1_glide-grid

> <s_m_Source_File>
wee1_decoys_glide_SP.sdf

> <s_m_Source_Path>
/Users/zhangxujun/Desktop

> <s_m_entry_id>
1145

> <s_m_entry_name>
wee1_decoys_glide_SP.870

> <s_m_subgroup_title>
wee1_decoys_glide_SP

> <s_m_subgroupid>
wee1_decoys_glide_SP


$$$$
