ZINC43461219_1850
                    3D
 Schrodinger Suite 2024-2.
 32 34  0  0  1  0            999 V2000
    4.0724   54.0668   25.6735 C   0  0  0  0  0  0
    4.2816   54.0964   24.2973 C   0  0  0  0  0  0
    5.5150   54.4966   23.7566 C   0  0  0  0  0  0
    6.5163   54.9083   24.6536 C   0  0  0  0  0  0
    6.3031   54.8894   26.0321 C   0  0  0  0  0  0
    5.0810   54.4673   26.5556 C   0  0  0  0  0  0
    4.9227   54.4085   28.0828 C   0  0  0  0  0  0
    3.5487   54.2621   28.6186 N   0  0  0  0  0  0
    2.4486   54.9355   28.2330 C   0  0  0  0  0  0
    1.3547   54.5523   28.8456 N   0  0  0  0  0  0
    1.7828   53.6425   29.7387 C   0  0  0  0  0  0
    3.1542   53.4770   29.6615 C   0  0  0  0  0  0
    3.9044   52.6993   30.4729 N   0  0  0  0  0  0
    3.1630   52.0966   31.4040 C   0  0  0  0  0  0
    1.8360   52.0968   31.5564 N   0  0  0  0  0  0
    1.1047   52.8749   30.7166 C   0  0  0  0  0  0
   -0.2700   52.8915   30.8813 N   0  0  0  0  0  0
    5.7342   54.4947   22.2737 C   0  0  0  0  0  0
    6.7044   55.5770   21.4528 S   0  0  0  0  0  0
    5.0256   53.5618   21.5937 N   0  0  0  0  0  0
    3.1238   53.7021   26.0358 H   0  0  0  0  0  0
    3.4663   53.7879   23.6593 H   0  0  0  0  0  0
    7.4797   55.2294   24.2876 H   0  0  0  0  0  0
    7.0962   55.1866   26.7027 H   0  0  0  0  0  0
    5.4847   53.5494   28.4546 H   0  0  0  0  0  0
    5.3305   55.2965   28.5649 H   0  0  0  0  0  0
    2.5220   55.6886   27.4672 H   0  0  0  0  0  0
    3.7079   51.4701   32.0950 H   0  0  0  0  0  0
   -0.8296   53.4119   30.2262 H   0  0  0  0  0  0
   -0.6908   52.3359   31.6279 H   0  0  0  0  0  0
    4.4272   52.9182   22.0889 H   0  0  0  0  0  0
    5.0950   53.5221   20.5865 H   0  0  0  0  0  0
  1  6  2  0  0  0
  1  2  1  0  0  0
  1 21  1  0  0  0
  2  3  2  0  0  0
  2 22  1  0  0  0
  3  4  1  0  0  0
  3 18  1  0  0  0
  4  5  2  0  0  0
  4 23  1  0  0  0
  5  6  1  0  0  0
  5 24  1  0  0  0
  6  7  1  0  0  0
  7  8  1  0  0  0
  7 25  1  0  0  0
  7 26  1  0  0  0
  8 12  1  0  0  0
  8  9  1  0  0  0
  9 10  2  0  0  0
  9 27  1  0  0  0
 10 11  1  0  0  0
 11 16  2  0  0  0
 11 12  1  0  0  0
 12 13  2  0  0  0
 13 14  1  0  0  0
 14 15  2  0  0  0
 14 28  1  0  0  0
 15 16  1  0  0  0
 16 17  1  0  0  0
 17 29  1  0  0  0
 17 30  1  0  0  0
 18 19  2  0  0  0
 18 20  1  0  0  0
 20 31  1  0  0  0
 20 32  1  0  0  0
M  END
> <i_i_glide_confnum>
1

> <i_i_glide_lignum>
1851

> <i_i_glide_posenum>
80

> <i_i_glide_rotatable_bonds>
3

> <i_m_Source_File_Index>
5075

> <b_m_subgroup_collapsed>
0

> <r_i_docking_score>
-7.22769

> <r_i_glide_ecoul>
-2.79654

> <r_i_glide_eff_state_penalty>
0

> <r_i_glide_einternal>
2.47151

> <r_i_glide_emodel>
-58.378

> <r_i_glide_energy>
-39.8975

> <r_i_glide_erotb>
0.448375

> <r_i_glide_esite>
-0.0979761

> <r_i_glide_evdw>
-37.101

> <r_i_glide_gscore>
-7.22769

> <r_i_glide_hbond>
-0.292405

> <r_i_glide_ligand_efficiency>
-0.361385

> <r_i_glide_ligand_efficiency_ln>
-1.80885

> <r_i_glide_ligand_efficiency_sa>
-0.980949

> <r_i_glide_lipo>
-2.02109

> <r_i_glide_metal>
0

> <r_i_glide_rewards>
-2.99006

> <s_i_glide_gridfile>
wee1_glide-grid

> <s_m_Source_File>
wee1_decoys_glide_SP.sdf

> <s_m_Source_Path>
/Users/zhangxujun/Desktop

> <s_m_entry_id>
5350

> <s_m_entry_name>
wee1_decoys_glide_SP.5075

> <s_m_subgroup_title>
wee1_decoys_glide_SP

> <s_m_subgroupid>
wee1_decoys_glide_SP


$$$$
