ZINC20723365_307
                    3D
 Schrodinger Suite 2024-2.
 48 51  0  0  1  0            999 V2000
    0.7048   53.0149   31.2775 C   0  0  0  0  0  0
    1.8605   53.2255   30.4736 O   0  0  0  0  0  0
    1.7665   53.8648   29.2753 C   0  0  0  0  0  0
    0.7075   54.3005   28.8163 O   0  0  0  0  0  0
    3.0747   53.8985   28.5322 C   0  0  0  0  0  0
    4.2486   54.0994   29.2807 C   0  0  0  0  0  0
    5.4775   54.3089   28.6598 C   0  0  0  0  0  0
    5.5694   54.3186   27.2752 C   0  0  0  0  0  0
    4.4286   54.1065   26.5104 C   0  0  0  0  0  0
    3.1890   53.8666   27.1153 C   0  0  0  0  0  0
    2.1584   53.6266   26.1901 N   0  0  0  0  0  0
    1.2441   52.6295   26.1833 C   0  0  0  0  0  0
    1.1043   51.8495   27.1286 O   0  0  0  0  0  0
    0.5238   52.5172   25.0256 N   0  0  0  0  0  0
    0.6036   53.5060   23.9061 C   0  0  0  0  0  0
    1.1126   52.7800   22.6313 C   0  0  0  0  0  0
    0.2001   51.5958   22.3754 C   0  0  0  0  0  0
   -0.5122   51.0071   23.4099 C   0  0  0  0  0  0
   -1.1770   49.9644   22.8290 N   0  0  0  0  0  0
   -1.7775   49.2954   23.2905 H   0  0  0  0  0  0
   -0.8649   50.0300   21.4952 C   0  0  0  0  0  0
   -0.0443   51.0159   21.2104 N   0  0  0  0  0  0
   -0.4600   51.4015   24.8830 C   0  0  2  0  0  0
   -0.0704   50.5537   25.4515 H   0  0  0  0  0  0
   -1.8455   51.6878   25.4811 C   0  0  0  0  0  0
   -2.1681   51.1011   26.7110 C   0  0  0  0  0  0
   -3.4212   51.2962   27.2874 C   0  0  0  0  0  0
   -4.3658   52.0953   26.6470 C   0  0  0  0  0  0
   -4.0551   52.7029   25.4299 C   0  0  0  0  0  0
   -2.8044   52.4967   24.8422 C   0  0  0  0  0  0
   -2.5468   53.0789   23.6472 F   0  0  0  0  0  0
   -4.9701   53.4890   24.8147 F   0  0  0  0  0  0
   -5.5808   52.2834   27.2120 F   0  0  0  0  0  0
    0.2368   53.9617   31.5508 H   0  0  0  0  0  0
   -0.0329   52.4049   30.7531 H   0  0  0  0  0  0
    0.9775   52.4954   32.1968 H   0  0  0  0  0  0
    4.2262   54.1397   30.3600 H   0  0  0  0  0  0
    6.3584   54.4882   29.2583 H   0  0  0  0  0  0
    6.5226   54.4856   26.7962 H   0  0  0  0  0  0
    4.5271   54.0992   25.4341 H   0  0  0  0  0  0
    2.3263   54.0237   25.2805 H   0  0  0  0  0  0
   -0.3993   53.8880   23.7299 H   0  0  0  0  0  0
    1.1783   54.4037   24.1314 H   0  0  0  0  0  0
    1.1114   53.4624   21.7811 H   0  0  0  0  0  0
    2.1472   52.4599   22.7600 H   0  0  0  0  0  0
   -1.2780   49.3126   20.8013 H   0  0  0  0  0  0
   -1.4468   50.4847   27.2313 H   0  0  0  0  0  0
   -3.6528   50.8227   28.2312 H   0  0  0  0  0  0
  1  2  1  0  0  0
  1 34  1  0  0  0
  1 35  1  0  0  0
  1 36  1  0  0  0
  2  3  1  0  0  0
  3  4  2  0  0  0
  3  5  1  0  0  0
  5 10  2  0  0  0
  5  6  1  0  0  0
  6  7  2  0  0  0
  6 37  1  0  0  0
  7  8  1  0  0  0
  7 38  1  0  0  0
  8  9  2  0  0  0
  8 39  1  0  0  0
  9 10  1  0  0  0
  9 40  1  0  0  0
 10 11  1  0  0  0
 11 12  1  0  0  0
 11 41  1  0  0  0
 12 13  2  0  0  0
 12 14  1  0  0  0
 14 23  1  0  0  0
 14 15  1  0  0  0
 15 16  1  0  0  0
 15 42  1  0  0  0
 15 43  1  0  0  0
 16 17  1  0  0  0
 16 44  1  0  0  0
 16 45  1  0  0  0
 17 22  1  0  0  0
 17 18  2  0  0  0
 18 19  1  0  0  0
 18 23  1  0  0  0
 19 20  1  0  0  0
 19 21  1  0  0  0
 21 22  2  0  0  0
 21 46  1  0  0  0
 23 24  1  0  0  0
 23 25  1  0  0  0
 25 30  2  0  0  0
 25 26  1  0  0  0
 26 27  2  0  0  0
 26 47  1  0  0  0
 27 28  1  0  0  0
 27 48  1  0  0  0
 28 29  2  0  0  0
 28 33  1  0  0  0
 29 30  1  0  0  0
 29 32  1  0  0  0
 30 31  1  0  0  0
M  END
> <i_i_glide_confnum>
169

> <i_i_glide_lignum>
308

> <i_i_glide_posenum>
54

> <i_i_glide_rotatable_bonds>
6

> <i_m_Source_File_Index>
3483

> <b_m_subgroup_collapsed>
0

> <r_i_docking_score>
-4.98199

> <r_i_glide_ecoul>
-2.49817

> <r_i_glide_eff_state_penalty>
0

> <r_i_glide_einternal>
4.99966

> <r_i_glide_emodel>
-51.5432

> <r_i_glide_energy>
-40.7146

> <r_i_glide_erotb>
0.536657

> <r_i_glide_esite>
-0.000728917

> <r_i_glide_evdw>
-38.2164

> <r_i_glide_gscore>
-4.98199

> <r_i_glide_hbond>
-0.163393

> <r_i_glide_ligand_efficiency>
-0.160709

> <r_i_glide_ligand_efficiency_ln>
-1.12359

> <r_i_glide_ligand_efficiency_sa>
-0.504849

> <r_i_glide_lipo>
-1.77281

> <r_i_glide_metal>
0

> <r_i_glide_rewards>
-1.29617

> <s_i_glide_gridfile>
wee1_glide-grid

> <s_m_Source_File>
wee1_decoys_glide_SP.sdf

> <s_m_Source_Path>
/Users/zhangxujun/Desktop

> <s_m_entry_id>
3758

> <s_m_entry_name>
wee1_decoys_glide_SP.3483

> <s_m_subgroup_title>
wee1_decoys_glide_SP

> <s_m_subgroupid>
wee1_decoys_glide_SP


$$$$
