ZINC12573248_3514
                    3D
 Schrodinger Suite 2024-2.
 53 54  0  0  1  0            999 V2000
    0.5306   52.1894   26.8468 C   0  0  0  0  0  0
    1.8457   52.9120   26.6199 C   0  0  0  0  0  0
    2.7310   53.0889   27.6773 C   0  0  0  0  0  0
    3.9614   53.7002   27.4596 C   0  0  0  0  0  0
    4.3411   54.1476   26.1817 C   0  0  0  0  0  0
    3.4438   53.9670   25.1033 C   0  0  0  0  0  0
    2.1967   53.3584   25.3465 C   0  0  0  0  0  0
    3.8386   54.4102   23.8479 O   0  0  0  0  0  0
    3.1479   54.0236   22.6448 C   0  0  0  0  0  0
    4.1522   53.4410   21.6352 C   0  0  0  0  0  0
    5.1046   52.7666   22.0332 O   0  0  0  0  0  0
    3.9078   53.6973   20.3325 N   0  0  0  0  0  0
    4.8187   53.2906   19.3386 N   0  0  0  0  0  0
    5.9458   53.9783   18.9650 C   0  0  0  0  0  0
    6.3053   55.5436   19.4965 S   0  0  0  0  0  0
    6.6882   53.2300   18.0812 N   0  0  0  0  0  0
    7.9590   53.3617   17.6149 C   0  0  0  0  0  0
    8.8189   54.1136   18.0818 O   0  0  0  0  0  0
    8.3238   52.4201   16.4940 C   0  0  0  0  0  0
    7.4485   52.1783   15.4270 C   0  0  0  0  0  0
    7.8139   51.3136   14.3934 C   0  0  0  0  0  0
    9.0471   50.6575   14.4200 C   0  0  0  0  0  0
    9.9237   50.8845   15.4885 C   0  0  0  0  0  0
    9.5698   51.7762   16.4999 C   0  0  0  0  0  0
   11.6019   49.9863   15.6070 Br  0  0  0  0  0  0
    9.4098   49.6996   13.2967 C   0  0  0  0  0  0
    5.6998   54.8637   25.9786 C   0  0  0  0  0  0
    6.4850   55.1336   27.2830 C   0  0  0  0  0  0
    6.6561   54.1509   25.0008 C   0  0  0  0  0  0
    0.2824   51.5730   25.9818 H   0  0  0  0  0  0
    0.5921   51.5096   27.6997 H   0  0  0  0  0  0
   -0.2813   52.8976   27.0112 H   0  0  0  0  0  0
    2.4735   52.7511   28.6711 H   0  0  0  0  0  0
    4.6093   53.8109   28.3143 H   0  0  0  0  0  0
    1.4709   53.2237   24.5637 H   0  0  0  0  0  0
    2.3974   53.2460   22.7639 H   0  0  0  0  0  0
    2.6526   54.8974   22.2265 H   0  0  0  0  0  0
    3.1560   54.2814   19.9854 H   0  0  0  0  0  0
    4.6892   52.3208   19.0783 H   0  0  0  0  0  0
    6.1973   52.4398   17.6813 H   0  0  0  0  0  0
    6.4848   52.6632   15.3794 H   0  0  0  0  0  0
    7.1226   51.1465   13.5787 H   0  0  0  0  0  0
   10.2709   51.9490   17.3034 H   0  0  0  0  0  0
    8.6084   49.5956   12.5628 H   0  0  0  0  0  0
   10.3033   50.0605   12.7824 H   0  0  0  0  0  0
    9.6383   48.7110   13.6963 H   0  0  0  0  0  0
    5.4523   55.8320   25.5422 H   0  0  0  0  0  0
    5.8998   55.6958   28.0080 H   0  0  0  0  0  0
    6.7976   54.2038   27.7650 H   0  0  0  0  0  0
    7.3942   55.6966   27.0883 H   0  0  0  0  0  0
    6.1810   53.8433   24.0731 H   0  0  0  0  0  0
    7.4877   54.8020   24.7231 H   0  0  0  0  0  0
    7.0946   53.2659   25.4594 H   0  0  0  0  0  0
  1  2  1  0  0  0
  1 30  1  0  0  0
  1 31  1  0  0  0
  1 32  1  0  0  0
  2  7  2  0  0  0
  2  3  1  0  0  0
  3  4  2  0  0  0
  3 33  1  0  0  0
  4  5  1  0  0  0
  4 34  1  0  0  0
  5  6  2  0  0  0
  5 27  1  0  0  0
  6  7  1  0  0  0
  6  8  1  0  0  0
  7 35  1  0  0  0
  8  9  1  0  0  0
  9 10  1  0  0  0
  9 36  1  0  0  0
  9 37  1  0  0  0
 10 11  2  0  0  0
 10 12  1  0  0  0
 12 13  1  0  0  0
 12 38  1  0  0  0
 13 14  1  0  0  0
 13 39  1  0  0  0
 14 15  2  0  0  0
 14 16  1  0  0  0
 16 17  1  0  0  0
 16 40  1  0  0  0
 17 18  2  0  0  0
 17 19  1  0  0  0
 19 24  2  0  0  0
 19 20  1  0  0  0
 20 21  2  0  0  0
 20 41  1  0  0  0
 21 22  1  0  0  0
 21 42  1  0  0  0
 22 23  2  0  0  0
 22 26  1  0  0  0
 23 24  1  0  0  0
 23 25  1  0  0  0
 24 43  1  0  0  0
 26 44  1  0  0  0
 26 45  1  0  0  0
 26 46  1  0  0  0
 27 28  1  0  0  0
 27 29  1  0  0  0
 27 47  1  0  0  0
 28 48  1  0  0  0
 28 49  1  0  0  0
 28 50  1  0  0  0
 29 51  1  0  0  0
 29 52  1  0  0  0
 29 53  1  0  0  0
M  END
> <i_i_glide_confnum>
224

> <i_i_glide_lignum>
3515

> <i_i_glide_posenum>
156

> <i_i_glide_rotatable_bonds>
10

> <i_m_Source_File_Index>
953

> <b_m_subgroup_collapsed>
0

> <r_i_docking_score>
-5.91773

> <r_i_glide_ecoul>
-6.86227

> <r_i_glide_eff_state_penalty>
0

> <r_i_glide_einternal>
10.4348

> <r_i_glide_emodel>
-60.8339

> <r_i_glide_energy>
-47.3991

> <r_i_glide_erotb>
0.796862

> <r_i_glide_esite>
-0.139613

> <r_i_glide_evdw>
-40.5368

> <r_i_glide_gscore>
-5.91773

> <r_i_glide_hbond>
-0.431126

> <r_i_glide_ligand_efficiency>
-0.20406

> <r_i_glide_ligand_efficiency_ln>
-1.35501

> <r_i_glide_ligand_efficiency_sa>
-0.626936

> <r_i_glide_lipo>
-2.57846

> <r_i_glide_metal>
0

> <r_i_glide_rewards>
-0.509213

> <s_i_glide_gridfile>
wee1_glide-grid

> <s_m_Source_File>
wee1_decoys_glide_SP.sdf

> <s_m_Source_Path>
/Users/zhangxujun/Desktop

> <s_m_entry_id>
1228

> <s_m_entry_name>
wee1_decoys_glide_SP.953

> <s_m_subgroup_title>
wee1_decoys_glide_SP

> <s_m_subgroupid>
wee1_decoys_glide_SP


$$$$
