ZINC04259838_812
                    3D
 Schrodinger Suite 2024-2.
 52 54  0  0  1  0            999 V2000
   -3.4424   50.8964   27.9150 C   0  0  0  0  0  0
   -2.6254   50.7015   26.6355 C   0  0  0  0  0  0
   -1.4146   51.4365   26.7445 O   0  0  0  0  0  0
   -0.5416   51.4899   25.7234 C   0  0  0  0  0  0
   -0.7222   50.9323   24.6362 O   0  0  0  0  0  0
    0.6490   52.3254   26.0184 C   0  0  0  0  0  0
    1.0282   52.8960   27.2798 C   0  0  0  0  0  0
    2.2016   53.6702   27.1994 C   0  0  0  0  0  0
    2.8693   53.6968   25.6186 S   0  0  0  0  0  0
    1.6115   52.6495   25.0340 C   0  0  0  0  0  0
    1.6263   52.1363   23.7373 N   0  0  0  0  0  0
    2.4734   52.4006   22.7086 C   0  0  0  0  0  0
    3.3219   53.2963   22.7128 O   0  0  0  0  0  0
    2.3770   51.4542   21.5517 C   0  0  0  0  0  0
    3.3632   51.2658   20.8340 O   0  0  0  0  0  0
    1.1545   50.8595   21.3893 N   0  0  0  0  0  0
    0.6976   49.8976   20.5091 N   0  0  0  0  0  0
    1.4735   49.2082   19.7580 C   0  0  0  0  0  0
    0.9861   48.1908   18.8157 C   0  0  0  0  0  0
   -0.3751   47.8690   18.6868 C   0  0  0  0  0  0
   -0.7992   46.9057   17.7705 C   0  0  0  0  0  0
    0.1320   46.2478   16.9676 C   0  0  0  0  0  0
    1.4870   46.5522   17.0830 C   0  0  0  0  0  0
    1.9054   47.5126   18.0049 C   0  0  0  0  0  0
    2.6443   45.7481   16.0827 Cl  0  0  0  0  0  0
    2.8430   54.4500   28.3416 C   0  0  0  0  0  0
    2.3261   53.8893   29.6815 C   0  0  1  0  0  0
    2.5558   54.6475   30.4295 H   0  0  0  0  0  0
    0.7898   53.7972   29.6474 C   0  0  0  0  0  0
    0.2869   52.7536   28.6253 C   0  0  0  0  0  0
    3.0368   52.5931   30.1245 C   0  0  0  0  0  0
   -4.3714   50.3284   27.8693 H   0  0  0  0  0  0
   -2.8860   50.5496   28.7879 H   0  0  0  0  0  0
   -3.6958   51.9442   28.0674 H   0  0  0  0  0  0
   -3.1979   51.0431   25.7712 H   0  0  0  0  0  0
   -2.4056   49.6429   26.4877 H   0  0  0  0  0  0
    0.9229   51.4224   23.6085 H   0  0  0  0  0  0
    0.4020   51.2120   21.9603 H   0  0  0  0  0  0
    2.5542   49.3146   19.7643 H   0  0  0  0  0  0
   -1.1164   48.3705   19.2926 H   0  0  0  0  0  0
   -1.8502   46.6731   17.6814 H   0  0  0  0  0  0
   -0.1964   45.5078   16.2535 H   0  0  0  0  0  0
    2.9633   47.7361   18.0767 H   0  0  0  0  0  0
    2.5980   55.5104   28.2622 H   0  0  0  0  0  0
    3.9315   54.3899   28.2956 H   0  0  0  0  0  0
    0.3658   54.7747   29.4141 H   0  0  0  0  0  0
    0.4099   53.5190   30.6323 H   0  0  0  0  0  0
    0.4208   51.7451   29.0193 H   0  0  0  0  0  0
   -0.7865   52.8987   28.5234 H   0  0  0  0  0  0
    2.8994   51.7899   29.4006 H   0  0  0  0  0  0
    4.1098   52.7501   30.2356 H   0  0  0  0  0  0
    2.6575   52.2446   31.0854 H   0  0  0  0  0  0
  1  2  1  0  0  0
  1 32  1  0  0  0
  1 33  1  0  0  0
  1 34  1  0  0  0
  2  3  1  0  0  0
  2 35  1  0  0  0
  2 36  1  0  0  0
  3  4  1  0  0  0
  4  5  2  0  0  0
  4  6  1  0  0  0
  6 10  2  0  0  0
  6  7  1  0  0  0
  7 30  1  0  0  0
  7  8  2  0  0  0
  8  9  1  0  0  0
  8 26  1  0  0  0
  9 10  1  0  0  0
 10 11  1  0  0  0
 11 12  1  0  0  0
 11 37  1  0  0  0
 12 13  2  0  0  0
 12 14  1  0  0  0
 14 15  2  0  0  0
 14 16  1  0  0  0
 16 17  1  0  0  0
 16 38  1  0  0  0
 17 18  2  0  0  0
 18 19  1  0  0  0
 18 39  1  0  0  0
 19 24  2  0  0  0
 19 20  1  0  0  0
 20 21  2  0  0  0
 20 40  1  0  0  0
 21 22  1  0  0  0
 21 41  1  0  0  0
 22 23  2  0  0  0
 22 42  1  0  0  0
 23 24  1  0  0  0
 23 25  1  0  0  0
 24 43  1  0  0  0
 26 27  1  0  0  0
 26 44  1  0  0  0
 26 45  1  0  0  0
 27 28  1  0  0  0
 27 29  1  0  0  0
 27 31  1  0  0  0
 29 30  1  0  0  0
 29 46  1  0  0  0
 29 47  1  0  0  0
 30 48  1  0  0  0
 30 49  1  0  0  0
 31 50  1  0  0  0
 31 51  1  0  0  0
 31 52  1  0  0  0
M  END
> <i_i_glide_confnum>
220

> <i_i_glide_lignum>
813

> <i_i_glide_posenum>
258

> <i_i_glide_rotatable_bonds>
9

> <i_m_Source_File_Index>
2678

> <b_m_subgroup_collapsed>
0

> <r_i_docking_score>
-3.27937

> <r_i_glide_ecoul>
0.0588604

> <r_i_glide_eff_state_penalty>
0

> <r_i_glide_einternal>
6.74966

> <r_i_glide_emodel>
-45.7982

> <r_i_glide_energy>
-38.1107

> <r_i_glide_erotb>
0.698745

> <r_i_glide_esite>
-0.0432379

> <r_i_glide_evdw>
-38.1696

> <r_i_glide_gscore>
-3.27937

> <r_i_glide_hbond>
0

> <r_i_glide_ligand_efficiency>
-0.109312

> <r_i_glide_ligand_efficiency_ln>
-0.745109

> <r_i_glide_ligand_efficiency_sa>
-0.339659

> <r_i_glide_lipo>
-1.46522

> <r_i_glide_metal>
0

> <r_i_glide_rewards>
-0.570004

> <s_i_glide_gridfile>
wee1_glide-grid

> <s_m_Source_File>
wee1_decoys_glide_SP.sdf

> <s_m_Source_Path>
/Users/zhangxujun/Desktop

> <s_m_entry_id>
2953

> <s_m_entry_name>
wee1_decoys_glide_SP.2678

> <s_m_subgroup_title>
wee1_decoys_glide_SP

> <s_m_subgroupid>
wee1_decoys_glide_SP


$$$$
