ZINC12155728_1217
                    3D
 Schrodinger Suite 2024-2.
 71 75  0  0  1  0            999 V2000
    0.3028   53.6492   32.1522 C   0  0  0  0  0  0
    0.8593   54.1039   30.9244 O   0  0  0  0  0  0
    0.7248   53.3174   29.8017 C   0  0  0  0  0  0
   -0.0926   52.1815   29.7081 C   0  0  0  0  0  0
   -0.1657   51.4681   28.5149 C   0  0  0  0  0  0
    0.6030   51.8391   27.4012 C   0  0  0  0  0  0
    1.4398   52.9632   27.5042 C   0  0  0  0  0  0
    1.4712   53.7049   28.6940 C   0  0  0  0  0  0
    2.2127   53.2946   26.3788 N   0  0  0  0  0  0
    3.3656   53.9932   26.3136 C   0  0  0  0  0  0
    3.9490   54.5108   27.2669 O   0  0  0  0  0  0
    3.9044   54.0588   24.9793 C   0  0  0  0  0  0
    3.3089   53.8359   23.7340 C   0  0  0  0  0  0
    4.3119   54.1029   22.7571 C   0  0  0  0  0  0
    4.3802   54.1002   21.3571 C   0  0  0  0  0  0
    5.5584   54.5349   20.7222 C   0  0  0  0  0  0
    6.6578   54.9375   21.5011 C   0  0  0  0  0  0
    6.6417   54.8985   22.8936 C   0  0  0  0  0  0
    5.4488   54.4965   23.4954 C   0  0  0  0  0  0
    5.1994   54.4727   24.8351 O   0  0  0  0  0  0
    5.6383   54.5898   19.1782 C   0  0  1  0  0  0
    5.3837   53.1730   18.5681 C   0  0  0  0  0  0
    4.8553   53.1069   17.1228 C   0  0  0  0  0  0
    4.1293   55.5067   17.2078 C   0  0  0  0  0  0
    4.5972   55.6301   18.6623 C   0  0  0  0  0  0
    3.0022   53.8881   15.5845 C   0  0  0  0  0  0
    1.6550   54.6579   15.4825 C   0  0  1  0  0  0
    1.3553   54.9907   16.4792 H   0  0  0  0  0  0
    1.7638   55.9070   14.5737 C   0  0  0  0  0  0
    0.4777   56.7617   14.6028 C   0  0  0  0  0  0
   -0.7500   55.8713   14.4518 C   0  0  0  0  0  0
   -0.7269   54.5309   14.5935 C   0  0  0  0  0  0
    0.5168   53.7307   14.9715 C   0  0  0  0  0  0
    6.8793   55.0117   18.6384 O   0  0  0  0  0  0
    0.5870   51.1451   26.2017 O   0  0  0  0  0  0
   -0.0983   49.8958   26.1282 C   0  0  0  0  0  0
    0.5277   54.3561   32.9499 H   0  0  0  0  0  0
    0.7030   52.6779   32.4459 H   0  0  0  0  0  0
   -0.7801   53.5845   32.0818 H   0  0  0  0  0  0
   -0.6883   51.8462   30.5464 H   0  0  0  0  0  0
   -0.8210   50.6110   28.4807 H   0  0  0  0  0  0
    2.0811   54.5902   28.7848 H   0  0  0  0  0  0
    1.9043   52.8452   25.5296 H   0  0  0  0  0  0
    2.2879   53.5335   23.5539 H   0  0  0  0  0  0
    3.5117   53.8125   20.7829 H   0  0  0  0  0  0
    7.5659   55.2724   21.0189 H   0  0  0  0  0  0
    7.5032   55.1984   23.4760 H   0  0  0  0  0  0
    6.2936   52.5732   18.6410 H   0  0  0  0  0  0
    4.6992   52.5997   19.1910 H   0  0  0  0  0  0
    5.6032   53.3938   16.3813 H   0  0  0  0  0  0
    4.5014   52.0981   16.9031 H   0  0  0  0  0  0
    4.9096   55.7285   16.4786 H   0  0  0  0  0  0
    3.2837   56.1755   17.0526 H   0  0  0  0  0  0
    3.7027   55.5888   19.2792 H   0  0  0  0  0  0
    4.9666   56.6401   18.8474 H   0  0  0  0  0  0
    3.7463   54.1964   14.8458 H   0  0  0  0  0  0
    2.8518   52.8110   15.4769 H   0  0  0  0  0  0
    2.6080   56.5287   14.8755 H   0  0  0  0  0  0
    2.0098   55.5997   13.5558 H   0  0  0  0  0  0
    0.5132   57.5042   13.8057 H   0  0  0  0  0  0
    0.4085   57.3276   15.5332 H   0  0  0  0  0  0
   -1.6947   56.3350   14.2068 H   0  0  0  0  0  0
   -1.6537   53.9958   14.4449 H   0  0  0  0  0  0
    0.8372   53.1426   14.1114 H   0  0  0  0  0  0
    0.2530   53.0142   15.7509 H   0  0  0  0  0  0
    6.8543   54.8949   17.6877 H   0  0  0  0  0  0
    0.0416   49.4658   25.1385 H   0  0  0  0  0  0
    0.3011   49.1842   26.8520 H   0  0  0  0  0  0
   -1.1706   50.0080   26.2921 H   0  0  0  0  0  0
    3.6493   54.0586   16.9850 N   0  3  1  0  0  0
    2.9458   53.8157   17.6712 H   0  0  0  0  0  0
  1  2  1  0  0  0
  1 37  1  0  0  0
  1 38  1  0  0  0
  1 39  1  0  0  0
  2  3  1  0  0  0
  3  8  2  0  0  0
  3  4  1  0  0  0
  4  5  2  0  0  0
  4 40  1  0  0  0
  5  6  1  0  0  0
  5 41  1  0  0  0
  6  7  2  0  0  0
  6 35  1  0  0  0
  7  8  1  0  0  0
  7  9  1  0  0  0
  8 42  1  0  0  0
  9 10  1  0  0  0
  9 43  1  0  0  0
 10 11  2  0  0  0
 10 12  1  0  0  0
 12 20  1  0  0  0
 12 13  2  0  0  0
 13 14  1  0  0  0
 13 44  1  0  0  0
 14 19  2  0  0  0
 14 15  1  0  0  0
 15 16  2  0  0  0
 15 45  1  0  0  0
 16 17  1  0  0  0
 16 21  1  0  0  0
 17 18  2  0  0  0
 17 46  1  0  0  0
 18 19  1  0  0  0
 18 47  1  0  0  0
 19 20  1  0  0  0
 21 25  1  0  0  0
 21 22  1  0  0  0
 21 34  1  0  0  0
 22 23  1  0  0  0
 22 48  1  0  0  0
 22 49  1  0  0  0
 23 50  1  0  0  0
 23 51  1  0  0  0
 23 70  1  0  0  0
 24 25  1  0  0  0
 24 52  1  0  0  0
 24 53  1  0  0  0
 24 70  1  0  0  0
 25 54  1  0  0  0
 25 55  1  0  0  0
 26 27  1  0  0  0
 26 56  1  0  0  0
 26 57  1  0  0  0
 26 70  1  0  0  0
 27 28  1  0  0  0
 27 33  1  0  0  0
 27 29  1  0  0  0
 29 30  1  0  0  0
 29 58  1  0  0  0
 29 59  1  0  0  0
 30 31  1  0  0  0
 30 60  1  0  0  0
 30 61  1  0  0  0
 31 32  2  0  0  0
 31 62  1  0  0  0
 32 33  1  0  0  0
 32 63  1  0  0  0
 33 64  1  0  0  0
 33 65  1  0  0  0
 34 66  1  0  0  0
 35 36  1  0  0  0
 36 67  1  0  0  0
 36 68  1  0  0  0
 36 69  1  0  0  0
 70 71  1  0  0  0
M  CHG  1  70   1
M  END
> <i_i_glide_confnum>
205

> <i_i_glide_lignum>
1218

> <i_i_glide_posenum>
253

> <i_i_glide_rotatable_bonds>
9

> <i_m_Source_File_Index>
3468

> <b_m_subgroup_collapsed>
0

> <r_i_docking_score>
-5.23203

> <r_i_glide_ecoul>
-7.76558

> <r_i_glide_eff_state_penalty>
0

> <r_i_glide_einternal>
5.30886

> <r_i_glide_emodel>
-59.2903

> <r_i_glide_energy>
-45.965

> <r_i_glide_erotb>
0.505452

> <r_i_glide_esite>
-0.00637943

> <r_i_glide_evdw>
-38.1994

> <r_i_glide_gscore>
-5.23203

> <r_i_glide_hbond>
-0.0170495

> <r_i_glide_ligand_efficiency>
-0.145334

> <r_i_glide_ligand_efficiency_ln>
-1.14149

> <r_i_glide_ligand_efficiency_sa>
-0.479883

> <r_i_glide_lipo>
-2.2301

> <r_i_glide_metal>
0

> <r_i_glide_rewards>
-0.409139

> <s_i_glide_gridfile>
wee1_glide-grid

> <s_m_Source_File>
wee1_decoys_glide_SP.sdf

> <s_m_Source_Path>
/Users/zhangxujun/Desktop

> <s_m_entry_id>
3743

> <s_m_entry_name>
wee1_decoys_glide_SP.3468

> <s_m_subgroup_title>
wee1_decoys_glide_SP

> <s_m_subgroupid>
wee1_decoys_glide_SP


$$$$
