ZINC44905374_6063
                    3D
 Schrodinger Suite 2024-2.
 62 65  0  0  1  0            999 V2000
    6.1376   54.4859   27.5472 C   0  0  0  0  0  0
    5.2921   54.4964   28.6537 C   0  0  0  0  0  0
    3.9081   54.4967   28.4993 C   0  0  0  0  0  0
    3.3773   54.4970   27.1997 C   0  0  0  0  0  0
    4.2171   54.4968   26.0891 C   0  0  0  0  0  0
    5.6057   54.5002   26.2561 C   0  0  0  0  0  0
    6.5538   54.5039   25.0603 C   0  0  0  0  0  0
    5.9925   53.9452   23.8272 N   0  0  0  0  0  0
    6.0985   54.4969   22.6083 C   0  0  0  0  0  0
    6.7047   55.5518   22.4097 O   0  0  0  0  0  0
    5.4339   53.7400   21.4387 C   0  0  1  0  0  0
    5.8312   52.7273   21.5269 H   0  0  0  0  0  0
    3.8930   53.7268   21.5804 C   0  0  0  0  0  0
    3.3051   52.8885   20.4196 C   0  0  0  0  0  0
    3.7420   53.3929   19.0237 C   0  0  0  0  0  0
    5.2880   53.4535   18.9612 N   0  3  2  0  0  0
    5.8280   54.3797   20.0802 C   0  0  0  0  0  0
    5.7657   53.9339   17.5696 C   0  0  0  0  0  0
    7.2582   53.7270   17.3525 C   0  0  0  0  0  0
    8.1631   54.7600   17.6167 C   0  0  0  0  0  0
    9.5293   54.5434   17.4591 C   0  0  0  0  0  0
    9.9850   53.3038   17.0143 C   0  0  0  0  0  0
    9.0858   52.2811   16.7194 C   0  0  0  0  0  0
    7.7209   52.4944   16.8847 C   0  0  0  0  0  0
   11.6804   53.0285   16.8426 Cl  0  0  0  0  0  0
    3.1544   54.4965   29.6661 O   0  0  0  0  0  0
    1.7192   54.4785   29.6257 C   0  0  0  0  0  0
    1.1601   53.2318   28.9428 C   0  0  0  0  0  0
   -0.0703   53.2971   28.2853 C   0  0  0  0  0  0
   -0.4968   52.2414   27.4866 C   0  0  0  0  0  0
    0.3086   51.1170   27.3557 C   0  0  0  0  0  0
    1.4987   51.0193   28.0721 C   0  0  0  0  0  0
    1.9182   52.0622   28.8825 C   0  0  0  0  0  0
   -0.0502   50.1294   26.5056 F   0  0  0  0  0  0
    7.2062   54.4887   27.7062 H   0  0  0  0  0  0
    5.7150   54.5219   29.6443 H   0  0  0  0  0  0
    2.3138   54.5037   27.0250 H   0  0  0  0  0  0
    3.7780   54.5069   25.1028 H   0  0  0  0  0  0
    7.4426   53.9220   25.2985 H   0  0  0  0  0  0
    6.9056   55.5286   24.9229 H   0  0  0  0  0  0
    5.5582   53.0389   23.9172 H   0  0  0  0  0  0
    3.4723   54.7301   21.4915 H   0  0  0  0  0  0
    3.5677   53.2464   22.5047 H   0  0  0  0  0  0
    2.2157   52.8966   20.4749 H   0  0  0  0  0  0
    3.5980   51.8420   20.5280 H   0  0  0  0  0  0
    3.3616   54.3920   18.8004 H   0  0  0  0  0  0
    3.4197   52.6911   18.2504 H   0  0  0  0  0  0
    6.9091   54.4930   19.9711 H   0  0  0  0  0  0
    5.3638   55.3557   19.9196 H   0  0  0  0  0  0
    5.4716   54.9824   17.4801 H   0  0  0  0  0  0
    5.1921   53.3501   16.8464 H   0  0  0  0  0  0
    7.8149   55.7218   17.9664 H   0  0  0  0  0  0
   10.2325   55.3294   17.6903 H   0  0  0  0  0  0
    9.4471   51.3219   16.3779 H   0  0  0  0  0  0
    7.0270   51.6938   16.6748 H   0  0  0  0  0  0
    1.3400   54.5182   30.6458 H   0  0  0  0  0  0
    1.3664   55.3826   29.1251 H   0  0  0  0  0  0
   -0.6555   54.2014   28.3273 H   0  0  0  0  0  0
   -1.4241   52.3061   26.9372 H   0  0  0  0  0  0
    2.1103   50.1377   27.9673 H   0  0  0  0  0  0
    2.8688   51.9890   29.3911 H   0  0  0  0  0  0
    5.6521   52.5156   19.0798 H   0  0  0  0  0  0
  1  6  2  0  0  0
  1  2  1  0  0  0
  1 35  1  0  0  0
  2  3  2  0  0  0
  2 36  1  0  0  0
  3  4  1  0  0  0
  3 26  1  0  0  0
  4  5  2  0  0  0
  4 37  1  0  0  0
  5  6  1  0  0  0
  5 38  1  0  0  0
  6  7  1  0  0  0
  7  8  1  0  0  0
  7 39  1  0  0  0
  7 40  1  0  0  0
  8  9  1  0  0  0
  8 41  1  0  0  0
  9 10  2  0  0  0
  9 11  1  0  0  0
 11 12  1  0  0  0
 11 17  1  0  0  0
 11 13  1  0  0  0
 13 14  1  0  0  0
 13 42  1  0  0  0
 13 43  1  0  0  0
 14 15  1  0  0  0
 14 44  1  0  0  0
 14 45  1  0  0  0
 15 16  1  0  0  0
 15 46  1  0  0  0
 15 47  1  0  0  0
 16 17  1  0  0  0
 16 18  1  0  0  0
 16 62  1  0  0  0
 17 48  1  0  0  0
 17 49  1  0  0  0
 18 19  1  0  0  0
 18 50  1  0  0  0
 18 51  1  0  0  0
 19 24  2  0  0  0
 19 20  1  0  0  0
 20 21  2  0  0  0
 20 52  1  0  0  0
 21 22  1  0  0  0
 21 53  1  0  0  0
 22 23  2  0  0  0
 22 25  1  0  0  0
 23 24  1  0  0  0
 23 54  1  0  0  0
 24 55  1  0  0  0
 26 27  1  0  0  0
 27 28  1  0  0  0
 27 56  1  0  0  0
 27 57  1  0  0  0
 28 33  2  0  0  0
 28 29  1  0  0  0
 29 30  2  0  0  0
 29 58  1  0  0  0
 30 31  1  0  0  0
 30 59  1  0  0  0
 31 32  2  0  0  0
 31 34  1  0  0  0
 32 33  1  0  0  0
 32 60  1  0  0  0
 33 61  1  0  0  0
M  CHG  1  16   1
M  END
> <i_i_glide_confnum>
195

> <i_i_glide_lignum>
6064

> <i_i_glide_posenum>
87

> <i_i_glide_rotatable_bonds>
9

> <i_m_Source_File_Index>
3670

> <b_m_subgroup_collapsed>
0

> <r_i_docking_score>
-5.46197

> <r_i_glide_ecoul>
-0.895809

> <r_i_glide_eff_state_penalty>
0

> <r_i_glide_einternal>
10.741

> <r_i_glide_emodel>
-55.6613

> <r_i_glide_energy>
-42.0567

> <r_i_glide_erotb>
0.829553

> <r_i_glide_esite>
-0.142508

> <r_i_glide_evdw>
-41.1609

> <r_i_glide_gscore>
-5.46197

> <r_i_glide_hbond>
-0.266554

> <r_i_glide_ligand_efficiency>
-0.165514

> <r_i_glide_ligand_efficiency_ln>
-1.21471

> <r_i_glide_ligand_efficiency_sa>
-0.530893

> <r_i_glide_lipo>
-3.05614

> <r_i_glide_metal>
0

> <r_i_glide_rewards>
-0.633906

> <s_i_glide_gridfile>
wee1_glide-grid

> <s_m_Source_File>
wee1_decoys_glide_SP.sdf

> <s_m_Source_Path>
/Users/zhangxujun/Desktop

> <s_m_entry_id>
3945

> <s_m_entry_name>
wee1_decoys_glide_SP.3670

> <s_m_subgroup_title>
wee1_decoys_glide_SP

> <s_m_subgroupid>
wee1_decoys_glide_SP


$$$$
