ZINC53735886_1756
                    3D
 Schrodinger Suite 2024-2.
 37 39  0  0  1  0            999 V2000
    0.3020   53.9066   32.0144 C   0  0  0  0  0  0
    0.7309   53.8176   30.5616 C   0  0  0  0  0  0
    1.1275   54.9562   29.8594 C   0  0  0  0  0  0
    1.5892   54.8435   28.5458 C   0  0  0  0  0  0
    1.6446   53.5917   27.9171 C   0  0  0  0  0  0
    1.2534   52.4511   28.6300 C   0  0  0  0  0  0
    0.7862   52.5722   29.9377 C   0  0  0  0  0  0
    1.3604   51.2211   28.0812 F   0  0  0  0  0  0
    2.1389   53.4965   26.5940 N   0  0  0  0  0  0
    3.3814   53.9452   26.1638 C   0  0  0  0  0  0
    4.4937   54.4974   26.8162 C   0  0  0  0  0  0
    5.5962   54.8265   26.0184 C   0  0  0  0  0  0
    5.5917   54.6360   24.6356 C   0  0  0  0  0  0
    4.4824   54.0967   23.9890 C   0  0  0  0  0  0
    3.3768   53.7223   24.7664 C   0  0  0  0  0  0
    2.2230   53.1145   24.3687 N   0  0  0  0  0  0
    1.5121   52.9676   25.4642 C   0  0  0  0  0  0
    0.1301   52.2999   25.4573 C   0  0  2  0  0  0
   -0.3745   52.4311   26.4150 H   0  0  0  0  0  0
    0.1889   50.7984   25.1297 C   0  0  0  0  0  0
   -0.7063   52.8959   24.4830 O   0  0  0  0  0  0
    6.7041   54.9823   23.8725 N   0  0  0  0  0  0
    0.8205   53.1537   32.6089 H   0  0  0  0  0  0
    0.5214   54.8805   32.4509 H   0  0  0  0  0  0
   -0.7600   53.6965   32.1161 H   0  0  0  0  0  0
    1.0967   55.9272   30.3337 H   0  0  0  0  0  0
    1.8992   55.7369   28.0225 H   0  0  0  0  0  0
    0.4753   51.6967   30.4848 H   0  0  0  0  0  0
    4.5116   54.6525   27.8852 H   0  0  0  0  0  0
    6.4698   55.2450   26.4942 H   0  0  0  0  0  0
    4.4766   53.9370   22.9212 H   0  0  0  0  0  0
    0.7648   50.2464   25.8715 H   0  0  0  0  0  0
   -0.8047   50.3502   25.1138 H   0  0  0  0  0  0
    0.6521   50.6191   24.1576 H   0  0  0  0  0  0
   -1.4298   52.2921   24.2986 H   0  0  0  0  0  0
    7.6142   55.0738   24.3072 H   0  0  0  0  0  0
    6.6688   54.7726   22.8862 H   0  0  0  0  0  0
  1  2  1  0  0  0
  1 23  1  0  0  0
  1 24  1  0  0  0
  1 25  1  0  0  0
  2  7  2  0  0  0
  2  3  1  0  0  0
  3  4  2  0  0  0
  3 26  1  0  0  0
  4  5  1  0  0  0
  4 27  1  0  0  0
  5  6  2  0  0  0
  5  9  1  0  0  0
  6  7  1  0  0  0
  6  8  1  0  0  0
  7 28  1  0  0  0
  9 17  1  0  0  0
  9 10  1  0  0  0
 10 15  2  0  0  0
 10 11  1  0  0  0
 11 12  2  0  0  0
 11 29  1  0  0  0
 12 13  1  0  0  0
 12 30  1  0  0  0
 13 14  2  0  0  0
 13 22  1  0  0  0
 14 15  1  0  0  0
 14 31  1  0  0  0
 15 16  1  0  0  0
 16 17  2  0  0  0
 17 18  1  0  0  0
 18 19  1  0  0  0
 18 20  1  0  0  0
 18 21  1  0  0  0
 20 32  1  0  0  0
 20 33  1  0  0  0
 20 34  1  0  0  0
 21 35  1  0  0  0
 22 36  1  0  0  0
 22 37  1  0  0  0
M  END
> <i_i_glide_confnum>
4

> <i_i_glide_lignum>
1757

> <i_i_glide_posenum>
244

> <i_i_glide_rotatable_bonds>
3

> <i_m_Source_File_Index>
1184

> <b_m_subgroup_collapsed>
0

> <r_i_docking_score>
-6.46875

> <r_i_glide_ecoul>
-1.38873

> <r_i_glide_eff_state_penalty>
0

> <r_i_glide_einternal>
1.60616

> <r_i_glide_emodel>
-48.4152

> <r_i_glide_energy>
-34.9477

> <r_i_glide_erotb>
0.44571

> <r_i_glide_esite>
0

> <r_i_glide_evdw>
-33.5589

> <r_i_glide_gscore>
-6.46875

> <r_i_glide_hbond>
-0.188905

> <r_i_glide_ligand_efficiency>
-0.308036

> <r_i_glide_ligand_efficiency_ln>
-1.59938

> <r_i_glide_ligand_efficiency_sa>
-0.849847

> <r_i_glide_lipo>
-2.74322

> <r_i_glide_metal>
0

> <r_i_glide_rewards>
-2.09608

> <s_i_glide_gridfile>
wee1_glide-grid

> <s_m_Source_File>
wee1_decoys_glide_SP.sdf

> <s_m_Source_Path>
/Users/zhangxujun/Desktop

> <s_m_entry_id>
1459

> <s_m_entry_name>
wee1_decoys_glide_SP.1184

> <s_m_subgroup_title>
wee1_decoys_glide_SP

> <s_m_subgroupid>
wee1_decoys_glide_SP


$$$$
