ZINC12347872_3563
                    3D
 Schrodinger Suite 2024-2.
 42 45  0  0  1  0            999 V2000
    0.8106   50.5220   17.5364 C   0  0  0  0  0  0
    1.5203   51.4861   18.5105 C   0  0  0  0  0  0
    2.4065   52.4485   17.6661 C   0  0  0  0  0  0
    3.4271   53.2175   18.5147 C   0  0  0  0  0  0
    3.8725   52.7807   19.7331 C   0  0  0  0  0  0
    4.9086   53.5851   20.5806 C   0  0  1  0  0  0
    5.7750   52.9235   20.5983 H   0  0  0  0  0  0
    5.3070   54.8577   19.8263 C   0  0  0  0  0  0
    4.7272   55.2012   18.6199 C   0  0  0  0  0  0
    5.2755   56.3875   18.2319 N   0  0  0  0  0  0
    5.0579   56.8800   17.3774 H   0  0  0  0  0  0
    6.1673   56.8389   19.1206 N   0  0  0  0  0  0
    6.1735   55.9429   20.0871 C   0  0  0  0  0  0
    6.9616   56.0986   21.1945 O   0  0  0  0  0  0
    3.7955   54.4378   17.9642 N   0  0  0  0  0  0
    4.6009   53.8442   22.0635 C   0  0  0  0  0  0
    5.6505   53.8725   22.9911 C   0  0  0  0  0  0
    5.3897   54.0971   24.3395 C   0  0  0  0  0  0
    4.0750   54.2642   24.7700 C   0  0  0  0  0  0
    3.0231   54.2414   23.8564 C   0  0  0  0  0  0
    3.2869   54.0444   22.5022 C   0  0  0  0  0  0
    3.7246   54.4966   26.6255 Br  0  0  0  0  0  0
    3.4361   51.4629   20.2606 C   0  0  0  0  0  0
    3.9088   50.9688   21.2826 O   0  0  0  0  0  0
    2.4588   50.6406   19.4038 C   0  0  0  0  0  0
    0.5189   52.2621   19.3988 C   0  0  0  0  0  0
    0.1438   51.0600   16.8606 H   0  0  0  0  0  0
    1.5230   49.9707   16.9200 H   0  0  0  0  0  0
    0.2059   49.7880   18.0727 H   0  0  0  0  0  0
    1.7148   53.1384   17.1755 H   0  0  0  0  0  0
    2.9792   51.9267   16.8943 H   0  0  0  0  0  0
    6.6609   55.4959   21.8789 H   0  0  0  0  0  0
    3.4226   54.7162   17.0729 H   0  0  0  0  0  0
    6.6695   53.7027   22.6732 H   0  0  0  0  0  0
    6.1980   54.1036   25.0544 H   0  0  0  0  0  0
    2.0056   54.3742   24.1956 H   0  0  0  0  0  0
    2.4701   54.0319   21.7951 H   0  0  0  0  0  0
    3.0999   50.0392   18.7537 H   0  0  0  0  0  0
    1.9224   49.9385   20.0413 H   0  0  0  0  0  0
   -0.1283   52.8994   18.7955 H   0  0  0  0  0  0
   -0.1263   51.5793   19.9553 H   0  0  0  0  0  0
    1.0147   52.8971   20.1303 H   0  0  0  0  0  0
  1  2  1  0  0  0
  1 27  1  0  0  0
  1 28  1  0  0  0
  1 29  1  0  0  0
  2 25  1  0  0  0
  2  3  1  0  0  0
  2 26  1  0  0  0
  3  4  1  0  0  0
  3 30  1  0  0  0
  3 31  1  0  0  0
  4 15  1  0  0  0
  4  5  2  0  0  0
  5  6  1  0  0  0
  5 23  1  0  0  0
  6  7  1  0  0  0
  6  8  1  0  0  0
  6 16  1  0  0  0
  8 13  1  0  0  0
  8  9  2  0  0  0
  9 10  1  0  0  0
  9 15  1  0  0  0
 10 11  1  0  0  0
 10 12  1  0  0  0
 12 13  2  0  0  0
 13 14  1  0  0  0
 14 32  1  0  0  0
 15 33  1  0  0  0
 16 21  2  0  0  0
 16 17  1  0  0  0
 17 18  2  0  0  0
 17 34  1  0  0  0
 18 19  1  0  0  0
 18 35  1  0  0  0
 19 20  2  0  0  0
 19 22  1  0  0  0
 20 21  1  0  0  0
 20 36  1  0  0  0
 21 37  1  0  0  0
 23 24  2  0  0  0
 23 25  1  0  0  0
 25 38  1  0  0  0
 25 39  1  0  0  0
 26 40  1  0  0  0
 26 41  1  0  0  0
 26 42  1  0  0  0
M  END
> <i_i_glide_confnum>
4

> <i_i_glide_lignum>
3564

> <i_i_glide_posenum>
162

> <i_i_glide_rotatable_bonds>
2

> <i_m_Source_File_Index>
5458

> <b_m_subgroup_collapsed>
0

> <r_i_docking_score>
-4.66643

> <r_i_glide_ecoul>
-3.38841

> <r_i_glide_eff_state_penalty>
0

> <r_i_glide_einternal>
5.30754

> <r_i_glide_emodel>
-42.7438

> <r_i_glide_energy>
-35.2114

> <r_i_glide_erotb>
0.12924

> <r_i_glide_esite>
-0.0587687

> <r_i_glide_evdw>
-31.823

> <r_i_glide_gscore>
-4.66643

> <r_i_glide_hbond>
-0.046834

> <r_i_glide_ligand_efficiency>
-0.194434

> <r_i_glide_ligand_efficiency_ln>
-1.11689

> <r_i_glide_ligand_efficiency_sa>
-0.560846

> <r_i_glide_lipo>
-1.78711

> <r_i_glide_metal>
0

> <r_i_glide_rewards>
-0.803541

> <s_i_glide_gridfile>
wee1_glide-grid

> <s_m_Source_File>
wee1_decoys_glide_SP.sdf

> <s_m_Source_Path>
/Users/zhangxujun/Desktop

> <s_m_entry_id>
5733

> <s_m_entry_name>
wee1_decoys_glide_SP.5458

> <s_m_subgroup_title>
wee1_decoys_glide_SP

> <s_m_subgroupid>
wee1_decoys_glide_SP


$$$$
