ZINC59293445_4253
                    3D
 Schrodinger Suite 2024-2.
 54 56  0  0  1  0            999 V2000
    2.8674   53.3469   24.2970 C   0  0  0  0  0  0
    1.6205   52.6416   23.7695 C   0  0  0  0  0  0
    0.6012   52.0286   24.4498 C   0  0  0  0  0  0
   -0.5210   51.2806   23.6417 C   0  0  2  0  0  0
   -1.9273   51.4711   24.1404 C   0  0  0  0  0  0
   -2.6693   52.6294   24.3736 C   0  0  0  0  0  0
   -3.9655   52.5228   24.8787 C   0  0  0  0  0  0
   -4.5294   51.2656   25.1118 C   0  0  0  0  0  0
   -3.7896   50.1079   24.8604 C   0  0  0  0  0  0
   -2.4826   50.2259   24.3822 C   0  0  0  0  0  0
   -1.5385   49.2293   24.1293 N   0  0  0  0  0  0
   -0.3357   49.7483   23.7652 C   0  0  0  0  0  0
    0.7043   49.1323   23.5309 O   0  0  0  0  0  0
   -1.7713   47.7746   24.2156 C   0  0  0  0  0  0
   -2.1120   47.1836   22.8332 C   0  0  0  0  0  0
   -1.6051   47.6167   21.7966 O   0  0  0  0  0  0
   -2.9960   46.1444   22.9074 O   0  0  0  0  0  0
   -3.5445   45.4655   21.7584 C   0  0  0  0  0  0
   -4.2889   46.4427   20.8134 C   0  0  0  0  0  0
   -4.5705   44.4621   22.3211 C   0  0  0  0  0  0
   -2.4376   44.6942   21.0011 C   0  0  0  0  0  0
   -4.9521   54.0967   25.2772 Br  0  0  0  0  0  0
   -0.3983   51.5988   22.1356 C   0  0  0  0  0  0
    0.7093   52.1836   21.6463 C   0  0  0  0  0  0
    1.7168   52.6440   22.4147 O   0  0  0  0  0  0
    0.9806   52.4967   20.3432 N   0  0  0  0  0  0
   -1.4653   51.2765   21.2384 C   0  0  0  0  0  0
   -2.3432   51.0817   20.5106 N   0  0  0  0  0  0
    0.5788   52.0980   25.9438 C   0  0  0  0  0  0
    1.2469   52.8936   26.6110 O   0  0  0  0  0  0
   -0.2936   51.2357   26.5080 O   0  0  0  0  0  0
   -0.5040   51.2074   27.9124 C   0  0  0  0  0  0
    3.2446   52.8969   25.2138 H   0  0  0  0  0  0
    3.6836   53.2969   23.5753 H   0  0  0  0  0  0
    2.6501   54.3985   24.4831 H   0  0  0  0  0  0
   -2.2435   53.6037   24.1868 H   0  0  0  0  0  0
   -5.5335   51.1888   25.5018 H   0  0  0  0  0  0
   -4.2291   49.1431   25.0639 H   0  0  0  0  0  0
   -2.5242   47.5296   24.9646 H   0  0  0  0  0  0
   -0.8503   47.2884   24.5416 H   0  0  0  0  0  0
   -4.8227   45.9095   20.0265 H   0  0  0  0  0  0
   -3.6140   47.1409   20.3186 H   0  0  0  0  0  0
   -5.0210   47.0382   21.3602 H   0  0  0  0  0  0
   -4.0960   43.6600   22.8818 H   0  0  0  0  0  0
   -5.2844   44.9516   22.9852 H   0  0  0  0  0  0
   -5.1450   43.9897   21.5231 H   0  0  0  0  0  0
   -1.8623   44.0604   21.6759 H   0  0  0  0  0  0
   -2.8588   44.0562   20.2236 H   0  0  0  0  0  0
   -1.7294   45.3664   20.5153 H   0  0  0  0  0  0
    0.4597   52.0725   19.5900 H   0  0  0  0  0  0
    1.5044   53.3397   20.1270 H   0  0  0  0  0  0
   -1.2978   50.4979   28.1454 H   0  0  0  0  0  0
    0.3997   50.8977   28.4392 H   0  0  0  0  0  0
   -0.8078   52.1859   28.2870 H   0  0  0  0  0  0
  1  2  1  0  0  0
  1 33  1  0  0  0
  1 34  1  0  0  0
  1 35  1  0  0  0
  2 25  1  0  0  0
  2  3  2  0  0  0
  3  4  1  0  0  0
  3 29  1  0  0  0
  4 12  1  0  0  0
  4  5  1  0  0  0
  4 23  1  0  0  0
  5 10  2  0  0  0
  5  6  1  0  0  0
  6  7  2  0  0  0
  6 36  1  0  0  0
  7  8  1  0  0  0
  7 22  1  0  0  0
  8  9  2  0  0  0
  8 37  1  0  0  0
  9 10  1  0  0  0
  9 38  1  0  0  0
 10 11  1  0  0  0
 11 12  1  0  0  0
 11 14  1  0  0  0
 12 13  2  0  0  0
 14 15  1  0  0  0
 14 39  1  0  0  0
 14 40  1  0  0  0
 15 16  2  0  0  0
 15 17  1  0  0  0
 17 18  1  0  0  0
 18 19  1  0  0  0
 18 20  1  0  0  0
 18 21  1  0  0  0
 19 41  1  0  0  0
 19 42  1  0  0  0
 19 43  1  0  0  0
 20 44  1  0  0  0
 20 45  1  0  0  0
 20 46  1  0  0  0
 21 47  1  0  0  0
 21 48  1  0  0  0
 21 49  1  0  0  0
 23 24  2  0  0  0
 23 27  1  0  0  0
 24 25  1  0  0  0
 24 26  1  0  0  0
 26 50  1  0  0  0
 26 51  1  0  0  0
 27 28  3  0  0  0
 29 30  2  0  0  0
 29 31  1  0  0  0
 31 32  1  0  0  0
 32 52  1  0  0  0
 32 53  1  0  0  0
 32 54  1  0  0  0
M  END
> <i_i_glide_confnum>
20

> <i_i_glide_lignum>
4254

> <i_i_glide_posenum>
347

> <i_i_glide_rotatable_bonds>
7

> <i_m_Source_File_Index>
3051

> <b_m_subgroup_collapsed>
0

> <r_i_docking_score>
-2.95034

> <r_i_glide_ecoul>
-3.65552

> <r_i_glide_eff_state_penalty>
0

> <r_i_glide_einternal>
3.23537

> <r_i_glide_emodel>
-40.0995

> <r_i_glide_energy>
-34.5666

> <r_i_glide_erotb>
0.321541

> <r_i_glide_esite>
-0.0724924

> <r_i_glide_evdw>
-30.9111

> <r_i_glide_gscore>
-2.95034

> <r_i_glide_hbond>
-0.270774

> <r_i_glide_ligand_efficiency>
-0.0921983

> <r_i_glide_ligand_efficiency_ln>
-0.660662

> <r_i_glide_ligand_efficiency_sa>
-0.292711

> <r_i_glide_lipo>
-0.754908

> <r_i_glide_metal>
0

> <r_i_glide_rewards>
-0.0798269

> <s_i_glide_gridfile>
wee1_glide-grid

> <s_m_Source_File>
wee1_decoys_glide_SP.sdf

> <s_m_Source_Path>
/Users/zhangxujun/Desktop

> <s_m_entry_id>
3326

> <s_m_entry_name>
wee1_decoys_glide_SP.3051

> <s_m_subgroup_title>
wee1_decoys_glide_SP

> <s_m_subgroupid>
wee1_decoys_glide_SP


$$$$
