ZINC15947257_192
                    3D
 Schrodinger Suite 2024-2.
 55 59  0  0  1  0            999 V2000
   11.9730   50.6848   13.7201 C   0  0  0  0  0  0
   12.4486   51.2668   15.0641 C   0  0  0  0  0  0
   11.4411   52.3089   15.6198 N   0  3  2  0  0  0
   12.0727   53.0701   16.8115 C   0  0  0  0  0  0
   11.1937   54.3012   17.1512 C   0  0  0  0  0  0
    9.7157   53.9171   17.2202 C   0  0  0  0  0  0
    9.2596   52.6993   16.6886 C   0  0  0  0  0  0
    7.5475   52.4956   16.8735 S   0  0  0  0  0  0
    7.4388   53.9838   17.7220 C   0  0  0  0  0  0
    8.6656   54.6475   17.8282 C   0  0  0  0  0  0
    8.6188   55.9440   18.4979 C   0  0  0  0  0  0
    7.6202   56.4081   19.1349 N   0  0  0  0  0  0
    6.4019   55.5711   19.2079 C   0  0  1  0  0  0
    5.5681   56.2394   18.9769 H   0  0  0  0  0  0
    6.2514   54.4597   18.2413 N   0  0  0  0  0  0
    6.1129   55.1157   20.6532 C   0  0  0  0  0  0
    4.8900   54.4972   20.9475 C   0  0  0  0  0  0
    4.5766   54.1395   22.2562 C   0  0  0  0  0  0
    5.4719   54.3903   23.2979 C   0  0  0  0  0  0
    6.7239   54.9325   22.9913 C   0  0  0  0  0  0
    7.0375   55.2989   21.6895 C   0  0  0  0  0  0
    5.0156   54.0964   24.5707 O   0  0  0  0  0  0
    5.4993   54.6217   25.7473 C   0  0  0  0  0  0
    6.5287   55.2960   25.8694 O   0  0  0  0  0  0
    4.6344   54.2537   26.9146 C   0  0  0  0  0  0
    3.3578   53.6961   26.7370 C   0  0  0  0  0  0
    2.5722   53.3666   27.8364 C   0  0  0  0  0  0
    3.0505   53.6038   29.1208 C   0  0  0  0  0  0
    4.3048   54.1760   29.3111 C   0  0  0  0  0  0
    5.0976   54.4959   28.2146 C   0  0  0  0  0  0
    2.0779   53.1865   30.4816 Cl  0  0  0  0  0  0
    9.6888   56.7957   18.4861 O   0  0  0  0  0  0
   10.1358   51.6159   16.0831 C   0  0  0  0  0  0
   12.7390   50.0388   13.2861 H   0  0  0  0  0  0
   11.0794   50.0694   13.8193 H   0  0  0  0  0  0
   11.7667   51.4629   12.9871 H   0  0  0  0  0  0
   13.3868   51.8062   14.9196 H   0  0  0  0  0  0
   12.5915   50.5054   15.8332 H   0  0  0  0  0  0
   12.1549   52.3602   17.6379 H   0  0  0  0  0  0
   13.0703   53.3970   16.5117 H   0  0  0  0  0  0
   11.3152   55.0628   16.3794 H   0  0  0  0  0  0
   11.5432   54.7442   18.0817 H   0  0  0  0  0  0
    5.5204   53.8162   18.5068 H   0  0  0  0  0  0
    4.1546   54.3302   20.1726 H   0  0  0  0  0  0
    3.6107   53.7046   22.4676 H   0  0  0  0  0  0
    7.4828   55.0989   23.7411 H   0  0  0  0  0  0
    8.0097   55.7324   21.5106 H   0  0  0  0  0  0
    2.9580   53.5034   25.7523 H   0  0  0  0  0  0
    1.5975   52.9258   27.6909 H   0  0  0  0  0  0
    4.6719   54.3718   30.3068 H   0  0  0  0  0  0
    6.0728   54.9323   28.3902 H   0  0  0  0  0  0
   10.4932   56.3039   18.6662 H   0  0  0  0  0  0
   10.3953   50.8437   16.8106 H   0  0  0  0  0  0
    9.6860   51.1636   15.1986 H   0  0  0  0  0  0
   11.2496   52.9688   14.8779 H   0  0  0  0  0  0
  1  2  1  0  0  0
  1 34  1  0  0  0
  1 35  1  0  0  0
  1 36  1  0  0  0
  2  3  1  0  0  0
  2 37  1  0  0  0
  2 38  1  0  0  0
  3 33  1  0  0  0
  3  4  1  0  0  0
  3 55  1  0  0  0
  4  5  1  0  0  0
  4 39  1  0  0  0
  4 40  1  0  0  0
  5  6  1  0  0  0
  5 41  1  0  0  0
  5 42  1  0  0  0
  6 10  1  0  0  0
  6  7  2  0  0  0
  7  8  1  0  0  0
  7 33  1  0  0  0
  8  9  1  0  0  0
  9 15  1  0  0  0
  9 10  2  0  0  0
 10 11  1  0  0  0
 11 12  2  0  0  0
 11 32  1  0  0  0
 12 13  1  0  0  0
 13 14  1  0  0  0
 13 15  1  0  0  0
 13 16  1  0  0  0
 15 43  1  0  0  0
 16 21  2  0  0  0
 16 17  1  0  0  0
 17 18  2  0  0  0
 17 44  1  0  0  0
 18 19  1  0  0  0
 18 45  1  0  0  0
 19 20  2  0  0  0
 19 22  1  0  0  0
 20 21  1  0  0  0
 20 46  1  0  0  0
 21 47  1  0  0  0
 22 23  1  0  0  0
 23 24  2  0  0  0
 23 25  1  0  0  0
 25 30  2  0  0  0
 25 26  1  0  0  0
 26 27  2  0  0  0
 26 48  1  0  0  0
 27 28  1  0  0  0
 27 49  1  0  0  0
 28 29  2  0  0  0
 28 31  1  0  0  0
 29 30  1  0  0  0
 29 50  1  0  0  0
 30 51  1  0  0  0
 32 52  1  0  0  0
 33 53  1  0  0  0
 33 54  1  0  0  0
M  CHG  1   3   1
M  END
> <i_i_glide_confnum>
9

> <i_i_glide_lignum>
193

> <i_i_glide_posenum>
86

> <i_i_glide_rotatable_bonds>
6

> <i_m_Source_File_Index>
5448

> <b_m_subgroup_collapsed>
0

> <r_i_docking_score>
-7.37324

> <r_i_glide_ecoul>
-11.1021

> <r_i_glide_eff_state_penalty>
0

> <r_i_glide_einternal>
5.95183

> <r_i_glide_emodel>
-78.6088

> <r_i_glide_energy>
-55.4949

> <r_i_glide_erotb>
0.367266

> <r_i_glide_esite>
-0.0077279

> <r_i_glide_evdw>
-44.3929

> <r_i_glide_gscore>
-7.37324

> <r_i_glide_hbond>
-0.459322

> <r_i_glide_ligand_efficiency>
-0.230414

> <r_i_glide_ligand_efficiency_ln>
-1.65107

> <r_i_glide_ligand_efficiency_sa>
-0.731518

> <r_i_glide_lipo>
-2.56646

> <r_i_glide_metal>
0

> <r_i_glide_rewards>
-0.82204

> <s_i_glide_gridfile>
wee1_glide-grid

> <s_m_Source_File>
wee1_decoys_glide_SP.sdf

> <s_m_Source_Path>
/Users/zhangxujun/Desktop

> <s_m_entry_id>
5723

> <s_m_entry_name>
wee1_decoys_glide_SP.5448

> <s_m_subgroup_title>
wee1_decoys_glide_SP

> <s_m_subgroupid>
wee1_decoys_glide_SP


$$$$
