ZINC38550662_5110
                    3D
 Schrodinger Suite 2024-2.
 63 67  0  0  1  0            999 V2000
    0.4675   52.9745   32.4638 C   0  0  0  0  0  0
    1.0855   52.0968   31.5356 O   0  0  0  0  0  0
    1.2444   52.5203   30.2360 C   0  0  0  0  0  0
    1.5040   51.5501   29.2817 C   0  0  0  0  0  0
    1.7171   51.8749   27.9630 C   0  0  0  0  0  0
    1.6386   53.1944   27.5257 C   0  0  0  0  0  0
    1.3869   54.2030   28.4822 C   0  0  0  0  0  0
    1.1816   53.8531   29.8253 C   0  0  0  0  0  0
    1.4019   55.5179   28.0817 O   0  0  0  0  0  0
    1.6095   56.5494   29.0444 C   0  0  0  0  0  0
    1.7886   53.4685   26.0125 C   0  0  1  0  0  0
    1.1045   54.2838   25.7993 H   0  0  0  0  0  0
    3.1996   53.8762   25.4944 C   0  0  0  0  0  0
    4.3625   54.1994   26.2659 C   0  0  0  0  0  0
    5.4768   54.5106   25.4700 C   0  0  0  0  0  0
    5.1424   54.4913   23.7970 S   0  0  0  0  0  0
    3.5275   53.9326   24.1163 C   0  0  0  0  0  0
    2.7004   53.5843   23.0524 N   0  0  0  0  0  0
    3.0772   52.8525   21.9773 C   0  0  0  0  0  0
    4.2354   52.5531   21.6815 O   0  0  0  0  0  0
    1.9822   52.3702   21.1793 C   0  0  0  0  0  0
    1.9846   51.6941   19.9638 C   0  0  0  0  0  0
    0.6557   51.3936   19.6647 C   0  0  0  0  0  0
   -0.1011   51.8801   20.7169 C   0  0  0  0  0  0
    0.7013   52.4776   21.6351 O   0  0  0  0  0  0
    6.8599   54.8532   25.9718 C   0  0  0  0  0  0
    7.0367   54.1974   27.3482 C   0  0  0  0  0  0
    5.8975   54.6083   28.2804 C   0  0  0  0  0  0
    4.5045   54.1611   27.7937 C   0  0  0  0  0  0
    1.2033   52.3891   25.1758 N   0  0  0  0  0  0
   -0.0706   51.7583   25.2835 C   0  0  0  0  0  0
   -1.0500   52.0972   26.2279 C   0  0  0  0  0  0
   -2.2324   51.3545   26.2996 C   0  0  0  0  0  0
   -2.4321   50.2913   25.4164 C   0  0  0  0  0  0
   -1.4442   49.9894   24.4766 C   0  0  0  0  0  0
   -0.3155   50.7280   24.4482 N   0  3  0  0  0  0
    0.3053   52.4662   33.4135 H   0  0  0  0  0  0
    1.0920   53.8275   32.6757 H   0  0  0  0  0  0
   -0.4956   53.3251   32.0900 H   0  0  0  0  0  0
    1.5045   50.5032   29.5211 H   0  0  0  0  0  0
    1.9015   51.0626   27.2819 H   0  0  0  0  0  0
    0.9809   54.6198   30.5556 H   0  0  0  0  0  0
    1.8960   57.4607   28.5225 H   0  0  0  0  0  0
    0.7062   56.7520   29.6211 H   0  0  0  0  0  0
    2.4246   56.3179   29.7306 H   0  0  0  0  0  0
    1.7074   53.6906   23.1947 H   0  0  0  0  0  0
    2.8538   51.4432   19.3689 H   0  0  0  0  0  0
    0.2937   50.8748   18.7889 H   0  0  0  0  0  0
   -1.1589   51.8785   20.9350 H   0  0  0  0  0  0
    7.6101   54.5002   25.2658 H   0  0  0  0  0  0
    6.9740   55.9366   26.0377 H   0  0  0  0  0  0
    7.0776   53.1089   27.2560 H   0  0  0  0  0  0
    7.9753   54.5051   27.7937 H   0  0  0  0  0  0
    6.0792   54.2246   29.2815 H   0  0  0  0  0  0
    5.9044   55.6943   28.3789 H   0  0  0  0  0  0
    3.8044   54.8386   28.2659 H   0  0  0  0  0  0
    4.3028   53.1565   28.1646 H   0  0  0  0  0  0
    1.8436   52.0112   24.4911 H   0  0  0  0  0  0
   -0.8951   52.8992   26.9312 H   0  0  0  0  0  0
   -2.9784   51.5863   27.0459 H   0  0  0  0  0  0
   -3.3347   49.7002   25.4753 H   0  0  0  0  0  0
   -1.5066   49.1773   23.7663 H   0  0  0  0  0  0
    0.4010   50.4766   23.7816 H   0  0  0  0  0  0
  1  2  1  0  0  0
  1 37  1  0  0  0
  1 38  1  0  0  0
  1 39  1  0  0  0
  2  3  1  0  0  0
  3  8  2  0  0  0
  3  4  1  0  0  0
  4  5  2  0  0  0
  4 40  1  0  0  0
  5  6  1  0  0  0
  5 41  1  0  0  0
  6  7  2  0  0  0
  6 11  1  0  0  0
  7  8  1  0  0  0
  7  9  1  0  0  0
  8 42  1  0  0  0
  9 10  1  0  0  0
 10 43  1  0  0  0
 10 44  1  0  0  0
 10 45  1  0  0  0
 11 12  1  0  0  0
 11 13  1  0  0  0
 11 30  1  0  0  0
 13 17  2  0  0  0
 13 14  1  0  0  0
 14 29  1  0  0  0
 14 15  2  0  0  0
 15 16  1  0  0  0
 15 26  1  0  0  0
 16 17  1  0  0  0
 17 18  1  0  0  0
 18 19  1  0  0  0
 18 46  1  0  0  0
 19 20  2  0  0  0
 19 21  1  0  0  0
 21 25  1  0  0  0
 21 22  2  0  0  0
 22 23  1  0  0  0
 22 47  1  0  0  0
 23 24  2  0  0  0
 23 48  1  0  0  0
 24 25  1  0  0  0
 24 49  1  0  0  0
 26 27  1  0  0  0
 26 50  1  0  0  0
 26 51  1  0  0  0
 27 28  1  0  0  0
 27 52  1  0  0  0
 27 53  1  0  0  0
 28 29  1  0  0  0
 28 54  1  0  0  0
 28 55  1  0  0  0
 29 56  1  0  0  0
 29 57  1  0  0  0
 30 31  1  0  0  0
 30 58  1  0  0  0
 31 36  2  0  0  0
 31 32  1  0  0  0
 32 33  2  0  0  0
 32 59  1  0  0  0
 33 34  1  0  0  0
 33 60  1  0  0  0
 34 35  2  0  0  0
 34 61  1  0  0  0
 35 36  1  0  0  0
 35 62  1  0  0  0
 36 63  1  0  0  0
M  CHG  1  36   1
M  END
> <i_i_glide_confnum>
30

> <i_i_glide_lignum>
5111

> <i_i_glide_posenum>
209

> <i_i_glide_rotatable_bonds>
9

> <i_m_Source_File_Index>
2662

> <b_m_subgroup_collapsed>
0

> <r_i_docking_score>
-4.87932

> <r_i_glide_ecoul>
-0.762601

> <r_i_glide_eff_state_penalty>
0

> <r_i_glide_einternal>
35.0101

> <r_i_glide_emodel>
-35.8932

> <r_i_glide_energy>
-39.4446

> <r_i_glide_erotb>
0.591904

> <r_i_glide_esite>
-0.00318318

> <r_i_glide_evdw>
-38.682

> <r_i_glide_gscore>
-4.87932

> <r_i_glide_hbond>
0

> <r_i_glide_ligand_efficiency>
-0.139409

> <r_i_glide_ligand_efficiency_ln>
-1.07112

> <r_i_glide_ligand_efficiency_sa>
-0.456016

> <r_i_glide_lipo>
-3.1758

> <r_i_glide_metal>
0

> <r_i_glide_rewards>
-0.243745

> <s_i_glide_gridfile>
wee1_glide-grid

> <s_m_Source_File>
wee1_decoys_glide_SP.sdf

> <s_m_Source_Path>
/Users/zhangxujun/Desktop

> <s_m_entry_id>
2937

> <s_m_entry_name>
wee1_decoys_glide_SP.2662

> <s_m_subgroup_title>
wee1_decoys_glide_SP

> <s_m_subgroupid>
wee1_decoys_glide_SP


$$$$
