ZINC61692112_1815
                    3D
 Schrodinger Suite 2024-2.
 39 40  0  0  1  0            999 V2000
   -0.7253   52.0960   22.8282 C   0  0  0  0  0  0
   -1.7242   52.3483   23.7607 C   0  0  0  0  0  0
   -1.4125   52.4818   25.1147 C   0  0  0  0  0  0
   -0.0825   52.3555   25.5792 C   0  0  0  0  0  0
    0.9022   52.0928   24.6073 C   0  0  0  0  0  0
    0.5964   51.9791   23.2486 C   0  0  0  0  0  0
    1.6544   51.7587   22.2718 C   0  0  0  0  0  0
    2.5479   51.6132   21.4503 C   0  0  0  0  0  0
    3.6487   51.4742   20.4888 C   0  0  0  0  0  0
    3.1036   50.7079   19.2818 N   0  3  0  0  0  0
    0.1661   52.4952   26.9295 N   0  5  0  0  0  0
    1.5660   52.4965   27.6424 S   0  0  0  0  0  0
    1.7806   51.2961   28.4541 O   0  0  0  0  0  0
    2.6937   52.9483   26.8204 O   0  0  0  0  0  0
    1.3398   53.7787   28.8436 N   0  0  0  0  0  0
    1.6611   55.1648   28.4399 C   0  0  0  0  0  0
    2.1575   55.9076   29.6825 C   0  0  0  0  0  0
    1.0792   55.9080   30.7848 C   0  0  0  0  0  0
    0.4509   54.5061   31.0458 C   0  0  0  0  0  0
    0.1782   53.6848   29.7632 C   0  0  0  0  0  0
   -2.7357   52.8250   26.1853 Cl  0  0  0  0  0  0
   -0.9855   52.0038   21.7831 H   0  0  0  0  0  0
   -2.7482   52.4456   23.4324 H   0  0  0  0  0  0
    1.9320   51.9639   24.8908 H   0  0  0  0  0  0
    4.4764   50.8944   20.8953 H   0  0  0  0  0  0
    3.9958   52.4397   20.1153 H   0  0  0  0  0  0
    3.8698   50.5072   18.6297 H   0  0  0  0  0  0
    2.4138   51.2535   18.7904 H   0  0  0  0  0  0
    2.4177   55.1715   27.6572 H   0  0  0  0  0  0
    0.7526   55.6498   28.0806 H   0  0  0  0  0  0
    3.0648   55.4187   30.0410 H   0  0  0  0  0  0
    2.4340   56.9280   29.4231 H   0  0  0  0  0  0
    0.3045   56.6058   30.4812 H   0  0  0  0  0  0
    1.4907   56.3299   31.7005 H   0  0  0  0  0  0
   -0.4684   54.6090   31.6207 H   0  0  0  0  0  0
    1.1041   53.9128   31.6806 H   0  0  0  0  0  0
   -0.6824   54.1319   29.2691 H   0  0  0  0  0  0
   -0.0338   52.6391   29.9936 H   0  0  0  0  0  0
    2.7116   49.8214   19.5631 H   0  0  0  0  0  0
  1  6  2  0  0  0
  1  2  1  0  0  0
  1 22  1  0  0  0
  2  3  2  0  0  0
  2 23  1  0  0  0
  3  4  1  0  0  0
  3 21  1  0  0  0
  4  5  2  0  0  0
  4 11  1  0  0  0
  5  6  1  0  0  0
  5 24  1  0  0  0
  6  7  1  0  0  0
  7  8  3  0  0  0
  8  9  1  0  0  0
  9 10  1  0  0  0
  9 25  1  0  0  0
  9 26  1  0  0  0
 10 27  1  0  0  0
 10 28  1  0  0  0
 10 39  1  0  0  0
 11 12  1  0  0  0
 12 13  2  0  0  0
 12 14  2  0  0  0
 12 15  1  0  0  0
 15 20  1  0  0  0
 15 16  1  0  0  0
 16 17  1  0  0  0
 16 29  1  0  0  0
 16 30  1  0  0  0
 17 18  1  0  0  0
 17 31  1  0  0  0
 17 32  1  0  0  0
 18 19  1  0  0  0
 18 33  1  0  0  0
 18 34  1  0  0  0
 19 20  1  0  0  0
 19 35  1  0  0  0
 19 36  1  0  0  0
 20 37  1  0  0  0
 20 38  1  0  0  0
M  CHG  2  10   1  11  -1
M  END
> <i_i_glide_confnum>
14

> <i_i_glide_lignum>
1816

> <i_i_glide_posenum>
331

> <i_i_glide_rotatable_bonds>
5

> <i_m_Source_File_Index>
1740

> <b_m_subgroup_collapsed>
0

> <r_i_docking_score>
-4.62698

> <r_i_glide_ecoul>
-3.94161

> <r_i_glide_eff_state_penalty>
0

> <r_i_glide_einternal>
2.55997

> <r_i_glide_emodel>
-39.4834

> <r_i_glide_energy>
-30.3189

> <r_i_glide_erotb>
0.873404

> <r_i_glide_esite>
-0.1

> <r_i_glide_evdw>
-26.3773

> <r_i_glide_gscore>
-4.62698

> <r_i_glide_hbond>
-0.221705

> <r_i_glide_ligand_efficiency>
-0.220332

> <r_i_glide_ligand_efficiency_ln>
-1.14401

> <r_i_glide_ligand_efficiency_sa>
-0.60788

> <r_i_glide_lipo>
-1.61619

> <r_i_glide_metal>
0

> <r_i_glide_rewards>
-1.65238

> <s_i_glide_gridfile>
wee1_glide-grid

> <s_m_Source_File>
wee1_decoys_glide_SP.sdf

> <s_m_Source_Path>
/Users/zhangxujun/Desktop

> <s_m_entry_id>
2015

> <s_m_entry_name>
wee1_decoys_glide_SP.1740

> <s_m_subgroup_title>
wee1_decoys_glide_SP

> <s_m_subgroupid>
wee1_decoys_glide_SP


$$$$
