ZINC46899652_447
                    3D
 Schrodinger Suite 2024-2.
 57 59  0  0  1  0            999 V2000
    0.2991   48.7141   24.3034 C   0  0  0  0  0  0
    0.8631   49.7398   23.3273 C   0  0  0  0  0  0
    1.9028   49.3489   22.4735 C   0  0  0  0  0  0
    2.4760   50.2456   21.5858 C   0  0  0  0  0  0
    2.0255   51.5665   21.5382 C   0  0  0  0  0  0
    0.9698   51.9630   22.3571 C   0  0  0  0  0  0
    0.3794   51.0621   23.2534 C   0  0  0  0  0  0
   -1.0080   51.6491   24.2390 S   0  0  0  0  0  0
   -1.0703   53.1099   24.1080 O   0  0  0  0  0  0
   -2.1671   50.8281   23.8739 O   0  0  0  0  0  0
   -0.6368   51.2746   25.9343 N   0  0  0  0  0  0
    0.2744   51.9674   26.7432 C   0  0  0  0  0  0
    0.2517   51.6912   28.1116 C   0  0  0  0  0  0
    1.1462   52.3242   28.9713 C   0  0  0  0  0  0
    2.0729   53.2313   28.4619 C   0  0  0  0  0  0
    2.1090   53.5077   27.0958 C   0  0  0  0  0  0
    1.2102   52.8784   26.2341 C   0  0  0  0  0  0
    3.1808   54.0135   29.5314 Cl  0  0  0  0  0  0
    2.5498   52.4986   20.6385 N   0  0  0  0  0  0
    3.8250   52.5855   20.2090 C   0  0  0  0  0  0
    4.7663   51.9327   20.6708 O   0  0  0  0  0  0
    4.0446   53.5895   19.0525 C   0  0  2  0  0  0
    3.7080   54.5687   19.3969 H   0  0  0  0  0  0
    3.2326   53.1947   17.8017 C   0  0  0  0  0  0
    5.4476   53.6627   18.6473 N   0  0  0  0  0  0
    6.2622   54.7116   18.8484 C   0  0  0  0  0  0
    5.9151   55.7210   19.4671 O   0  0  0  0  0  0
    7.7034   54.5546   18.3223 C   0  0  0  0  0  0
    7.8266   54.9666   16.8457 C   0  0  0  0  0  0
    9.2895   55.3990   16.6617 C   0  0  0  0  0  0
    9.9070   55.4836   18.0664 C   0  0  0  0  0  0
    8.7437   55.4151   19.0580 C   0  0  0  0  0  0
   -0.7913   48.7018   24.2822 H   0  0  0  0  0  0
    0.6299   47.7006   24.0800 H   0  0  0  0  0  0
    0.6198   48.9432   25.3198 H   0  0  0  0  0  0
    2.2978   48.3470   22.4765 H   0  0  0  0  0  0
    3.2671   49.9036   20.9343 H   0  0  0  0  0  0
    0.6092   52.9802   22.2891 H   0  0  0  0  0  0
   -1.1200   50.4847   26.3403 H   0  0  0  0  0  0
   -0.4575   50.9779   28.5136 H   0  0  0  0  0  0
    1.1165   52.1062   30.0289 H   0  0  0  0  0  0
    2.8336   54.2066   26.7014 H   0  0  0  0  0  0
    1.2567   53.1007   25.1798 H   0  0  0  0  0  0
    1.9072   53.1946   20.2853 H   0  0  0  0  0  0
    2.1595   53.2108   17.9980 H   0  0  0  0  0  0
    3.4142   53.8877   16.9783 H   0  0  0  0  0  0
    3.4914   52.1893   17.4571 H   0  0  0  0  0  0
    5.8003   52.8187   18.2109 H   0  0  0  0  0  0
    7.9571   53.5046   18.4612 H   0  0  0  0  0  0
    7.1748   55.8107   16.6117 H   0  0  0  0  0  0
    7.5576   54.1528   16.1714 H   0  0  0  0  0  0
    9.3417   56.3631   16.1532 H   0  0  0  0  0  0
    9.8374   54.6863   16.0445 H   0  0  0  0  0  0
   10.5042   56.3880   18.1956 H   0  0  0  0  0  0
   10.5728   54.6324   18.2263 H   0  0  0  0  0  0
    9.0462   54.9830   20.0118 H   0  0  0  0  0  0
    8.3753   56.4244   19.2526 H   0  0  0  0  0  0
  1  2  1  0  0  0
  1 33  1  0  0  0
  1 34  1  0  0  0
  1 35  1  0  0  0
  2  7  2  0  0  0
  2  3  1  0  0  0
  3  4  2  0  0  0
  3 36  1  0  0  0
  4  5  1  0  0  0
  4 37  1  0  0  0
  5  6  2  0  0  0
  5 19  1  0  0  0
  6  7  1  0  0  0
  6 38  1  0  0  0
  7  8  1  0  0  0
  8  9  2  0  0  0
  8 10  2  0  0  0
  8 11  1  0  0  0
 11 12  1  0  0  0
 11 39  1  0  0  0
 12 17  2  0  0  0
 12 13  1  0  0  0
 13 14  2  0  0  0
 13 40  1  0  0  0
 14 15  1  0  0  0
 14 41  1  0  0  0
 15 16  2  0  0  0
 15 18  1  0  0  0
 16 17  1  0  0  0
 16 42  1  0  0  0
 17 43  1  0  0  0
 19 20  1  0  0  0
 19 44  1  0  0  0
 20 21  2  0  0  0
 20 22  1  0  0  0
 22 23  1  0  0  0
 22 24  1  0  0  0
 22 25  1  0  0  0
 24 45  1  0  0  0
 24 46  1  0  0  0
 24 47  1  0  0  0
 25 26  1  0  0  0
 25 48  1  0  0  0
 26 27  2  0  0  0
 26 28  1  0  0  0
 28 32  1  0  0  0
 28 29  1  0  0  0
 28 49  1  0  0  0
 29 30  1  0  0  0
 29 50  1  0  0  0
 29 51  1  0  0  0
 30 31  1  0  0  0
 30 52  1  0  0  0
 30 53  1  0  0  0
 31 32  1  0  0  0
 31 54  1  0  0  0
 31 55  1  0  0  0
 32 56  1  0  0  0
 32 57  1  0  0  0
M  END
> <i_i_glide_confnum>
416

> <i_i_glide_lignum>
448

> <i_i_glide_posenum>
152

> <i_i_glide_rotatable_bonds>
9

> <i_m_Source_File_Index>
5042

> <b_m_subgroup_collapsed>
0

> <r_i_docking_score>
-3.44984

> <r_i_glide_ecoul>
-7.97436

> <r_i_glide_eff_state_penalty>
0

> <r_i_glide_einternal>
6.11189

> <r_i_glide_emodel>
-50.9644

> <r_i_glide_energy>
-45.1667

> <r_i_glide_erotb>
0.749025

> <r_i_glide_esite>
-0.112899

> <r_i_glide_evdw>
-37.1923

> <r_i_glide_gscore>
-3.44984

> <r_i_glide_hbond>
-0.250161

> <r_i_glide_ligand_efficiency>
-0.111285

> <r_i_glide_ligand_efficiency_ln>
-0.778044

> <r_i_glide_ligand_efficiency_sa>
-0.349589

> <r_i_glide_lipo>
-1.35457

> <r_i_glide_metal>
0

> <r_i_glide_rewards>
0.574535

> <s_i_glide_gridfile>
wee1_glide-grid

> <s_m_Source_File>
wee1_decoys_glide_SP.sdf

> <s_m_Source_Path>
/Users/zhangxujun/Desktop

> <s_m_entry_id>
5317

> <s_m_entry_name>
wee1_decoys_glide_SP.5042

> <s_m_subgroup_title>
wee1_decoys_glide_SP

> <s_m_subgroupid>
wee1_decoys_glide_SP


$$$$
