ZINC16608985_2965
                    3D
 Schrodinger Suite 2024-2.
 61 63  0  0  1  0            999 V2000
    6.0696   56.8247   19.8178 C   0  0  0  0  0  0
    5.5046   55.3868   19.7513 C   0  0  0  0  0  0
    5.5652   54.4982   20.8002 C   0  0  0  0  0  0
    4.8336   53.1266   20.7139 C   0  0  2  0  0  0
    5.5045   52.3371   21.0558 H   0  0  0  0  0  0
    4.5048   52.8962   19.2956 N   0  0  0  0  0  0
    4.2720   53.8331   18.3396 C   0  0  0  0  0  0
    3.3153   53.3249   17.0655 S   0  0  0  0  0  0
    4.8883   55.0627   18.5383 N   0  0  0  0  0  0
    4.8973   55.9892   17.3677 C   0  0  0  0  0  0
    3.6068   52.9180   21.6157 C   0  0  0  0  0  0
    3.0375   53.9565   22.3602 C   0  0  0  0  0  0
    1.9190   53.7238   23.1534 C   0  0  0  0  0  0
    1.3556   52.4494   23.2126 C   0  0  0  0  0  0
    1.9202   51.4063   22.4661 C   0  0  0  0  0  0
    3.0433   51.6430   21.6817 C   0  0  0  0  0  0
    0.2020   52.3175   23.9982 N   0  0  0  0  0  0
   -0.3877   51.1962   24.4573 C   0  0  0  0  0  0
    0.0975   50.0676   24.3782 O   0  0  0  0  0  0
   -1.7210   51.4035   25.1346 C   0  0  0  0  0  0
   -2.1196   50.5338   26.1573 C   0  0  0  0  0  0
   -3.3502   50.6949   26.7862 C   0  0  0  0  0  0
   -4.2150   51.7214   26.3925 C   0  0  0  0  0  0
   -3.8245   52.5918   25.3710 C   0  0  0  0  0  0
   -2.5886   52.4351   24.7464 C   0  0  0  0  0  0
   -5.5691   51.8870   27.0806 C   0  0  0  0  0  0
   -6.4200   50.9871   26.5887 F   0  0  0  0  0  0
   -5.4578   51.6869   28.3964 F   0  0  0  0  0  0
   -6.0803   53.1047   26.8868 F   0  0  0  0  0  0
    6.3046   54.7790   22.0724 C   0  0  0  0  0  0
    7.1064   55.7013   22.1918 O   0  0  0  0  0  0
    6.1052   53.8701   23.0702 O   0  0  0  0  0  0
    6.8058   53.9709   24.3179 C   0  0  0  0  0  0
    5.8389   54.1158   25.5081 C   0  0  0  0  0  0
    6.5988   54.1051   26.8468 C   0  0  0  0  0  0
    4.9540   55.3611   25.3860 C   0  0  0  0  0  0
    6.0157   57.2496   20.8156 H   0  0  0  0  0  0
    7.1096   56.8402   19.4798 H   0  0  0  0  0  0
    5.5051   57.5452   19.2273 H   0  0  0  0  0  0
    4.2852   51.9557   18.9886 H   0  0  0  0  0  0
    4.8640   55.4897   16.3991 H   0  0  0  0  0  0
    4.0520   56.6776   17.4202 H   0  0  0  0  0  0
    5.8139   56.5788   17.3224 H   0  0  0  0  0  0
    3.4362   54.9566   22.3104 H   0  0  0  0  0  0
    1.4938   54.5452   23.7136 H   0  0  0  0  0  0
    1.4954   50.4140   22.4592 H   0  0  0  0  0  0
    3.4633   50.8336   21.1053 H   0  0  0  0  0  0
   -0.2445   53.1856   24.2452 H   0  0  0  0  0  0
   -1.4795   49.7223   26.4812 H   0  0  0  0  0  0
   -3.6259   50.0078   27.5761 H   0  0  0  0  0  0
   -4.4777   53.3894   25.0453 H   0  0  0  0  0  0
   -2.3304   53.1153   23.9448 H   0  0  0  0  0  0
    7.5064   54.8051   24.3394 H   0  0  0  0  0  0
    7.4196   53.0785   24.4313 H   0  0  0  0  0  0
    5.1677   53.2631   25.5117 H   0  0  0  0  0  0
    7.2663   54.9632   26.9397 H   0  0  0  0  0  0
    7.2035   53.2038   26.9549 H   0  0  0  0  0  0
    5.9121   54.1352   27.6932 H   0  0  0  0  0  0
    5.5495   56.2662   25.2816 H   0  0  0  0  0  0
    4.3076   55.2952   24.5148 H   0  0  0  0  0  0
    4.3038   55.4714   26.2523 H   0  0  0  0  0  0
  1  2  1  0  0  0
  1 37  1  0  0  0
  1 38  1  0  0  0
  1 39  1  0  0  0
  2  9  1  0  0  0
  2  3  2  0  0  0
  3  4  1  0  0  0
  3 30  1  0  0  0
  4  5  1  0  0  0
  4  6  1  0  0  0
  4 11  1  0  0  0
  6  7  1  0  0  0
  6 40  1  0  0  0
  7  8  2  0  0  0
  7  9  1  0  0  0
  9 10  1  0  0  0
 10 41  1  0  0  0
 10 42  1  0  0  0
 10 43  1  0  0  0
 11 16  2  0  0  0
 11 12  1  0  0  0
 12 13  2  0  0  0
 12 44  1  0  0  0
 13 14  1  0  0  0
 13 45  1  0  0  0
 14 15  2  0  0  0
 14 17  1  0  0  0
 15 16  1  0  0  0
 15 46  1  0  0  0
 16 47  1  0  0  0
 17 18  1  0  0  0
 17 48  1  0  0  0
 18 19  2  0  0  0
 18 20  1  0  0  0
 20 25  2  0  0  0
 20 21  1  0  0  0
 21 22  2  0  0  0
 21 49  1  0  0  0
 22 23  1  0  0  0
 22 50  1  0  0  0
 23 24  2  0  0  0
 23 26  1  0  0  0
 24 25  1  0  0  0
 24 51  1  0  0  0
 25 52  1  0  0  0
 26 27  1  0  0  0
 26 28  1  0  0  0
 26 29  1  0  0  0
 30 31  2  0  0  0
 30 32  1  0  0  0
 32 33  1  0  0  0
 33 34  1  0  0  0
 33 53  1  0  0  0
 33 54  1  0  0  0
 34 35  1  0  0  0
 34 36  1  0  0  0
 34 55  1  0  0  0
 35 56  1  0  0  0
 35 57  1  0  0  0
 35 58  1  0  0  0
 36 59  1  0  0  0
 36 60  1  0  0  0
 36 61  1  0  0  0
M  END
> <i_i_glide_confnum>
112

> <i_i_glide_lignum>
2966

> <i_i_glide_posenum>
80

> <i_i_glide_rotatable_bonds>
9

> <i_m_Source_File_Index>
3590

> <b_m_subgroup_collapsed>
0

> <r_i_docking_score>
-4.2831

> <r_i_glide_ecoul>
0.506518

> <r_i_glide_eff_state_penalty>
0

> <r_i_glide_einternal>
4.71532

> <r_i_glide_emodel>
-51.2613

> <r_i_glide_energy>
-41.9976

> <r_i_glide_erotb>
0.560202

> <r_i_glide_esite>
-0.135871

> <r_i_glide_evdw>
-42.5042

> <r_i_glide_gscore>
-4.2831

> <r_i_glide_hbond>
-0.0889396

> <r_i_glide_ligand_efficiency>
-0.122374

> <r_i_glide_ligand_efficiency_ln>
-0.940236

> <r_i_glide_ligand_efficiency_sa>
-0.400295

> <r_i_glide_lipo>
-2.07741

> <r_i_glide_metal>
0

> <r_i_glide_rewards>
-0.49185

> <s_i_glide_gridfile>
wee1_glide-grid

> <s_m_Source_File>
wee1_decoys_glide_SP.sdf

> <s_m_Source_Path>
/Users/zhangxujun/Desktop

> <s_m_entry_id>
3865

> <s_m_entry_name>
wee1_decoys_glide_SP.3590

> <s_m_subgroup_title>
wee1_decoys_glide_SP

> <s_m_subgroupid>
wee1_decoys_glide_SP


$$$$
