ZINC37201089_1891
                    3D
 Schrodinger Suite 2024-2.
 37 39  0  0  1  0            999 V2000
    6.3540   54.4964   24.7414 C   0  0  0  0  0  0
    5.0777   54.4966   24.1949 C   0  0  0  0  0  0
    3.9672   54.4314   25.0315 C   0  0  0  0  0  0
    4.1005   54.3379   26.4244 C   0  0  0  0  0  0
    5.4050   54.3199   26.9788 C   0  0  0  0  0  0
    6.5078   54.4076   26.1208 C   0  0  0  0  0  0
    5.6666   54.2467   28.4816 C   0  0  0  0  0  0
    4.3040   53.6323   29.5137 S   0  0  0  0  0  0
    3.0659   54.6786   28.7338 C   0  0  0  0  0  0
    2.8380   54.2099   27.2861 C   0  0  2  0  0  0
    2.0777   54.8728   26.8817 H   0  0  0  0  0  0
    2.2918   52.8538   27.1997 N   0  0  0  0  0  0
    1.0628   52.5006   27.7705 C   0  0  0  0  0  0
    0.8754   52.4214   29.1559 C   0  0  0  0  0  0
   -0.3497   52.0186   29.6814 C   0  0  0  0  0  0
   -1.3805   51.6507   28.8222 C   0  0  0  0  0  0
   -1.1974   51.6967   27.4381 C   0  0  0  0  0  0
    0.0259   52.1215   26.9164 C   0  0  0  0  0  0
   -2.5086   51.1733   26.3424 S   0  0  0  0  0  0
   -3.7698   51.2891   27.0823 O   0  0  0  0  0  0
   -2.3196   51.8598   25.0598 O   0  0  0  0  0  0
   -2.1940   49.4785   26.0817 N   0  0  0  0  0  0
    7.2216   54.5535   24.0989 H   0  0  0  0  0  0
    4.9466   54.5532   23.1240 H   0  0  0  0  0  0
    2.9825   54.4355   24.5863 H   0  0  0  0  0  0
    7.5043   54.3966   26.5369 H   0  0  0  0  0  0
    6.5300   53.6152   28.6949 H   0  0  0  0  0  0
    5.9044   55.2460   28.8458 H   0  0  0  0  0  0
    2.1545   54.6902   29.3266 H   0  0  0  0  0  0
    3.4368   55.6995   28.7573 H   0  0  0  0  0  0
    2.4170   52.4780   26.2713 H   0  0  0  0  0  0
    1.6808   52.6327   29.8393 H   0  0  0  0  0  0
   -0.4924   51.9481   30.7517 H   0  0  0  0  0  0
   -2.3117   51.2910   29.2383 H   0  0  0  0  0  0
    0.1708   52.1466   25.8459 H   0  0  0  0  0  0
   -1.3570   49.3116   25.5215 H   0  0  0  0  0  0
   -2.0958   48.9758   26.9882 H   0  0  0  0  0  0
  1  6  2  0  0  0
  1  2  1  0  0  0
  1 23  1  0  0  0
  2  3  2  0  0  0
  2 24  1  0  0  0
  3  4  1  0  0  0
  3 25  1  0  0  0
  4 10  1  0  0  0
  4  5  2  0  0  0
  5  6  1  0  0  0
  5  7  1  0  0  0
  6 26  1  0  0  0
  7  8  1  0  0  0
  7 27  1  0  0  0
  7 28  1  0  0  0
  8  9  1  0  0  0
  9 10  1  0  0  0
  9 29  1  0  0  0
  9 30  1  0  0  0
 10 11  1  0  0  0
 10 12  1  0  0  0
 12 13  1  0  0  0
 12 31  1  0  0  0
 13 18  2  0  0  0
 13 14  1  0  0  0
 14 15  2  0  0  0
 14 32  1  0  0  0
 15 16  1  0  0  0
 15 33  1  0  0  0
 16 17  2  0  0  0
 16 34  1  0  0  0
 17 18  1  0  0  0
 17 19  1  0  0  0
 18 35  1  0  0  0
 19 20  2  0  0  0
 19 21  2  0  0  0
 19 22  1  0  0  0
 22 36  1  0  0  0
 22 37  1  0  0  0
M  END
> <i_i_glide_confnum>
9

> <i_i_glide_lignum>
1892

> <i_i_glide_posenum>
114

> <i_i_glide_rotatable_bonds>
3

> <i_m_Source_File_Index>
3832

> <b_m_subgroup_collapsed>
0

> <r_i_docking_score>
-5.33908

> <r_i_glide_ecoul>
-6.83969

> <r_i_glide_eff_state_penalty>
0

> <r_i_glide_einternal>
8.31635

> <r_i_glide_emodel>
-44.3038

> <r_i_glide_energy>
-38.2992

> <r_i_glide_erotb>
0.363718

> <r_i_glide_esite>
-0.183466

> <r_i_glide_evdw>
-31.4595

> <r_i_glide_gscore>
-5.33908

> <r_i_glide_hbond>
-0.16

> <r_i_glide_ligand_efficiency>
-0.254242

> <r_i_glide_ligand_efficiency_ln>
-1.32008

> <r_i_glide_ligand_efficiency_sa>
-0.701434

> <r_i_glide_lipo>
-2.74047

> <r_i_glide_metal>
0

> <r_i_glide_rewards>
-0.0199288

> <s_i_glide_gridfile>
wee1_glide-grid

> <s_m_Source_File>
wee1_decoys_glide_SP.sdf

> <s_m_Source_Path>
/Users/zhangxujun/Desktop

> <s_m_entry_id>
4107

> <s_m_entry_name>
wee1_decoys_glide_SP.3832

> <s_m_subgroup_title>
wee1_decoys_glide_SP

> <s_m_subgroupid>
wee1_decoys_glide_SP


$$$$
