ZINC39609096_371
                    3D
 Schrodinger Suite 2024-2.
 76 81  0  0  1  0            999 V2000
    6.7006   54.4957   25.5961 C   0  0  0  0  0  0
    6.7079   54.4792   26.9894 C   0  0  0  0  0  0
    5.5099   54.4784   27.6929 C   0  0  0  0  0  0
    4.3014   54.4949   26.9976 C   0  0  0  0  0  0
    4.2940   54.4948   25.5994 C   0  0  0  0  0  0
    5.4955   54.4965   24.8977 C   0  0  0  0  0  0
    2.9964   54.5805   27.7634 C   0  0  0  0  0  0
    2.6268   53.3195   28.2967 O   0  0  0  0  0  0
    1.2938   53.3081   28.8082 C   0  0  2  0  0  0
    0.6984   54.1375   28.4118 H   0  0  0  0  0  0
    1.3387   53.4756   30.3329 C   0  0  0  0  0  0
    0.3043   52.4969   30.8938 C   0  0  0  0  0  0
   -0.4156   51.8994   29.6816 C   0  0  0  0  0  0
    0.5868   51.9683   28.5240 C   0  0  1  0  0  0
    1.2990   51.1460   28.6279 H   0  0  0  0  0  0
   -0.1234   51.9048   27.2408 N   0  0  0  0  0  0
    0.3573   52.1998   26.0155 C   0  0  0  0  0  0
    1.5048   52.5869   25.8261 O   0  0  0  0  0  0
   -0.6076   52.1832   24.8005 C   0  0  2  0  0  0
   -0.8470   53.2289   24.6004 H   0  0  0  0  0  0
   -1.9222   51.4789   25.1656 C   0  0  0  0  0  0
   -2.4600   51.0536   23.8784 N   0  0  0  0  0  0
   -1.4729   51.2098   22.8032 C   0  0  0  0  0  0
   -0.1155   51.4617   23.5139 C   0  0  0  0  0  0
    0.8973   52.3088   22.6979 C   0  0  0  0  0  0
    1.2060   51.6629   21.3327 C   0  0  0  0  0  0
    1.8359   50.2764   21.5948 N   0  3  0  0  0  0
    0.9958   49.3546   22.5112 C   0  0  0  0  0  0
    0.6222   50.1164   23.8026 C   0  0  0  0  0  0
   -3.7572   50.7100   23.6513 C   0  0  0  0  0  0
   -4.1598   50.4968   22.5063 O   0  0  0  0  0  0
   -4.7958   50.5707   24.8032 C   0  0  2  0  0  0
   -5.4627   49.7511   24.5347 H   0  0  0  0  0  0
   -5.5876   51.9052   24.9110 C   0  0  0  0  0  0
   -6.5236   51.8151   25.9901 O   0  0  0  0  0  0
   -5.9471   51.3884   27.1706 C   0  0  0  0  0  0
   -6.5843   51.7162   28.3685 C   0  0  0  0  0  0
   -6.0350   51.2901   29.5822 C   0  0  0  0  0  0
   -4.8487   50.5496   29.5975 C   0  0  0  0  0  0
   -4.2158   50.2157   28.3989 C   0  0  0  0  0  0
   -4.7791   50.6114   27.1857 C   0  0  0  0  0  0
   -4.1117   50.2608   26.0296 O   0  0  0  0  0  0
    7.6243   54.4964   25.0402 H   0  0  0  0  0  0
    7.6395   54.4749   27.5331 H   0  0  0  0  0  0
    5.5196   54.4819   28.7736 H   0  0  0  0  0  0
    3.3600   54.4994   25.0553 H   0  0  0  0  0  0
    5.4934   54.4994   23.8188 H   0  0  0  0  0  0
    3.0693   55.3334   28.5492 H   0  0  0  0  0  0
    2.2259   54.8967   27.0650 H   0  0  0  0  0  0
    2.3309   53.2537   30.7290 H   0  0  0  0  0  0
    1.0911   54.5001   30.6152 H   0  0  0  0  0  0
    0.7980   51.7092   31.4656 H   0  0  0  0  0  0
   -0.3965   52.9849   31.5737 H   0  0  0  0  0  0
   -0.8018   50.8968   29.8520 H   0  0  0  0  0  0
   -1.2950   52.4973   29.4477 H   0  0  0  0  0  0
   -1.0165   51.4403   27.2838 H   0  0  0  0  0  0
   -1.7070   50.5594   25.7164 H   0  0  0  0  0  0
   -2.5760   52.1611   25.7144 H   0  0  0  0  0  0
   -1.7481   52.1210   22.2699 H   0  0  0  0  0  0
   -1.4635   50.4197   22.0525 H   0  0  0  0  0  0
    0.4799   53.2967   22.5037 H   0  0  0  0  0  0
    1.8117   52.5027   23.2627 H   0  0  0  0  0  0
    0.3226   51.5025   20.7132 H   0  0  0  0  0  0
    1.9411   52.2336   20.7619 H   0  0  0  0  0  0
    2.0244   49.8140   20.7148 H   0  0  0  0  0  0
    0.1378   49.0202   21.9279 H   0  0  0  0  0  0
    1.6319   48.4968   22.7276 H   0  0  0  0  0  0
    1.5061   50.2642   24.4197 H   0  0  0  0  0  0
   -0.0199   49.4648   24.3995 H   0  0  0  0  0  0
   -4.9116   52.7406   25.1052 H   0  0  0  0  0  0
   -6.1428   52.1138   23.9952 H   0  0  0  0  0  0
   -7.4997   52.2882   28.3519 H   0  0  0  0  0  0
   -6.5305   51.5288   30.5112 H   0  0  0  0  0  0
   -4.4145   50.2276   30.5348 H   0  0  0  0  0  0
   -3.2961   49.6507   28.4147 H   0  0  0  0  0  0
    2.7374   50.4157   22.0292 H   0  0  0  0  0  0
  1  6  2  0  0  0
  1  2  1  0  0  0
  1 43  1  0  0  0
  2  3  2  0  0  0
  2 44  1  0  0  0
  3  4  1  0  0  0
  3 45  1  0  0  0
  4  5  2  0  0  0
  4  7  1  0  0  0
  5  6  1  0  0  0
  5 46  1  0  0  0
  6 47  1  0  0  0
  7  8  1  0  0  0
  7 48  1  0  0  0
  7 49  1  0  0  0
  8  9  1  0  0  0
  9 10  1  0  0  0
  9 14  1  0  0  0
  9 11  1  0  0  0
 11 12  1  0  0  0
 11 50  1  0  0  0
 11 51  1  0  0  0
 12 13  1  0  0  0
 12 52  1  0  0  0
 12 53  1  0  0  0
 13 14  1  0  0  0
 13 54  1  0  0  0
 13 55  1  0  0  0
 14 15  1  0  0  0
 14 16  1  0  0  0
 16 17  1  0  0  0
 16 56  1  0  0  0
 17 18  2  0  0  0
 17 19  1  0  0  0
 19 20  1  0  0  0
 19 24  1  0  0  0
 19 21  1  0  0  0
 21 22  1  0  0  0
 21 57  1  0  0  0
 21 58  1  0  0  0
 22 23  1  0  0  0
 22 30  1  0  0  0
 23 24  1  0  0  0
 23 59  1  0  0  0
 23 60  1  0  0  0
 24 29  1  0  0  0
 24 25  1  0  0  0
 25 26  1  0  0  0
 25 61  1  0  0  0
 25 62  1  0  0  0
 26 27  1  0  0  0
 26 63  1  0  0  0
 26 64  1  0  0  0
 27 28  1  0  0  0
 27 65  1  0  0  0
 27 76  1  0  0  0
 28 29  1  0  0  0
 28 66  1  0  0  0
 28 67  1  0  0  0
 29 68  1  0  0  0
 29 69  1  0  0  0
 30 31  2  0  0  0
 30 32  1  0  0  0
 32 33  1  0  0  0
 32 42  1  0  0  0
 32 34  1  0  0  0
 34 35  1  0  0  0
 34 70  1  0  0  0
 34 71  1  0  0  0
 35 36  1  0  0  0
 36 41  2  0  0  0
 36 37  1  0  0  0
 37 38  2  0  0  0
 37 72  1  0  0  0
 38 39  1  0  0  0
 38 73  1  0  0  0
 39 40  2  0  0  0
 39 74  1  0  0  0
 40 41  1  0  0  0
 40 75  1  0  0  0
 41 42  1  0  0  0
M  CHG  1  27   1
M  END
> <i_i_glide_confnum>
1393

> <i_i_glide_lignum>
372

> <i_i_glide_posenum>
180

> <i_i_glide_rotatable_bonds>
8

> <i_m_Source_File_Index>
3661

> <b_m_subgroup_collapsed>
0

> <r_i_docking_score>
-4.5286

> <r_i_glide_ecoul>
-0.936448

> <r_i_glide_eff_state_penalty>
0

> <r_i_glide_einternal>
9.23449

> <r_i_glide_emodel>
-60.2344

> <r_i_glide_energy>
-48.0745

> <r_i_glide_erotb>
0.606567

> <r_i_glide_esite>
-0.012183

> <r_i_glide_evdw>
-47.1381

> <r_i_glide_gscore>
-4.5286

> <r_i_glide_hbond>
0

> <r_i_glide_ligand_efficiency>
-0.119174

> <r_i_glide_ligand_efficiency_ln>
-0.9765

> <r_i_glide_ligand_efficiency_sa>
-0.400659

> <r_i_glide_lipo>
-2.48121

> <r_i_glide_metal>
0

> <r_i_glide_rewards>
-0.144407

> <s_i_glide_gridfile>
wee1_glide-grid

> <s_m_Source_File>
wee1_decoys_glide_SP.sdf

> <s_m_Source_Path>
/Users/zhangxujun/Desktop

> <s_m_entry_id>
3936

> <s_m_entry_name>
wee1_decoys_glide_SP.3661

> <s_m_subgroup_title>
wee1_decoys_glide_SP

> <s_m_subgroupid>
wee1_decoys_glide_SP


$$$$
