ZINC00673858_5216
                    3D
 Schrodinger Suite 2024-2.
 42 45  0  0  1  0            999 V2000
    5.0027   54.4968   23.9039 C   0  0  0  0  0  0
    3.7571   54.0871   24.3830 C   0  0  0  0  0  0
    3.5523   53.8973   25.7546 C   0  0  0  0  0  0
    4.6099   54.1513   26.6409 C   0  0  0  0  0  0
    5.8409   54.5840   26.1603 C   0  0  0  0  0  0
    6.0456   54.7536   24.7925 C   0  0  0  0  0  0
    7.1046   54.8967   27.2788 Cl  0  0  0  0  0  0
    2.2979   53.3994   26.1467 N   0  0  0  0  0  0
    1.7816   53.2542   27.3901 C   0  0  0  0  0  0
    2.3171   53.6572   28.4228 O   0  0  0  0  0  0
    0.4977   52.5751   27.4276 C   0  0  0  0  0  0
   -0.2521   52.3039   28.5965 C   0  0  0  0  0  0
   -1.4071   51.6966   28.1486 C   0  0  0  0  0  0
   -1.3063   51.6148   26.7764 N   0  0  0  0  0  0
   -0.1427   52.1259   26.3576 N   0  0  0  0  0  0
   -2.3298   51.1066   25.8434 C   0  0  1  0  0  0
   -1.8359   50.3926   25.1820 H   0  0  0  0  0  0
   -3.4004   50.3523   26.6884 C   0  0  0  0  0  0
   -3.7252   51.0716   28.0200 C   0  0  2  0  0  0
   -4.0309   52.0960   27.8076 H   0  0  0  0  0  0
   -2.4910   51.1448   28.8003 N   0  0  0  0  0  0
   -4.8438   50.4123   28.8067 C   0  0  0  0  0  0
   -4.7845   49.5811   29.9315 C   0  0  0  0  0  0
   -6.0269   49.1506   30.4025 C   0  0  0  0  0  0
   -7.0735   49.6334   29.6389 C   0  0  0  0  0  0
   -6.5097   50.6203   28.3336 S   0  0  0  0  0  0
   -2.9318   52.2123   24.9345 C   0  0  0  0  0  0
   -3.5283   53.1754   25.6391 F   0  0  0  0  0  0
   -2.0062   52.7928   24.1690 F   0  0  0  0  0  0
   -3.8517   51.7084   24.1112 F   0  0  0  0  0  0
    0.1659   52.6632   30.4243 Br  0  0  0  0  0  0
    5.1559   54.6207   22.8417 H   0  0  0  0  0  0
    2.9633   53.8924   23.6759 H   0  0  0  0  0  0
    4.5163   54.0024   27.7039 H   0  0  0  0  0  0
    7.0071   55.0772   24.4193 H   0  0  0  0  0  0
    1.7181   53.0636   25.3938 H   0  0  0  0  0  0
   -4.3107   50.2117   26.1045 H   0  0  0  0  0  0
   -3.0520   49.3346   26.8819 H   0  0  0  0  0  0
   -2.3345   50.2866   29.3202 H   0  0  0  0  0  0
   -3.8503   49.2969   30.3992 H   0  0  0  0  0  0
   -6.1515   48.5107   31.2643 H   0  0  0  0  0  0
   -8.1304   49.4561   29.7736 H   0  0  0  0  0  0
  1  6  2  0  0  0
  1  2  1  0  0  0
  1 32  1  0  0  0
  2  3  2  0  0  0
  2 33  1  0  0  0
  3  4  1  0  0  0
  3  8  1  0  0  0
  4  5  2  0  0  0
  4 34  1  0  0  0
  5  6  1  0  0  0
  5  7  1  0  0  0
  6 35  1  0  0  0
  8  9  1  0  0  0
  8 36  1  0  0  0
  9 10  2  0  0  0
  9 11  1  0  0  0
 11 15  2  0  0  0
 11 12  1  0  0  0
 12 13  2  0  0  0
 12 31  1  0  0  0
 13 21  1  0  0  0
 13 14  1  0  0  0
 14 15  1  0  0  0
 14 16  1  0  0  0
 16 17  1  0  0  0
 16 18  1  0  0  0
 16 27  1  0  0  0
 18 19  1  0  0  0
 18 37  1  0  0  0
 18 38  1  0  0  0
 19 20  1  0  0  0
 19 21  1  0  0  0
 19 22  1  0  0  0
 21 39  1  0  0  0
 22 26  1  0  0  0
 22 23  2  0  0  0
 23 24  1  0  0  0
 23 40  1  0  0  0
 24 25  2  0  0  0
 24 41  1  0  0  0
 25 26  1  0  0  0
 25 42  1  0  0  0
 27 28  1  0  0  0
 27 29  1  0  0  0
 27 30  1  0  0  0
M  END
> <i_i_glide_confnum>
16

> <i_i_glide_lignum>
5217

> <i_i_glide_posenum>
371

> <i_i_glide_rotatable_bonds>
5

> <i_m_Source_File_Index>
4547

> <b_m_subgroup_collapsed>
0

> <r_i_docking_score>
-4.70273

> <r_i_glide_ecoul>
-4.23858

> <r_i_glide_eff_state_penalty>
0

> <r_i_glide_einternal>
6.42163

> <r_i_glide_emodel>
-49.2311

> <r_i_glide_energy>
-40.8959

> <r_i_glide_erotb>
0.319899

> <r_i_glide_esite>
-0.146661

> <r_i_glide_evdw>
-36.6573

> <r_i_glide_gscore>
-4.70273

> <r_i_glide_hbond>
-0.0968331

> <r_i_glide_ligand_efficiency>
-0.162163

> <r_i_glide_ligand_efficiency_ln>
-1.07681

> <r_i_glide_ligand_efficiency_sa>
-0.498217

> <r_i_glide_lipo>
-1.65652

> <r_i_glide_metal>
0

> <r_i_glide_rewards>
-0.653962

> <s_i_glide_gridfile>
wee1_glide-grid

> <s_m_Source_File>
wee1_decoys_glide_SP.sdf

> <s_m_Source_Path>
/Users/zhangxujun/Desktop

> <s_m_entry_id>
4822

> <s_m_entry_name>
wee1_decoys_glide_SP.4547

> <s_m_subgroup_title>
wee1_decoys_glide_SP

> <s_m_subgroupid>
wee1_decoys_glide_SP


$$$$
