ZINC02339597_2632
                    3D
 Schrodinger Suite 2024-2.
 49 52  0  0  1  0            999 V2000
    1.0539   53.5697   30.0773 C   0  0  0  0  0  0
    1.3627   54.9197   29.9149 C   0  0  0  0  0  0
    2.4230   55.2896   29.0914 C   0  0  0  0  0  0
    3.1633   54.3115   28.4254 C   0  0  0  0  0  0
    2.8567   52.9581   28.5999 C   0  0  0  0  0  0
    1.7958   52.5868   29.4236 C   0  0  0  0  0  0
    4.2146   54.7028   27.6272 O   0  0  0  0  0  0
    4.2392   54.4201   26.2744 C   0  0  0  0  0  0
    3.0980   54.0937   25.5317 C   0  0  0  0  0  0
    3.1988   53.8365   24.1672 C   0  0  0  0  0  0
    4.4235   53.9240   23.5019 C   0  0  0  0  0  0
    5.5633   54.2437   24.2590 C   0  0  0  0  0  0
    5.4699   54.5003   25.6255 C   0  0  0  0  0  0
    4.4656   53.5149   22.1588 N   0  0  0  0  0  0
    5.1288   54.0982   21.2464 C   0  0  0  0  0  0
    5.8144   55.1821   21.2819 N   0  5  0  0  0  0
    6.4917   55.7791   20.3196 C   0  0  0  0  0  0
    7.0621   56.8618   20.4387 O   0  0  0  0  0  0
    6.5972   55.0677   18.9456 C   0  0  0  0  0  0
    5.4617   54.0158   18.7327 C   0  0  1  0  0  0
    5.7874   53.2337   18.0442 H   0  0  0  0  0  0
    5.1154   53.4263   20.0300 N   0  0  0  0  0  0
    4.1643   54.5999   18.1101 C   0  0  0  0  0  0
    4.0209   55.8184   17.9981 O   0  0  0  0  0  0
    3.2433   53.6816   17.7409 N   0  0  0  0  0  0
    1.9369   53.8600   17.2482 C   0  0  0  0  0  0
    1.3798   55.0970   16.8815 C   0  0  0  0  0  0
    0.0571   55.1652   16.4513 C   0  0  0  0  0  0
   -0.7069   54.0052   16.3753 C   0  0  0  0  0  0
   -0.1583   52.7724   16.7180 C   0  0  0  0  0  0
    1.1628   52.7002   17.1515 C   0  0  0  0  0  0
   -1.9922   54.0755   15.9662 F   0  0  0  0  0  0
    0.2314   53.2802   30.7164 H   0  0  0  0  0  0
    0.7849   55.6746   30.4280 H   0  0  0  0  0  0
    2.6705   56.3326   28.9652 H   0  0  0  0  0  0
    3.4366   52.2060   28.0861 H   0  0  0  0  0  0
    1.5447   51.5446   29.5518 H   0  0  0  0  0  0
    2.1290   54.0320   26.0050 H   0  0  0  0  0  0
    2.3155   53.5581   23.6116 H   0  0  0  0  0  0
    6.5319   54.2772   23.7818 H   0  0  0  0  0  0
    6.3573   54.7485   26.1877 H   0  0  0  0  0  0
    6.6400   55.8115   18.1485 H   0  0  0  0  0  0
    7.5616   54.5603   18.9489 H   0  0  0  0  0  0
    4.5993   52.5628   19.9919 H   0  0  0  0  0  0
    3.5089   52.7186   17.8892 H   0  0  0  0  0  0
    1.9404   56.0164   16.9313 H   0  0  0  0  0  0
   -0.3751   56.1162   16.1798 H   0  0  0  0  0  0
   -0.7564   51.8767   16.6501 H   0  0  0  0  0  0
    1.5759   51.7382   17.4217 H   0  0  0  0  0  0
  1  6  2  0  0  0
  1  2  1  0  0  0
  1 33  1  0  0  0
  2  3  2  0  0  0
  2 34  1  0  0  0
  3  4  1  0  0  0
  3 35  1  0  0  0
  4  5  2  0  0  0
  4  7  1  0  0  0
  5  6  1  0  0  0
  5 36  1  0  0  0
  6 37  1  0  0  0
  7  8  1  0  0  0
  8 13  2  0  0  0
  8  9  1  0  0  0
  9 10  2  0  0  0
  9 38  1  0  0  0
 10 11  1  0  0  0
 10 39  1  0  0  0
 11 12  2  0  0  0
 11 14  1  0  0  0
 12 13  1  0  0  0
 12 40  1  0  0  0
 13 41  1  0  0  0
 14 15  2  0  0  0
 15 22  1  0  0  0
 15 16  1  0  0  0
 16 17  1  0  0  0
 17 18  2  0  0  0
 17 19  1  0  0  0
 19 20  1  0  0  0
 19 42  1  0  0  0
 19 43  1  0  0  0
 20 21  1  0  0  0
 20 22  1  0  0  0
 20 23  1  0  0  0
 22 44  1  0  0  0
 23 24  2  0  0  0
 23 25  1  0  0  0
 25 26  1  0  0  0
 25 45  1  0  0  0
 26 31  2  0  0  0
 26 27  1  0  0  0
 27 28  2  0  0  0
 27 46  1  0  0  0
 28 29  1  0  0  0
 28 47  1  0  0  0
 29 30  2  0  0  0
 29 32  1  0  0  0
 30 31  1  0  0  0
 30 48  1  0  0  0
 31 49  1  0  0  0
M  CHG  1  16  -1
M  END
> <i_i_glide_confnum>
89

> <i_i_glide_lignum>
2633

> <i_i_glide_posenum>
68

> <i_i_glide_rotatable_bonds>
6

> <i_m_Source_File_Index>
4885

> <b_m_subgroup_collapsed>
0

> <r_i_docking_score>
-6.71713

> <r_i_glide_ecoul>
-6.88607

> <r_i_glide_eff_state_penalty>
0

> <r_i_glide_einternal>
3.61689

> <r_i_glide_emodel>
-65.6657

> <r_i_glide_energy>
-47.6781

> <r_i_glide_erotb>
0.680636

> <r_i_glide_esite>
-0.0424082

> <r_i_glide_evdw>
-40.792

> <r_i_glide_gscore>
-6.71713

> <r_i_glide_hbond>
-0.318066

> <r_i_glide_ligand_efficiency>
-0.216682

> <r_i_glide_ligand_efficiency_ln>
-1.51492

> <r_i_glide_ligand_efficiency_sa>
-0.68068

> <r_i_glide_lipo>
-2.9696

> <r_i_glide_metal>
0

> <r_i_glide_rewards>
-0.995186

> <s_i_glide_gridfile>
wee1_glide-grid

> <s_m_Source_File>
wee1_decoys_glide_SP.sdf

> <s_m_Source_Path>
/Users/zhangxujun/Desktop

> <s_m_entry_id>
5160

> <s_m_entry_name>
wee1_decoys_glide_SP.4885

> <s_m_subgroup_title>
wee1_decoys_glide_SP

> <s_m_subgroupid>
wee1_decoys_glide_SP


$$$$
