ZINC38596951_3055
                    3D
 Schrodinger Suite 2024-2.
 71 74  0  0  1  0            999 V2000
    8.4183   50.2469   11.6475 C   0  0  0  0  0  0
    7.8410   49.7120   12.9673 C   0  0  0  0  0  0
    8.2573   50.4974   14.0801 O   0  0  0  0  0  0
    9.5188   50.3589   14.6350 C   0  0  0  0  0  0
   10.4743   49.4442   14.1624 C   0  0  0  0  0  0
   11.7054   49.2968   14.7971 C   0  0  0  0  0  0
   11.9989   50.0495   15.9291 C   0  0  0  0  0  0
   11.0716   50.9712   16.4090 C   0  0  0  0  0  0
    9.8484   51.1508   15.7579 C   0  0  0  0  0  0
    8.9867   52.1160   16.3068 N   0  0  0  0  0  0
    8.3417   53.0921   15.6290 C   0  0  0  0  0  0
    8.3765   53.2531   14.4030 O   0  0  0  0  0  0
    7.5696   53.9921   16.5192 C   0  0  0  0  0  0
    7.9029   54.2142   17.6865 O   0  0  0  0  0  0
    6.4949   54.5252   15.8996 N   0  0  0  0  0  0
    5.4756   55.4457   16.4259 C   0  0  1  0  0  0
    6.0249   56.2958   16.8239 H   0  0  0  0  0  0
    4.7000   56.0636   15.2480 C   0  0  0  0  0  0
    4.4892   54.8802   17.5278 C   0  0  1  0  0  0
    3.8182   55.7047   17.7788 H   0  0  0  0  0  0
    3.5738   53.7525   17.0044 C   0  0  0  0  0  0
    2.2399   53.4972   17.3499 C   0  0  0  0  0  0
    1.6692   52.3748   16.7463 C   0  0  0  0  0  0
    2.5531   51.7231   15.9129 C   0  0  0  0  0  0
    4.0903   52.5092   15.8810 S   0  0  0  0  0  0
    5.1609   54.5478   18.8165 N   0  0  0  0  0  0
    4.2976   53.8630   19.7993 C   0  0  0  0  0  0
    5.1030   53.4120   21.0344 C   0  0  0  0  0  0
    5.7301   54.6559   21.7069 N   0  3  0  0  0  0
    6.6565   55.3460   20.6802 C   0  0  0  0  0  0
    5.8592   55.7104   19.4111 C   0  0  0  0  0  0
    6.4999   54.3036   23.0084 C   0  0  0  0  0  0
    5.7095   54.3559   24.3137 C   0  0  0  0  0  0
    4.3129   54.2698   24.3550 C   0  0  0  0  0  0
    3.6491   54.2816   25.5794 C   0  0  0  0  0  0
    4.3766   54.3926   26.7611 C   0  0  0  0  0  0
    5.7650   54.4972   26.7324 C   0  0  0  0  0  0
    6.4263   54.4776   25.5075 C   0  0  0  0  0  0
    8.0129   49.7013   10.7961 H   0  0  0  0  0  0
    8.1706   51.3007   11.5199 H   0  0  0  0  0  0
    9.5039   50.1603   11.6095 H   0  0  0  0  0  0
    8.0598   48.6546   13.1192 H   0  0  0  0  0  0
    6.7534   49.7803   12.9246 H   0  0  0  0  0  0
   10.2873   48.8377   13.2924 H   0  0  0  0  0  0
   12.4259   48.5933   14.4052 H   0  0  0  0  0  0
   12.9482   49.9257   16.4294 H   0  0  0  0  0  0
   11.3208   51.5588   17.2811 H   0  0  0  0  0  0
    8.9479   52.1636   17.3153 H   0  0  0  0  0  0
    6.3759   54.2562   14.9337 H   0  0  0  0  0  0
    3.9120   56.7253   15.6081 H   0  0  0  0  0  0
    5.3460   56.6722   14.6159 H   0  0  0  0  0  0
    4.2148   55.3069   14.6321 H   0  0  0  0  0  0
    1.6931   54.1019   18.0587 H   0  0  0  0  0  0
    0.6579   52.0419   16.9272 H   0  0  0  0  0  0
    2.4032   50.8114   15.3525 H   0  0  0  0  0  0
    3.5050   54.5459   20.1124 H   0  0  0  0  0  0
    3.8511   52.9634   19.3747 H   0  0  0  0  0  0
    5.8930   52.7126   20.7534 H   0  0  0  0  0  0
    4.4457   52.9395   21.7613 H   0  0  0  0  0  0
    7.4936   54.6860   20.4509 H   0  0  0  0  0  0
    7.0196   56.2553   21.1610 H   0  0  0  0  0  0
    6.5771   56.1726   18.7387 H   0  0  0  0  0  0
    5.1044   56.4471   19.6815 H   0  0  0  0  0  0
    6.9353   53.3117   22.8819 H   0  0  0  0  0  0
    7.3259   55.0153   23.0725 H   0  0  0  0  0  0
    3.7257   54.1910   23.4546 H   0  0  0  0  0  0
    2.5718   54.1992   25.6121 H   0  0  0  0  0  0
    3.8594   54.4000   27.7103 H   0  0  0  0  0  0
    6.3225   54.5862   27.6544 H   0  0  0  0  0  0
    7.5038   54.5372   25.4893 H   0  0  0  0  0  0
    4.9853   55.2952   21.9510 H   0  0  0  0  0  0
  1  2  1  0  0  0
  1 39  1  0  0  0
  1 40  1  0  0  0
  1 41  1  0  0  0
  2  3  1  0  0  0
  2 42  1  0  0  0
  2 43  1  0  0  0
  3  4  1  0  0  0
  4  9  2  0  0  0
  4  5  1  0  0  0
  5  6  2  0  0  0
  5 44  1  0  0  0
  6  7  1  0  0  0
  6 45  1  0  0  0
  7  8  2  0  0  0
  7 46  1  0  0  0
  8  9  1  0  0  0
  8 47  1  0  0  0
  9 10  1  0  0  0
 10 11  1  0  0  0
 10 48  1  0  0  0
 11 12  2  0  0  0
 11 13  1  0  0  0
 13 14  2  0  0  0
 13 15  1  0  0  0
 15 16  1  0  0  0
 15 49  1  0  0  0
 16 17  1  0  0  0
 16 18  1  0  0  0
 16 19  1  0  0  0
 18 50  1  0  0  0
 18 51  1  0  0  0
 18 52  1  0  0  0
 19 20  1  0  0  0
 19 21  1  0  0  0
 19 26  1  0  0  0
 21 25  1  0  0  0
 21 22  2  0  0  0
 22 23  1  0  0  0
 22 53  1  0  0  0
 23 24  2  0  0  0
 23 54  1  0  0  0
 24 25  1  0  0  0
 24 55  1  0  0  0
 26 31  1  0  0  0
 26 27  1  0  0  0
 27 28  1  0  0  0
 27 56  1  0  0  0
 27 57  1  0  0  0
 28 29  1  0  0  0
 28 58  1  0  0  0
 28 59  1  0  0  0
 29 30  1  0  0  0
 29 32  1  0  0  0
 29 71  1  0  0  0
 30 31  1  0  0  0
 30 60  1  0  0  0
 30 61  1  0  0  0
 31 62  1  0  0  0
 31 63  1  0  0  0
 32 33  1  0  0  0
 32 64  1  0  0  0
 32 65  1  0  0  0
 33 38  2  0  0  0
 33 34  1  0  0  0
 34 35  2  0  0  0
 34 66  1  0  0  0
 35 36  1  0  0  0
 35 67  1  0  0  0
 36 37  2  0  0  0
 36 68  1  0  0  0
 37 38  1  0  0  0
 37 69  1  0  0  0
 38 70  1  0  0  0
M  CHG  1  29   1
M  END
> <i_i_glide_confnum>
399

> <i_i_glide_lignum>
3056

> <i_i_glide_posenum>
186

> <i_i_glide_rotatable_bonds>
12

> <i_m_Source_File_Index>
5441

> <b_m_subgroup_collapsed>
0

> <r_i_docking_score>
-3.91209

> <r_i_glide_ecoul>
-1.33642

> <r_i_glide_eff_state_penalty>
0

> <r_i_glide_einternal>
15.0191

> <r_i_glide_emodel>
-43.6873

> <r_i_glide_energy>
-38.1911

> <r_i_glide_erotb>
0.873598

> <r_i_glide_esite>
-1.5221e-05

> <r_i_glide_evdw>
-36.8547

> <r_i_glide_gscore>
-3.91209

> <r_i_glide_hbond>
0

> <r_i_glide_ligand_efficiency>
-0.108669

> <r_i_glide_ligand_efficiency_ln>
-0.853513

> <r_i_glide_ligand_efficiency_sa>
-0.358818

> <r_i_glide_lipo>
-2.6455

> <r_i_glide_metal>
0

> <r_i_glide_rewards>
-0.0969813

> <s_i_glide_gridfile>
wee1_glide-grid

> <s_m_Source_File>
wee1_decoys_glide_SP.sdf

> <s_m_Source_Path>
/Users/zhangxujun/Desktop

> <s_m_entry_id>
5716

> <s_m_entry_name>
wee1_decoys_glide_SP.5441

> <s_m_subgroup_title>
wee1_decoys_glide_SP

> <s_m_subgroupid>
wee1_decoys_glide_SP


$$$$
