ZINC36660280_5706
                    3D
 Schrodinger Suite 2024-2.
 67 70  0  0  1  0            999 V2000
    1.0624   49.3355   17.6276 C   0  0  0  0  0  0
    1.4144   50.7614   17.1764 C   0  0  0  0  0  0
    2.7004   51.2968   17.8586 N   0  3  0  0  0  0
    3.0955   52.6702   17.2486 C   0  0  0  0  0  0
    4.4199   53.2114   17.8152 C   0  0  0  0  0  0
    2.6773   51.2539   19.4100 C   0  0  0  0  0  0
    1.7215   52.3168   19.9968 C   0  0  0  0  0  0
    1.5565   52.2340   21.4671 N   0  0  0  0  0  0
    2.5191   52.9107   22.2411 C   0  0  0  0  0  0
    3.7253   53.1751   21.8016 N   0  0  0  0  0  0
    4.4760   53.8275   22.7278 C   0  0  0  0  0  0
    5.8087   54.2191   22.5514 C   0  0  0  0  0  0
    6.4794   54.7889   23.6344 C   0  0  0  0  0  0
    5.8557   54.9787   24.8661 C   0  0  0  0  0  0
    4.5116   54.6523   25.0464 C   0  0  0  0  0  0
    3.8221   54.0968   23.9568 C   0  0  0  0  0  0
    2.1338   53.6648   23.7840 S   0  0  0  0  0  0
    6.5605   55.5122   25.8888 F   0  0  0  0  0  0
    0.6089   51.3617   21.9467 C   0  0  0  0  0  0
   -0.2649   50.9138   21.1935 O   0  0  0  0  0  0
    0.6436   50.7658   23.3881 C   0  0  2  0  0  0
    1.2793   51.2985   24.0809 H   0  0  0  0  0  0
    1.1319   49.3181   23.3439 C   0  0  0  0  0  0
    0.4578   48.6745   24.5368 C   0  0  0  0  0  0
   -0.9570   49.2437   24.5288 C   0  0  0  0  0  0
   -0.7334   50.6054   23.9609 N   0  0  0  0  0  0
   -1.5394   51.9711   24.7398 S   0  0  0  0  0  0
   -1.0699   53.1965   24.0822 O   0  0  0  0  0  0
   -2.9730   51.6602   24.7886 O   0  0  0  0  0  0
   -0.9402   51.9820   26.4392 C   0  0  0  0  0  0
    0.3216   52.4969   26.7373 C   0  0  0  0  0  0
    0.7600   52.5747   28.0557 C   0  0  0  0  0  0
   -0.0592   52.1168   29.0859 C   0  0  0  0  0  0
   -1.2954   51.5450   28.7882 C   0  0  0  0  0  0
   -1.7357   51.4714   27.4683 C   0  0  0  0  0  0
    0.4015   52.2438   30.5260 C   0  0  0  0  0  0
    0.2611   48.9291   17.0101 H   0  0  0  0  0  0
    1.9150   48.6634   17.5323 H   0  0  0  0  0  0
    0.7122   49.3018   18.6594 H   0  0  0  0  0  0
    0.6161   51.4757   17.3830 H   0  0  0  0  0  0
    1.6382   50.7709   16.1074 H   0  0  0  0  0  0
    3.1863   52.4915   16.1751 H   0  0  0  0  0  0
    2.2601   53.3499   17.4278 H   0  0  0  0  0  0
    4.7110   54.1254   17.2980 H   0  0  0  0  0  0
    4.3469   53.4552   18.8740 H   0  0  0  0  0  0
    5.2312   52.4968   17.6838 H   0  0  0  0  0  0
    3.7138   51.4106   19.7098 H   0  0  0  0  0  0
    2.4283   50.2360   19.7054 H   0  0  0  0  0  0
    0.7524   52.2742   19.4995 H   0  0  0  0  0  0
    2.1152   53.2969   19.7456 H   0  0  0  0  0  0
    6.3034   54.0922   21.6024 H   0  0  0  0  0  0
    7.5040   55.0955   23.5170 H   0  0  0  0  0  0
    4.0204   54.8383   25.9898 H   0  0  0  0  0  0
    0.8743   48.8021   22.4151 H   0  0  0  0  0  0
    2.2193   49.2968   23.4257 H   0  0  0  0  0  0
    0.4645   47.5846   24.4918 H   0  0  0  0  0  0
    0.9738   48.9505   25.4611 H   0  0  0  0  0  0
   -1.5281   48.6157   23.8434 H   0  0  0  0  0  0
   -1.3212   49.2340   25.5589 H   0  0  0  0  0  0
    0.9511   52.8762   25.9586 H   0  0  0  0  0  0
    1.7262   53.0056   28.2757 H   0  0  0  0  0  0
   -1.9195   51.1438   29.5760 H   0  0  0  0  0  0
   -2.6972   51.0258   27.2582 H   0  0  0  0  0  0
    1.4139   51.8526   30.6359 H   0  0  0  0  0  0
    0.4187   53.2923   30.8256 H   0  0  0  0  0  0
   -0.2436   51.6982   31.2176 H   0  0  0  0  0  0
    3.4443   50.6506   17.5821 H   0  0  0  0  0  0
  1  2  1  0  0  0
  1 37  1  0  0  0
  1 38  1  0  0  0
  1 39  1  0  0  0
  2  3  1  0  0  0
  2 40  1  0  0  0
  2 41  1  0  0  0
  3  4  1  0  0  0
  3  6  1  0  0  0
  3 67  1  0  0  0
  4  5  1  0  0  0
  4 42  1  0  0  0
  4 43  1  0  0  0
  5 44  1  0  0  0
  5 45  1  0  0  0
  5 46  1  0  0  0
  6  7  1  0  0  0
  6 47  1  0  0  0
  6 48  1  0  0  0
  7  8  1  0  0  0
  7 49  1  0  0  0
  7 50  1  0  0  0
  8  9  1  0  0  0
  8 19  1  0  0  0
  9 17  1  0  0  0
  9 10  2  0  0  0
 10 11  1  0  0  0
 11 16  2  0  0  0
 11 12  1  0  0  0
 12 13  2  0  0  0
 12 51  1  0  0  0
 13 14  1  0  0  0
 13 52  1  0  0  0
 14 15  2  0  0  0
 14 18  1  0  0  0
 15 16  1  0  0  0
 15 53  1  0  0  0
 16 17  1  0  0  0
 19 20  2  0  0  0
 19 21  1  0  0  0
 21 22  1  0  0  0
 21 26  1  0  0  0
 21 23  1  0  0  0
 23 24  1  0  0  0
 23 54  1  0  0  0
 23 55  1  0  0  0
 24 25  1  0  0  0
 24 56  1  0  0  0
 24 57  1  0  0  0
 25 26  1  0  0  0
 25 58  1  0  0  0
 25 59  1  0  0  0
 26 27  1  0  0  0
 27 28  2  0  0  0
 27 29  2  0  0  0
 27 30  1  0  0  0
 30 35  2  0  0  0
 30 31  1  0  0  0
 31 32  2  0  0  0
 31 60  1  0  0  0
 32 33  1  0  0  0
 32 61  1  0  0  0
 33 34  2  0  0  0
 33 36  1  0  0  0
 34 35  1  0  0  0
 34 62  1  0  0  0
 35 63  1  0  0  0
 36 64  1  0  0  0
 36 65  1  0  0  0
 36 66  1  0  0  0
M  CHG  1   3   1
M  END
> <i_i_glide_confnum>
357

> <i_i_glide_lignum>
5707

> <i_i_glide_posenum>
46

> <i_i_glide_rotatable_bonds>
10

> <i_m_Source_File_Index>
2930

> <b_m_subgroup_collapsed>
0

> <r_i_docking_score>
-5.29945

> <r_i_glide_ecoul>
-6.18649

> <r_i_glide_eff_state_penalty>
0

> <r_i_glide_einternal>
9.49153

> <r_i_glide_emodel>
-61.1719

> <r_i_glide_energy>
-47.717

> <r_i_glide_erotb>
0.608635

> <r_i_glide_esite>
-0.112947

> <r_i_glide_evdw>
-41.5305

> <r_i_glide_gscore>
-5.29945

> <r_i_glide_hbond>
-0.345839

> <r_i_glide_ligand_efficiency>
-0.151413

> <r_i_glide_ligand_efficiency_ln>
-1.16335

> <r_i_glide_ligand_efficiency_sa>
-0.495281

> <r_i_glide_lipo>
-2.15612

> <r_i_glide_metal>
0

> <r_i_glide_rewards>
-0.288684

> <s_i_glide_gridfile>
wee1_glide-grid

> <s_m_Source_File>
wee1_decoys_glide_SP.sdf

> <s_m_Source_Path>
/Users/zhangxujun/Desktop

> <s_m_entry_id>
3205

> <s_m_entry_name>
wee1_decoys_glide_SP.2930

> <s_m_subgroup_title>
wee1_decoys_glide_SP

> <s_m_subgroupid>
wee1_decoys_glide_SP


$$$$
