ZINC56207217_4599
                    3D
 Schrodinger Suite 2024-2.
 48 49  0  0  1  0            999 V2000
    4.3392   54.5324   26.1584 C   0  0  0  0  0  0
    3.0865   53.7055   26.3810 C   0  0  0  0  0  0
    2.2512   53.3969   25.3061 C   0  0  0  0  0  0
    1.1038   52.6311   25.5069 C   0  0  0  0  0  0
    0.7719   52.1674   26.7905 C   0  0  0  0  0  0
    1.6147   52.4768   27.8735 C   0  0  0  0  0  0
    2.7585   53.2535   27.6606 C   0  0  0  0  0  0
    1.3094   51.9842   29.2818 C   0  0  0  0  0  0
   -0.3619   51.3625   27.0191 N   0  0  0  0  0  0
   -1.5640   51.4576   26.4185 C   0  0  0  0  0  0
   -1.8592   52.3189   25.5843 O   0  0  0  0  0  0
   -2.3893   50.4968   26.8822 N   0  0  0  0  0  0
   -3.7316   50.4093   26.7352 C   0  0  0  0  0  0
   -4.4245   51.2115   26.0979 O   0  0  0  0  0  0
   -4.3961   49.2165   27.4787 C   0  0  2  0  0  0
   -3.6964   48.3823   27.3830 H   0  0  0  0  0  0
   -5.7129   48.7765   26.8299 C   0  0  0  0  0  0
   -4.4954   49.4444   28.9309 N   0  0  0  0  0  0
   -5.3703   50.3157   29.6050 C   0  0  0  0  0  0
   -6.0884   51.3397   28.9759 C   0  0  0  0  0  0
   -6.9031   52.1958   29.7135 C   0  0  0  0  0  0
   -7.0376   52.0220   31.0934 C   0  0  0  0  0  0
   -6.3497   50.9805   31.7246 C   0  0  0  0  0  0
   -5.5055   50.1509   30.9853 C   0  0  0  0  0  0
   -6.4950   50.7789   33.0551 F   0  0  0  0  0  0
   -7.7955   52.8939   31.8352 O   0  0  0  0  0  0
   -9.1887   52.6123   31.8252 C   0  0  0  0  0  0
   -7.5481   53.2061   29.0858 F   0  0  0  0  0  0
    5.1619   53.8935   25.8351 H   0  0  0  0  0  0
    4.1696   55.2895   25.3920 H   0  0  0  0  0  0
    4.6345   55.0603   27.0664 H   0  0  0  0  0  0
    2.4929   53.7421   24.3113 H   0  0  0  0  0  0
    0.4871   52.3890   24.6548 H   0  0  0  0  0  0
    3.4062   53.4945   28.4904 H   0  0  0  0  0  0
    2.0630   52.2923   30.0072 H   0  0  0  0  0  0
    0.3399   52.3564   29.6145 H   0  0  0  0  0  0
    1.2590   50.8971   29.2823 H   0  0  0  0  0  0
   -0.2886   50.7199   27.7939 H   0  0  0  0  0  0
   -1.9769   49.7832   27.4786 H   0  0  0  0  0  0
   -5.5496   48.5225   25.7812 H   0  0  0  0  0  0
   -6.0934   47.8913   27.3391 H   0  0  0  0  0  0
   -6.4720   49.5559   26.8801 H   0  0  0  0  0  0
   -3.8340   48.9190   29.4973 H   0  0  0  0  0  0
   -6.0105   51.5107   27.9167 H   0  0  0  0  0  0
   -4.9610   49.3696   31.4961 H   0  0  0  0  0  0
   -9.7037   53.3112   32.4843 H   0  0  0  0  0  0
   -9.4009   51.6017   32.1813 H   0  0  0  0  0  0
   -9.6136   52.7247   30.8249 H   0  0  0  0  0  0
  1  2  1  0  0  0
  1 29  1  0  0  0
  1 30  1  0  0  0
  1 31  1  0  0  0
  2  7  2  0  0  0
  2  3  1  0  0  0
  3  4  2  0  0  0
  3 32  1  0  0  0
  4  5  1  0  0  0
  4 33  1  0  0  0
  5  6  2  0  0  0
  5  9  1  0  0  0
  6  7  1  0  0  0
  6  8  1  0  0  0
  7 34  1  0  0  0
  8 35  1  0  0  0
  8 36  1  0  0  0
  8 37  1  0  0  0
  9 10  1  0  0  0
  9 38  1  0  0  0
 10 11  2  0  0  0
 10 12  1  0  0  0
 12 13  1  0  0  0
 12 39  1  0  0  0
 13 14  2  0  0  0
 13 15  1  0  0  0
 15 16  1  0  0  0
 15 17  1  0  0  0
 15 18  1  0  0  0
 17 40  1  0  0  0
 17 41  1  0  0  0
 17 42  1  0  0  0
 18 19  1  0  0  0
 18 43  1  0  0  0
 19 24  2  0  0  0
 19 20  1  0  0  0
 20 21  2  0  0  0
 20 44  1  0  0  0
 21 22  1  0  0  0
 21 28  1  0  0  0
 22 23  2  0  0  0
 22 26  1  0  0  0
 23 24  1  0  0  0
 23 25  1  0  0  0
 24 45  1  0  0  0
 26 27  1  0  0  0
 27 46  1  0  0  0
 27 47  1  0  0  0
 27 48  1  0  0  0
M  END
> <i_i_glide_confnum>
114

> <i_i_glide_lignum>
4600

> <i_i_glide_posenum>
284

> <i_i_glide_rotatable_bonds>
8

> <i_m_Source_File_Index>
1039

> <b_m_subgroup_collapsed>
0

> <r_i_docking_score>
-4.24911

> <r_i_glide_ecoul>
-6.82751

> <r_i_glide_eff_state_penalty>
0

> <r_i_glide_einternal>
5.29352

> <r_i_glide_emodel>
-43.7984

> <r_i_glide_energy>
-35.362

> <r_i_glide_erotb>
0.951942

> <r_i_glide_esite>
-0.390465

> <r_i_glide_evdw>
-28.5345

> <r_i_glide_gscore>
-4.24911

> <r_i_glide_hbond>
-0.168788

> <r_i_glide_ligand_efficiency>
-0.157375

> <r_i_glide_ligand_efficiency_ln>
-0.989124

> <r_i_glide_ligand_efficiency_sa>
-0.472124

> <r_i_glide_lipo>
-1.36392

> <r_i_glide_metal>
0

> <r_i_glide_rewards>
-0.827027

> <s_i_glide_gridfile>
wee1_glide-grid

> <s_m_Source_File>
wee1_decoys_glide_SP.sdf

> <s_m_Source_Path>
/Users/zhangxujun/Desktop

> <s_m_entry_id>
1314

> <s_m_entry_name>
wee1_decoys_glide_SP.1039

> <s_m_subgroup_title>
wee1_decoys_glide_SP

> <s_m_subgroupid>
wee1_decoys_glide_SP


$$$$
