ZINC52603393_2935
                    3D
 Schrodinger Suite 2024-2.
 74 79  0  0  1  0            999 V2000
    2.5062   53.5677   22.6051 C   0  0  0  0  0  0
    3.6048   52.9806   21.6793 C   0  0  2  0  0  0
    3.3342   51.4423   21.5084 C   0  0  0  0  0  0
    2.2011   51.0238   20.5803 C   0  0  0  0  0  0
    0.9255   50.6961   20.8547 C   0  0  0  0  0  0
    0.1887   50.6851   22.1288 C   0  0  0  0  0  0
   -1.1090   50.3197   22.1706 C   0  0  0  0  0  0
   -1.7550   49.9409   20.9212 C   0  0  0  0  0  0
   -1.0880   49.9415   19.7355 C   0  0  0  0  0  0
    0.2640   50.3105   19.6834 C   0  0  0  0  0  0
    1.0788   50.3587   18.6561 N   0  3  0  0  0  0
    2.4170   50.7792   19.0980 C   0  0  0  0  0  0
    5.0152   53.2527   22.3247 C   0  0  0  0  0  0
    5.8144   52.3407   22.4816 O   0  0  0  0  0  0
    5.3424   54.4970   22.6915 N   0  0  0  0  0  0
    6.6293   54.9278   23.2664 C   0  0  0  0  0  0
    6.5027   55.6964   24.6004 C   0  0  0  0  0  0
    5.9046   54.9025   25.7518 C   0  0  0  0  0  0
    4.5208   54.7744   25.9047 C   0  0  0  0  0  0
    4.0343   54.0844   27.0163 C   0  0  0  0  0  0
    4.9331   53.5427   27.9380 C   0  0  0  0  0  0
    6.3004   53.7057   27.7102 C   0  0  0  0  0  0
    6.7907   54.3764   26.6371 N   0  0  0  0  0  0
    3.5045   53.6968   20.3872 N   0  0  0  0  0  0
    4.4259   53.6992   19.3482 C   0  0  0  0  0  0
    5.5100   53.1260   19.3311 O   0  0  0  0  0  0
    3.9455   54.4616   18.3516 O   0  0  0  0  0  0
    4.7330   54.7862   17.2010 C   0  0  2  0  0  0
    5.8473   55.8396   17.5014 C   0  0  1  0  0  0
    6.6805   56.0948   16.2169 C   0  0  0  0  0  0
    5.7580   56.6353   15.0924 C   0  0  2  0  0  0
    5.1033   57.9651   15.5575 C   0  0  0  0  0  0
    4.2654   57.7161   16.8401 C   0  0  2  0  0  0
    5.2005   57.1748   17.9559 C   0  0  0  0  0  0
    3.1582   56.6715   16.5294 C   0  0  0  0  0  0
    3.8094   55.3359   16.0747 C   0  0  1  0  0  0
    4.6487   55.5917   14.7940 C   0  0  0  0  0  0
    2.5349   53.1220   23.6013 H   0  0  0  0  0  0
    2.6061   54.6470   22.7313 H   0  0  0  0  0  0
    1.5081   53.3941   22.2008 H   0  0  0  0  0  0
    4.2255   50.9254   21.1484 H   0  0  0  0  0  0
    3.1045   51.0007   22.4815 H   0  0  0  0  0  0
    0.6659   50.9591   23.0590 H   0  0  0  0  0  0
   -1.6528   50.3029   23.1054 H   0  0  0  0  0  0
   -2.7960   49.6471   20.9391 H   0  0  0  0  0  0
   -1.6183   49.6465   18.8406 H   0  0  0  0  0  0
    2.7064   51.6577   18.5210 H   0  0  0  0  0  0
    3.1041   49.9611   18.8823 H   0  0  0  0  0  0
    4.6904   55.2284   22.4577 H   0  0  0  0  0  0
    7.2108   55.4966   22.5382 H   0  0  0  0  0  0
    7.2346   54.0436   23.4841 H   0  0  0  0  0  0
    5.9051   56.5960   24.4816 H   0  0  0  0  0  0
    7.4869   56.0729   24.8808 H   0  0  0  0  0  0
    3.8399   55.2044   25.1853 H   0  0  0  0  0  0
    2.9705   53.9693   27.1618 H   0  0  0  0  0  0
    4.5806   53.0024   28.8035 H   0  0  0  0  0  0
    7.0269   53.3006   28.3996 H   0  0  0  0  0  0
    2.6264   54.1756   20.1966 H   0  0  0  0  0  0
    5.1888   53.8543   16.8591 H   0  0  0  0  0  0
    6.5080   55.4668   18.2848 H   0  0  0  0  0  0
    7.4840   56.8052   16.4213 H   0  0  0  0  0  0
    7.1688   55.1734   15.8958 H   0  0  0  0  0  0
    6.3449   56.8144   14.1916 H   0  0  0  0  0  0
    5.8673   58.7212   15.7490 H   0  0  0  0  0  0
    4.4687   58.3733   14.7685 H   0  0  0  0  0  0
    3.8084   58.6544   17.1616 H   0  0  0  0  0  0
    4.6477   57.0178   18.8813 H   0  0  0  0  0  0
    5.9700   57.9121   18.1895 H   0  0  0  0  0  0
    2.4887   57.0514   15.7568 H   0  0  0  0  0  0
    2.5326   56.4997   17.4060 H   0  0  0  0  0  0
    3.0297   54.6061   15.8525 H   0  0  0  0  0  0
    5.0899   54.6581   14.4385 H   0  0  0  0  0  0
    4.0049   55.9456   13.9866 H   0  0  0  0  0  0
    0.8444   50.1189   17.6962 H   0  0  0  0  0  0
  1  2  1  0  0  0
  1 38  1  0  0  0
  1 39  1  0  0  0
  1 40  1  0  0  0
  2  3  1  0  0  0
  2 13  1  0  0  0
  2 24  1  0  0  0
  3  4  1  0  0  0
  3 41  1  0  0  0
  3 42  1  0  0  0
  4 12  1  0  0  0
  4  5  2  0  0  0
  5 10  1  0  0  0
  5  6  1  0  0  0
  6  7  2  0  0  0
  6 43  1  0  0  0
  7  8  1  0  0  0
  7 44  1  0  0  0
  8  9  2  0  0  0
  8 45  1  0  0  0
  9 10  1  0  0  0
  9 46  1  0  0  0
 10 11  2  0  0  0
 11 12  1  0  0  0
 11 74  1  0  0  0
 12 47  1  0  0  0
 12 48  1  0  0  0
 13 14  2  0  0  0
 13 15  1  0  0  0
 15 16  1  0  0  0
 15 49  1  0  0  0
 16 17  1  0  0  0
 16 50  1  0  0  0
 16 51  1  0  0  0
 17 18  1  0  0  0
 17 52  1  0  0  0
 17 53  1  0  0  0
 18 23  2  0  0  0
 18 19  1  0  0  0
 19 20  2  0  0  0
 19 54  1  0  0  0
 20 21  1  0  0  0
 20 55  1  0  0  0
 21 22  2  0  0  0
 21 56  1  0  0  0
 22 23  1  0  0  0
 22 57  1  0  0  0
 24 25  1  0  0  0
 24 58  1  0  0  0
 25 26  2  0  0  0
 25 27  1  0  0  0
 27 28  1  0  0  0
 28 36  1  0  0  0
 28 29  1  0  0  0
 28 59  1  0  0  0
 29 34  1  0  0  0
 29 30  1  0  0  0
 29 60  1  0  0  0
 30 31  1  0  0  0
 30 61  1  0  0  0
 30 62  1  0  0  0
 31 37  1  0  0  0
 31 32  1  0  0  0
 31 63  1  0  0  0
 32 33  1  0  0  0
 32 64  1  0  0  0
 32 65  1  0  0  0
 33 34  1  0  0  0
 33 35  1  0  0  0
 33 66  1  0  0  0
 34 67  1  0  0  0
 34 68  1  0  0  0
 35 36  1  0  0  0
 35 69  1  0  0  0
 35 70  1  0  0  0
 36 37  1  0  0  0
 36 71  1  0  0  0
 37 72  1  0  0  0
 37 73  1  0  0  0
M  CHG  1  11   1
M  END
> <i_i_glide_confnum>
14

> <i_i_glide_lignum>
2936

> <i_i_glide_posenum>
130

> <i_i_glide_rotatable_bonds>
11

> <i_m_Source_File_Index>
1279

> <b_m_subgroup_collapsed>
0

> <r_i_docking_score>
-5.86318

> <r_i_glide_ecoul>
-5.72186

> <r_i_glide_eff_state_penalty>
0

> <r_i_glide_einternal>
7.72029

> <r_i_glide_emodel>
-52.6607

> <r_i_glide_energy>
-40.3573

> <r_i_glide_erotb>
0.649423

> <r_i_glide_esite>
-0.0831849

> <r_i_glide_evdw>
-34.6354

> <r_i_glide_gscore>
-5.86318

> <r_i_glide_hbond>
-0.380763

> <r_i_glide_ligand_efficiency>
-0.158464

> <r_i_glide_ligand_efficiency_ln>
-1.27159

> <r_i_glide_ligand_efficiency_sa>
-0.528039

> <r_i_glide_lipo>
-2.34637

> <r_i_glide_metal>
0

> <r_i_glide_rewards>
-1.11224

> <s_i_glide_gridfile>
wee1_glide-grid

> <s_m_Source_File>
wee1_decoys_glide_SP.sdf

> <s_m_Source_Path>
/Users/zhangxujun/Desktop

> <s_m_entry_id>
1554

> <s_m_entry_name>
wee1_decoys_glide_SP.1279

> <s_m_subgroup_title>
wee1_decoys_glide_SP

> <s_m_subgroupid>
wee1_decoys_glide_SP


$$$$
