ZINC33113665_1031
                    3D
 Schrodinger Suite 2024-2.
 55 57  0  0  1  0            999 V2000
    5.0284   54.7105   29.1075 C   0  0  0  0  0  0
    5.9710   54.8826   27.9114 C   0  0  0  0  0  0
    5.2686   54.5216   26.7329 O   0  0  0  0  0  0
    5.7617   54.7692   25.5087 C   0  0  0  0  0  0
    6.8551   55.3032   25.3024 O   0  0  0  0  0  0
    4.8574   54.2970   24.4335 C   0  0  0  0  0  0
    3.5046   53.7856   24.5971 C   0  0  0  0  0  0
    2.6897   53.6976   25.7508 C   0  0  0  0  0  0
    1.4125   53.1519   25.6888 C   0  0  0  0  0  0
    0.8935   52.6744   24.4976 C   0  0  0  0  0  0
    1.6606   52.7032   23.3384 C   0  0  0  0  0  0
    2.9356   53.2977   23.3795 C   0  0  0  0  0  0
    4.0141   53.5238   22.0335 S   0  0  0  0  0  0
    5.1886   54.3154   23.0670 C   0  0  0  0  0  0
    6.3522   54.8976   22.5583 N   0  0  0  0  0  0
    6.6993   55.2965   21.3147 C   0  0  0  0  0  0
    7.7274   55.9484   21.1704 O   0  0  0  0  0  0
    5.8955   54.9535   20.0583 C   0  0  0  0  0  0
    1.2301   52.1042   22.1760 O   0  0  0  0  0  0
    1.7586   50.7898   21.9035 C   0  0  1  0  0  0
    2.7810   50.9134   21.5462 H   0  0  0  0  0  0
    1.7704   49.8386   23.1311 C   0  0  0  0  0  0
    0.9476   50.1234   20.7725 C   0  0  0  0  0  0
   -0.1475   50.5696   20.4219 O   0  0  0  0  0  0
    1.5198   49.0207   20.2445 N   0  0  0  0  0  0
    0.9581   48.1346   19.3147 C   0  0  0  0  0  0
    1.7474   47.8490   18.2001 C   0  0  0  0  0  0
    1.3096   46.9523   17.2287 C   0  0  0  0  0  0
    0.0765   46.3212   17.3742 C   0  0  0  0  0  0
   -0.7108   46.5794   18.4964 C   0  0  0  0  0  0
   -0.2818   47.4774   19.4808 C   0  0  0  0  0  0
   -1.1490   47.6441   20.7232 C   0  0  0  0  0  0
   -0.8693   51.9513   24.4728 Br  0  0  0  0  0  0
    5.5056   55.0432   30.0279 H   0  0  0  0  0  0
    4.1174   55.2947   28.9788 H   0  0  0  0  0  0
    4.7447   53.6657   29.2374 H   0  0  0  0  0  0
    6.8571   54.2579   28.0300 H   0  0  0  0  0  0
    6.3046   55.9178   27.8474 H   0  0  0  0  0  0
    3.0208   54.0548   26.7100 H   0  0  0  0  0  0
    0.8091   53.0994   26.5846 H   0  0  0  0  0  0
    6.9859   55.2159   23.2813 H   0  0  0  0  0  0
    4.8658   55.2975   20.1215 H   0  0  0  0  0  0
    6.3429   55.4304   19.1865 H   0  0  0  0  0  0
    5.8994   53.8791   19.8771 H   0  0  0  0  0  0
    2.2567   48.8972   22.8833 H   0  0  0  0  0  0
    2.3100   50.2495   23.9787 H   0  0  0  0  0  0
    0.7639   49.6052   23.4773 H   0  0  0  0  0  0
    2.4997   48.8747   20.4344 H   0  0  0  0  0  0
    2.7044   48.3350   18.0801 H   0  0  0  0  0  0
    1.9295   46.7555   16.3660 H   0  0  0  0  0  0
   -0.2645   45.6264   16.6204 H   0  0  0  0  0  0
   -1.6570   46.0697   18.6034 H   0  0  0  0  0  0
   -0.5401   47.7867   21.6158 H   0  0  0  0  0  0
   -1.8178   48.4988   20.6164 H   0  0  0  0  0  0
   -1.7516   46.7540   20.9062 H   0  0  0  0  0  0
  1  2  1  0  0  0
  1 34  1  0  0  0
  1 35  1  0  0  0
  1 36  1  0  0  0
  2  3  1  0  0  0
  2 37  1  0  0  0
  2 38  1  0  0  0
  3  4  1  0  0  0
  4  5  2  0  0  0
  4  6  1  0  0  0
  6 14  2  0  0  0
  6  7  1  0  0  0
  7 12  2  0  0  0
  7  8  1  0  0  0
  8  9  2  0  0  0
  8 39  1  0  0  0
  9 10  1  0  0  0
  9 40  1  0  0  0
 10 11  2  0  0  0
 10 33  1  0  0  0
 11 12  1  0  0  0
 11 19  1  0  0  0
 12 13  1  0  0  0
 13 14  1  0  0  0
 14 15  1  0  0  0
 15 16  1  0  0  0
 15 41  1  0  0  0
 16 17  2  0  0  0
 16 18  1  0  0  0
 18 42  1  0  0  0
 18 43  1  0  0  0
 18 44  1  0  0  0
 19 20  1  0  0  0
 20 21  1  0  0  0
 20 22  1  0  0  0
 20 23  1  0  0  0
 22 45  1  0  0  0
 22 46  1  0  0  0
 22 47  1  0  0  0
 23 24  2  0  0  0
 23 25  1  0  0  0
 25 26  1  0  0  0
 25 48  1  0  0  0
 26 31  2  0  0  0
 26 27  1  0  0  0
 27 28  2  0  0  0
 27 49  1  0  0  0
 28 29  1  0  0  0
 28 50  1  0  0  0
 29 30  2  0  0  0
 29 51  1  0  0  0
 30 31  1  0  0  0
 30 52  1  0  0  0
 31 32  1  0  0  0
 32 53  1  0  0  0
 32 54  1  0  0  0
 32 55  1  0  0  0
M  END
> <i_i_glide_confnum>
173

> <i_i_glide_lignum>
1032

> <i_i_glide_posenum>
352

> <i_i_glide_rotatable_bonds>
10

> <i_m_Source_File_Index>
4168

> <b_m_subgroup_collapsed>
0

> <r_i_docking_score>
-4.45339

> <r_i_glide_ecoul>
-4.94503

> <r_i_glide_eff_state_penalty>
0

> <r_i_glide_einternal>
11.4366

> <r_i_glide_emodel>
-51.008

> <r_i_glide_energy>
-48.5468

> <r_i_glide_erotb>
0.609213

> <r_i_glide_esite>
-0.013235

> <r_i_glide_evdw>
-43.6017

> <r_i_glide_gscore>
-4.45339

> <r_i_glide_hbond>
-0.3672

> <r_i_glide_ligand_efficiency>
-0.139169

> <r_i_glide_ligand_efficiency_ln>
-0.997236

> <r_i_glide_ligand_efficiency_sa>
-0.441833

> <r_i_glide_lipo>
-2.05985

> <r_i_glide_metal>
0

> <r_i_glide_rewards>
0.299517

> <s_i_glide_gridfile>
wee1_glide-grid

> <s_m_Source_File>
wee1_decoys_glide_SP.sdf

> <s_m_Source_Path>
/Users/zhangxujun/Desktop

> <s_m_entry_id>
4443

> <s_m_entry_name>
wee1_decoys_glide_SP.4168

> <s_m_subgroup_title>
wee1_decoys_glide_SP

> <s_m_subgroupid>
wee1_decoys_glide_SP


$$$$
