ZINC13360585_2019
                    3D
 Schrodinger Suite 2024-2.
 54 56  0  0  1  0            999 V2000
   -5.9856   49.9232   25.7635 C   0  0  0  0  0  0
   -5.2260   48.9337   25.1435 C   0  0  0  0  0  0
   -4.3953   48.1171   25.9122 C   0  0  0  0  0  0
   -4.3444   48.2741   27.2960 C   0  0  0  0  0  0
   -5.0980   49.2656   27.9111 C   0  0  0  0  0  0
   -5.9214   50.1036   27.1495 C   0  0  0  0  0  0
   -6.7016   51.1975   27.7621 C   0  0  0  0  0  0
   -6.4808   51.7510   28.9761 C   0  0  0  0  0  0
   -7.3209   52.8909   29.5764 C   0  0  0  0  0  0
   -8.2803   53.2961   28.8812 O   0  0  0  0  0  0
   -6.8955   53.2963   30.6805 O   0  5  0  0  0  0
   -3.3386   46.8921   25.1456 S   0  0  0  0  0  0
   -3.3611   45.6963   25.9932 O   0  0  0  0  0  0
   -3.6659   46.7873   23.7189 O   0  0  0  0  0  0
   -1.6957   47.5374   25.2816 N   0  0  0  0  0  0
   -1.1523   48.5343   24.4621 C   0  0  0  0  0  0
    0.2193   48.7704   24.5587 C   0  0  0  0  0  0
    0.8269   49.7252   23.7485 C   0  0  0  0  0  0
    0.0529   50.4726   22.8585 C   0  0  0  0  0  0
   -1.3258   50.2606   22.7809 C   0  0  0  0  0  0
   -1.9240   49.2908   23.5753 C   0  0  0  0  0  0
    0.8336   51.7135   21.8270 S   0  0  0  0  0  0
    1.9792   50.9973   21.2504 O   0  0  0  0  0  0
   -0.2122   52.0962   20.8720 O   0  0  0  0  0  0
    1.1557   52.8538   23.1345 N   0  0  0  0  0  0
    2.3228   53.3315   23.2998 C   0  0  0  0  0  0
    3.3862   53.0852   22.4448 N   0  0  0  0  0  0
    4.5302   53.9285   22.1229 C   0  0  0  0  0  0
    5.6274   53.9259   23.1996 C   0  0  0  0  0  0
    5.2676   54.5402   24.5693 C   0  0  0  0  0  0
    3.9614   54.0784   25.2394 C   0  0  0  0  0  0
    2.6482   54.2832   24.4472 C   0  0  0  0  0  0
   -6.6142   50.5593   25.1569 H   0  0  0  0  0  0
   -5.2770   48.8174   24.0703 H   0  0  0  0  0  0
   -3.6955   47.6519   27.8963 H   0  0  0  0  0  0
   -5.0273   49.3742   28.9834 H   0  0  0  0  0  0
   -7.5302   51.5682   27.1714 H   0  0  0  0  0  0
   -5.6603   51.3903   29.5802 H   0  0  0  0  0  0
   -1.1804   47.2904   26.1184 H   0  0  0  0  0  0
    0.8202   48.1941   25.2491 H   0  0  0  0  0  0
    1.8947   49.8804   23.8132 H   0  0  0  0  0  0
   -1.9391   50.8401   22.1069 H   0  0  0  0  0  0
   -2.9879   49.1471   23.4917 H   0  0  0  0  0  0
    4.9465   53.6521   21.1527 H   0  0  0  0  0  0
    4.1410   54.9417   22.0111 H   0  0  0  0  0  0
    5.9604   52.8969   23.3315 H   0  0  0  0  0  0
    6.4972   54.4556   22.8074 H   0  0  0  0  0  0
    6.0926   54.3433   25.2562 H   0  0  0  0  0  0
    5.2380   55.6254   24.4810 H   0  0  0  0  0  0
    3.8716   54.6098   26.1898 H   0  0  0  0  0  0
    4.0492   53.0315   25.5232 H   0  0  0  0  0  0
    2.5802   55.3031   24.0837 H   0  0  0  0  0  0
    1.8414   54.1946   25.1755 H   0  0  0  0  0  0
    3.1514   52.4419   21.6945 H   0  0  0  0  0  0
  1  6  2  0  0  0
  1  2  1  0  0  0
  1 33  1  0  0  0
  2  3  2  0  0  0
  2 34  1  0  0  0
  3  4  1  0  0  0
  3 12  1  0  0  0
  4  5  2  0  0  0
  4 35  1  0  0  0
  5  6  1  0  0  0
  5 36  1  0  0  0
  6  7  1  0  0  0
  7  8  2  0  0  0
  7 37  1  0  0  0
  8  9  1  0  0  0
  8 38  1  0  0  0
  9 10  2  0  0  0
  9 11  1  0  0  0
 12 13  2  0  0  0
 12 14  2  0  0  0
 12 15  1  0  0  0
 15 16  1  0  0  0
 15 39  1  0  0  0
 16 21  2  0  0  0
 16 17  1  0  0  0
 17 18  2  0  0  0
 17 40  1  0  0  0
 18 19  1  0  0  0
 18 41  1  0  0  0
 19 20  2  0  0  0
 19 22  1  0  0  0
 20 21  1  0  0  0
 20 42  1  0  0  0
 21 43  1  0  0  0
 22 23  2  0  0  0
 22 24  2  0  0  0
 22 25  1  0  0  0
 25 26  2  0  0  0
 26 32  1  0  0  0
 26 27  1  0  0  0
 27 28  1  0  0  0
 27 54  1  0  0  0
 28 29  1  0  0  0
 28 44  1  0  0  0
 28 45  1  0  0  0
 29 30  1  0  0  0
 29 46  1  0  0  0
 29 47  1  0  0  0
 30 31  1  0  0  0
 30 48  1  0  0  0
 30 49  1  0  0  0
 31 32  1  0  0  0
 31 50  1  0  0  0
 31 51  1  0  0  0
 32 52  1  0  0  0
 32 53  1  0  0  0
M  CHG  1  11  -1
M  END
> <i_i_glide_confnum>
31

> <i_i_glide_lignum>
2020

> <i_i_glide_posenum>
392

> <i_i_glide_rotatable_bonds>
7

> <i_m_Source_File_Index>
4406

> <b_m_subgroup_collapsed>
0

> <r_i_docking_score>
-4.21653

> <r_i_glide_ecoul>
-9.33963

> <r_i_glide_eff_state_penalty>
0

> <r_i_glide_einternal>
8.21901

> <r_i_glide_emodel>
-49.4161

> <r_i_glide_energy>
-42.284

> <r_i_glide_erotb>
0.624198

> <r_i_glide_esite>
-0.303826

> <r_i_glide_evdw>
-32.9444

> <r_i_glide_gscore>
-4.21653

> <r_i_glide_hbond>
-0.297527

> <r_i_glide_ligand_efficiency>
-0.131767

> <r_i_glide_ligand_efficiency_ln>
-0.944197

> <r_i_glide_ligand_efficiency_sa>
-0.418333

> <r_i_glide_lipo>
-1.25871

> <r_i_glide_metal>
0

> <r_i_glide_rewards>
0.0674919

> <s_i_glide_gridfile>
wee1_glide-grid

> <s_m_Source_File>
wee1_decoys_glide_SP.sdf

> <s_m_Source_Path>
/Users/zhangxujun/Desktop

> <s_m_entry_id>
4681

> <s_m_entry_name>
wee1_decoys_glide_SP.4406

> <s_m_subgroup_title>
wee1_decoys_glide_SP

> <s_m_subgroupid>
wee1_decoys_glide_SP


$$$$
