ZINC08740554_4324
                    3D
 Schrodinger Suite 2024-2.
 72 76  0  0  1  0            999 V2000
   -2.2455   49.4174   24.8557 C   0  0  0  0  0  0
   -0.9665   50.0532   24.2507 C   0  0  2  0  0  0
    0.3050   49.3591   24.8345 C   0  0  0  0  0  0
    0.5219   49.5586   26.3516 C   0  0  0  0  0  0
    0.3046   51.0029   26.8348 C   0  0  0  0  0  0
    0.7217   51.2965   28.0035 N   0  0  0  0  0  0
    0.4551   52.6234   28.4071 O   0  0  0  0  0  0
    0.8783   52.7873   29.7666 C   0  0  0  0  0  0
    2.4108   52.8964   29.8678 C   0  0  0  0  0  0
    3.0256   52.2607   30.7251 O   0  0  0  0  0  0
    3.0047   53.7282   29.0000 N   0  0  0  0  0  0
    4.4438   53.9546   28.8721 C   0  0  0  0  0  0
    4.9166   54.2508   27.4499 C   0  0  0  0  0  0
    4.0969   54.0956   26.3203 C   0  0  0  0  0  0
    4.5879   54.4226   25.0546 C   0  0  0  0  0  0
    5.8953   54.8970   24.9492 C   0  0  0  0  0  0
    6.7044   55.0614   26.0246 N   0  0  0  0  0  0
    6.2125   54.7375   27.2471 C   0  0  0  0  0  0
   -0.3501   51.8794   25.9038 C   0  0  0  0  0  0
   -0.8965   51.5251   24.7205 C   0  0  0  0  0  0
   -1.4362   52.5456   23.7337 C   0  0  0  0  0  0
   -0.5680   52.4894   22.4572 C   0  0  0  0  0  0
   -0.1651   51.0669   21.9849 C   0  0  1  0  0  0
    0.8372   50.9072   22.3825 H   0  0  0  0  0  0
   -1.0419   49.9828   22.6711 C   0  0  1  0  0  0
   -2.0661   50.1962   22.3568 H   0  0  0  0  0  0
   -0.6996   48.5884   22.1192 C   0  0  0  0  0  0
   -0.8052   48.5020   20.5924 C   0  0  0  0  0  0
    0.0277   49.5608   19.8026 C   0  0  1  0  0  0
   -0.0451   50.9941   20.4258 C   0  0  2  0  0  0
   -0.9354   51.4875   20.0307 H   0  0  0  0  0  0
    1.2143   51.7185   19.8844 C   0  0  0  0  0  0
    2.1688   50.6443   19.3304 C   0  0  0  0  0  0
    1.5814   49.2838   19.7592 C   0  0  2  0  0  0
    1.9861   48.1839   18.8554 C   0  0  0  0  0  0
    2.3051   47.2967   18.0803 C   0  0  0  0  0  0
    2.1468   48.9569   21.0142 O   0  0  0  0  0  0
   -0.6070   49.6258   18.3722 C   0  0  0  0  0  0
   -2.3072   48.3525   24.6315 H   0  0  0  0  0  0
   -2.2795   49.5116   25.9425 H   0  0  0  0  0  0
   -3.1512   49.8839   24.4669 H   0  0  0  0  0  0
    0.2710   48.2834   24.6546 H   0  0  0  0  0  0
    1.1954   49.7146   24.3132 H   0  0  0  0  0  0
    1.5095   49.2109   26.6243 H   0  0  0  0  0  0
   -0.1365   48.8894   26.8817 H   0  0  0  0  0  0
    0.4429   53.7040   30.1632 H   0  0  0  0  0  0
    0.5010   51.9838   30.4032 H   0  0  0  0  0  0
    2.4110   54.2944   28.4132 H   0  0  0  0  0  0
    4.7051   54.8041   29.5065 H   0  0  0  0  0  0
    5.0131   53.1031   29.2539 H   0  0  0  0  0  0
    3.0892   53.7148   26.4090 H   0  0  0  0  0  0
    3.9705   54.3014   24.1765 H   0  0  0  0  0  0
    6.3152   55.1541   23.9873 H   0  0  0  0  0  0
    6.8816   54.8897   28.0815 H   0  0  0  0  0  0
   -0.3345   52.9263   26.1264 H   0  0  0  0  0  0
   -2.4769   52.3048   23.5101 H   0  0  0  0  0  0
   -1.4503   53.5607   24.1319 H   0  0  0  0  0  0
    0.3045   53.1462   22.5059 H   0  0  0  0  0  0
   -1.2548   52.8965   21.7166 H   0  0  0  0  0  0
    0.3010   48.3245   22.4359 H   0  0  0  0  0  0
   -1.3402   47.8330   22.5745 H   0  0  0  0  0  0
   -1.8636   48.6557   20.3739 H   0  0  0  0  0  0
   -0.5882   47.4945   20.2357 H   0  0  0  0  0  0
    1.6892   52.3627   20.6259 H   0  0  0  0  0  0
    0.9312   52.3828   19.0657 H   0  0  0  0  0  0
    3.1986   50.7892   19.6648 H   0  0  0  0  0  0
    2.2042   50.7326   18.2414 H   0  0  0  0  0  0
    2.6206   46.5636   17.3737 H   0  0  0  0  0  0
    2.0547   49.7230   21.5821 H   0  0  0  0  0  0
   -1.6444   49.9603   18.4032 H   0  0  0  0  0  0
   -0.0772   50.3125   17.7121 H   0  0  0  0  0  0
   -0.6066   48.6511   17.8830 H   0  0  0  0  0  0
  1  2  1  0  0  0
  1 39  1  0  0  0
  1 40  1  0  0  0
  1 41  1  0  0  0
  2 20  1  0  0  0
  2 25  1  0  0  0
  2  3  1  0  0  0
  3  4  1  0  0  0
  3 42  1  0  0  0
  3 43  1  0  0  0
  4  5  1  0  0  0
  4 44  1  0  0  0
  4 45  1  0  0  0
  5  6  2  0  0  0
  5 19  1  0  0  0
  6  7  1  0  0  0
  7  8  1  0  0  0
  8  9  1  0  0  0
  8 46  1  0  0  0
  8 47  1  0  0  0
  9 10  2  0  0  0
  9 11  1  0  0  0
 11 12  1  0  0  0
 11 48  1  0  0  0
 12 13  1  0  0  0
 12 49  1  0  0  0
 12 50  1  0  0  0
 13 18  2  0  0  0
 13 14  1  0  0  0
 14 15  2  0  0  0
 14 51  1  0  0  0
 15 16  1  0  0  0
 15 52  1  0  0  0
 16 17  2  0  0  0
 16 53  1  0  0  0
 17 18  1  0  0  0
 18 54  1  0  0  0
 19 20  2  0  0  0
 19 55  1  0  0  0
 20 21  1  0  0  0
 21 22  1  0  0  0
 21 56  1  0  0  0
 21 57  1  0  0  0
 22 23  1  0  0  0
 22 58  1  0  0  0
 22 59  1  0  0  0
 23 24  1  0  0  0
 23 30  1  0  0  0
 23 25  1  0  0  0
 25 26  1  0  0  0
 25 27  1  0  0  0
 27 28  1  0  0  0
 27 60  1  0  0  0
 27 61  1  0  0  0
 28 29  1  0  0  0
 28 62  1  0  0  0
 28 63  1  0  0  0
 29 34  1  0  0  0
 29 30  1  0  0  0
 29 38  1  0  0  0
 30 31  1  0  0  0
 30 32  1  0  0  0
 32 33  1  0  0  0
 32 64  1  0  0  0
 32 65  1  0  0  0
 33 34  1  0  0  0
 33 66  1  0  0  0
 33 67  1  0  0  0
 34 35  1  0  0  0
 34 37  1  0  0  0
 35 36  3  0  0  0
 36 68  1  0  0  0
 37 69  1  0  0  0
 38 70  1  0  0  0
 38 71  1  0  0  0
 38 72  1  0  0  0
M  END
> <i_i_glide_confnum>
77

> <i_i_glide_lignum>
4325

> <i_i_glide_posenum>
155

> <i_i_glide_rotatable_bonds>
8

> <i_m_Source_File_Index>
1018

> <b_m_subgroup_collapsed>
0

> <r_i_docking_score>
-6.05742

> <r_i_glide_ecoul>
-5.05323

> <r_i_glide_eff_state_penalty>
0

> <r_i_glide_einternal>
10.7476

> <r_i_glide_emodel>
-57.6427

> <r_i_glide_energy>
-47.8515

> <r_i_glide_erotb>
0.53693

> <r_i_glide_esite>
-0.0492526

> <r_i_glide_evdw>
-42.7983

> <r_i_glide_gscore>
-6.05742

> <r_i_glide_hbond>
-0.536467

> <r_i_glide_ligand_efficiency>
-0.173069

> <r_i_glide_ligand_efficiency_ln>
-1.32974

> <r_i_glide_ligand_efficiency_sa>
-0.566121

> <r_i_glide_lipo>
-1.92049

> <r_i_glide_metal>
0

> <r_i_glide_rewards>
-1.19024

> <s_i_glide_gridfile>
wee1_glide-grid

> <s_m_Source_File>
wee1_decoys_glide_SP.sdf

> <s_m_Source_Path>
/Users/zhangxujun/Desktop

> <s_m_entry_id>
1293

> <s_m_entry_name>
wee1_decoys_glide_SP.1018

> <s_m_subgroup_title>
wee1_decoys_glide_SP

> <s_m_subgroupid>
wee1_decoys_glide_SP


$$$$
