ZINC35402420_5598
                    3D
 Schrodinger Suite 2024-2.
 63 69  0  0  1  0            999 V2000
    7.1588   55.8459   24.4810 C   0  0  0  0  0  0
    6.6631   55.4422   25.7533 O   0  0  0  0  0  0
    5.4330   54.8279   25.7397 C   0  0  0  0  0  0
    4.8151   54.5695   26.8763 N   0  0  0  0  0  0
    3.6664   54.0667   26.4813 C   0  0  0  0  0  0
    3.6497   54.0205   25.0917 N   0  0  0  0  0  0
    4.8043   54.4967   24.6325 N   0  0  0  0  0  0
    2.6680   53.5840   24.1748 C   0  0  0  0  0  0
    3.0108   52.8973   23.0027 C   0  0  0  0  0  0
    2.0144   52.3628   22.1936 C   0  0  0  0  0  0
    0.6758   52.5295   22.5449 C   0  0  0  0  0  0
    0.3319   53.2986   23.6652 C   0  0  0  0  0  0
    1.3348   53.8464   24.4516 C   0  0  0  0  0  0
   -0.2815   52.0625   21.6425 N   0  0  0  0  0  0
   -1.5029   51.5299   21.8474 C   0  0  0  0  0  0
   -2.3234   51.6966   20.9439 O   0  0  0  0  0  0
   -1.9298   50.6797   23.0992 C   0  0  0  0  0  0
   -0.7573   50.2061   24.0316 C   0  0  0  0  0  0
   -1.3116   49.3699   25.2152 C   0  0  2  0  0  0
   -2.0305   48.1120   24.6708 C   0  0  0  0  0  0
   -3.2030   48.5436   23.7540 C   0  0  2  0  0  0
   -2.6514   49.3872   22.5745 C   0  0  0  0  0  0
   -4.2091   49.3987   24.5676 C   0  0  0  0  0  0
   -3.4987   50.6641   25.1147 C   0  0  1  0  0  0
   -2.3167   50.2363   26.0227 C   0  0  0  0  0  0
   -2.9598   51.5101   23.9314 C   0  0  0  0  0  0
    2.5981   53.6190   27.4466 C   0  0  0  0  0  0
    1.7884   52.4964   27.1732 C   0  0  0  0  0  0
    0.8239   52.0380   28.0787 C   0  0  0  0  0  0
    0.6972   52.7292   29.2739 C   0  0  0  0  0  0
    1.4631   53.8243   29.5575 C   0  0  0  0  0  0
    2.4210   54.3034   28.6662 C   0  0  0  0  0  0
    1.1044   54.3061   30.7771 O   0  0  0  0  0  0
    0.3173   53.2956   31.3516 C   0  0  0  0  0  0
   -0.1561   52.4958   30.3043 O   0  0  0  0  0  0
    8.0191   56.4963   24.6128 H   0  0  0  0  0  0
    7.4645   54.9864   23.8828 H   0  0  0  0  0  0
    6.4212   56.4230   23.9240 H   0  0  0  0  0  0
    4.0453   52.7498   22.7294 H   0  0  0  0  0  0
    2.2895   51.8256   21.2966 H   0  0  0  0  0  0
   -0.6973   53.5206   23.8948 H   0  0  0  0  0  0
    1.1044   54.4866   25.2855 H   0  0  0  0  0  0
   -0.0739   52.2758   20.6783 H   0  0  0  0  0  0
   -0.2166   51.0289   24.4836 H   0  0  0  0  0  0
   -0.0218   49.6270   23.4702 H   0  0  0  0  0  0
   -0.4929   49.0620   25.8690 H   0  0  0  0  0  0
   -1.3280   47.4826   24.1229 H   0  0  0  0  0  0
   -2.3971   47.5042   25.4998 H   0  0  0  0  0  0
   -3.7072   47.6577   23.3663 H   0  0  0  0  0  0
   -1.9674   48.7803   21.9782 H   0  0  0  0  0  0
   -3.4820   49.6369   21.9105 H   0  0  0  0  0  0
   -4.6219   48.8132   25.3907 H   0  0  0  0  0  0
   -5.0581   49.6812   23.9432 H   0  0  0  0  0  0
   -4.2071   51.2570   25.6954 H   0  0  0  0  0  0
   -1.8166   51.1142   26.4336 H   0  0  0  0  0  0
   -2.6918   49.6785   26.8803 H   0  0  0  0  0  0
   -3.7951   51.8301   23.3039 H   0  0  0  0  0  0
   -2.5131   52.4228   24.3227 H   0  0  0  0  0  0
    1.9043   51.9621   26.2455 H   0  0  0  0  0  0
    0.2154   51.1731   27.8555 H   0  0  0  0  0  0
    3.0210   55.1693   28.9057 H   0  0  0  0  0  0
   -0.4955   53.7005   31.9527 H   0  0  0  0  0  0
    0.9250   52.6814   32.0209 H   0  0  0  0  0  0
  1  2  1  0  0  0
  1 36  1  0  0  0
  1 37  1  0  0  0
  1 38  1  0  0  0
  2  3  1  0  0  0
  3  7  2  0  0  0
  3  4  1  0  0  0
  4  5  2  0  0  0
  5  6  1  0  0  0
  5 27  1  0  0  0
  6  7  1  0  0  0
  6  8  1  0  0  0
  8 13  2  0  0  0
  8  9  1  0  0  0
  9 10  2  0  0  0
  9 39  1  0  0  0
 10 11  1  0  0  0
 10 40  1  0  0  0
 11 12  2  0  0  0
 11 14  1  0  0  0
 12 13  1  0  0  0
 12 41  1  0  0  0
 13 42  1  0  0  0
 14 15  1  0  0  0
 14 43  1  0  0  0
 15 16  2  0  0  0
 15 17  1  0  0  0
 17 22  1  0  0  0
 17 26  1  0  0  0
 17 18  1  0  0  0
 18 19  1  0  0  0
 18 44  1  0  0  0
 18 45  1  0  0  0
 19 25  1  0  0  0
 19 20  1  0  0  0
 19 46  1  0  0  0
 20 21  1  0  0  0
 20 47  1  0  0  0
 20 48  1  0  0  0
 21 22  1  0  0  0
 21 23  1  0  0  0
 21 49  1  0  0  0
 22 50  1  0  0  0
 22 51  1  0  0  0
 23 24  1  0  0  0
 23 52  1  0  0  0
 23 53  1  0  0  0
 24 25  1  0  0  0
 24 26  1  0  0  0
 24 54  1  0  0  0
 25 55  1  0  0  0
 25 56  1  0  0  0
 26 57  1  0  0  0
 26 58  1  0  0  0
 27 32  2  0  0  0
 27 28  1  0  0  0
 28 29  2  0  0  0
 28 59  1  0  0  0
 29 30  1  0  0  0
 29 60  1  0  0  0
 30 35  1  0  0  0
 30 31  2  0  0  0
 31 32  1  0  0  0
 31 33  1  0  0  0
 32 61  1  0  0  0
 33 34  1  0  0  0
 34 35  1  0  0  0
 34 62  1  0  0  0
 34 63  1  0  0  0
M  END
> <i_i_glide_confnum>
210

> <i_i_glide_lignum>
5599

> <i_i_glide_posenum>
202

> <i_i_glide_rotatable_bonds>
6

> <i_m_Source_File_Index>
1326

> <b_m_subgroup_collapsed>
0

> <r_i_docking_score>
-3.27019

> <r_i_glide_ecoul>
-5.10368

> <r_i_glide_eff_state_penalty>
0

> <r_i_glide_einternal>
8.22269

> <r_i_glide_emodel>
-40.9854

> <r_i_glide_energy>
-42.9528

> <r_i_glide_erotb>
0.452792

> <r_i_glide_esite>
-0.0628521

> <r_i_glide_evdw>
-37.8491

> <r_i_glide_gscore>
-3.27019

> <r_i_glide_hbond>
-0.425991

> <r_i_glide_ligand_efficiency>
-0.0934339

> <r_i_glide_ligand_efficiency_ln>
-0.717879

> <r_i_glide_ligand_efficiency_sa>
-0.305629

> <r_i_glide_lipo>
-1.83532

> <r_i_glide_metal>
0

> <r_i_glide_rewards>
1.25919

> <s_i_glide_gridfile>
wee1_glide-grid

> <s_m_Source_File>
wee1_decoys_glide_SP.sdf

> <s_m_Source_Path>
/Users/zhangxujun/Desktop

> <s_m_entry_id>
1601

> <s_m_entry_name>
wee1_decoys_glide_SP.1326

> <s_m_subgroup_title>
wee1_decoys_glide_SP

> <s_m_subgroupid>
wee1_decoys_glide_SP


$$$$
