ZINC43640132_3888
                    3D
 Schrodinger Suite 2024-2.
 37 39  0  0  1  0            999 V2000
    2.7013   55.0815   29.1999 C   0  0  0  0  0  0
    3.8146   54.0229   29.1137 C   0  0  0  0  0  0
    4.6497   54.1376   27.8536 C   0  0  0  0  0  0
    6.0237   54.2901   27.7173 C   0  0  0  0  0  0
    6.4650   54.3799   26.3960 C   0  0  0  0  0  0
    5.4483   54.3178   25.4455 C   0  0  0  0  0  0
    3.9318   54.0952   26.2678 S   0  0  0  0  0  0
    5.5921   54.4538   23.9732 C   0  0  0  0  0  0
    4.7391   54.0971   22.8852 C   0  0  0  0  0  0
    5.4433   54.4689   21.7430 C   0  0  0  0  0  0
    6.6090   55.0295   22.1947 N   0  0  0  0  0  0
    6.7044   54.9995   23.5246 N   0  0  0  0  0  0
    7.6788   55.6470   21.4211 C   0  0  0  0  0  0
    5.1290   54.3972   20.4118 N   0  0  0  0  0  0
    3.3683   53.5104   22.8539 C   0  0  0  0  0  0
    3.1043   52.3762   22.0783 C   0  0  0  0  0  0
    1.8178   51.8423   22.0401 C   0  0  0  0  0  0
    0.7970   52.4474   22.7718 C   0  0  0  0  0  0
    1.0508   53.5866   23.5299 C   0  0  0  0  0  0
    2.3282   54.1320   23.5450 C   0  0  0  0  0  0
   -0.7976   51.7902   22.7269 Cl  0  0  0  0  0  0
    2.1139   54.9608   30.1096 H   0  0  0  0  0  0
    2.0094   55.0117   28.3606 H   0  0  0  0  0  0
    3.1077   56.0934   29.2037 H   0  0  0  0  0  0
    4.4500   54.1101   29.9958 H   0  0  0  0  0  0
    3.3678   53.0293   29.1680 H   0  0  0  0  0  0
    6.6936   54.3503   28.5637 H   0  0  0  0  0  0
    7.5034   54.5002   26.1336 H   0  0  0  0  0  0
    8.1703   54.8971   20.8044 H   0  0  0  0  0  0
    7.2542   56.4167   20.7772 H   0  0  0  0  0  0
    8.4154   56.1050   22.0810 H   0  0  0  0  0  0
    4.2264   54.0596   20.1052 H   0  0  0  0  0  0
    5.7688   54.6906   19.6886 H   0  0  0  0  0  0
    3.8961   51.9036   21.5141 H   0  0  0  0  0  0
    1.6181   50.9622   21.4470 H   0  0  0  0  0  0
    0.2559   54.0621   24.0841 H   0  0  0  0  0  0
    2.5099   55.0422   24.0960 H   0  0  0  0  0  0
  1  2  1  0  0  0
  1 22  1  0  0  0
  1 23  1  0  0  0
  1 24  1  0  0  0
  2  3  1  0  0  0
  2 25  1  0  0  0
  2 26  1  0  0  0
  3  7  1  0  0  0
  3  4  2  0  0  0
  4  5  1  0  0  0
  4 27  1  0  0  0
  5  6  2  0  0  0
  5 28  1  0  0  0
  6  7  1  0  0  0
  6  8  1  0  0  0
  8 12  2  0  0  0
  8  9  1  0  0  0
  9 10  2  0  0  0
  9 15  1  0  0  0
 10 11  1  0  0  0
 10 14  1  0  0  0
 11 12  1  0  0  0
 11 13  1  0  0  0
 13 29  1  0  0  0
 13 30  1  0  0  0
 13 31  1  0  0  0
 14 32  1  0  0  0
 14 33  1  0  0  0
 15 20  2  0  0  0
 15 16  1  0  0  0
 16 17  2  0  0  0
 16 34  1  0  0  0
 17 18  1  0  0  0
 17 35  1  0  0  0
 18 19  2  0  0  0
 18 21  1  0  0  0
 19 20  1  0  0  0
 19 36  1  0  0  0
 20 37  1  0  0  0
M  END
> <i_i_glide_confnum>
8

> <i_i_glide_lignum>
3889

> <i_i_glide_posenum>
236

> <i_i_glide_rotatable_bonds>
3

> <i_m_Source_File_Index>
1942

> <b_m_subgroup_collapsed>
0

> <r_i_docking_score>
-6.77942

> <r_i_glide_ecoul>
0.383863

> <r_i_glide_eff_state_penalty>
0

> <r_i_glide_einternal>
1.55937

> <r_i_glide_emodel>
-55.3282

> <r_i_glide_energy>
-39.0469

> <r_i_glide_erotb>
0.368965

> <r_i_glide_esite>
0

> <r_i_glide_evdw>
-39.4308

> <r_i_glide_gscore>
-6.77942

> <r_i_glide_hbond>
0

> <r_i_glide_ligand_efficiency>
-0.32283

> <r_i_glide_ligand_efficiency_ln>
-1.6762

> <r_i_glide_ligand_efficiency_sa>
-0.890663

> <r_i_glide_lipo>
-3.5243

> <r_i_glide_metal>
0

> <r_i_glide_rewards>
-1.71013

> <s_i_glide_gridfile>
wee1_glide-grid

> <s_m_Source_File>
wee1_decoys_glide_SP.sdf

> <s_m_Source_Path>
/Users/zhangxujun/Desktop

> <s_m_entry_id>
2217

> <s_m_entry_name>
wee1_decoys_glide_SP.1942

> <s_m_subgroup_title>
wee1_decoys_glide_SP

> <s_m_subgroupid>
wee1_decoys_glide_SP


$$$$
