ZINC08735181_3705
                    3D
 Schrodinger Suite 2024-2.
 57 61  0  0  1  0            999 V2000
    0.6528   46.8560   15.7214 C   0  0  0  0  0  0
    1.1775   47.6238   16.9486 C   0  0  2  0  0  0
    2.2200   47.3213   17.0781 H   0  0  0  0  0  0
    0.3534   47.3003   18.2114 C   0  0  0  0  0  0
    1.0289   47.8550   19.4826 C   0  0  0  0  0  0
    1.4529   49.3156   19.2636 C   0  0  0  0  0  0
    1.4861   49.8795   17.9740 C   0  0  0  0  0  0
    1.9043   51.5606   17.9958 S   0  0  0  0  0  0
    2.0766   51.5154   19.7122 C   0  0  0  0  0  0
    1.7647   50.2675   20.2713 C   0  0  0  0  0  0
    1.7218   50.0259   21.6947 C   0  0  0  0  0  0
    1.2167   50.8147   22.4900 O   0  0  0  0  0  0
    2.3043   48.8968   22.0817 N   0  0  0  0  0  0
    2.5249   52.6746   20.3151 N   0  0  0  0  0  0
    3.6427   52.7310   21.0678 C   0  0  0  0  0  0
    4.3841   51.7657   21.2805 O   0  0  0  0  0  0
    3.9638   54.1112   21.6454 C   0  0  0  0  0  0
    5.2737   54.1007   22.9099 S   0  0  0  0  0  0
    4.3427   54.0917   24.4199 C   0  0  0  0  0  0
    3.0443   53.9545   24.5370 N   0  0  0  0  0  0
    2.7612   53.7974   25.8922 N   0  0  0  0  0  0
    3.8947   53.8836   26.5489 C   0  0  0  0  0  0
    4.9314   54.0996   25.6639 N   0  0  0  0  0  0
    6.3629   54.2175   25.9054 C   0  0  0  0  0  0
    7.0028   55.5245   25.4849 C   0  0  0  0  0  0
    6.9157   55.1629   26.9480 C   0  0  0  0  0  0
    4.0777   53.6119   28.0392 C   0  0  0  0  0  0
    2.8277   53.8366   28.8715 C   0  0  0  0  0  0
    2.2576   55.0356   29.3039 C   0  0  0  0  0  0
    1.1045   54.8795   30.0805 C   0  0  0  0  0  0
    0.7442   53.5509   30.2301 C   0  0  0  0  0  0
    1.8385   52.4981   29.3979 S   0  0  0  0  0  0
    1.1415   49.1474   16.6829 C   0  0  0  0  0  0
   -0.3828   47.1148   15.4984 H   0  0  0  0  0  0
    1.2478   47.0762   14.8349 H   0  0  0  0  0  0
    0.6983   45.7777   15.8808 H   0  0  0  0  0  0
    0.2592   46.2190   18.3187 H   0  0  0  0  0  0
   -0.6733   47.6506   18.0977 H   0  0  0  0  0  0
    0.3500   47.7560   20.3305 H   0  0  0  0  0  0
    1.9059   47.2568   19.7229 H   0  0  0  0  0  0
    2.8990   48.4079   21.4306 H   0  0  0  0  0  0
    2.3438   48.6641   23.0678 H   0  0  0  0  0  0
    2.0594   53.5440   20.0812 H   0  0  0  0  0  0
    4.3215   54.7224   20.8175 H   0  0  0  0  0  0
    3.0610   54.5982   22.0145 H   0  0  0  0  0  0
    6.9018   53.2922   25.7218 H   0  0  0  0  0  0
    7.9039   55.4267   24.8822 H   0  0  0  0  0  0
    6.3579   56.3162   25.0989 H   0  0  0  0  0  0
    6.2247   55.6971   27.5951 H   0  0  0  0  0  0
    7.7948   54.8333   27.5011 H   0  0  0  0  0  0
    4.4368   52.5895   28.1685 H   0  0  0  0  0  0
    4.8652   54.2346   28.4578 H   0  0  0  0  0  0
    2.6819   56.0032   29.0756 H   0  0  0  0  0  0
    0.5521   55.7020   30.5128 H   0  0  0  0  0  0
   -0.0951   53.1390   30.7730 H   0  0  0  0  0  0
    1.8545   49.4047   15.8989 H   0  0  0  0  0  0
    0.1511   49.4496   16.3391 H   0  0  0  0  0  0
  1  2  1  0  0  0
  1 34  1  0  0  0
  1 35  1  0  0  0
  1 36  1  0  0  0
  2  3  1  0  0  0
  2 33  1  0  0  0
  2  4  1  0  0  0
  4  5  1  0  0  0
  4 37  1  0  0  0
  4 38  1  0  0  0
  5  6  1  0  0  0
  5 39  1  0  0  0
  5 40  1  0  0  0
  6 10  1  0  0  0
  6  7  2  0  0  0
  7  8  1  0  0  0
  7 33  1  0  0  0
  8  9  1  0  0  0
  9 10  2  0  0  0
  9 14  1  0  0  0
 10 11  1  0  0  0
 11 12  2  0  0  0
 11 13  1  0  0  0
 13 41  1  0  0  0
 13 42  1  0  0  0
 14 15  1  0  0  0
 14 43  1  0  0  0
 15 16  2  0  0  0
 15 17  1  0  0  0
 17 18  1  0  0  0
 17 44  1  0  0  0
 17 45  1  0  0  0
 18 19  1  0  0  0
 19 23  1  0  0  0
 19 20  2  0  0  0
 20 21  1  0  0  0
 21 22  2  0  0  0
 22 23  1  0  0  0
 22 27  1  0  0  0
 23 24  1  0  0  0
 24 26  1  0  0  0
 24 25  1  0  0  0
 24 46  1  0  0  0
 25 26  1  0  0  0
 25 47  1  0  0  0
 25 48  1  0  0  0
 26 49  1  0  0  0
 26 50  1  0  0  0
 27 28  1  0  0  0
 27 51  1  0  0  0
 27 52  1  0  0  0
 28 32  1  0  0  0
 28 29  2  0  0  0
 29 30  1  0  0  0
 29 53  1  0  0  0
 30 31  2  0  0  0
 30 54  1  0  0  0
 31 32  1  0  0  0
 31 55  1  0  0  0
 33 56  1  0  0  0
 33 57  1  0  0  0
M  END
> <i_i_glide_confnum>
297

> <i_i_glide_lignum>
3706

> <i_i_glide_posenum>
273

> <i_i_glide_rotatable_bonds>
9

> <i_m_Source_File_Index>
2814

> <b_m_subgroup_collapsed>
0

> <r_i_docking_score>
-7.11674

> <r_i_glide_ecoul>
-9.98323

> <r_i_glide_eff_state_penalty>
0

> <r_i_glide_einternal>
12.326

> <r_i_glide_emodel>
-75.0257

> <r_i_glide_energy>
-57.6041

> <r_i_glide_erotb>
0.683921

> <r_i_glide_esite>
-0.0275931

> <r_i_glide_evdw>
-47.6209

> <r_i_glide_gscore>
-7.11674

> <r_i_glide_hbond>
-0.654483

> <r_i_glide_ligand_efficiency>
-0.222398

> <r_i_glide_ligand_efficiency_ln>
-1.59363

> <r_i_glide_ligand_efficiency_sa>
-0.70607

> <r_i_glide_lipo>
-1.9889

> <r_i_glide_metal>
0

> <r_i_glide_rewards>
-1.25116

> <s_i_glide_gridfile>
wee1_glide-grid

> <s_m_Source_File>
wee1_decoys_glide_SP.sdf

> <s_m_Source_Path>
/Users/zhangxujun/Desktop

> <s_m_entry_id>
3089

> <s_m_entry_name>
wee1_decoys_glide_SP.2814

> <s_m_subgroup_title>
wee1_decoys_glide_SP

> <s_m_subgroupid>
wee1_decoys_glide_SP


$$$$
