ZINC64109231_3956
                    3D
 Schrodinger Suite 2024-2.
 49 52  0  0  1  0            999 V2000
   -0.4439   51.2234   27.5243 C   0  0  0  0  0  0
   -0.0327   52.6612   27.8843 C   0  0  2  0  0  0
   -0.7306   53.3389   27.3975 H   0  0  0  0  0  0
    1.3934   52.9660   27.5296 C   0  0  0  0  0  0
    2.0819   52.9040   28.6891 C   0  0  0  0  0  0
    1.2651   52.6361   29.7379 O   0  0  0  0  0  0
   -0.0799   52.9165   29.3086 N   0  0  0  0  0  0
    3.5681   52.9958   29.0672 C   0  0  0  0  0  0
    3.9656   54.4080   29.5368 C   0  0  0  0  0  0
    4.0200   51.9129   30.0628 C   0  0  0  0  0  0
    1.9109   53.2200   26.1951 C   0  0  0  0  0  0
    1.2656   52.9122   25.1941 O   0  0  0  0  0  0
    3.1254   53.8052   26.1699 N   0  0  0  0  0  0
    3.9894   54.1048   25.1076 C   0  0  0  0  0  0
    5.2770   54.4943   25.4991 C   0  0  0  0  0  0
    6.2695   54.7982   24.5693 C   0  0  0  0  0  0
    5.9373   54.7350   23.2131 C   0  0  0  0  0  0
    4.6327   54.3470   22.8230 C   0  0  0  0  0  0
    3.6365   54.0183   23.7483 C   0  0  0  0  0  0
    4.6710   54.4347   21.4511 N   0  0  0  0  0  0
    5.9195   54.8965   21.0870 C   0  0  0  0  0  0
    6.7042   55.0590   22.1282 N   0  0  0  0  0  0
    6.3427   55.1774   19.6717 C   0  0  0  0  0  0
    7.6650   55.5817   19.4188 C   0  0  0  0  0  0
    8.0955   55.8567   18.1217 C   0  0  0  0  0  0
    7.2110   55.7299   17.0538 C   0  0  0  0  0  0
    5.8964   55.3302   17.2844 C   0  0  0  0  0  0
    5.4605   55.0559   18.5819 C   0  0  0  0  0  0
    4.1749   54.6745   18.7605 F   0  0  0  0  0  0
    9.3689   56.2495   17.9004 F   0  0  0  0  0  0
   -0.4328   51.0641   26.4462 H   0  0  0  0  0  0
    0.2335   50.4968   27.9688 H   0  0  0  0  0  0
   -1.4492   50.9929   27.8791 H   0  0  0  0  0  0
   -0.1819   53.9097   29.4535 H   0  0  0  0  0  0
    4.1487   52.7778   28.1720 H   0  0  0  0  0  0
    3.6818   55.1674   28.8054 H   0  0  0  0  0  0
    5.0440   54.4949   29.6819 H   0  0  0  0  0  0
    3.4773   54.6626   30.4782 H   0  0  0  0  0  0
    3.7458   50.9300   29.6815 H   0  0  0  0  0  0
    5.1019   51.9173   30.1911 H   0  0  0  0  0  0
    3.5628   52.0390   31.0448 H   0  0  0  0  0  0
    3.5141   54.0035   27.0762 H   0  0  0  0  0  0
    5.5293   54.5516   26.5490 H   0  0  0  0  0  0
    7.2570   55.1001   24.8817 H   0  0  0  0  0  0
    2.6488   53.7346   23.4197 H   0  0  0  0  0  0
    8.3773   55.6873   20.2252 H   0  0  0  0  0  0
    7.5469   55.9443   16.0497 H   0  0  0  0  0  0
    5.2099   55.2317   16.4558 H   0  0  0  0  0  0
    3.9345   54.2569   20.7810 H   0  0  0  0  0  0
  1  2  1  0  0  0
  1 31  1  0  0  0
  1 32  1  0  0  0
  1 33  1  0  0  0
  2  3  1  0  0  0
  2  7  1  0  0  0
  2  4  1  0  0  0
  4  5  2  0  0  0
  4 11  1  0  0  0
  5  6  1  0  0  0
  5  8  1  0  0  0
  6  7  1  0  0  0
  7 34  1  0  0  0
  8  9  1  0  0  0
  8 10  1  0  0  0
  8 35  1  0  0  0
  9 36  1  0  0  0
  9 37  1  0  0  0
  9 38  1  0  0  0
 10 39  1  0  0  0
 10 40  1  0  0  0
 10 41  1  0  0  0
 11 12  2  0  0  0
 11 13  1  0  0  0
 13 14  1  0  0  0
 13 42  1  0  0  0
 14 19  2  0  0  0
 14 15  1  0  0  0
 15 16  2  0  0  0
 15 43  1  0  0  0
 16 17  1  0  0  0
 16 44  1  0  0  0
 17 22  1  0  0  0
 17 18  2  0  0  0
 18 19  1  0  0  0
 18 20  1  0  0  0
 19 45  1  0  0  0
 20 21  1  0  0  0
 20 49  1  0  0  0
 21 22  2  0  0  0
 21 23  1  0  0  0
 23 28  2  0  0  0
 23 24  1  0  0  0
 24 25  2  0  0  0
 24 46  1  0  0  0
 25 26  1  0  0  0
 25 30  1  0  0  0
 26 27  2  0  0  0
 26 47  1  0  0  0
 27 28  1  0  0  0
 27 48  1  0  0  0
 28 29  1  0  0  0
M  END
> <i_i_glide_confnum>
15

> <i_i_glide_lignum>
3957

> <i_i_glide_posenum>
294

> <i_i_glide_rotatable_bonds>
5

> <i_m_Source_File_Index>
756

> <b_m_subgroup_collapsed>
0

> <r_i_docking_score>
-5.3188

> <r_i_glide_ecoul>
0.994038

> <r_i_glide_eff_state_penalty>
0

> <r_i_glide_einternal>
1.33202

> <r_i_glide_emodel>
-54.7401

> <r_i_glide_energy>
-39.8475

> <r_i_glide_erotb>
0.493534

> <r_i_glide_esite>
-0.00840766

> <r_i_glide_evdw>
-40.8415

> <r_i_glide_gscore>
-5.3188

> <r_i_glide_hbond>
0

> <r_i_glide_ligand_efficiency>
-0.183407

> <r_i_glide_ligand_efficiency_ln>
-1.21787

> <r_i_glide_ligand_efficiency_sa>
-0.563484

> <r_i_glide_lipo>
-2.69601

> <r_i_glide_metal>
0

> <r_i_glide_rewards>
-1.21495

> <s_i_glide_gridfile>
wee1_glide-grid

> <s_m_Source_File>
wee1_decoys_glide_SP.sdf

> <s_m_Source_Path>
/Users/zhangxujun/Desktop

> <s_m_entry_id>
1031

> <s_m_entry_name>
wee1_decoys_glide_SP.756

> <s_m_subgroup_title>
wee1_decoys_glide_SP

> <s_m_subgroupid>
wee1_decoys_glide_SP


$$$$
