ZINC63941262_148
                    3D
 Schrodinger Suite 2024-2.
 58 62  0  0  1  0            999 V2000
    1.6255   56.3524   30.2350 C   0  0  0  0  0  0
    1.1044   54.9859   29.8336 C   0  0  0  0  0  0
    0.3991   54.1234   30.7830 C   0  0  0  0  0  0
   -0.0937   52.9024   30.4536 C   0  0  0  0  0  0
    0.0469   52.4169   29.1498 C   0  0  0  0  0  0
   -0.3909   51.2994   28.6223 N   0  3  0  0  0  0
    0.0118   51.2193   27.2084 C   0  0  0  0  0  0
    0.7813   52.5101   27.0278 C   0  0  0  0  0  0
    0.7441   53.1675   28.2017 C   0  0  0  0  0  0
    1.2967   54.4741   28.5967 C   0  0  0  0  0  0
    1.4428   52.8561   25.7089 C   0  0  0  0  0  0
    0.5017   52.8364   24.4887 C   0  0  0  0  0  0
    1.1976   52.4585   23.2578 N   0  0  0  0  0  0
    2.0978   53.3749   22.5651 C   0  0  0  0  0  0
    2.5003   52.5933   21.3200 C   0  0  2  0  0  0
    1.8748   52.8974   20.4764 H   0  0  0  0  0  0
    2.2473   51.1322   21.6882 C   0  0  0  0  0  0
    1.2681   51.1658   22.8569 C   0  0  0  0  0  0
    0.6981   50.1840   23.3359 O   0  0  0  0  0  0
    3.9679   52.9071   20.9691 C   0  0  0  0  0  0
    4.8856   52.4926   21.6811 O   0  0  0  0  0  0
    4.1661   53.6443   19.8650 N   0  0  0  0  0  0
    5.4579   54.0096   19.3065 C   0  0  1  0  0  0
    6.3009   53.7908   19.9659 H   0  0  0  0  0  0
    5.6908   53.2970   18.0700 N   0  0  0  0  0  0
    6.1253   54.0666   16.9946 C   0  0  0  0  0  0
    6.5114   53.5963   15.7329 C   0  0  0  0  0  0
    6.9089   54.5186   14.7588 C   0  0  0  0  0  0
    6.9109   55.8864   15.0388 C   0  0  0  0  0  0
    6.5218   56.3475   16.2961 C   0  0  0  0  0  0
    6.1360   55.4310   17.2736 C   0  0  0  0  0  0
    5.6220   55.7740   18.9156 S   0  0  0  0  0  0
    6.5122   52.1108   15.3999 C   0  0  0  0  0  0
    2.5147   56.6359   29.6682 H   0  0  0  0  0  0
    0.8580   57.1114   30.1117 H   0  0  0  0  0  0
    1.9070   56.3573   31.2817 H   0  0  0  0  0  0
    0.2724   54.4677   31.8027 H   0  0  0  0  0  0
   -0.5897   52.3186   31.2183 H   0  0  0  0  0  0
   -0.8948   51.1438   26.6064 H   0  0  0  0  0  0
    0.6122   50.3188   27.0696 H   0  0  0  0  0  0
    1.8327   55.0815   27.8831 H   0  0  0  0  0  0
    2.2116   52.0972   25.5752 H   0  0  0  0  0  0
    1.9733   53.8073   25.7713 H   0  0  0  0  0  0
   -0.0064   53.7940   24.3733 H   0  0  0  0  0  0
   -0.2954   52.1114   24.6545 H   0  0  0  0  0  0
    2.9342   53.5227   23.2496 H   0  0  0  0  0  0
    1.6178   54.3272   22.3438 H   0  0  0  0  0  0
    1.7234   50.6181   20.8793 H   0  0  0  0  0  0
    3.1380   50.5484   21.9305 H   0  0  0  0  0  0
    3.3633   53.9284   19.3213 H   0  0  0  0  0  0
    5.6113   52.2836   18.0809 H   0  0  0  0  0  0
    7.2162   54.1757   13.7798 H   0  0  0  0  0  0
    7.2094   56.5904   14.2741 H   0  0  0  0  0  0
    6.5208   57.4082   16.5024 H   0  0  0  0  0  0
    5.5069   51.7011   15.5206 H   0  0  0  0  0  0
    7.1670   51.5766   16.0901 H   0  0  0  0  0  0
    6.8455   51.9087   14.3823 H   0  0  0  0  0  0
   -0.9300   50.5733   29.0940 H   0  0  0  0  0  0
  1  2  1  0  0  0
  1 34  1  0  0  0
  1 35  1  0  0  0
  1 36  1  0  0  0
  2 10  2  0  0  0
  2  3  1  0  0  0
  3  4  2  0  0  0
  3 37  1  0  0  0
  4  5  1  0  0  0
  4 38  1  0  0  0
  5  9  1  0  0  0
  5  6  2  0  0  0
  6  7  1  0  0  0
  6 58  1  0  0  0
  7  8  1  0  0  0
  7 39  1  0  0  0
  7 40  1  0  0  0
  8  9  2  0  0  0
  8 11  1  0  0  0
  9 10  1  0  0  0
 10 41  1  0  0  0
 11 12  1  0  0  0
 11 42  1  0  0  0
 11 43  1  0  0  0
 12 13  1  0  0  0
 12 44  1  0  0  0
 12 45  1  0  0  0
 13 18  1  0  0  0
 13 14  1  0  0  0
 14 15  1  0  0  0
 14 46  1  0  0  0
 14 47  1  0  0  0
 15 16  1  0  0  0
 15 17  1  0  0  0
 15 20  1  0  0  0
 17 18  1  0  0  0
 17 48  1  0  0  0
 17 49  1  0  0  0
 18 19  2  0  0  0
 20 21  2  0  0  0
 20 22  1  0  0  0
 22 23  1  0  0  0
 22 50  1  0  0  0
 23 24  1  0  0  0
 23 32  1  0  0  0
 23 25  1  0  0  0
 25 26  1  0  0  0
 25 51  1  0  0  0
 26 31  2  0  0  0
 26 27  1  0  0  0
 27 28  2  0  0  0
 27 33  1  0  0  0
 28 29  1  0  0  0
 28 52  1  0  0  0
 29 30  2  0  0  0
 29 53  1  0  0  0
 30 31  1  0  0  0
 30 54  1  0  0  0
 31 32  1  0  0  0
 33 55  1  0  0  0
 33 56  1  0  0  0
 33 57  1  0  0  0
M  CHG  1   6   1
M  END
> <i_i_glide_confnum>
102

> <i_i_glide_lignum>
149

> <i_i_glide_posenum>
196

> <i_i_glide_rotatable_bonds>
6

> <i_m_Source_File_Index>
1596

> <b_m_subgroup_collapsed>
0

> <r_i_docking_score>
-5.38033

> <r_i_glide_ecoul>
-5.79074

> <r_i_glide_eff_state_penalty>
0

> <r_i_glide_einternal>
4.04486

> <r_i_glide_emodel>
-60.1175

> <r_i_glide_energy>
-44.7469

> <r_i_glide_erotb>
0.630168

> <r_i_glide_esite>
-0.184409

> <r_i_glide_evdw>
-38.9562

> <r_i_glide_gscore>
-5.38033

> <r_i_glide_hbond>
-0.188124

> <r_i_glide_ligand_efficiency>
-0.173559

> <r_i_glide_ligand_efficiency_ln>
-1.21343

> <r_i_glide_ligand_efficiency_sa>
-0.545215

> <r_i_glide_lipo>
-1.97347

> <r_i_glide_metal>
0

> <r_i_glide_rewards>
-0.848074

> <s_i_glide_gridfile>
wee1_glide-grid

> <s_m_Source_File>
wee1_decoys_glide_SP.sdf

> <s_m_Source_Path>
/Users/zhangxujun/Desktop

> <s_m_entry_id>
1871

> <s_m_entry_name>
wee1_decoys_glide_SP.1596

> <s_m_subgroup_title>
wee1_decoys_glide_SP

> <s_m_subgroupid>
wee1_decoys_glide_SP


$$$$
