ZINC33010948_4281
                    3D
 Schrodinger Suite 2024-2.
 51 55  0  0  1  0            999 V2000
    6.3044   56.0967   24.4817 C   0  0  0  0  0  0
    6.2589   55.5841   25.7673 C   0  0  0  0  0  0
    6.6841   54.3202   26.0137 C   0  0  0  0  0  0
    7.1044   53.5802   24.9452 C   0  0  0  0  0  0
    7.1044   54.0283   23.6320 C   0  0  0  0  0  0
    6.7044   55.3303   23.3796 C   0  0  0  0  0  0
    6.7044   56.0646   21.7348 S   0  0  0  0  0  0
    6.6591   54.8908   20.3689 C   0  0  0  0  0  0
    6.2487   55.5791   19.0790 C   0  0  0  0  0  0
    7.2135   56.3072   18.4773 N   0  0  0  0  0  0
    6.8776   57.0510   17.3895 C   0  0  0  0  0  0
    5.5570   56.9890   16.8571 C   0  0  0  0  0  0
    4.8990   57.5412   15.7045 C   0  0  0  0  0  0
    3.5885   57.1433   15.6084 C   0  0  0  0  0  0
    3.0400   56.0967   16.8820 S   0  0  0  0  0  0
    4.6457   56.1553   17.5945 C   0  0  0  0  0  0
    4.9527   55.4703   18.7006 N   0  0  0  0  0  0
    2.8824   57.7175   14.4128 C   0  0  0  0  0  0
    4.0546   58.2543   13.5839 C   0  0  0  0  0  0
    5.2520   58.4278   14.5304 C   0  0  0  0  0  0
    7.9189   57.8234   16.8353 N   0  0  0  0  0  0
    7.7270   59.1744   16.3047 C   0  0  0  0  0  0
    8.7644   60.0975   16.9454 C   0  0  2  0  0  0
    8.9899   60.9719   16.3328 H   0  0  0  0  0  0
    9.9647   59.1703   17.0264 C   0  0  0  0  0  0
    9.3297   57.7916   17.2842 C   0  0  2  0  0  0
    9.3786   57.5803   18.3543 H   0  0  0  0  0  0
   10.1239   56.6715   16.5683 C   0  0  0  0  0  0
    9.9771   56.4468   15.3691 O   0  0  0  0  0  0
   10.9998   55.9653   17.2817 N   0  0  0  0  0  0
    8.3044   60.4967   18.2234 O   0  0  0  0  0  0
    6.7044   53.6967   27.6235 Cl  0  0  0  0  0  0
    5.9058   57.0911   24.3741 H   0  0  0  0  0  0
    5.8846   56.0967   26.6151 H   0  0  0  0  0  0
    7.5044   52.6245   25.1993 H   0  0  0  0  0  0
    7.4845   53.3691   22.8817 H   0  0  0  0  0  0
    5.9838   54.0653   20.5966 H   0  0  0  0  0  0
    7.6637   54.4967   20.2271 H   0  0  0  0  0  0
    2.3201   56.9725   13.8488 H   0  0  0  0  0  0
    2.1909   58.5125   14.6951 H   0  0  0  0  0  0
    4.3113   57.5262   12.8118 H   0  0  0  0  0  0
    3.8018   59.1814   13.0673 H   0  0  0  0  0  0
    5.3545   59.4754   14.8156 H   0  0  0  0  0  0
    6.1726   58.1257   14.0298 H   0  0  0  0  0  0
    6.7289   59.5771   16.4806 H   0  0  0  0  0  0
    7.9260   59.1523   15.2324 H   0  0  0  0  0  0
   10.6420   59.4826   17.8223 H   0  0  0  0  0  0
   10.5118   59.2095   16.0812 H   0  0  0  0  0  0
   11.5233   55.2415   16.8149 H   0  0  0  0  0  0
   11.1081   56.0966   18.2799 H   0  0  0  0  0  0
    7.3903   60.8543   18.0818 H   0  0  0  0  0  0
  1  6  2  0  0  0
  1  2  1  0  0  0
  1 33  1  0  0  0
  2  3  2  0  0  0
  2 34  1  0  0  0
  3  4  1  0  0  0
  3 32  1  0  0  0
  4  5  2  0  0  0
  4 35  1  0  0  0
  5  6  1  0  0  0
  5 36  1  0  0  0
  6  7  1  0  0  0
  7  8  1  0  0  0
  8  9  1  0  0  0
  8 37  1  0  0  0
  8 38  1  0  0  0
  9 17  2  0  0  0
  9 10  1  0  0  0
 10 11  2  0  0  0
 11 12  1  0  0  0
 11 21  1  0  0  0
 12 16  2  0  0  0
 12 13  1  0  0  0
 13 20  1  0  0  0
 13 14  2  0  0  0
 14 15  1  0  0  0
 14 18  1  0  0  0
 15 16  1  0  0  0
 16 17  1  0  0  0
 18 19  1  0  0  0
 18 39  1  0  0  0
 18 40  1  0  0  0
 19 20  1  0  0  0
 19 41  1  0  0  0
 19 42  1  0  0  0
 20 43  1  0  0  0
 20 44  1  0  0  0
 21 26  1  0  0  0
 21 22  1  0  0  0
 22 23  1  0  0  0
 22 45  1  0  0  0
 22 46  1  0  0  0
 23 24  1  0  0  0
 23 25  1  0  0  0
 23 31  1  0  0  0
 25 26  1  0  0  0
 25 47  1  0  0  0
 25 48  1  0  0  0
 26 27  1  0  0  0
 26 28  1  0  0  0
 28 29  2  0  0  0
 28 30  1  0  0  0
 30 49  1  0  0  0
 30 50  1  0  0  0
 31 51  1  0  0  0
M  END
> <i_i_glide_confnum>
20

> <i_i_glide_lignum>
4282

> <i_i_glide_posenum>
355

> <i_i_glide_rotatable_bonds>
6

> <i_m_Source_File_Index>
4059

> <b_m_subgroup_collapsed>
0

> <r_i_docking_score>
-4.02247

> <r_i_glide_ecoul>
-11.3995

> <r_i_glide_eff_state_penalty>
0

> <r_i_glide_einternal>
3.23386

> <r_i_glide_emodel>
-19.308

> <r_i_glide_energy>
-11.076

> <r_i_glide_erotb>
0.37893

> <r_i_glide_esite>
-0.0238319

> <r_i_glide_evdw>
0.323498

> <r_i_glide_gscore>
-4.02247

> <r_i_glide_hbond>
-0.51231

> <r_i_glide_ligand_efficiency>
-0.134082

> <r_i_glide_ligand_efficiency_ln>
-0.913949

> <r_i_glide_ligand_efficiency_sa>
-0.416625

> <r_i_glide_lipo>
-1.82131

> <r_i_glide_metal>
0

> <r_i_glide_rewards>
-0.350204

> <s_i_glide_gridfile>
wee1_glide-grid

> <s_m_Source_File>
wee1_decoys_glide_SP.sdf

> <s_m_Source_Path>
/Users/zhangxujun/Desktop

> <s_m_entry_id>
4334

> <s_m_entry_name>
wee1_decoys_glide_SP.4059

> <s_m_subgroup_title>
wee1_decoys_glide_SP

> <s_m_subgroupid>
wee1_decoys_glide_SP


$$$$
