ZINC43221526_5061
                    3D
 Schrodinger Suite 2024-2.
 64 69  0  0  1  0            999 V2000
   -5.0656   54.1237   24.4821 C   0  0  0  0  0  0
   -6.2188   53.2072   24.8817 C   0  0  0  0  0  0
   -7.5075   53.7528   24.9013 C   0  0  0  0  0  0
   -8.6149   52.9566   25.1841 C   0  0  0  0  0  0
   -8.4479   51.5994   25.4430 C   0  0  0  0  0  0
   -7.1727   51.0391   25.4254 C   0  0  0  0  0  0
   -6.0435   51.8288   25.1519 C   0  0  0  0  0  0
   -4.7665   51.2147   25.1799 N   0  0  0  0  0  0
   -3.7408   51.6411   25.9856 C   0  0  0  0  0  0
   -3.7449   52.4951   26.8699 O   0  0  0  0  0  0
   -2.5293   50.8978   25.4853 C   0  0  1  0  0  0
   -2.1197   51.4935   24.6649 H   0  0  0  0  0  0
   -1.3823   50.4516   26.3783 C   0  0  1  0  0  0
   -1.7725   50.0967   27.3237 H   0  0  0  0  0  0
   -0.9595   49.1218   25.6816 N   0  3  0  0  0  0
   -1.9389   48.8242   24.4814 C   0  0  1  0  0  0
   -3.1294   49.6244   25.0781 C   0  0  2  0  0  0
   -3.4858   49.0088   25.9166 H   0  0  0  0  0  0
   -4.4299   50.0954   24.4539 C   0  0  0  0  0  0
   -5.0572   49.5371   23.5543 O   0  0  0  0  0  0
   -1.2306   49.3454   23.1956 C   0  0  0  0  0  0
   -1.9244   50.0529   22.2028 C   0  0  0  0  0  0
   -1.2646   50.5274   21.0721 C   0  0  0  0  0  0
    0.0974   50.2904   20.9143 C   0  0  0  0  0  0
    0.8017   49.5680   21.8711 C   0  0  0  0  0  0
    0.1392   49.0912   22.9980 C   0  0  0  0  0  0
   -2.1223   47.2741   24.3507 C   0  0  0  0  0  0
   -1.2962   46.4974   24.8817 O   0  0  0  0  0  0
   -3.0977   46.8635   23.6830 O   0  5  0  0  0  0
   -0.2036   51.4310   26.5158 C   0  0  0  0  0  0
    0.4830   51.8219   25.3657 C   0  0  0  0  0  0
    1.5260   52.7301   25.4133 C   0  0  0  0  0  0
    1.9448   53.2944   26.6218 C   0  0  0  0  0  0
    1.2524   52.9468   27.8189 C   0  0  0  0  0  0
    0.1662   52.0056   27.7803 C   0  0  0  0  0  0
   -0.4905   51.7001   29.0112 C   0  0  0  0  0  0
   -0.0959   52.2915   30.2055 C   0  0  0  0  0  0
    0.9472   53.2007   30.2338 C   0  0  0  0  0  0
    1.6215   53.5280   29.0647 C   0  0  0  0  0  0
    3.0068   54.1789   26.7185 O   0  0  0  0  0  0
    3.7609   54.5060   25.5556 C   0  0  0  0  0  0
   -4.6273   54.6027   25.3580 H   0  0  0  0  0  0
   -4.2847   53.5805   23.9504 H   0  0  0  0  0  0
   -5.4063   54.8967   23.7931 H   0  0  0  0  0  0
   -7.6589   54.7995   24.6782 H   0  0  0  0  0  0
   -9.6042   53.3897   25.1910 H   0  0  0  0  0  0
   -9.3065   50.9796   25.6571 H   0  0  0  0  0  0
   -7.0659   49.9843   25.6360 H   0  0  0  0  0  0
   -1.0316   48.3783   26.3728 H   0  0  0  0  0  0
   -2.9805   50.2413   22.2783 H   0  0  0  0  0  0
   -1.8095   51.0711   20.3149 H   0  0  0  0  0  0
    0.6095   50.6559   20.0357 H   0  0  0  0  0  0
    1.8559   49.3704   21.7366 H   0  0  0  0  0  0
    0.7051   48.5128   23.7150 H   0  0  0  0  0  0
    0.2029   51.4260   24.4018 H   0  0  0  0  0  0
    2.0139   52.9774   24.4835 H   0  0  0  0  0  0
   -1.3100   51.0024   29.0608 H   0  0  0  0  0  0
   -0.6056   52.0375   31.1246 H   0  0  0  0  0  0
    1.2276   53.6520   31.1734 H   0  0  0  0  0  0
    2.4333   54.2401   29.1018 H   0  0  0  0  0  0
    4.5461   55.2131   25.8229 H   0  0  0  0  0  0
    4.2423   53.6240   25.1310 H   0  0  0  0  0  0
    3.1404   54.9775   24.7922 H   0  0  0  0  0  0
    0.0053   49.1313   25.3897 H   0  0  0  0  0  0
  1  2  1  0  0  0
  1 42  1  0  0  0
  1 43  1  0  0  0
  1 44  1  0  0  0
  2  7  2  0  0  0
  2  3  1  0  0  0
  3  4  2  0  0  0
  3 45  1  0  0  0
  4  5  1  0  0  0
  4 46  1  0  0  0
  5  6  2  0  0  0
  5 47  1  0  0  0
  6  7  1  0  0  0
  6 48  1  0  0  0
  7  8  1  0  0  0
  8 19  1  0  0  0
  8  9  1  0  0  0
  9 10  2  0  0  0
  9 11  1  0  0  0
 11 12  1  0  0  0
 11 17  1  0  0  0
 11 13  1  0  0  0
 13 14  1  0  0  0
 13 15  1  0  0  0
 13 30  1  0  0  0
 15 16  1  0  0  0
 15 49  1  0  0  0
 15 64  1  0  0  0
 16 17  1  0  0  0
 16 21  1  0  0  0
 16 27  1  0  0  0
 17 18  1  0  0  0
 17 19  1  0  0  0
 19 20  2  0  0  0
 21 26  2  0  0  0
 21 22  1  0  0  0
 22 23  2  0  0  0
 22 50  1  0  0  0
 23 24  1  0  0  0
 23 51  1  0  0  0
 24 25  2  0  0  0
 24 52  1  0  0  0
 25 26  1  0  0  0
 25 53  1  0  0  0
 26 54  1  0  0  0
 27 28  2  0  0  0
 27 29  1  0  0  0
 30 35  2  0  0  0
 30 31  1  0  0  0
 31 32  2  0  0  0
 31 55  1  0  0  0
 32 33  1  0  0  0
 32 56  1  0  0  0
 33 34  2  0  0  0
 33 40  1  0  0  0
 34 39  1  0  0  0
 34 35  1  0  0  0
 35 36  1  0  0  0
 36 37  2  0  0  0
 36 57  1  0  0  0
 37 38  1  0  0  0
 37 58  1  0  0  0
 38 39  2  0  0  0
 38 59  1  0  0  0
 39 60  1  0  0  0
 40 41  1  0  0  0
 41 61  1  0  0  0
 41 62  1  0  0  0
 41 63  1  0  0  0
M  CHG  2  15   1  29  -1
M  END
> <i_i_glide_confnum>
1

> <i_i_glide_lignum>
5062

> <i_i_glide_posenum>
99

> <i_i_glide_rotatable_bonds>
5

> <i_m_Source_File_Index>
799

> <b_m_subgroup_collapsed>
0

> <r_i_docking_score>
-3.75564

> <r_i_glide_ecoul>
-5.1706

> <r_i_glide_eff_state_penalty>
0

> <r_i_glide_einternal>
2.62344

> <r_i_glide_emodel>
-48.8764

> <r_i_glide_energy>
-38.859

> <r_i_glide_erotb>
0.239222

> <r_i_glide_esite>
-0.154595

> <r_i_glide_evdw>
-33.6884

> <r_i_glide_gscore>
-3.75564

> <r_i_glide_hbond>
-0.158011

> <r_i_glide_ligand_efficiency>
-0.0988325

> <r_i_glide_ligand_efficiency_ln>
-0.809826

> <r_i_glide_ligand_efficiency_sa>
-0.332273

> <r_i_glide_lipo>
-1.22165

> <r_i_glide_metal>
0

> <r_i_glide_rewards>
-0.000590343

> <s_i_glide_gridfile>
wee1_glide-grid

> <s_m_Source_File>
wee1_decoys_glide_SP.sdf

> <s_m_Source_Path>
/Users/zhangxujun/Desktop

> <s_m_entry_id>
1074

> <s_m_entry_name>
wee1_decoys_glide_SP.799

> <s_m_subgroup_title>
wee1_decoys_glide_SP

> <s_m_subgroupid>
wee1_decoys_glide_SP


$$$$
