ZINC12975262_2145
                    3D
 Schrodinger Suite 2024-2.
 60 62  0  0  1  0            999 V2000
    0.6165   51.0090   28.0399 C   0  0  0  0  0  0
    0.8133   52.5088   27.7573 C   0  0  0  0  0  0
    1.0450   52.6768   26.2377 C   0  0  0  0  0  0
   -0.4956   53.1999   28.1551 C   0  0  0  0  0  0
    1.9837   53.0823   28.6199 C   0  0  2  0  0  0
    2.1872   54.6231   28.5136 C   0  0  0  0  0  0
    3.4218   55.1254   29.2680 C   0  0  0  0  0  0
    4.7519   54.3730   28.9950 C   0  0  1  0  0  0
    4.4922   52.8883   29.3255 C   0  0  0  0  0  0
    3.3019   52.2586   28.5804 C   0  0  0  0  0  0
    5.3690   54.4967   27.5661 C   0  0  0  0  0  0
    6.5977   54.4961   27.4723 O   0  0  0  0  0  0
    4.5588   54.4961   26.4829 N   0  0  0  0  0  0
    4.9326   54.4820   25.1223 C   0  0  0  0  0  0
    6.1356   55.0165   24.6308 C   0  0  0  0  0  0
    6.4655   54.8900   23.2805 C   0  0  0  0  0  0
    5.6131   54.2147   22.4108 C   0  0  0  0  0  0
    4.4027   53.6979   22.8798 C   0  0  0  0  0  0
    4.0531   53.8676   24.2233 C   0  0  0  0  0  0
    3.3290   52.7374   21.8108 S   0  0  0  0  0  0
    3.8946   51.3920   21.6816 O   0  0  0  0  0  0
    1.9412   52.9654   22.2242 O   0  0  0  0  0  0
    3.5048   53.4665   20.3019 N   0  0  0  0  0  0
    3.1903   52.8441   19.1686 C   0  0  0  0  0  0
    3.3389   53.3921   17.9624 N   0  3  0  0  0  0
    3.0719   52.4774   16.8555 C   0  0  0  0  0  0
    2.2231   51.4267   17.5453 C   0  0  0  0  0  0
    2.6959   51.4371   18.9954 C   0  0  0  0  0  0
   -0.2758   50.6069   27.5550 H   0  0  0  0  0  0
    0.5070   50.8447   29.1119 H   0  0  0  0  0  0
    1.4628   50.4251   27.6815 H   0  0  0  0  0  0
    1.1899   53.7138   25.9441 H   0  0  0  0  0  0
    1.9074   52.1069   25.8999 H   0  0  0  0  0  0
    0.1914   52.3124   25.6641 H   0  0  0  0  0  0
   -0.4666   54.2834   28.0817 H   0  0  0  0  0  0
   -1.3012   52.8644   27.5065 H   0  0  0  0  0  0
   -0.7791   52.9582   29.1817 H   0  0  0  0  0  0
    1.6839   52.9829   29.6668 H   0  0  0  0  0  0
    2.2727   54.9204   27.4740 H   0  0  0  0  0  0
    1.3128   55.1617   28.8758 H   0  0  0  0  0  0
    3.1973   54.9401   30.3181 H   0  0  0  0  0  0
    3.5044   56.2066   29.2807 H   0  0  0  0  0  0
    5.5064   54.8072   29.6530 H   0  0  0  0  0  0
    4.3051   52.8098   30.3988 H   0  0  0  0  0  0
    5.4097   52.3101   29.2228 H   0  0  0  0  0  0
    3.1271   51.2546   28.9630 H   0  0  0  0  0  0
    3.5924   52.1184   27.5441 H   0  0  0  0  0  0
    3.5815   54.3368   26.6712 H   0  0  0  0  0  0
    6.8244   55.5303   25.2831 H   0  0  0  0  0  0
    7.3893   55.3029   22.9037 H   0  0  0  0  0  0
    5.9023   54.0970   21.3772 H   0  0  0  0  0  0
    3.1246   53.4486   24.5743 H   0  0  0  0  0  0
    3.5375   54.4731   20.3389 H   0  0  0  0  0  0
    2.5615   52.9783   16.0317 H   0  0  0  0  0  0
    4.0244   52.0684   16.5139 H   0  0  0  0  0  0
    2.3046   50.4491   17.0715 H   0  0  0  0  0  0
    1.1703   51.7138   17.5003 H   0  0  0  0  0  0
    3.5041   50.7320   19.1898 H   0  0  0  0  0  0
    1.8743   51.2301   19.6813 H   0  0  0  0  0  0
    3.6963   54.3249   17.8165 H   0  0  0  0  0  0
  1  2  1  0  0  0
  1 29  1  0  0  0
  1 30  1  0  0  0
  1 31  1  0  0  0
  2  3  1  0  0  0
  2  4  1  0  0  0
  2  5  1  0  0  0
  3 32  1  0  0  0
  3 33  1  0  0  0
  3 34  1  0  0  0
  4 35  1  0  0  0
  4 36  1  0  0  0
  4 37  1  0  0  0
  5 10  1  0  0  0
  5  6  1  0  0  0
  5 38  1  0  0  0
  6  7  1  0  0  0
  6 39  1  0  0  0
  6 40  1  0  0  0
  7  8  1  0  0  0
  7 41  1  0  0  0
  7 42  1  0  0  0
  8  9  1  0  0  0
  8 11  1  0  0  0
  8 43  1  0  0  0
  9 10  1  0  0  0
  9 44  1  0  0  0
  9 45  1  0  0  0
 10 46  1  0  0  0
 10 47  1  0  0  0
 11 12  2  0  0  0
 11 13  1  0  0  0
 13 14  1  0  0  0
 13 48  1  0  0  0
 14 19  2  0  0  0
 14 15  1  0  0  0
 15 16  2  0  0  0
 15 49  1  0  0  0
 16 17  1  0  0  0
 16 50  1  0  0  0
 17 18  2  0  0  0
 17 51  1  0  0  0
 18 19  1  0  0  0
 18 20  1  0  0  0
 19 52  1  0  0  0
 20 21  2  0  0  0
 20 22  2  0  0  0
 20 23  1  0  0  0
 23 24  1  0  0  0
 23 53  1  0  0  0
 24 28  1  0  0  0
 24 25  2  0  0  0
 25 26  1  0  0  0
 25 60  1  0  0  0
 26 27  1  0  0  0
 26 54  1  0  0  0
 26 55  1  0  0  0
 27 28  1  0  0  0
 27 56  1  0  0  0
 27 57  1  0  0  0
 28 58  1  0  0  0
 28 59  1  0  0  0
M  CHG  1  25   1
M  END
> <i_i_glide_confnum>
142

> <i_i_glide_lignum>
2146

> <i_i_glide_posenum>
188

> <i_i_glide_rotatable_bonds>
7

> <i_m_Source_File_Index>
5404

> <b_m_subgroup_collapsed>
0

> <r_i_docking_score>
-2.94917

> <r_i_glide_ecoul>
-1.35479

> <r_i_glide_eff_state_penalty>
0

> <r_i_glide_einternal>
17.7781

> <r_i_glide_emodel>
-27.8542

> <r_i_glide_energy>
-37.0348

> <r_i_glide_erotb>
0.713766

> <r_i_glide_esite>
-0.0663596

> <r_i_glide_evdw>
-35.68

> <r_i_glide_gscore>
-2.94917

> <r_i_glide_hbond>
0

> <r_i_glide_ligand_efficiency>
-0.105327

> <r_i_glide_ligand_efficiency_ln>
-0.680755

> <r_i_glide_ligand_efficiency_sa>
-0.319836

> <r_i_glide_lipo>
-3.11058

> <r_i_glide_metal>
0

> <r_i_glide_rewards>
1.50122

> <s_i_glide_gridfile>
wee1_glide-grid

> <s_m_Source_File>
wee1_decoys_glide_SP.sdf

> <s_m_Source_Path>
/Users/zhangxujun/Desktop

> <s_m_entry_id>
5679

> <s_m_entry_name>
wee1_decoys_glide_SP.5404

> <s_m_subgroup_title>
wee1_decoys_glide_SP

> <s_m_subgroupid>
wee1_decoys_glide_SP


$$$$
