ZINC63540994_5366
                    3D
 Schrodinger Suite 2024-2.
 63 66  0  0  1  0            999 V2000
    4.8894   54.4922   28.1704 C   0  0  0  0  0  0
    5.0206   54.4533   26.6506 C   0  0  0  0  0  0
    6.2739   54.7145   26.0960 C   0  0  0  0  0  0
    6.4596   54.6724   24.7195 C   0  0  0  0  0  0
    5.3896   54.3589   23.8872 C   0  0  0  0  0  0
    4.1101   54.0965   24.4041 C   0  0  0  0  0  0
    3.9287   54.1421   25.8111 C   0  0  0  0  0  0
    2.5524   53.9003   26.4418 C   0  0  0  0  0  0
    3.0840   53.7374   23.5230 N   0  0  0  0  0  0
    2.9460   54.2662   22.1632 C   0  0  0  0  0  0
    3.2212   53.2209   21.0543 C   0  0  0  0  0  0
    2.2690   52.0973   21.1476 N   0  0  0  0  0  0
    2.4941   51.4820   22.4644 C   0  0  0  0  0  0
    2.3040   52.4933   23.6328 C   0  0  0  0  0  0
    2.4303   51.1526   20.0067 C   0  0  1  0  0  0
    3.4897   50.9045   19.8984 H   0  0  0  0  0  0
    1.6662   49.8341   20.2001 C   0  0  0  0  0  0
    1.9168   51.7955   18.6832 C   0  0  0  0  0  0
    0.8298   52.3843   18.6496 O   0  0  0  0  0  0
    2.7045   51.6358   17.6036 N   0  0  0  0  0  0
    2.4338   52.1012   16.3571 C   0  0  0  0  0  0
    1.9726   51.4429   15.2797 C   0  0  0  0  0  0
    1.5042   50.0616   15.1082 C   0  0  0  0  0  0
    1.0891   49.6091   13.9071 C   0  0  0  0  0  0
    1.1250   50.5478   12.7930 C   0  0  0  0  0  0
    1.5677   51.8256   12.9285 C   0  0  0  0  0  0
    2.0149   52.2905   14.1708 C   0  0  0  0  0  0
    2.5087   53.4672   14.5015 N   0  3  0  0  0  0
    2.8489   53.5068   15.9454 C   0  0  1  0  0  0
    3.9205   53.6836   16.0392 H   0  0  0  0  0  0
    2.0717   54.6564   16.6152 C   0  0  0  0  0  0
    2.6736   55.5513   17.2129 O   0  0  0  0  0  0
    0.7292   54.5633   16.4665 O   0  0  0  0  0  0
   -0.1267   55.5601   17.0005 C   0  0  0  0  0  0
    0.4884   47.7481   13.6607 Br  0  0  0  0  0  0
    4.4680   53.5537   28.5338 H   0  0  0  0  0  0
    5.8492   54.6353   28.6689 H   0  0  0  0  0  0
    4.2224   55.2965   28.4775 H   0  0  0  0  0  0
    7.1099   54.9478   26.7387 H   0  0  0  0  0  0
    7.4363   54.8651   24.2967 H   0  0  0  0  0  0
    5.5721   54.3039   22.8246 H   0  0  0  0  0  0
    2.3773   54.5718   27.2821 H   0  0  0  0  0  0
    1.7348   54.0960   25.7466 H   0  0  0  0  0  0
    2.4755   52.8750   26.8048 H   0  0  0  0  0  0
    1.9346   54.6629   22.0817 H   0  0  0  0  0  0
    3.6097   55.1175   22.0229 H   0  0  0  0  0  0
    4.2546   52.8732   21.1198 H   0  0  0  0  0  0
    3.1046   53.7233   20.0951 H   0  0  0  0  0  0
    1.7878   50.6722   22.6364 H   0  0  0  0  0  0
    3.5001   51.0673   22.4816 H   0  0  0  0  0  0
    1.2501   52.7773   23.6950 H   0  0  0  0  0  0
    2.5315   51.9882   24.5678 H   0  0  0  0  0  0
    1.6962   49.2265   19.2947 H   0  0  0  0  0  0
    2.1249   49.2380   20.9895 H   0  0  0  0  0  0
    0.6235   50.0253   20.4596 H   0  0  0  0  0  0
    3.5547   51.0781   17.6879 H   0  0  0  0  0  0
    1.4986   49.3672   15.9352 H   0  0  0  0  0  0
    0.7836   50.2128   11.8242 H   0  0  0  0  0  0
    1.5726   52.4697   12.0620 H   0  0  0  0  0  0
   -1.1660   55.3038   16.7908 H   0  0  0  0  0  0
   -0.0093   55.6344   18.0817 H   0  0  0  0  0  0
    0.0818   56.5392   16.5626 H   0  0  0  0  0  0
    2.6399   54.2486   13.8635 H   0  0  0  0  0  0
  1  2  1  0  0  0
  1 36  1  0  0  0
  1 37  1  0  0  0
  1 38  1  0  0  0
  2  7  2  0  0  0
  2  3  1  0  0  0
  3  4  2  0  0  0
  3 39  1  0  0  0
  4  5  1  0  0  0
  4 40  1  0  0  0
  5  6  2  0  0  0
  5 41  1  0  0  0
  6  7  1  0  0  0
  6  9  1  0  0  0
  7  8  1  0  0  0
  8 42  1  0  0  0
  8 43  1  0  0  0
  8 44  1  0  0  0
  9 14  1  0  0  0
  9 10  1  0  0  0
 10 11  1  0  0  0
 10 45  1  0  0  0
 10 46  1  0  0  0
 11 12  1  0  0  0
 11 47  1  0  0  0
 11 48  1  0  0  0
 12 13  1  0  0  0
 12 15  1  0  0  0
 13 14  1  0  0  0
 13 49  1  0  0  0
 13 50  1  0  0  0
 14 51  1  0  0  0
 14 52  1  0  0  0
 15 16  1  0  0  0
 15 17  1  0  0  0
 15 18  1  0  0  0
 17 53  1  0  0  0
 17 54  1  0  0  0
 17 55  1  0  0  0
 18 19  2  0  0  0
 18 20  1  0  0  0
 20 21  1  0  0  0
 20 56  1  0  0  0
 21 29  1  0  0  0
 21 22  2  0  0  0
 22 27  1  0  0  0
 22 23  1  0  0  0
 23 24  2  0  0  0
 23 57  1  0  0  0
 24 25  1  0  0  0
 24 35  1  0  0  0
 25 26  2  0  0  0
 25 58  1  0  0  0
 26 27  1  0  0  0
 26 59  1  0  0  0
 27 28  2  0  0  0
 28 29  1  0  0  0
 28 63  1  0  0  0
 29 30  1  0  0  0
 29 31  1  0  0  0
 31 32  2  0  0  0
 31 33  1  0  0  0
 33 34  1  0  0  0
 34 60  1  0  0  0
 34 61  1  0  0  0
 34 62  1  0  0  0
M  CHG  1  28   1
M  END
> <i_i_glide_confnum>
90

> <i_i_glide_lignum>
5367

> <i_i_glide_posenum>
149

> <i_i_glide_rotatable_bonds>
7

> <i_m_Source_File_Index>
4994

> <b_m_subgroup_collapsed>
0

> <r_i_docking_score>
-4.91507

> <r_i_glide_ecoul>
-4.52102

> <r_i_glide_eff_state_penalty>
0

> <r_i_glide_einternal>
7.11952

> <r_i_glide_emodel>
-47.4388

> <r_i_glide_energy>
-35.7263

> <r_i_glide_erotb>
0.465063

> <r_i_glide_esite>
-0.127628

> <r_i_glide_evdw>
-31.2053

> <r_i_glide_gscore>
-4.91507

> <r_i_glide_hbond>
-0.213734

> <r_i_glide_ligand_efficiency>
-0.148942

> <r_i_glide_ligand_efficiency_ln>
-1.09309

> <r_i_glide_ligand_efficiency_sa>
-0.477735

> <r_i_glide_lipo>
-2.39658

> <r_i_glide_metal>
0

> <r_i_glide_rewards>
-0.403774

> <s_i_glide_gridfile>
wee1_glide-grid

> <s_m_Source_File>
wee1_decoys_glide_SP.sdf

> <s_m_Source_Path>
/Users/zhangxujun/Desktop

> <s_m_entry_id>
5269

> <s_m_entry_name>
wee1_decoys_glide_SP.4994

> <s_m_subgroup_title>
wee1_decoys_glide_SP

> <s_m_subgroupid>
wee1_decoys_glide_SP


$$$$
