ZINC30982584_880
                    3D
 Schrodinger Suite 2024-2.
 70 74  0  0  1  0            999 V2000
    3.3398   53.4571   23.3309 C   0  0  0  0  0  0
    3.8053   53.0764   21.9088 C   0  0  2  0  0  0
    4.3084   52.1078   21.9720 H   0  0  0  0  0  0
    4.8933   54.0108   21.3442 C   0  0  0  0  0  0
    4.9072   54.3812   19.9899 C   0  0  0  0  0  0
    5.9033   55.2195   19.4959 C   0  0  0  0  0  0
    6.8957   55.6933   20.3488 C   0  0  0  0  0  0
    6.8999   55.3375   21.6935 C   0  0  0  0  0  0
    5.9044   54.4972   22.1865 C   0  0  0  0  0  0
    2.6474   52.8799   21.0305 N   0  0  0  0  0  0
    1.8086   51.8274   21.0854 C   0  0  0  0  0  0
    1.9485   50.9014   21.8887 O   0  0  0  0  0  0
    0.6147   51.8763   20.1501 C   0  0  0  0  0  0
    0.7972   52.3546   18.8412 C   0  0  0  0  0  0
   -0.2658   52.4209   17.9452 C   0  0  0  0  0  0
   -1.5328   52.0058   18.3390 C   0  0  0  0  0  0
   -1.7416   51.5293   19.6299 C   0  0  0  0  0  0
   -0.6827   51.4636   20.5541 C   0  0  0  0  0  0
   -0.8612   51.0182   21.8850 N   0  0  0  0  0  0
   -1.9763   50.8018   22.6163 C   0  0  0  0  0  0
   -3.1206   50.8953   22.1711 O   0  0  0  0  0  0
   -1.7905   50.4407   24.1178 C   0  0  2  0  0  0
   -2.7972   51.2618   24.9793 C   0  0  0  0  0  0
   -2.5680   51.1031   26.4944 C   0  0  0  0  0  0
   -1.0909   51.4427   26.7850 N   0  3  2  0  0  0
   -0.1927   50.3683   26.1286 C   0  0  0  0  0  0
   -0.3108   50.5420   24.6064 C   0  0  0  0  0  0
   -0.8391   51.5183   28.3141 C   0  0  0  0  0  0
    0.5002   52.1716   28.6083 C   0  0  0  0  0  0
    1.2997   52.8018   27.7894 N   0  0  0  0  0  0
    2.3333   53.0875   28.5582 C   0  0  0  0  0  0
    2.2186   52.7228   29.8212 N   0  0  0  0  0  0
    0.9750   52.0977   29.8731 O   0  0  0  0  0  0
    3.5739   53.7394   28.0122 C   0  0  0  0  0  0
    4.7294   53.8173   28.7981 C   0  0  0  0  0  0
    5.9086   54.3443   28.2717 C   0  0  0  0  0  0
    5.9351   54.8107   26.9621 C   0  0  0  0  0  0
    4.7813   54.7893   26.1869 C   0  0  0  0  0  0
    3.6066   54.2505   26.7073 C   0  0  0  0  0  0
    7.0841   55.2984   26.4414 F   0  0  0  0  0  0
    4.1376   53.2990   24.0510 H   0  0  0  0  0  0
    3.0198   54.4988   23.3804 H   0  0  0  0  0  0
    2.5078   52.8411   23.6751 H   0  0  0  0  0  0
    4.1579   54.0164   19.3026 H   0  0  0  0  0  0
    5.9095   55.4944   18.4513 H   0  0  0  0  0  0
    7.6745   56.3313   19.9574 H   0  0  0  0  0  0
    7.6812   55.6915   22.3512 H   0  0  0  0  0  0
    5.9452   54.2179   23.2278 H   0  0  0  0  0  0
    2.3564   53.6796   20.4829 H   0  0  0  0  0  0
    1.7736   52.6715   18.4991 H   0  0  0  0  0  0
   -0.1013   52.7865   16.9420 H   0  0  0  0  0  0
   -2.3545   52.0444   17.6392 H   0  0  0  0  0  0
   -2.7386   51.2046   19.8788 H   0  0  0  0  0  0
    0.0211   50.8839   22.3634 H   0  0  0  0  0  0
   -2.0761   49.3890   24.1806 H   0  0  0  0  0  0
   -2.6875   52.3304   24.7862 H   0  0  0  0  0  0
   -3.8228   50.9424   24.7875 H   0  0  0  0  0  0
   -2.7605   50.0921   26.8651 H   0  0  0  0  0  0
   -3.1864   51.8154   27.0431 H   0  0  0  0  0  0
   -0.5145   49.3840   26.4810 H   0  0  0  0  0  0
    0.8369   50.5354   26.4466 H   0  0  0  0  0  0
    0.3127   49.7640   24.1567 H   0  0  0  0  0  0
    0.1040   51.5339   24.4104 H   0  0  0  0  0  0
   -1.6594   52.0931   28.7450 H   0  0  0  0  0  0
   -0.9150   50.4967   28.6776 H   0  0  0  0  0  0
    4.7068   53.4468   29.8111 H   0  0  0  0  0  0
    6.8048   54.4130   28.8699 H   0  0  0  0  0  0
    4.8039   55.1877   25.1842 H   0  0  0  0  0  0
    2.7246   54.2209   26.0840 H   0  0  0  0  0  0
   -0.8663   52.3588   26.4181 H   0  0  0  0  0  0
  1  2  1  0  0  0
  1 41  1  0  0  0
  1 42  1  0  0  0
  1 43  1  0  0  0
  2  3  1  0  0  0
  2  4  1  0  0  0
  2 10  1  0  0  0
  4  9  2  0  0  0
  4  5  1  0  0  0
  5  6  2  0  0  0
  5 44  1  0  0  0
  6  7  1  0  0  0
  6 45  1  0  0  0
  7  8  2  0  0  0
  7 46  1  0  0  0
  8  9  1  0  0  0
  8 47  1  0  0  0
  9 48  1  0  0  0
 10 11  1  0  0  0
 10 49  1  0  0  0
 11 12  2  0  0  0
 11 13  1  0  0  0
 13 18  2  0  0  0
 13 14  1  0  0  0
 14 15  2  0  0  0
 14 50  1  0  0  0
 15 16  1  0  0  0
 15 51  1  0  0  0
 16 17  2  0  0  0
 16 52  1  0  0  0
 17 18  1  0  0  0
 17 53  1  0  0  0
 18 19  1  0  0  0
 19 20  1  0  0  0
 19 54  1  0  0  0
 20 21  2  0  0  0
 20 22  1  0  0  0
 22 27  1  0  0  0
 22 23  1  0  0  0
 22 55  1  0  0  0
 23 24  1  0  0  0
 23 56  1  0  0  0
 23 57  1  0  0  0
 24 25  1  0  0  0
 24 58  1  0  0  0
 24 59  1  0  0  0
 25 26  1  0  0  0
 25 28  1  0  0  0
 25 70  1  0  0  0
 26 27  1  0  0  0
 26 60  1  0  0  0
 26 61  1  0  0  0
 27 62  1  0  0  0
 27 63  1  0  0  0
 28 29  1  0  0  0
 28 64  1  0  0  0
 28 65  1  0  0  0
 29 33  1  0  0  0
 29 30  2  0  0  0
 30 31  1  0  0  0
 31 32  2  0  0  0
 31 34  1  0  0  0
 32 33  1  0  0  0
 34 39  2  0  0  0
 34 35  1  0  0  0
 35 36  2  0  0  0
 35 66  1  0  0  0
 36 37  1  0  0  0
 36 67  1  0  0  0
 37 38  2  0  0  0
 37 40  1  0  0  0
 38 39  1  0  0  0
 38 68  1  0  0  0
 39 69  1  0  0  0
M  CHG  1  25   1
M  END
> <i_i_glide_confnum>
107

> <i_i_glide_lignum>
881

> <i_i_glide_posenum>
346

> <i_i_glide_rotatable_bonds>
10

> <i_m_Source_File_Index>
1247

> <b_m_subgroup_collapsed>
0

> <r_i_docking_score>
-6.18886

> <r_i_glide_ecoul>
-7.52715

> <r_i_glide_eff_state_penalty>
0

> <r_i_glide_einternal>
9.65364

> <r_i_glide_emodel>
-70.4762

> <r_i_glide_energy>
-53.8174

> <r_i_glide_erotb>
0.663607

> <r_i_glide_esite>
-0.0987177

> <r_i_glide_evdw>
-46.2903

> <r_i_glide_gscore>
-6.18886

> <r_i_glide_hbond>
-0.32

> <r_i_glide_ligand_efficiency>
-0.158689

> <r_i_glide_ligand_efficiency_ln>
-1.32707

> <r_i_glide_ligand_efficiency_sa>
-0.538147

> <r_i_glide_lipo>
-2.64912

> <r_i_glide_metal>
0

> <r_i_glide_rewards>
-0.341046

> <s_i_glide_gridfile>
wee1_glide-grid

> <s_m_Source_File>
wee1_decoys_glide_SP.sdf

> <s_m_Source_Path>
/Users/zhangxujun/Desktop

> <s_m_entry_id>
1522

> <s_m_entry_name>
wee1_decoys_glide_SP.1247

> <s_m_subgroup_title>
wee1_decoys_glide_SP

> <s_m_subgroupid>
wee1_decoys_glide_SP


$$$$
