ZINC16154816_5144
                    3D
 Schrodinger Suite 2024-2.
 48 50  0  0  1  0            999 V2000
    1.3432   55.6124   29.6843 C   0  0  0  0  0  0
    2.7044   55.7553   29.4353 C   0  0  0  0  0  0
    3.4651   54.6982   28.9260 C   0  0  0  0  0  0
    2.8180   53.4972   28.6431 C   0  0  0  0  0  0
    1.4403   53.3752   28.8079 C   0  0  0  0  0  0
    0.7044   54.4192   29.3647 C   0  0  0  0  0  0
    0.6605   51.8862   28.2383 S   0  0  0  0  0  0
    1.6695   50.8967   28.6188 O   0  0  0  0  0  0
   -0.6132   51.8770   28.9658 O   0  0  0  0  0  0
    0.6531   52.3852   26.5543 N   0  0  0  0  0  0
    0.1139   51.6080   25.7113 C   0  0  0  0  0  0
   -0.6700   50.3068   25.9409 C   0  0  0  0  0  0
   -0.1021   49.0335   25.2817 C   0  0  0  0  0  0
   -0.4489   48.8767   23.7945 C   0  0  0  0  0  0
    0.1176   49.9597   22.8601 C   0  0  0  0  0  0
   -0.3310   51.4022   23.1653 C   0  0  0  0  0  0
    0.2390   51.9695   24.3834 N   0  0  0  0  0  0
    4.8339   54.8967   28.6855 N   0  0  0  0  0  0
    5.8570   53.9125   27.6390 S   0  0  0  0  0  0
    5.6500   52.5367   28.0817 O   0  0  0  0  0  0
    7.1982   54.4967   27.6817 O   0  0  0  0  0  0
    5.3207   54.0866   25.9235 C   0  0  0  0  0  0
    3.9706   54.0967   25.5552 C   0  0  0  0  0  0
    3.6130   54.0967   24.2097 C   0  0  0  0  0  0
    4.6016   54.0967   23.2298 C   0  0  0  0  0  0
    5.9477   54.1182   23.5839 C   0  0  0  0  0  0
    6.3051   54.1128   24.9286 C   0  0  0  0  0  0
    4.1069   54.0967   21.3935 Br  0  0  0  0  0  0
    0.7799   56.4355   30.0999 H   0  0  0  0  0  0
    3.1479   56.7104   29.6692 H   0  0  0  0  0  0
    3.3489   52.6615   28.2192 H   0  0  0  0  0  0
   -0.3588   54.3151   29.5242 H   0  0  0  0  0  0
   -0.7499   50.0967   27.0045 H   0  0  0  0  0  0
   -1.7108   50.4529   25.6515 H   0  0  0  0  0  0
    0.9799   48.9809   25.4224 H   0  0  0  0  0  0
   -0.4942   48.1675   25.8204 H   0  0  0  0  0  0
   -1.5340   48.8425   23.6856 H   0  0  0  0  0  0
   -0.0956   47.9020   23.4593 H   0  0  0  0  0  0
   -0.1802   49.7172   21.8392 H   0  0  0  0  0  0
    1.2082   49.9110   22.8605 H   0  0  0  0  0  0
   -1.4144   51.4119   23.2964 H   0  0  0  0  0  0
   -0.1296   52.0513   22.3121 H   0  0  0  0  0  0
    0.7044   52.8522   24.2447 H   0  0  0  0  0  0
    5.2238   55.7981   28.9135 H   0  0  0  0  0  0
    3.1789   54.0797   26.2801 H   0  0  0  0  0  0
    2.5716   54.0939   23.9259 H   0  0  0  0  0  0
    6.7128   54.1267   22.8214 H   0  0  0  0  0  0
    7.3532   54.0967   25.1875 H   0  0  0  0  0  0
  1  6  2  0  0  0
  1  2  1  0  0  0
  1 29  1  0  0  0
  2  3  2  0  0  0
  2 30  1  0  0  0
  3  4  1  0  0  0
  3 18  1  0  0  0
  4  5  2  0  0  0
  4 31  1  0  0  0
  5  6  1  0  0  0
  5  7  1  0  0  0
  6 32  1  0  0  0
  7  8  2  0  0  0
  7  9  2  0  0  0
  7 10  1  0  0  0
 10 11  2  0  0  0
 11 17  1  0  0  0
 11 12  1  0  0  0
 12 13  1  0  0  0
 12 33  1  0  0  0
 12 34  1  0  0  0
 13 14  1  0  0  0
 13 35  1  0  0  0
 13 36  1  0  0  0
 14 15  1  0  0  0
 14 37  1  0  0  0
 14 38  1  0  0  0
 15 16  1  0  0  0
 15 39  1  0  0  0
 15 40  1  0  0  0
 16 17  1  0  0  0
 16 41  1  0  0  0
 16 42  1  0  0  0
 17 43  1  0  0  0
 18 19  1  0  0  0
 18 44  1  0  0  0
 19 20  2  0  0  0
 19 21  2  0  0  0
 19 22  1  0  0  0
 22 27  2  0  0  0
 22 23  1  0  0  0
 23 24  2  0  0  0
 23 45  1  0  0  0
 24 25  1  0  0  0
 24 46  1  0  0  0
 25 26  2  0  0  0
 25 28  1  0  0  0
 26 27  1  0  0  0
 26 47  1  0  0  0
 27 48  1  0  0  0
M  END
> <i_i_glide_confnum>
86

> <i_i_glide_lignum>
5145

> <i_i_glide_posenum>
292

> <i_i_glide_rotatable_bonds>
5

> <i_m_Source_File_Index>
4131

> <b_m_subgroup_collapsed>
0

> <r_i_docking_score>
-5.10545

> <r_i_glide_ecoul>
-1.45179

> <r_i_glide_eff_state_penalty>
0

> <r_i_glide_einternal>
11.8454

> <r_i_glide_emodel>
-48.9249

> <r_i_glide_energy>
-42.5835

> <r_i_glide_erotb>
0.429477

> <r_i_glide_esite>
-0.0506903

> <r_i_glide_evdw>
-41.1317

> <r_i_glide_gscore>
-5.10545

> <r_i_glide_hbond>
0

> <r_i_glide_ligand_efficiency>
-0.182337

> <r_i_glide_ligand_efficiency_ln>
-1.17849

> <r_i_glide_ligand_efficiency_sa>
-0.553684

> <r_i_glide_lipo>
-3.06479

> <r_i_glide_metal>
0

> <r_i_glide_rewards>
-0.14509

> <s_i_glide_gridfile>
wee1_glide-grid

> <s_m_Source_File>
wee1_decoys_glide_SP.sdf

> <s_m_Source_Path>
/Users/zhangxujun/Desktop

> <s_m_entry_id>
4406

> <s_m_entry_name>
wee1_decoys_glide_SP.4131

> <s_m_subgroup_title>
wee1_decoys_glide_SP

> <s_m_subgroupid>
wee1_decoys_glide_SP


$$$$
