ZINC39637454_783
                    3D
 Schrodinger Suite 2024-2.
 75 79  0  0  1  0            999 V2000
    6.5636   57.4334   19.2824 C   0  0  0  0  0  0
    5.8780   56.1279   18.8316 C   0  0  1  0  0  0
    4.8015   56.2324   18.9848 H   0  0  0  0  0  0
    6.0928   55.9208   17.3123 C   0  0  0  0  0  0
    5.4638   54.6220   16.7900 C   0  0  0  0  0  0
    6.0082   53.4200   17.5777 C   0  0  0  0  0  0
    5.7414   53.5513   19.0925 C   0  0  1  0  0  0
    6.3043   52.7227   19.5264 H   0  0  0  0  0  0
    6.3326   54.8815   19.6598 C   0  0  2  0  0  0
    7.4077   54.8218   19.4860 H   0  0  0  0  0  0
    6.1005   55.0376   21.1811 C   0  0  0  0  0  0
    4.3457   53.2982   19.4640 N   0  0  0  0  0  0
    3.9120   52.4808   20.4429 C   0  0  0  0  0  0
    4.6560   51.9382   21.2647 O   0  0  0  0  0  0
    2.3809   52.3052   20.5037 C   0  0  2  0  0  0
    1.9334   53.2172   20.1194 H   0  0  0  0  0  0
    1.8887   52.0741   21.9386 C   0  0  0  0  0  0
    0.6031   51.3849   21.7361 N   0  0  0  0  0  0
    0.4052   51.0279   20.3213 C   0  0  0  0  0  0
    1.8206   51.1102   19.7013 C   0  0  0  0  0  0
    2.6112   49.7832   19.9247 C   0  0  0  0  0  0
    1.9933   48.5806   19.1842 C   0  0  0  0  0  0
    1.9044   48.9246   17.6822 N   0  3  0  0  0  0
    1.1494   50.2380   17.3907 C   0  0  0  0  0  0
    1.8556   51.3596   18.1710 C   0  0  0  0  0  0
   -0.1955   50.8577   22.7048 C   0  0  0  0  0  0
   -1.1418   50.1159   22.4274 O   0  0  0  0  0  0
    0.0789   51.1501   24.1640 C   0  0  0  0  0  0
   -0.1409   50.1622   25.1370 C   0  0  0  0  0  0
    0.0924   50.4422   26.4855 C   0  0  0  0  0  0
    0.5599   51.7031   26.8453 C   0  0  0  0  0  0
    0.7393   52.6875   25.9190 N   0  0  0  0  0  0
    0.4774   52.4142   24.6183 C   0  0  0  0  0  0
    0.8390   51.9624   28.1774 O   0  0  0  0  0  0
    1.3563   53.1704   28.5985 C   0  0  0  0  0  0
    2.5897   53.6350   28.1287 C   0  0  0  0  0  0
    3.0611   54.8839   28.5312 C   0  0  0  0  0  0
    2.3044   55.6530   29.4134 C   0  0  0  0  0  0
    1.1050   55.1676   29.9321 C   0  0  0  0  0  0
    0.6318   53.9223   29.5241 C   0  0  0  0  0  0
    7.6506   57.3560   19.2144 H   0  0  0  0  0  0
    6.2533   58.2796   18.6660 H   0  0  0  0  0  0
    6.3048   57.6840   20.3110 H   0  0  0  0  0  0
    5.7098   56.7798   16.7599 H   0  0  0  0  0  0
    7.1626   55.9074   17.1025 H   0  0  0  0  0  0
    4.3777   54.6678   16.8753 H   0  0  0  0  0  0
    5.6836   54.5029   15.7271 H   0  0  0  0  0  0
    5.5630   52.4967   17.2030 H   0  0  0  0  0  0
    7.0801   53.3210   17.3996 H   0  0  0  0  0  0
    5.0630   55.2963   21.3961 H   0  0  0  0  0  0
    6.7396   55.8064   21.6141 H   0  0  0  0  0  0
    6.3045   54.1075   21.7136 H   0  0  0  0  0  0
    3.6574   53.7348   18.8720 H   0  0  0  0  0  0
    2.5425   51.3690   22.4566 H   0  0  0  0  0  0
    1.8533   53.0224   22.4708 H   0  0  0  0  0  0
   -0.1791   51.8223   19.8527 H   0  0  0  0  0  0
   -0.0821   50.0731   20.1245 H   0  0  0  0  0  0
    3.6505   49.8986   19.6281 H   0  0  0  0  0  0
    2.6525   49.5444   20.9894 H   0  0  0  0  0  0
    2.6304   47.6977   19.2520 H   0  0  0  0  0  0
    0.9883   48.3196   19.5173 H   0  0  0  0  0  0
    2.8606   49.0188   17.2954 H   0  0  0  0  0  0
    1.2116   50.3848   16.3111 H   0  0  0  0  0  0
    0.1055   50.0900   17.6778 H   0  0  0  0  0  0
    1.3513   52.3002   17.9400 H   0  0  0  0  0  0
    2.8821   51.4874   17.8182 H   0  0  0  0  0  0
   -0.4866   49.1771   24.8626 H   0  0  0  0  0  0
   -0.0945   49.6964   27.2456 H   0  0  0  0  0  0
    0.5588   53.2624   23.9591 H   0  0  0  0  0  0
    3.1610   53.0416   27.4292 H   0  0  0  0  0  0
    4.0004   55.2544   28.1512 H   0  0  0  0  0  0
    2.6623   56.6301   29.6994 H   0  0  0  0  0  0
    0.5369   55.7629   30.6313 H   0  0  0  0  0  0
   -0.3059   53.5453   29.9044 H   0  0  0  0  0  0
    1.4842   48.1583   17.1733 H   0  0  0  0  0  0
  1  2  1  0  0  0
  1 41  1  0  0  0
  1 42  1  0  0  0
  1 43  1  0  0  0
  2  3  1  0  0  0
  2  9  1  0  0  0
  2  4  1  0  0  0
  4  5  1  0  0  0
  4 44  1  0  0  0
  4 45  1  0  0  0
  5  6  1  0  0  0
  5 46  1  0  0  0
  5 47  1  0  0  0
  6  7  1  0  0  0
  6 48  1  0  0  0
  6 49  1  0  0  0
  7  8  1  0  0  0
  7  9  1  0  0  0
  7 12  1  0  0  0
  9 10  1  0  0  0
  9 11  1  0  0  0
 11 50  1  0  0  0
 11 51  1  0  0  0
 11 52  1  0  0  0
 12 13  1  0  0  0
 12 53  1  0  0  0
 13 14  2  0  0  0
 13 15  1  0  0  0
 15 16  1  0  0  0
 15 20  1  0  0  0
 15 17  1  0  0  0
 17 18  1  0  0  0
 17 54  1  0  0  0
 17 55  1  0  0  0
 18 19  1  0  0  0
 18 26  1  0  0  0
 19 20  1  0  0  0
 19 56  1  0  0  0
 19 57  1  0  0  0
 20 25  1  0  0  0
 20 21  1  0  0  0
 21 22  1  0  0  0
 21 58  1  0  0  0
 21 59  1  0  0  0
 22 23  1  0  0  0
 22 60  1  0  0  0
 22 61  1  0  0  0
 23 24  1  0  0  0
 23 62  1  0  0  0
 23 75  1  0  0  0
 24 25  1  0  0  0
 24 63  1  0  0  0
 24 64  1  0  0  0
 25 65  1  0  0  0
 25 66  1  0  0  0
 26 27  2  0  0  0
 26 28  1  0  0  0
 28 33  2  0  0  0
 28 29  1  0  0  0
 29 30  2  0  0  0
 29 67  1  0  0  0
 30 31  1  0  0  0
 30 68  1  0  0  0
 31 32  2  0  0  0
 31 34  1  0  0  0
 32 33  1  0  0  0
 33 69  1  0  0  0
 34 35  1  0  0  0
 35 40  2  0  0  0
 35 36  1  0  0  0
 36 37  2  0  0  0
 36 70  1  0  0  0
 37 38  1  0  0  0
 37 71  1  0  0  0
 38 39  2  0  0  0
 38 72  1  0  0  0
 39 40  1  0  0  0
 39 73  1  0  0  0
 40 74  1  0  0  0
M  CHG  1  23   1
M  END
> <i_i_glide_confnum>
141

> <i_i_glide_lignum>
784

> <i_i_glide_posenum>
261

> <i_i_glide_rotatable_bonds>
7

> <i_m_Source_File_Index>
535

> <b_m_subgroup_collapsed>
0

> <r_i_docking_score>
-5.47259

> <r_i_glide_ecoul>
-9.55609

> <r_i_glide_eff_state_penalty>
0

> <r_i_glide_einternal>
5.21711

> <r_i_glide_emodel>
-67.7941

> <r_i_glide_energy>
-51.7657

> <r_i_glide_erotb>
0.589592

> <r_i_glide_esite>
-0.151179

> <r_i_glide_evdw>
-42.2096

> <r_i_glide_gscore>
-5.47259

> <r_i_glide_hbond>
-0.178839

> <r_i_glide_ligand_efficiency>
-0.152016

> <r_i_glide_ligand_efficiency_ln>
-1.19397

> <r_i_glide_ligand_efficiency_sa>
-0.501947

> <r_i_glide_lipo>
-2.09852

> <r_i_glide_metal>
0

> <r_i_glide_rewards>
-0.0897535

> <s_i_glide_gridfile>
wee1_glide-grid

> <s_m_Source_File>
wee1_decoys_glide_SP.sdf

> <s_m_Source_Path>
/Users/zhangxujun/Desktop

> <s_m_entry_id>
810

> <s_m_entry_name>
wee1_decoys_glide_SP.535

> <s_m_subgroup_title>
wee1_decoys_glide_SP

> <s_m_subgroupid>
wee1_decoys_glide_SP


$$$$
