ZINC61093323_4811
                    3D
 Schrodinger Suite 2024-2.
 29 30  0  0  1  0            999 V2000
    1.0204   52.4955   22.8471 C   0  0  0  0  0  0
    0.0082   52.4404   23.8039 C   0  0  0  0  0  0
   -0.2570   51.2461   24.4853 C   0  0  0  0  0  0
    0.5017   50.1010   24.1955 C   0  0  0  0  0  0
    1.5050   50.1649   23.2275 C   0  0  0  0  0  0
    1.7676   51.3573   22.5589 C   0  0  0  0  0  0
    2.7552   51.4112   21.6382 F   0  0  0  0  0  0
    0.3043   48.8940   24.8635 N   0  0  0  0  0  0
   -1.5421   51.2381   25.7406 S   0  0  0  0  0  0
   -2.4091   50.0892   25.4617 O   0  0  0  0  0  0
   -2.0963   52.5930   25.8413 O   0  0  0  0  0  0
   -0.7198   50.8967   27.2678 N   0  0  0  0  0  0
   -0.0262   51.8761   27.9877 C   0  0  0  0  0  0
    0.9528   52.6578   27.3652 C   0  0  0  0  0  0
    1.6055   53.6654   28.0715 C   0  0  0  0  0  0
    1.2842   53.8992   29.4078 C   0  0  0  0  0  0
    0.3227   53.1117   30.0435 C   0  0  0  0  0  0
   -0.3321   52.1025   29.3351 C   0  0  0  0  0  0
   -1.2738   51.3597   29.9595 F   0  0  0  0  0  0
    1.9059   54.8914   30.0817 F   0  0  0  0  0  0
    2.5477   54.4161   27.4564 F   0  0  0  0  0  0
    1.2336   53.4177   22.3274 H   0  0  0  0  0  0
   -0.5594   53.3335   24.0222 H   0  0  0  0  0  0
    2.0975   49.2967   22.9856 H   0  0  0  0  0  0
    1.0256   48.1856   24.8149 H   0  0  0  0  0  0
   -0.4068   48.8395   25.5824 H   0  0  0  0  0  0
   -0.8955   49.9861   27.6915 H   0  0  0  0  0  0
    1.2190   52.4914   26.3337 H   0  0  0  0  0  0
    0.0751   53.2808   31.0821 H   0  0  0  0  0  0
  1  6  2  0  0  0
  1  2  1  0  0  0
  1 22  1  0  0  0
  2  3  2  0  0  0
  2 23  1  0  0  0
  3  4  1  0  0  0
  3  9  1  0  0  0
  4  5  2  0  0  0
  4  8  1  0  0  0
  5  6  1  0  0  0
  5 24  1  0  0  0
  6  7  1  0  0  0
  8 25  1  0  0  0
  8 26  1  0  0  0
  9 10  2  0  0  0
  9 11  2  0  0  0
  9 12  1  0  0  0
 12 13  1  0  0  0
 12 27  1  0  0  0
 13 18  2  0  0  0
 13 14  1  0  0  0
 14 15  2  0  0  0
 14 28  1  0  0  0
 15 16  1  0  0  0
 15 21  1  0  0  0
 16 17  2  0  0  0
 16 20  1  0  0  0
 17 18  1  0  0  0
 17 29  1  0  0  0
 18 19  1  0  0  0
M  END
> <i_i_glide_confnum>
16

> <i_i_glide_lignum>
4812

> <i_i_glide_posenum>
132

> <i_i_glide_rotatable_bonds>
3

> <i_m_Source_File_Index>
3099

> <b_m_subgroup_collapsed>
0

> <r_i_docking_score>
-4.31612

> <r_i_glide_ecoul>
-4.77476

> <r_i_glide_eff_state_penalty>
0

> <r_i_glide_einternal>
1.89579

> <r_i_glide_emodel>
-37.8257

> <r_i_glide_energy>
-31.1961

> <r_i_glide_erotb>
0.546082

> <r_i_glide_esite>
-0.303684

> <r_i_glide_evdw>
-26.4213

> <r_i_glide_gscore>
-4.31612

> <r_i_glide_hbond>
-0.413678

> <r_i_glide_ligand_efficiency>
-0.205529

> <r_i_glide_ligand_efficiency_ln>
-1.06715

> <r_i_glide_ligand_efficiency_sa>
-0.56704

> <r_i_glide_lipo>
-1.0565

> <r_i_glide_metal>
0

> <r_i_glide_rewards>
-1.05105

> <s_i_glide_gridfile>
wee1_glide-grid

> <s_m_Source_File>
wee1_decoys_glide_SP.sdf

> <s_m_Source_Path>
/Users/zhangxujun/Desktop

> <s_m_entry_id>
3374

> <s_m_entry_name>
wee1_decoys_glide_SP.3099

> <s_m_subgroup_title>
wee1_decoys_glide_SP

> <s_m_subgroupid>
wee1_decoys_glide_SP


$$$$
