ZINC36637282_5699
                    3D
 Schrodinger Suite 2024-2.
 70 73  0  0  1  0            999 V2000
   -1.1303   51.3519   26.2439 C   0  0  0  0  0  0
    0.2414   50.8508   26.7393 C   0  0  0  0  0  0
    1.2358   51.9210   27.2806 C   0  0  2  0  0  0
    2.1343   51.3787   27.5770 H   0  0  0  0  0  0
    0.6596   52.5816   28.5655 C   0  0  0  0  0  0
    1.5452   53.7099   29.1192 C   0  0  0  0  0  0
    1.8493   54.7536   28.0364 C   0  0  0  0  0  0
    2.4908   54.0916   26.8057 C   0  0  0  0  0  0
    1.7020   52.9467   26.2625 N   0  0  0  0  0  0
    1.4767   52.8104   24.4734 S   0  0  0  0  0  0
    0.3758   53.6974   24.0832 O   0  0  0  0  0  0
    1.4102   51.3976   24.0884 O   0  0  0  0  0  0
    2.9070   53.4230   23.5720 C   0  0  0  0  0  0
    2.7071   53.6118   22.2096 C   0  0  0  0  0  0
    3.7311   54.0955   21.4125 C   0  0  0  0  0  0
    4.9905   54.3741   21.9487 C   0  0  0  0  0  0
    5.1979   54.1561   23.3191 C   0  0  0  0  0  0
    4.1603   53.6967   24.1290 C   0  0  0  0  0  0
    6.0661   55.0249   21.1012 C   0  0  0  0  0  0
    6.8933   55.7399   21.6808 O   0  0  0  0  0  0
    6.0806   54.8087   19.7447 N   0  0  0  0  0  0
    5.8001   53.4584   19.1895 C   0  0  0  0  0  0
    5.2885   53.4191   17.7289 C   0  0  0  0  0  0
    3.7422   53.4780   17.6798 N   0  3  0  0  0  0
    3.2359   53.9544   16.3018 C   0  0  0  0  0  0
    3.0975   52.1190   18.0466 C   0  0  0  0  0  0
    6.9692   55.5972   19.0101 C   0  0  0  0  0  0
    6.7617   56.8670   18.7746 N   0  0  0  0  0  0
    7.8312   57.4326   18.1542 C   0  0  0  0  0  0
    7.9206   58.7803   17.7783 C   0  0  0  0  0  0
    9.0923   59.2223   17.1623 C   0  0  0  0  0  0
   10.1644   58.3574   16.9244 C   0  0  0  0  0  0
   10.0961   57.0112   17.2951 C   0  0  0  0  0  0
    8.9204   56.5544   17.9050 C   0  0  0  0  0  0
    8.5109   54.9446   18.4812 S   0  0  0  0  0  0
   11.4261   58.8905   16.2689 C   0  0  0  0  0  0
   -1.7205   50.5168   25.8664 H   0  0  0  0  0  0
   -1.7077   51.8057   27.0480 H   0  0  0  0  0  0
   -1.0537   52.0788   25.4397 H   0  0  0  0  0  0
    0.7063   50.2168   25.9888 H   0  0  0  0  0  0
    0.0344   50.1487   27.5477 H   0  0  0  0  0  0
    0.5608   51.8337   29.3542 H   0  0  0  0  0  0
   -0.3206   53.0152   28.3663 H   0  0  0  0  0  0
    2.4790   53.2901   29.4977 H   0  0  0  0  0  0
    1.0551   54.1851   29.9710 H   0  0  0  0  0  0
    2.5161   55.5193   28.4344 H   0  0  0  0  0  0
    0.9349   55.2718   27.7476 H   0  0  0  0  0  0
    3.4566   53.6895   27.1131 H   0  0  0  0  0  0
    2.7043   54.8125   26.0177 H   0  0  0  0  0  0
    1.7406   53.4169   21.7659 H   0  0  0  0  0  0
    3.5045   54.3021   20.3783 H   0  0  0  0  0  0
    6.1582   54.3664   23.7700 H   0  0  0  0  0  0
    4.3707   53.5115   25.1686 H   0  0  0  0  0  0
    6.7044   52.8670   19.2567 H   0  0  0  0  0  0
    5.1090   52.8954   19.8085 H   0  0  0  0  0  0
    5.6574   54.2613   17.1409 H   0  0  0  0  0  0
    5.5725   52.4977   17.2147 H   0  0  0  0  0  0
    3.5718   53.2359   15.5507 H   0  0  0  0  0  0
    2.1465   54.0012   16.3474 H   0  0  0  0  0  0
    3.6531   54.9469   16.1192 H   0  0  0  0  0  0
    3.3789   51.3901   17.2824 H   0  0  0  0  0  0
    3.4624   51.8019   19.0229 H   0  0  0  0  0  0
    2.0163   52.2606   18.0732 H   0  0  0  0  0  0
    7.1030   59.4666   17.9519 H   0  0  0  0  0  0
    9.1631   60.2581   16.8619 H   0  0  0  0  0  0
   10.9255   56.3403   17.1215 H   0  0  0  0  0  0
   12.2970   58.2889   16.5321 H   0  0  0  0  0  0
   11.3192   58.9027   15.1835 H   0  0  0  0  0  0
   11.6361   59.9066   16.6045 H   0  0  0  0  0  0
    3.4421   54.1682   18.3573 H   0  0  0  0  0  0
  1  2  1  0  0  0
  1 37  1  0  0  0
  1 38  1  0  0  0
  1 39  1  0  0  0
  2  3  1  0  0  0
  2 40  1  0  0  0
  2 41  1  0  0  0
  3  4  1  0  0  0
  3  9  1  0  0  0
  3  5  1  0  0  0
  5  6  1  0  0  0
  5 42  1  0  0  0
  5 43  1  0  0  0
  6  7  1  0  0  0
  6 44  1  0  0  0
  6 45  1  0  0  0
  7  8  1  0  0  0
  7 46  1  0  0  0
  7 47  1  0  0  0
  8  9  1  0  0  0
  8 48  1  0  0  0
  8 49  1  0  0  0
  9 10  1  0  0  0
 10 11  2  0  0  0
 10 12  2  0  0  0
 10 13  1  0  0  0
 13 18  2  0  0  0
 13 14  1  0  0  0
 14 15  2  0  0  0
 14 50  1  0  0  0
 15 16  1  0  0  0
 15 51  1  0  0  0
 16 17  2  0  0  0
 16 19  1  0  0  0
 17 18  1  0  0  0
 17 52  1  0  0  0
 18 53  1  0  0  0
 19 20  2  0  0  0
 19 21  1  0  0  0
 21 22  1  0  0  0
 21 27  1  0  0  0
 22 23  1  0  0  0
 22 54  1  0  0  0
 22 55  1  0  0  0
 23 24  1  0  0  0
 23 56  1  0  0  0
 23 57  1  0  0  0
 24 25  1  0  0  0
 24 26  1  0  0  0
 24 70  1  0  0  0
 25 58  1  0  0  0
 25 59  1  0  0  0
 25 60  1  0  0  0
 26 61  1  0  0  0
 26 62  1  0  0  0
 26 63  1  0  0  0
 27 35  1  0  0  0
 27 28  2  0  0  0
 28 29  1  0  0  0
 29 34  2  0  0  0
 29 30  1  0  0  0
 30 31  2  0  0  0
 30 64  1  0  0  0
 31 32  1  0  0  0
 31 65  1  0  0  0
 32 33  2  0  0  0
 32 36  1  0  0  0
 33 34  1  0  0  0
 33 66  1  0  0  0
 34 35  1  0  0  0
 36 67  1  0  0  0
 36 68  1  0  0  0
 36 69  1  0  0  0
M  CHG  1  24   1
M  END
> <i_i_glide_confnum>
101

> <i_i_glide_lignum>
5700

> <i_i_glide_posenum>
282

> <i_i_glide_rotatable_bonds>
9

> <i_m_Source_File_Index>
3683

> <b_m_subgroup_collapsed>
0

> <r_i_docking_score>
-1.56382

> <r_i_glide_ecoul>
-5.80447

> <r_i_glide_eff_state_penalty>
0

> <r_i_glide_einternal>
19.5552

> <r_i_glide_emodel>
-27.9596

> <r_i_glide_energy>
-42.2382

> <r_i_glide_erotb>
0.540104

> <r_i_glide_esite>
-0.031053

> <r_i_glide_evdw>
-36.4338

> <r_i_glide_gscore>
-1.56382

> <r_i_glide_hbond>
0

> <r_i_glide_ligand_efficiency>
-0.0446806

> <r_i_glide_ligand_efficiency_ln>
-0.343293

> <r_i_glide_ligand_efficiency_sa>
-0.146153

> <r_i_glide_lipo>
-1.8934

> <r_i_glide_metal>
0

> <r_i_glide_rewards>
2.51289

> <s_i_glide_gridfile>
wee1_glide-grid

> <s_m_Source_File>
wee1_decoys_glide_SP.sdf

> <s_m_Source_Path>
/Users/zhangxujun/Desktop

> <s_m_entry_id>
3958

> <s_m_entry_name>
wee1_decoys_glide_SP.3683

> <s_m_subgroup_title>
wee1_decoys_glide_SP

> <s_m_subgroupid>
wee1_decoys_glide_SP


$$$$
