ZINC33009807_3428
                    3D
 Schrodinger Suite 2024-2.
 54 57  0  0  1  0            999 V2000
   -0.5555   48.0745   20.2898 C   0  0  0  0  0  0
    0.3572   49.1294   20.3005 C   0  0  0  0  0  0
    1.3994   49.1763   19.3573 C   0  0  0  0  0  0
    1.5077   48.1481   18.4143 C   0  0  0  0  0  0
    0.5943   47.0930   18.4078 C   0  0  0  0  0  0
   -0.4372   47.0566   19.3450 C   0  0  0  0  0  0
    0.7492   45.7015   17.1184 Br  0  0  0  0  0  0
    2.3773   50.1857   19.2869 N   0  0  0  0  0  0
    2.5489   51.2753   20.0619 C   0  0  0  0  0  0
    1.7934   51.6472   20.9609 O   0  0  0  0  0  0
    3.7039   51.8830   19.7349 N   0  0  0  0  0  0
    4.3577   52.9608   20.3668 C   0  0  0  0  0  0
    4.2827   53.0976   21.7610 C   0  0  0  0  0  0
    5.0374   54.0519   22.4383 C   0  0  0  0  0  0
    5.8756   54.8969   21.7076 C   0  0  0  0  0  0
    5.9052   54.8162   20.3179 C   0  0  0  0  0  0
    5.1433   53.8694   19.6119 C   0  0  0  0  0  0
    5.2266   53.8584   18.2003 N   0  0  0  0  0  0
    6.1630   54.6427   17.3886 C   0  0  0  0  0  0
    5.9910   54.2167   15.9365 C   0  0  0  0  0  0
    4.5131   53.9053   15.8794 C   0  0  0  0  0  0
    4.2506   53.2966   17.2553 C   0  0  0  0  0  0
    4.8680   54.0947   23.8306 N   0  0  0  0  0  0
    5.6198   54.6748   24.7886 C   0  0  0  0  0  0
    6.6724   55.2852   24.5905 O   0  0  0  0  0  0
    5.0900   54.4973   26.1933 C   0  0  0  0  0  0
    3.7213   54.2909   26.4448 C   0  0  0  0  0  0
    3.2561   54.1484   27.7496 C   0  0  0  0  0  0
    4.1499   54.2198   28.8125 C   0  0  0  0  0  0
    5.5044   54.4268   28.5757 C   0  0  0  0  0  0
    5.9762   54.5583   27.2753 C   0  0  0  0  0  0
    3.6984   54.0952   30.0813 F   0  0  0  0  0  0
   -1.3541   48.0471   21.0167 H   0  0  0  0  0  0
    0.2309   49.8920   21.0519 H   0  0  0  0  0  0
    2.3045   48.1621   17.6815 H   0  0  0  0  0  0
   -1.1451   46.2412   19.3378 H   0  0  0  0  0  0
    3.0714   50.0423   18.5634 H   0  0  0  0  0  0
    4.1565   51.5651   18.8834 H   0  0  0  0  0  0
    3.6686   52.4199   22.3353 H   0  0  0  0  0  0
    6.4768   55.6508   22.1923 H   0  0  0  0  0  0
    6.5382   55.5145   19.7921 H   0  0  0  0  0  0
    5.9846   55.7119   17.5151 H   0  0  0  0  0  0
    7.1798   54.4354   17.7248 H   0  0  0  0  0  0
    6.2781   55.0045   15.2393 H   0  0  0  0  0  0
    6.6079   53.3439   15.7152 H   0  0  0  0  0  0
    4.2680   53.2145   15.0717 H   0  0  0  0  0  0
    3.9140   54.8061   15.7346 H   0  0  0  0  0  0
    4.3140   52.2094   17.1900 H   0  0  0  0  0  0
    3.2472   53.5961   17.5617 H   0  0  0  0  0  0
    4.0848   53.5593   24.1700 H   0  0  0  0  0  0
    2.9981   54.2522   25.6428 H   0  0  0  0  0  0
    2.2044   53.9921   27.9389 H   0  0  0  0  0  0
    6.1997   54.4968   29.3964 H   0  0  0  0  0  0
    7.0340   54.7194   27.1221 H   0  0  0  0  0  0
  1  6  2  0  0  0
  1  2  1  0  0  0
  1 33  1  0  0  0
  2  3  2  0  0  0
  2 34  1  0  0  0
  3  4  1  0  0  0
  3  8  1  0  0  0
  4  5  2  0  0  0
  4 35  1  0  0  0
  5  6  1  0  0  0
  5  7  1  0  0  0
  6 36  1  0  0  0
  8  9  1  0  0  0
  8 37  1  0  0  0
  9 10  2  0  0  0
  9 11  1  0  0  0
 11 12  1  0  0  0
 11 38  1  0  0  0
 12 17  2  0  0  0
 12 13  1  0  0  0
 13 14  2  0  0  0
 13 39  1  0  0  0
 14 15  1  0  0  0
 14 23  1  0  0  0
 15 16  2  0  0  0
 15 40  1  0  0  0
 16 17  1  0  0  0
 16 41  1  0  0  0
 17 18  1  0  0  0
 18 22  1  0  0  0
 18 19  1  0  0  0
 19 20  1  0  0  0
 19 42  1  0  0  0
 19 43  1  0  0  0
 20 21  1  0  0  0
 20 44  1  0  0  0
 20 45  1  0  0  0
 21 22  1  0  0  0
 21 46  1  0  0  0
 21 47  1  0  0  0
 22 48  1  0  0  0
 22 49  1  0  0  0
 23 24  1  0  0  0
 23 50  1  0  0  0
 24 25  2  0  0  0
 24 26  1  0  0  0
 26 31  2  0  0  0
 26 27  1  0  0  0
 27 28  2  0  0  0
 27 51  1  0  0  0
 28 29  1  0  0  0
 28 52  1  0  0  0
 29 30  2  0  0  0
 29 32  1  0  0  0
 30 31  1  0  0  0
 30 53  1  0  0  0
 31 54  1  0  0  0
M  END
> <i_i_glide_confnum>
255

> <i_i_glide_lignum>
3429

> <i_i_glide_posenum>
111

> <i_i_glide_rotatable_bonds>
8

> <i_m_Source_File_Index>
943

> <b_m_subgroup_collapsed>
0

> <r_i_docking_score>
-5.57311

> <r_i_glide_ecoul>
-5.97593

> <r_i_glide_eff_state_penalty>
0

> <r_i_glide_einternal>
6.26436

> <r_i_glide_emodel>
-62.3773

> <r_i_glide_energy>
-48.0978

> <r_i_glide_erotb>
0.577242

> <r_i_glide_esite>
-0.27618

> <r_i_glide_evdw>
-42.1219

> <r_i_glide_gscore>
-5.57311

> <r_i_glide_hbond>
-0.200015

> <r_i_glide_ligand_efficiency>
-0.17416

> <r_i_glide_ligand_efficiency_ln>
-1.24797

> <r_i_glide_ligand_efficiency_sa>
-0.552922

> <r_i_glide_lipo>
-2.15842

> <r_i_glide_metal>
0

> <r_i_glide_rewards>
-0.51325

> <s_i_glide_gridfile>
wee1_glide-grid

> <s_m_Source_File>
wee1_decoys_glide_SP.sdf

> <s_m_Source_Path>
/Users/zhangxujun/Desktop

> <s_m_entry_id>
1218

> <s_m_entry_name>
wee1_decoys_glide_SP.943

> <s_m_subgroup_title>
wee1_decoys_glide_SP

> <s_m_subgroupid>
wee1_decoys_glide_SP


$$$$
