ZINC39599589_4077
                    3D
 Schrodinger Suite 2024-2.
 66 70  0  0  1  0            999 V2000
   -3.9573   51.2857   27.1974 C   0  0  0  0  0  0
   -4.8529   50.8850   26.2135 C   0  0  0  0  0  0
   -4.4992   50.9454   24.8687 C   0  0  0  0  0  0
   -3.2317   51.4507   24.4844 C   0  0  0  0  0  0
   -2.8273   51.5029   23.1278 C   0  0  0  0  0  0
   -1.5791   52.0227   22.7512 C   0  0  0  0  0  0
   -0.7611   52.5582   23.7584 C   0  0  0  0  0  0
   -1.1051   52.4815   25.1026 C   0  0  0  0  0  0
   -2.3351   51.9095   25.4926 C   0  0  0  0  0  0
   -2.7062   51.7879   26.8524 C   0  0  0  0  0  0
   -1.2083   52.0372   21.2722 C   0  0  0  0  0  0
   -2.1227   52.0912   20.4484 O   0  0  0  0  0  0
    0.0897   52.0004   20.8598 N   0  0  0  0  0  0
    1.2768   51.8787   21.7005 C   0  0  0  0  0  0
    2.3628   51.3738   20.7516 C   0  0  1  0  0  0
    2.5477   50.3521   21.0924 H   0  0  0  0  0  0
    1.8331   51.3795   19.2904 C   0  0  0  0  0  0
    0.4495   52.0556   19.4374 C   0  0  0  0  0  0
    2.6991   52.0835   18.2075 C   0  0  0  0  0  0
    2.0801   51.9892   16.7968 C   0  0  0  0  0  0
    1.9038   50.4966   16.4447 N   0  3  0  0  0  0
    1.0767   49.7073   17.4769 C   0  0  0  0  0  0
    1.7630   49.8912   18.8422 C   0  0  0  0  0  0
    3.7320   52.0151   21.0393 C   0  0  0  0  0  0
    4.6989   51.2974   21.2742 O   0  0  0  0  0  0
    3.8080   53.3554   21.0207 N   0  0  0  0  0  0
    4.9728   54.1188   21.4731 C   0  0  0  0  0  0
    5.0996   54.2463   22.9933 C   0  0  0  0  0  0
    3.9823   54.1226   23.8275 C   0  0  0  0  0  0
    4.1088   54.2954   25.2009 C   0  0  0  0  0  0
    5.3586   54.5838   25.7655 C   0  0  0  0  0  0
    6.4726   54.6793   24.9332 C   0  0  0  0  0  0
    6.3509   54.5033   23.5577 C   0  0  0  0  0  0
    5.5633   54.8084   27.1134 O   0  0  0  0  0  0
    4.6357   54.2732   28.0618 C   0  0  0  0  0  0
    5.1450   54.4655   29.2721 F   0  0  0  0  0  0
    4.4695   52.9604   27.9108 F   0  0  0  0  0  0
    3.4575   54.8980   28.0261 F   0  0  0  0  0  0
   -4.2218   51.1928   28.2401 H   0  0  0  0  0  0
   -5.8210   50.4973   26.4971 H   0  0  0  0  0  0
   -5.1911   50.6078   24.1106 H   0  0  0  0  0  0
   -3.5058   51.1120   22.3818 H   0  0  0  0  0  0
    0.1604   53.0694   23.5449 H   0  0  0  0  0  0
   -0.4355   52.8666   25.8569 H   0  0  0  0  0  0
   -2.0096   52.0827   27.6230 H   0  0  0  0  0  0
    1.1315   51.1837   22.5301 H   0  0  0  0  0  0
    1.5182   52.8853   22.0407 H   0  0  0  0  0  0
    0.5897   53.1162   19.2358 H   0  0  0  0  0  0
   -0.2986   51.7092   18.7343 H   0  0  0  0  0  0
    2.8146   53.1385   18.4585 H   0  0  0  0  0  0
    3.7164   51.6963   18.1939 H   0  0  0  0  0  0
    1.1035   52.4672   16.7165 H   0  0  0  0  0  0
    2.7445   52.3955   16.0303 H   0  0  0  0  0  0
    1.5277   50.3858   15.5143 H   0  0  0  0  0  0
    0.0513   50.0722   17.4261 H   0  0  0  0  0  0
    1.1058   48.6686   17.1481 H   0  0  0  0  0  0
    2.7631   49.4429   18.8435 H   0  0  0  0  0  0
    1.1849   49.3166   19.5672 H   0  0  0  0  0  0
    2.9836   53.8826   20.7653 H   0  0  0  0  0  0
    4.9072   55.1254   21.0596 H   0  0  0  0  0  0
    5.8887   53.6848   21.0643 H   0  0  0  0  0  0
    3.0010   53.9290   23.4198 H   0  0  0  0  0  0
    3.2195   54.2099   25.8044 H   0  0  0  0  0  0
    7.4404   54.8951   25.3548 H   0  0  0  0  0  0
    7.2293   54.5900   22.9339 H   0  0  0  0  0  0
    2.8385   50.0610   16.4399 H   0  0  0  0  0  0
  1 10  2  0  0  0
  1  2  1  0  0  0
  1 39  1  0  0  0
  2  3  2  0  0  0
  2 40  1  0  0  0
  3  4  1  0  0  0
  3 41  1  0  0  0
  4  9  2  0  0  0
  4  5  1  0  0  0
  5  6  2  0  0  0
  5 42  1  0  0  0
  6  7  1  0  0  0
  6 11  1  0  0  0
  7  8  2  0  0  0
  7 43  1  0  0  0
  8  9  1  0  0  0
  8 44  1  0  0  0
  9 10  1  0  0  0
 10 45  1  0  0  0
 11 12  2  0  0  0
 11 13  1  0  0  0
 13 18  1  0  0  0
 13 14  1  0  0  0
 14 15  1  0  0  0
 14 46  1  0  0  0
 14 47  1  0  0  0
 15 16  1  0  0  0
 15 17  1  0  0  0
 15 24  1  0  0  0
 17 23  1  0  0  0
 17 18  1  0  0  0
 17 19  1  0  0  0
 18 48  1  0  0  0
 18 49  1  0  0  0
 19 20  1  0  0  0
 19 50  1  0  0  0
 19 51  1  0  0  0
 20 21  1  0  0  0
 20 52  1  0  0  0
 20 53  1  0  0  0
 21 22  1  0  0  0
 21 54  1  0  0  0
 21 66  1  0  0  0
 22 23  1  0  0  0
 22 55  1  0  0  0
 22 56  1  0  0  0
 23 57  1  0  0  0
 23 58  1  0  0  0
 24 25  2  0  0  0
 24 26  1  0  0  0
 26 27  1  0  0  0
 26 59  1  0  0  0
 27 28  1  0  0  0
 27 60  1  0  0  0
 27 61  1  0  0  0
 28 33  2  0  0  0
 28 29  1  0  0  0
 29 30  2  0  0  0
 29 62  1  0  0  0
 30 31  1  0  0  0
 30 63  1  0  0  0
 31 32  2  0  0  0
 31 34  1  0  0  0
 32 33  1  0  0  0
 32 64  1  0  0  0
 33 65  1  0  0  0
 34 35  1  0  0  0
 35 36  1  0  0  0
 35 37  1  0  0  0
 35 38  1  0  0  0
M  CHG  1  21   1
M  END
> <i_i_glide_confnum>
323

> <i_i_glide_lignum>
4078

> <i_i_glide_posenum>
126

> <i_i_glide_rotatable_bonds>
8

> <i_m_Source_File_Index>
708

> <b_m_subgroup_collapsed>
0

> <r_i_docking_score>
-6.69575

> <r_i_glide_ecoul>
-10.9122

> <r_i_glide_eff_state_penalty>
0

> <r_i_glide_einternal>
14.0869

> <r_i_glide_emodel>
-66.6876

> <r_i_glide_energy>
-51.3409

> <r_i_glide_erotb>
0.546257

> <r_i_glide_esite>
-0.125482

> <r_i_glide_evdw>
-40.4288

> <r_i_glide_gscore>
-6.69575

> <r_i_glide_hbond>
-0.685768

> <r_i_glide_ligand_efficiency>
-0.180966

> <r_i_glide_ligand_efficiency_ln>
-1.45215

> <r_i_glide_ligand_efficiency_sa>
-0.603019

> <r_i_glide_lipo>
-2.11528

> <r_i_glide_metal>
0

> <r_i_glide_rewards>
-0.657212

> <s_i_glide_gridfile>
wee1_glide-grid

> <s_m_Source_File>
wee1_decoys_glide_SP.sdf

> <s_m_Source_Path>
/Users/zhangxujun/Desktop

> <s_m_entry_id>
983

> <s_m_entry_name>
wee1_decoys_glide_SP.708

> <s_m_subgroup_title>
wee1_decoys_glide_SP

> <s_m_subgroupid>
wee1_decoys_glide_SP


$$$$
