ZINC09159357_2840
                    3D
 Schrodinger Suite 2024-2.
 53 58  0  0  1  0            999 V2000
   -0.7160   53.2585   17.5375 C   0  0  0  0  0  0
    0.1000   52.4940   18.3632 C   0  0  0  0  0  0
   -0.4671   51.7254   19.3742 C   0  0  0  0  0  0
   -1.8457   51.7235   19.6024 C   0  0  0  0  0  0
   -2.6524   52.4819   18.7334 C   0  0  0  0  0  0
   -2.0962   53.2492   17.7114 C   0  0  0  0  0  0
   -2.4949   50.9032   20.6962 C   0  0  0  0  0  0
   -2.0616   50.5265   22.0177 C   0  0  0  0  0  0
   -3.1486   49.8089   22.4948 C   0  0  0  0  0  0
   -4.1131   49.7998   21.5467 N   0  0  0  0  0  0
   -5.0164   49.3589   21.6346 H   0  0  0  0  0  0
   -3.7276   50.4693   20.4641 N   0  0  0  0  0  0
   -3.3267   49.1961   23.7084 O   0  0  0  0  0  0
   -2.2425   49.2679   24.5243 C   0  0  0  0  0  0
   -1.0778   49.9130   24.2595 C   0  0  0  0  0  0
   -0.8326   50.7167   22.9488 C   0  0  1  0  0  0
    0.4775   50.4216   22.2821 C   0  0  0  0  0  0
    0.9378   49.2932   21.6067 C   0  0  0  0  0  0
    2.1859   49.3258   20.9805 C   0  0  0  0  0  0
    2.9696   50.4828   21.0302 C   0  0  0  0  0  0
    2.5195   51.6020   21.7262 C   0  0  0  0  0  0
    1.2713   51.5524   22.3496 C   0  0  0  0  0  0
    0.5818   52.5662   22.9981 N   0  0  0  0  0  0
   -0.6793   52.2001   23.3421 C   0  0  0  0  0  0
   -1.5478   52.8962   23.8753 O   0  0  0  0  0  0
    1.1038   53.8993   23.2989 C   0  0  0  0  0  0
    2.2599   53.9376   24.2907 C   0  0  0  0  0  0
    2.0588   53.5716   25.6248 C   0  0  0  0  0  0
    3.1048   53.6799   26.5382 C   0  0  0  0  0  0
    4.3564   54.1204   26.1115 C   0  0  0  0  0  0
    4.5613   54.4826   24.7800 C   0  0  0  0  0  0
    3.5102   54.3973   23.8711 C   0  0  0  0  0  0
    5.6661   54.2218   27.2350 Cl  0  0  0  0  0  0
   -0.0675   49.8711   25.2641 C   0  0  0  0  0  0
    0.7038   49.8260   26.1215 N   0  0  0  0  0  0
   -2.5572   48.6009   25.6810 N   0  0  0  0  0  0
   -0.2752   53.8496   16.7478 H   0  0  0  0  0  0
    1.1720   52.4809   18.2132 H   0  0  0  0  0  0
    0.1930   51.1137   19.9465 H   0  0  0  0  0  0
   -3.7252   52.4875   18.8509 H   0  0  0  0  0  0
   -2.7282   53.8284   17.0549 H   0  0  0  0  0  0
    0.3125   48.4179   21.5226 H   0  0  0  0  0  0
    2.5385   48.4672   20.4293 H   0  0  0  0  0  0
    3.9150   50.5126   20.5148 H   0  0  0  0  0  0
    3.1227   52.4966   21.7397 H   0  0  0  0  0  0
    1.4158   54.3721   22.3677 H   0  0  0  0  0  0
    0.3039   54.5091   23.7084 H   0  0  0  0  0  0
    1.0941   53.2142   25.9539 H   0  0  0  0  0  0
    2.9511   53.3940   27.5685 H   0  0  0  0  0  0
    5.5319   54.8306   24.4549 H   0  0  0  0  0  0
    3.6699   54.6934   22.8437 H   0  0  0  0  0  0
   -1.8802   48.4975   26.4307 H   0  0  0  0  0  0
   -3.5222   48.4813   25.9449 H   0  0  0  0  0  0
  1  6  2  0  0  0
  1  2  1  0  0  0
  1 37  1  0  0  0
  2  3  2  0  0  0
  2 38  1  0  0  0
  3  4  1  0  0  0
  3 39  1  0  0  0
  4  5  2  0  0  0
  4  7  1  0  0  0
  5  6  1  0  0  0
  5 40  1  0  0  0
  6 41  1  0  0  0
  7 12  2  0  0  0
  7  8  1  0  0  0
  8 16  1  0  0  0
  8  9  2  0  0  0
  9 10  1  0  0  0
  9 13  1  0  0  0
 10 11  1  0  0  0
 10 12  1  0  0  0
 13 14  1  0  0  0
 14 15  2  0  0  0
 14 36  1  0  0  0
 15 16  1  0  0  0
 15 34  1  0  0  0
 16 24  1  0  0  0
 16 17  1  0  0  0
 17 22  2  0  0  0
 17 18  1  0  0  0
 18 19  2  0  0  0
 18 42  1  0  0  0
 19 20  1  0  0  0
 19 43  1  0  0  0
 20 21  2  0  0  0
 20 44  1  0  0  0
 21 22  1  0  0  0
 21 45  1  0  0  0
 22 23  1  0  0  0
 23 24  1  0  0  0
 23 26  1  0  0  0
 24 25  2  0  0  0
 26 27  1  0  0  0
 26 46  1  0  0  0
 26 47  1  0  0  0
 27 32  2  0  0  0
 27 28  1  0  0  0
 28 29  2  0  0  0
 28 48  1  0  0  0
 29 30  1  0  0  0
 29 49  1  0  0  0
 30 31  2  0  0  0
 30 33  1  0  0  0
 31 32  1  0  0  0
 31 50  1  0  0  0
 32 51  1  0  0  0
 34 35  3  0  0  0
 36 52  1  0  0  0
 36 53  1  0  0  0
M  END
> <i_i_glide_confnum>
29

> <i_i_glide_lignum>
2841

> <i_i_glide_posenum>
99

> <i_i_glide_rotatable_bonds>
4

> <i_m_Source_File_Index>
882

> <b_m_subgroup_collapsed>
0

> <r_i_docking_score>
-4.75988

> <r_i_glide_ecoul>
-3.09814

> <r_i_glide_eff_state_penalty>
0

> <r_i_glide_einternal>
3.45283

> <r_i_glide_emodel>
-49.3614

> <r_i_glide_energy>
-39.3005

> <r_i_glide_erotb>
0.264092

> <r_i_glide_esite>
-0.136996

> <r_i_glide_evdw>
-36.2024

> <r_i_glide_gscore>
-4.75988

> <r_i_glide_hbond>
-0.159475

> <r_i_glide_ligand_efficiency>
-0.135996

> <r_i_glide_ligand_efficiency_ln>
-1.0449

> <r_i_glide_ligand_efficiency_sa>
-0.444853

> <r_i_glide_lipo>
-2.06829

> <r_i_glide_metal>
0

> <r_i_glide_rewards>
-0.384372

> <s_i_glide_gridfile>
wee1_glide-grid

> <s_m_Source_File>
wee1_decoys_glide_SP.sdf

> <s_m_Source_Path>
/Users/zhangxujun/Desktop

> <s_m_entry_id>
1157

> <s_m_entry_name>
wee1_decoys_glide_SP.882

> <s_m_subgroup_title>
wee1_decoys_glide_SP

> <s_m_subgroupid>
wee1_decoys_glide_SP


$$$$
