ZINC64790090_611
                    3D
 Schrodinger Suite 2024-2.
 59 62  0  0  1  0            999 V2000
    4.1792   54.0173   21.0155 C   0  0  0  0  0  0
    3.3872   52.8610   21.5941 C   0  0  0  0  0  0
    3.4309   51.5961   20.9942 C   0  0  0  0  0  0
    2.7047   50.5450   21.5586 C   0  0  0  0  0  0
    1.9825   50.7694   22.6745 N   0  3  0  0  0  0
    1.9041   51.9704   23.2902 C   0  0  0  0  0  0
    2.6093   53.0479   22.7455 C   0  0  0  0  0  0
    1.1328   52.1415   24.4779 N   0  0  0  0  0  0
    0.3646   51.0629   25.1335 C   0  0  1  0  0  0
    1.1046   50.2793   25.2826 H   0  0  0  0  0  0
   -0.1662   51.4058   26.5330 C   0  0  0  0  0  0
   -1.4166   50.9763   27.0142 C   0  0  0  0  0  0
   -1.7264   51.2967   28.3254 C   0  0  0  0  0  0
   -0.4148   52.1811   29.0226 S   0  0  0  0  0  0
    0.5152   52.1050   27.5420 C   0  0  0  0  0  0
    1.7935   52.6479   27.4221 N   0  0  0  0  0  0
    2.5363   53.2827   28.3559 C   0  0  0  0  0  0
    2.2218   53.4889   29.5296 O   0  0  0  0  0  0
    3.8192   53.6966   27.8584 C   0  0  0  0  0  0
    4.2605   54.0592   26.5845 C   0  0  0  0  0  0
    5.6019   54.4257   26.7104 C   0  0  0  0  0  0
    5.9065   54.3175   28.0559 C   0  0  0  0  0  0
    4.8192   53.9074   28.7553 O   0  0  0  0  0  0
   -2.9584   50.9251   29.1148 C   0  0  0  0  0  0
   -0.6862   50.4510   24.1996 C   0  0  0  0  0  0
   -0.5781   49.1000   23.8501 C   0  0  0  0  0  0
   -1.5084   48.4955   23.0085 C   0  0  0  0  0  0
   -2.5822   49.2600   22.5316 C   0  0  0  0  0  0
   -2.7047   50.6034   22.8818 C   0  0  0  0  0  0
   -1.7514   51.2226   23.7079 C   0  0  0  0  0  0
   -1.7928   52.5583   24.0726 O   0  0  0  0  0  0
   -2.8181   53.3874   23.5505 C   0  0  0  0  0  0
   -1.2956   47.1660   22.7065 O   0  0  0  0  0  0
   -2.1801   46.5069   21.8078 C   0  0  0  0  0  0
    4.7574   53.7213   20.1385 H   0  0  0  0  0  0
    3.5055   54.8244   20.7259 H   0  0  0  0  0  0
    4.8678   54.4170   21.7621 H   0  0  0  0  0  0
    4.0160   51.4271   20.0986 H   0  0  0  0  0  0
    2.6826   49.5388   21.1610 H   0  0  0  0  0  0
    2.5648   54.0225   23.2101 H   0  0  0  0  0  0
    1.0460   53.0688   24.8678 H   0  0  0  0  0  0
   -2.1005   50.3891   26.4202 H   0  0  0  0  0  0
    2.2413   52.5046   26.5310 H   0  0  0  0  0  0
    3.6863   54.0457   25.6695 H   0  0  0  0  0  0
    6.2655   54.7397   25.9180 H   0  0  0  0  0  0
    6.7990   54.4964   28.6358 H   0  0  0  0  0  0
   -3.4024   50.0036   28.7385 H   0  0  0  0  0  0
   -2.7310   50.7473   30.1664 H   0  0  0  0  0  0
   -3.7240   51.6963   29.0570 H   0  0  0  0  0  0
    0.2327   48.5001   24.2390 H   0  0  0  0  0  0
   -3.3349   48.8273   21.8908 H   0  0  0  0  0  0
   -3.5543   51.1449   22.4993 H   0  0  0  0  0  0
   -2.5770   54.4401   23.6817 H   0  0  0  0  0  0
   -2.8967   53.2518   22.4813 H   0  0  0  0  0  0
   -3.7807   53.1809   24.0200 H   0  0  0  0  0  0
   -1.8438   45.4803   21.6619 H   0  0  0  0  0  0
   -3.1973   46.4704   22.2010 H   0  0  0  0  0  0
   -2.1905   46.9922   20.8302 H   0  0  0  0  0  0
    1.4523   50.0048   23.0703 H   0  0  0  0  0  0
  1  2  1  0  0  0
  1 35  1  0  0  0
  1 36  1  0  0  0
  1 37  1  0  0  0
  2  7  2  0  0  0
  2  3  1  0  0  0
  3  4  2  0  0  0
  3 38  1  0  0  0
  4  5  1  0  0  0
  4 39  1  0  0  0
  5  6  2  0  0  0
  5 59  1  0  0  0
  6  7  1  0  0  0
  6  8  1  0  0  0
  7 40  1  0  0  0
  8  9  1  0  0  0
  8 41  1  0  0  0
  9 10  1  0  0  0
  9 11  1  0  0  0
  9 25  1  0  0  0
 11 15  2  0  0  0
 11 12  1  0  0  0
 12 13  2  0  0  0
 12 42  1  0  0  0
 13 14  1  0  0  0
 13 24  1  0  0  0
 14 15  1  0  0  0
 15 16  1  0  0  0
 16 17  1  0  0  0
 16 43  1  0  0  0
 17 18  2  0  0  0
 17 19  1  0  0  0
 19 23  1  0  0  0
 19 20  2  0  0  0
 20 21  1  0  0  0
 20 44  1  0  0  0
 21 22  2  0  0  0
 21 45  1  0  0  0
 22 23  1  0  0  0
 22 46  1  0  0  0
 24 47  1  0  0  0
 24 48  1  0  0  0
 24 49  1  0  0  0
 25 30  2  0  0  0
 25 26  1  0  0  0
 26 27  2  0  0  0
 26 50  1  0  0  0
 27 28  1  0  0  0
 27 33  1  0  0  0
 28 29  2  0  0  0
 28 51  1  0  0  0
 29 30  1  0  0  0
 29 52  1  0  0  0
 30 31  1  0  0  0
 31 32  1  0  0  0
 32 53  1  0  0  0
 32 54  1  0  0  0
 32 55  1  0  0  0
 33 34  1  0  0  0
 34 56  1  0  0  0
 34 57  1  0  0  0
 34 58  1  0  0  0
M  CHG  1   5   1
M  END
> <i_i_glide_confnum>
183

> <i_i_glide_lignum>
612

> <i_i_glide_posenum>
383

> <i_i_glide_rotatable_bonds>
9

> <i_m_Source_File_Index>
5806

> <b_m_subgroup_collapsed>
0

> <r_i_docking_score>
-4.06798

> <r_i_glide_ecoul>
-3.39719

> <r_i_glide_eff_state_penalty>
0

> <r_i_glide_einternal>
9.36346

> <r_i_glide_emodel>
-51.6627

> <r_i_glide_energy>
-44.1981

> <r_i_glide_erotb>
0.653907

> <r_i_glide_esite>
0

> <r_i_glide_evdw>
-40.8009

> <r_i_glide_gscore>
-4.06798

> <r_i_glide_hbond>
0

> <r_i_glide_ligand_efficiency>
-0.123272

> <r_i_glide_ligand_efficiency_ln>
-0.904697

> <r_i_glide_ligand_efficiency_sa>
-0.395399

> <r_i_glide_lipo>
-1.67795

> <r_i_glide_metal>
0

> <r_i_glide_rewards>
-0.494316

> <s_i_glide_gridfile>
wee1_glide-grid

> <s_m_Source_File>
wee1_decoys_glide_SP.sdf

> <s_m_Source_Path>
/Users/zhangxujun/Desktop

> <s_m_entry_id>
6081

> <s_m_entry_name>
wee1_decoys_glide_SP.5806

> <s_m_subgroup_title>
wee1_decoys_glide_SP

> <s_m_subgroupid>
wee1_decoys_glide_SP


$$$$
