ZINC13387839_4351
                    3D
 Schrodinger Suite 2024-2.
 49 52  0  0  1  0            999 V2000
    5.5730   54.4960   28.0659 C   0  0  0  0  0  0
    6.7018   54.4968   27.2534 C   0  0  0  0  0  0
    6.5588   54.3401   25.8794 C   0  0  0  0  0  0
    5.2907   54.1793   25.3030 C   0  0  0  0  0  0
    4.1639   54.1757   26.1397 C   0  0  0  0  0  0
    4.3053   54.3370   27.5151 C   0  0  0  0  0  0
    5.1833   53.9321   23.7852 C   0  0  1  0  0  0
    5.5031   52.8967   23.7037 H   0  0  0  0  0  0
    3.7461   54.0154   23.1889 C   0  0  0  0  0  0
    3.6602   53.7336   21.6661 C   0  0  1  0  0  0
    2.7057   54.0963   21.2829 H   0  0  0  0  0  0
    4.7424   54.4964   21.0393 N   0  0  0  0  0  0
    5.9397   54.8360   21.6267 C   0  0  0  0  0  0
    6.7539   55.2966   20.6134 C   0  0  0  0  0  0
    5.9486   55.2888   19.4529 C   0  0  0  0  0  0
    4.7640   54.7644   19.7253 N   0  0  0  0  0  0
    6.3571   55.7627   18.1430 C   0  0  0  0  0  0
    7.3725   56.4414   17.9859 O   0  0  0  0  0  0
    5.5334   55.4291   17.1312 N   0  0  0  0  0  0
    5.6875   55.8482   15.7332 C   0  0  0  0  0  0
    4.6694   56.9205   15.2801 C   0  0  2  0  0  0
    4.8109   57.1610   14.2247 H   0  0  0  0  0  0
    4.6790   58.2305   16.0822 C   0  0  0  0  0  0
    3.2250   58.6305   16.0849 C   0  0  0  0  0  0
    2.5429   57.2820   16.2444 C   0  0  0  0  0  0
    3.3471   56.3963   15.4679 O   0  0  0  0  0  0
    8.5960   55.7543   20.8067 Br  0  0  0  0  0  0
    6.1540   54.6862   22.9806 N   0  0  0  0  0  0
    3.7139   52.2298   21.3058 C   0  0  0  0  0  0
    2.7873   51.5362   21.9686 F   0  0  0  0  0  0
    3.4957   52.0312   20.0072 F   0  0  0  0  0  0
    4.8978   51.6966   21.6026 F   0  0  0  0  0  0
    5.6841   54.6236   29.1328 H   0  0  0  0  0  0
    7.6817   54.6168   27.6902 H   0  0  0  0  0  0
    7.4423   54.3285   25.2607 H   0  0  0  0  0  0
    3.1682   54.0370   25.7501 H   0  0  0  0  0  0
    3.4343   54.3347   28.1531 H   0  0  0  0  0  0
    3.3011   54.9879   23.3998 H   0  0  0  0  0  0
    3.0976   53.3086   23.7046 H   0  0  0  0  0  0
    4.7550   54.8184   17.3336 H   0  0  0  0  0  0
    5.5771   54.9657   15.1025 H   0  0  0  0  0  0
    6.6977   56.2120   15.5338 H   0  0  0  0  0  0
    5.3448   58.9857   15.6616 H   0  0  0  0  0  0
    5.0066   58.0738   17.1099 H   0  0  0  0  0  0
    2.9485   59.0966   15.1391 H   0  0  0  0  0  0
    2.9814   59.3250   16.8878 H   0  0  0  0  0  0
    1.5078   57.2938   15.9025 H   0  0  0  0  0  0
    2.5613   56.9485   17.2816 H   0  0  0  0  0  0
    7.1037   54.6182   23.3197 H   0  0  0  0  0  0
  1  6  2  0  0  0
  1  2  1  0  0  0
  1 33  1  0  0  0
  2  3  2  0  0  0
  2 34  1  0  0  0
  3  4  1  0  0  0
  3 35  1  0  0  0
  4  5  2  0  0  0
  4  7  1  0  0  0
  5  6  1  0  0  0
  5 36  1  0  0  0
  6 37  1  0  0  0
  7  8  1  0  0  0
  7 28  1  0  0  0
  7  9  1  0  0  0
  9 10  1  0  0  0
  9 38  1  0  0  0
  9 39  1  0  0  0
 10 11  1  0  0  0
 10 12  1  0  0  0
 10 29  1  0  0  0
 12 16  1  0  0  0
 12 13  1  0  0  0
 13 14  2  0  0  0
 13 28  1  0  0  0
 14 15  1  0  0  0
 14 27  1  0  0  0
 15 16  2  0  0  0
 15 17  1  0  0  0
 17 18  2  0  0  0
 17 19  1  0  0  0
 19 20  1  0  0  0
 19 40  1  0  0  0
 20 21  1  0  0  0
 20 41  1  0  0  0
 20 42  1  0  0  0
 21 22  1  0  0  0
 21 26  1  0  0  0
 21 23  1  0  0  0
 23 24  1  0  0  0
 23 43  1  0  0  0
 23 44  1  0  0  0
 24 25  1  0  0  0
 24 45  1  0  0  0
 24 46  1  0  0  0
 25 26  1  0  0  0
 25 47  1  0  0  0
 25 48  1  0  0  0
 28 49  1  0  0  0
 29 30  1  0  0  0
 29 31  1  0  0  0
 29 32  1  0  0  0
M  END
> <i_i_glide_confnum>
54

> <i_i_glide_lignum>
4352

> <i_i_glide_posenum>
297

> <i_i_glide_rotatable_bonds>
6

> <i_m_Source_File_Index>
1515

> <b_m_subgroup_collapsed>
0

> <r_i_docking_score>
-5.02511

> <r_i_glide_ecoul>
-1.2801

> <r_i_glide_eff_state_penalty>
0

> <r_i_glide_einternal>
6.46256

> <r_i_glide_emodel>
-45.3018

> <r_i_glide_energy>
-37.4464

> <r_i_glide_erotb>
0.361185

> <r_i_glide_esite>
-0.0447591

> <r_i_glide_evdw>
-36.1663

> <r_i_glide_gscore>
-5.02511

> <r_i_glide_hbond>
0

> <r_i_glide_ligand_efficiency>
-0.17328

> <r_i_glide_ligand_efficiency_ln>
-1.15062

> <r_i_glide_ligand_efficiency_sa>
-0.53237

> <r_i_glide_lipo>
-2.88395

> <r_i_glide_metal>
0

> <r_i_glide_rewards>
-0.457257

> <s_i_glide_gridfile>
wee1_glide-grid

> <s_m_Source_File>
wee1_decoys_glide_SP.sdf

> <s_m_Source_Path>
/Users/zhangxujun/Desktop

> <s_m_entry_id>
1790

> <s_m_entry_name>
wee1_decoys_glide_SP.1515

> <s_m_subgroup_title>
wee1_decoys_glide_SP

> <s_m_subgroupid>
wee1_decoys_glide_SP


$$$$
