ZINC14273349_4529
                    3D
 Schrodinger Suite 2024-2.
 50 53  0  0  1  0            999 V2000
   -7.3788   49.9759   24.2408 C   0  0  0  0  0  0
   -5.8392   49.9603   24.2507 C   0  0  2  0  0  0
   -5.5267   49.6362   23.2557 H   0  0  0  0  0  0
   -5.2903   49.0042   25.3273 C   0  0  0  0  0  0
   -3.7697   48.7907   25.1753 C   0  0  0  0  0  0
   -3.0512   50.1430   25.0072 C   0  0  0  0  0  0
   -3.7852   51.3095   24.7088 C   0  0  0  0  0  0
   -2.8067   52.7298   24.6990 S   0  0  0  0  0  0
   -1.4056   51.7947   25.0794 C   0  0  0  0  0  0
   -1.6564   50.4083   25.1842 C   0  0  0  0  0  0
   -0.6253   49.4323   25.5380 C   0  0  0  0  0  0
    0.4516   49.7549   26.0289 O   0  0  0  0  0  0
   -0.8831   48.1501   25.2817 N   0  0  0  0  0  0
   -0.2228   52.4962   25.2367 N   0  0  0  0  0  0
    0.7619   52.5055   24.3183 C   0  0  0  0  0  0
    0.6384   51.9763   23.2092 O   0  0  0  0  0  0
    2.0514   53.2291   24.6838 C   0  0  0  0  0  0
    2.9749   53.4661   23.6584 C   0  0  0  0  0  0
    4.2273   54.0671   23.9052 C   0  0  0  0  0  0
    5.1788   54.2266   22.8655 C   0  0  0  0  0  0
    6.4026   54.8350   23.1229 C   0  0  0  0  0  0
    6.7041   55.2949   24.3983 C   0  0  0  0  0  0
    5.8059   55.1213   25.4457 C   0  0  0  0  0  0
    4.5463   54.4970   25.2269 C   0  0  0  0  0  0
    3.5960   54.2879   26.2657 C   0  0  0  0  0  0
    2.3805   53.6391   25.9977 C   0  0  0  0  0  0
    1.5042   53.4552   27.0456 O   0  0  0  0  0  0
    1.7630   52.3169   27.8653 C   0  0  0  0  0  0
    3.9621   54.8964   28.0448 Br  0  0  0  0  0  0
   -5.2958   51.3840   24.5086 C   0  0  0  0  0  0
   -7.7850   50.2931   25.2021 H   0  0  0  0  0  0
   -7.7594   50.6569   23.4782 H   0  0  0  0  0  0
   -7.7842   48.9876   24.0210 H   0  0  0  0  0  0
   -5.7844   48.0360   25.2399 H   0  0  0  0  0  0
   -5.5587   49.3533   26.3258 H   0  0  0  0  0  0
   -3.4062   48.2544   26.0542 H   0  0  0  0  0  0
   -3.5743   48.1545   24.3110 H   0  0  0  0  0  0
   -1.7960   47.8629   24.9747 H   0  0  0  0  0  0
   -0.2194   47.4686   25.6318 H   0  0  0  0  0  0
   -0.0490   52.9664   26.1157 H   0  0  0  0  0  0
    2.7588   53.1559   22.6438 H   0  0  0  0  0  0
    4.9424   53.8847   21.8674 H   0  0  0  0  0  0
    7.1211   54.9644   22.3254 H   0  0  0  0  0  0
    7.6466   55.7898   24.5714 H   0  0  0  0  0  0
    6.0721   55.4688   26.4320 H   0  0  0  0  0  0
    0.9142   52.1501   28.5279 H   0  0  0  0  0  0
    1.9040   51.4095   27.2817 H   0  0  0  0  0  0
    2.6461   52.4509   28.4878 H   0  0  0  0  0  0
   -5.5532   52.0469   23.6822 H   0  0  0  0  0  0
   -5.7560   51.8003   25.4066 H   0  0  0  0  0  0
  1  2  1  0  0  0
  1 31  1  0  0  0
  1 32  1  0  0  0
  1 33  1  0  0  0
  2  3  1  0  0  0
  2 30  1  0  0  0
  2  4  1  0  0  0
  4  5  1  0  0  0
  4 34  1  0  0  0
  4 35  1  0  0  0
  5  6  1  0  0  0
  5 36  1  0  0  0
  5 37  1  0  0  0
  6 10  1  0  0  0
  6  7  2  0  0  0
  7  8  1  0  0  0
  7 30  1  0  0  0
  8  9  1  0  0  0
  9 10  2  0  0  0
  9 14  1  0  0  0
 10 11  1  0  0  0
 11 12  2  0  0  0
 11 13  1  0  0  0
 13 38  1  0  0  0
 13 39  1  0  0  0
 14 15  1  0  0  0
 14 40  1  0  0  0
 15 16  2  0  0  0
 15 17  1  0  0  0
 17 26  2  0  0  0
 17 18  1  0  0  0
 18 19  2  0  0  0
 18 41  1  0  0  0
 19 24  1  0  0  0
 19 20  1  0  0  0
 20 21  2  0  0  0
 20 42  1  0  0  0
 21 22  1  0  0  0
 21 43  1  0  0  0
 22 23  2  0  0  0
 22 44  1  0  0  0
 23 24  1  0  0  0
 23 45  1  0  0  0
 24 25  2  0  0  0
 25 26  1  0  0  0
 25 29  1  0  0  0
 26 27  1  0  0  0
 27 28  1  0  0  0
 28 46  1  0  0  0
 28 47  1  0  0  0
 28 48  1  0  0  0
 30 49  1  0  0  0
 30 50  1  0  0  0
M  END
> <i_i_glide_confnum>
14

> <i_i_glide_lignum>
4530

> <i_i_glide_posenum>
185

> <i_i_glide_rotatable_bonds>
5

> <i_m_Source_File_Index>
5611

> <b_m_subgroup_collapsed>
0

> <r_i_docking_score>
-5.44829

> <r_i_glide_ecoul>
-1.74491

> <r_i_glide_eff_state_penalty>
0

> <r_i_glide_einternal>
11.2622

> <r_i_glide_emodel>
-48.2103

> <r_i_glide_energy>
-36.7176

> <r_i_glide_erotb>
0.270788

> <r_i_glide_esite>
-0.169293

> <r_i_glide_evdw>
-34.9727

> <r_i_glide_gscore>
-5.44829

> <r_i_glide_hbond>
-0.32

> <r_i_glide_ligand_efficiency>
-0.187872

> <r_i_glide_ligand_efficiency_ln>
-1.24752

> <r_i_glide_ligand_efficiency_sa>
-0.577203

> <r_i_glide_lipo>
-2.85105

> <r_i_glide_metal>
0

> <r_i_glide_rewards>
-0.368367

> <s_i_glide_gridfile>
wee1_glide-grid

> <s_m_Source_File>
wee1_decoys_glide_SP.sdf

> <s_m_Source_Path>
/Users/zhangxujun/Desktop

> <s_m_entry_id>
5886

> <s_m_entry_name>
wee1_decoys_glide_SP.5611

> <s_m_subgroup_title>
wee1_decoys_glide_SP

> <s_m_subgroupid>
wee1_decoys_glide_SP


$$$$
