ZINC13175295_1009
                    3D
 Schrodinger Suite 2024-2.
 67 71  0  0  1  0            999 V2000
    6.5569   55.1567   22.5620 C   0  0  0  0  0  0
    6.0938   54.0254   23.5126 C   0  0  1  0  0  0
    6.2361   53.0502   23.0426 H   0  0  0  0  0  0
    6.9156   54.0425   24.8079 C   0  0  0  0  0  0
    5.8986   54.0987   25.8997 C   0  0  0  0  0  0
    6.0984   54.1391   27.2813 C   0  0  0  0  0  0
    5.0027   54.2533   28.1355 C   0  0  0  0  0  0
    3.7141   54.3415   27.6083 C   0  0  0  0  0  0
    3.5173   54.3015   26.2266 C   0  0  0  0  0  0
    4.6141   54.1435   25.3642 C   0  0  0  0  0  0
    4.6780   54.0966   23.9497 N   0  0  0  0  0  0
    3.6173   53.9056   23.1049 C   0  0  0  0  0  0
    2.4492   53.9179   23.4981 O   0  0  0  0  0  0
    3.8436   53.6663   21.5992 C   0  0  0  0  0  0
    2.7901   52.3636   20.8735 S   0  0  0  0  0  0
    2.7156   52.8017   19.1347 C   0  0  0  0  0  0
    1.6247   52.6485   18.3520 C   0  0  0  0  0  0
    1.6253   53.1832   16.9163 C   0  0  2  0  0  0
    1.2913   52.3798   16.2560 H   0  0  0  0  0  0
    3.0746   53.5336   16.4614 C   0  0  0  0  0  0
    3.3890   53.7579   15.1629 C   0  0  0  0  0  0
    4.7420   54.2520   14.6554 C   0  0  0  0  0  0
    5.8838   53.7902   15.6056 C   0  0  0  0  0  0
    5.5152   54.1179   17.0920 C   0  0  0  0  0  0
    4.1094   53.6395   17.4908 C   0  0  0  0  0  0
    3.8890   53.3512   18.7186 N   0  0  0  0  0  0
    7.1556   54.5914   15.2508 C   0  0  0  0  0  0
    6.1022   52.2641   15.4475 C   0  0  0  0  0  0
    2.5277   53.7200   14.2064 O   0  5  0  0  0  0
    0.5972   54.3131   16.7310 C   0  0  0  0  0  0
    0.9622   55.6549   16.8822 C   0  0  0  0  0  0
    0.0095   56.6624   16.7560 C   0  0  0  0  0  0
   -1.3156   56.3512   16.4547 C   0  0  0  0  0  0
   -1.6813   55.0071   16.2850 C   0  0  0  0  0  0
   -0.7304   53.9986   16.4234 C   0  0  0  0  0  0
   -2.1894   57.4157   16.3456 O   0  0  0  0  0  0
   -3.4985   57.1874   15.8350 C   0  0  0  0  0  0
    0.4133   52.1143   18.8855 C   0  0  0  0  0  0
   -0.5947   51.7187   19.2986 N   0  0  0  0  0  0
    7.5508   54.9366   22.1721 H   0  0  0  0  0  0
    5.9000   55.3310   21.7126 H   0  0  0  0  0  0
    6.6568   56.0973   23.0986 H   0  0  0  0  0  0
    7.5044   53.1325   24.8821 H   0  0  0  0  0  0
    7.5477   54.9265   24.8812 H   0  0  0  0  0  0
    7.0929   54.0990   27.7012 H   0  0  0  0  0  0
    5.1552   54.2929   29.2039 H   0  0  0  0  0  0
    2.8660   54.4464   28.2687 H   0  0  0  0  0  0
    2.5077   54.3766   25.8557 H   0  0  0  0  0  0
    4.8612   53.3749   21.3529 H   0  0  0  0  0  0
    3.6274   54.6044   21.0898 H   0  0  0  0  0  0
    4.6690   55.3407   14.6590 H   0  0  0  0  0  0
    4.9465   53.9408   13.6288 H   0  0  0  0  0  0
    5.5621   55.1911   17.2803 H   0  0  0  0  0  0
    6.2525   53.6567   17.7521 H   0  0  0  0  0  0
    7.4645   54.4090   14.2209 H   0  0  0  0  0  0
    7.0048   55.6662   15.3599 H   0  0  0  0  0  0
    7.9925   54.3119   15.8921 H   0  0  0  0  0  0
    6.3978   52.0072   14.4302 H   0  0  0  0  0  0
    6.8851   51.9014   16.1144 H   0  0  0  0  0  0
    5.2001   51.6966   15.6752 H   0  0  0  0  0  0
    1.9807   55.9191   17.1273 H   0  0  0  0  0  0
    0.3033   57.6934   16.8934 H   0  0  0  0  0  0
   -2.6967   54.7268   16.0503 H   0  0  0  0  0  0
   -1.0289   52.9674   16.3002 H   0  0  0  0  0  0
   -4.0297   58.1376   15.7717 H   0  0  0  0  0  0
   -4.0788   56.5297   16.4807 H   0  0  0  0  0  0
   -3.4644   56.7593   14.8324 H   0  0  0  0  0  0
  1  2  1  0  0  0
  1 40  1  0  0  0
  1 41  1  0  0  0
  1 42  1  0  0  0
  2  3  1  0  0  0
  2 11  1  0  0  0
  2  4  1  0  0  0
  4  5  1  0  0  0
  4 43  1  0  0  0
  4 44  1  0  0  0
  5 10  2  0  0  0
  5  6  1  0  0  0
  6  7  2  0  0  0
  6 45  1  0  0  0
  7  8  1  0  0  0
  7 46  1  0  0  0
  8  9  2  0  0  0
  8 47  1  0  0  0
  9 10  1  0  0  0
  9 48  1  0  0  0
 10 11  1  0  0  0
 11 12  1  0  0  0
 12 13  2  0  0  0
 12 14  1  0  0  0
 14 15  1  0  0  0
 14 49  1  0  0  0
 14 50  1  0  0  0
 15 16  1  0  0  0
 16 26  1  0  0  0
 16 17  2  0  0  0
 17 18  1  0  0  0
 17 38  1  0  0  0
 18 19  1  0  0  0
 18 20  1  0  0  0
 18 30  1  0  0  0
 20 25  1  0  0  0
 20 21  2  0  0  0
 21 22  1  0  0  0
 21 29  1  0  0  0
 22 23  1  0  0  0
 22 51  1  0  0  0
 22 52  1  0  0  0
 23 24  1  0  0  0
 23 27  1  0  0  0
 23 28  1  0  0  0
 24 25  1  0  0  0
 24 53  1  0  0  0
 24 54  1  0  0  0
 25 26  2  0  0  0
 27 55  1  0  0  0
 27 56  1  0  0  0
 27 57  1  0  0  0
 28 58  1  0  0  0
 28 59  1  0  0  0
 28 60  1  0  0  0
 30 35  2  0  0  0
 30 31  1  0  0  0
 31 32  2  0  0  0
 31 61  1  0  0  0
 32 33  1  0  0  0
 32 62  1  0  0  0
 33 34  2  0  0  0
 33 36  1  0  0  0
 34 35  1  0  0  0
 34 63  1  0  0  0
 35 64  1  0  0  0
 36 37  1  0  0  0
 37 65  1  0  0  0
 37 66  1  0  0  0
 37 67  1  0  0  0
 38 39  3  0  0  0
M  CHG  1  29  -1
M  END
> <i_i_glide_confnum>
325

> <i_i_glide_lignum>
1010

> <i_i_glide_posenum>
264

> <i_i_glide_rotatable_bonds>
7

> <i_m_Source_File_Index>
1284

> <b_m_subgroup_collapsed>
0

> <r_i_docking_score>
-5.16529

> <r_i_glide_ecoul>
-0.293859

> <r_i_glide_eff_state_penalty>
0

> <r_i_glide_einternal>
7.26606

> <r_i_glide_emodel>
-51.5235

> <r_i_glide_energy>
-41.5126

> <r_i_glide_erotb>
0.390043

> <r_i_glide_esite>
-0.0469474

> <r_i_glide_evdw>
-41.2187

> <r_i_glide_gscore>
-5.16529

> <r_i_glide_hbond>
0

> <r_i_glide_ligand_efficiency>
-0.139602

> <r_i_glide_ligand_efficiency_ln>
-1.12023

> <r_i_glide_ligand_efficiency_sa>
-0.465186

> <r_i_glide_lipo>
-2.65986

> <r_i_glide_metal>
0

> <r_i_glide_rewards>
-0.743514

> <s_i_glide_gridfile>
wee1_glide-grid

> <s_m_Source_File>
wee1_decoys_glide_SP.sdf

> <s_m_Source_Path>
/Users/zhangxujun/Desktop

> <s_m_entry_id>
1559

> <s_m_entry_name>
wee1_decoys_glide_SP.1284

> <s_m_subgroup_title>
wee1_decoys_glide_SP

> <s_m_subgroupid>
wee1_decoys_glide_SP


$$$$
