ZINC39846398_3278
                    3D
 Schrodinger Suite 2024-2.
 50 53  0  0  1  0            999 V2000
    0.5303   51.2129   22.3861 C   0  0  0  0  0  0
    0.0458   51.0776   23.8437 C   0  0  2  0  0  0
    0.1717   49.6329   24.4214 C   0  0  0  0  0  0
   -0.7395   49.6720   25.6814 C   0  0  0  0  0  0
   -1.2725   51.1445   25.6683 C   0  0  2  0  0  0
   -1.4481   51.4369   24.1334 C   0  0  0  0  0  0
   -1.8211   52.8973   23.7291 C   0  0  0  0  0  0
   -2.5004   50.5321   23.4171 C   0  0  0  0  0  0
   -0.0498   51.9986   25.9977 C   0  0  0  0  0  0
    0.7427   51.9904   24.8599 C   0  0  0  0  0  0
    1.9059   52.6854   24.7839 N   0  0  0  0  0  0
    2.2863   53.3495   25.9157 C   0  0  0  0  0  0
    1.5053   53.3024   27.1002 C   0  0  0  0  0  0
    0.3237   52.6226   27.1455 N   0  0  0  0  0  0
    1.8547   53.9684   28.3541 C   0  0  0  0  0  0
    2.1324   54.4960   29.3469 N   0  0  0  0  0  0
    3.5363   54.0954   25.7826 C   0  0  0  0  0  0
    4.5258   54.6871   25.6798 N   0  0  0  0  0  0
   -2.5045   51.4521   26.5697 C   0  0  0  0  0  0
   -3.0648   52.5482   26.4819 O   0  0  0  0  0  0
   -2.8782   50.4967   27.4407 N   0  0  0  0  0  0
   -3.7342   50.7947   28.4960 N   0  0  0  0  0  0
   -4.9241   50.1553   28.5221 C   0  0  0  0  0  0
   -5.3962   49.5187   27.5741 O   0  0  0  0  0  0
   -5.7069   50.2849   29.8086 C   0  0  0  0  0  0
   -5.0569   50.3667   31.0512 C   0  0  0  0  0  0
   -5.7994   50.4353   32.2269 C   0  0  0  0  0  0
   -7.1892   50.4213   32.1758 C   0  0  0  0  0  0
   -7.8471   50.3405   30.9511 C   0  0  0  0  0  0
   -7.1085   50.2690   29.7723 C   0  0  0  0  0  0
   -8.1931   50.5010   33.7921 Br  0  0  0  0  0  0
   -0.0544   50.5868   21.7123 H   0  0  0  0  0  0
    0.4579   52.2416   22.0319 H   0  0  0  0  0  0
    1.5735   50.9096   22.2915 H   0  0  0  0  0  0
   -0.1718   48.8793   23.7115 H   0  0  0  0  0  0
    1.2035   49.3775   24.6713 H   0  0  0  0  0  0
   -1.5371   48.9302   25.6134 H   0  0  0  0  0  0
   -0.1758   49.4398   26.5879 H   0  0  0  0  0  0
   -2.8397   53.1526   24.0204 H   0  0  0  0  0  0
   -1.1658   53.6504   24.1627 H   0  0  0  0  0  0
   -1.7726   53.0185   22.6478 H   0  0  0  0  0  0
   -3.5097   50.7685   23.7565 H   0  0  0  0  0  0
   -2.4816   50.6829   22.3372 H   0  0  0  0  0  0
   -2.3654   49.4649   23.5801 H   0  0  0  0  0  0
   -2.3143   49.6694   27.6307 H   0  0  0  0  0  0
   -3.2118   50.9331   29.3482 H   0  0  0  0  0  0
   -3.9770   50.3522   31.1291 H   0  0  0  0  0  0
   -5.2956   50.4951   33.1822 H   0  0  0  0  0  0
   -8.9263   50.3224   30.9150 H   0  0  0  0  0  0
   -7.6335   50.1906   28.8296 H   0  0  0  0  0  0
  1  2  1  0  0  0
  1 32  1  0  0  0
  1 33  1  0  0  0
  1 34  1  0  0  0
  2  6  1  0  0  0
  2 10  1  0  0  0
  2  3  1  0  0  0
  3  4  1  0  0  0
  3 35  1  0  0  0
  3 36  1  0  0  0
  4  5  1  0  0  0
  4 37  1  0  0  0
  4 38  1  0  0  0
  5  6  1  0  0  0
  5  9  1  0  0  0
  5 19  1  0  0  0
  6  7  1  0  0  0
  6  8  1  0  0  0
  7 39  1  0  0  0
  7 40  1  0  0  0
  7 41  1  0  0  0
  8 42  1  0  0  0
  8 43  1  0  0  0
  8 44  1  0  0  0
  9 14  2  0  0  0
  9 10  1  0  0  0
 10 11  2  0  0  0
 11 12  1  0  0  0
 12 13  2  0  0  0
 12 17  1  0  0  0
 13 14  1  0  0  0
 13 15  1  0  0  0
 15 16  3  0  0  0
 17 18  3  0  0  0
 19 20  2  0  0  0
 19 21  1  0  0  0
 21 22  1  0  0  0
 21 45  1  0  0  0
 22 23  1  0  0  0
 22 46  1  0  0  0
 23 24  2  0  0  0
 23 25  1  0  0  0
 25 30  2  0  0  0
 25 26  1  0  0  0
 26 27  2  0  0  0
 26 47  1  0  0  0
 27 28  1  0  0  0
 27 48  1  0  0  0
 28 29  2  0  0  0
 28 31  1  0  0  0
 29 30  1  0  0  0
 29 49  1  0  0  0
 30 50  1  0  0  0
M  END
> <i_i_glide_confnum>
27

> <i_i_glide_lignum>
3279

> <i_i_glide_posenum>
216

> <i_i_glide_rotatable_bonds>
7

> <i_m_Source_File_Index>
4256

> <b_m_subgroup_collapsed>
0

> <r_i_docking_score>
-4.4582

> <r_i_glide_ecoul>
-7.10004

> <r_i_glide_eff_state_penalty>
0

> <r_i_glide_einternal>
5.97631

> <r_i_glide_emodel>
-55.7379

> <r_i_glide_energy>
-44.9564

> <r_i_glide_erotb>
0.352912

> <r_i_glide_esite>
-0.269703

> <r_i_glide_evdw>
-37.8564

> <r_i_glide_gscore>
-4.4582

> <r_i_glide_hbond>
-0.16

> <r_i_glide_ligand_efficiency>
-0.143813

> <r_i_glide_ligand_efficiency_ln>
-1.00546

> <r_i_glide_ligand_efficiency_sa>
-0.451771

> <r_i_glide_lipo>
-0.655023

> <r_i_glide_metal>
0

> <r_i_glide_rewards>
-0.768564

> <s_i_glide_gridfile>
wee1_glide-grid

> <s_m_Source_File>
wee1_decoys_glide_SP.sdf

> <s_m_Source_Path>
/Users/zhangxujun/Desktop

> <s_m_entry_id>
4531

> <s_m_entry_name>
wee1_decoys_glide_SP.4256

> <s_m_subgroup_title>
wee1_decoys_glide_SP

> <s_m_subgroupid>
wee1_decoys_glide_SP


$$$$
