ZINC63383861_658
                    3D
 Schrodinger Suite 2024-2.
 63 68  0  0  1  0            999 V2000
    1.1456   47.8718   18.2307 C   0  0  0  0  0  0
    0.7713   49.0855   19.0981 C   0  0  0  0  0  0
    0.9092   48.8561   20.6274 C   0  0  1  0  0  0
    0.3142   47.9679   20.8455 H   0  0  0  0  0  0
    2.3554   48.5231   21.0483 C   0  0  0  0  0  0
    0.3558   49.9771   21.4257 N   0  0  0  0  0  0
    0.8630   51.2368   21.4111 C   0  0  0  0  0  0
    1.8071   51.6667   20.7499 O   0  0  0  0  0  0
    0.0349   52.0869   22.3525 C   0  0  2  0  0  0
   -0.4378   52.8958   21.8022 H   0  0  0  0  0  0
    0.8268   52.5627   23.5837 C   0  0  2  0  0  0
    1.6059   51.8307   23.8255 H   0  0  0  0  0  0
   -0.1426   52.4964   24.6667 N   0  0  0  0  0  0
   -1.0215   51.3439   24.4506 C   0  0  2  0  0  0
   -1.0303   51.1723   22.8847 C   0  0  2  0  0  0
   -1.9981   51.4761   22.4815 H   0  0  0  0  0  0
   -0.7032   49.8101   22.2607 C   0  0  0  0  0  0
   -1.3430   48.7773   22.4673 O   0  0  0  0  0  0
   -2.3849   51.5149   25.0602 C   0  0  0  0  0  0
   -3.3800   52.4638   24.8174 C   0  0  0  0  0  0
   -4.5978   52.3740   25.4926 C   0  0  0  0  0  0
   -4.8222   51.3351   26.4023 C   0  0  0  0  0  0
   -3.8259   50.3856   26.6580 C   0  0  0  0  0  0
   -2.6070   50.4986   25.9742 C   0  0  0  0  0  0
   -1.4604   49.7232   26.0796 N   0  0  0  0  0  0
   -0.4629   50.1417   25.2772 C   0  0  0  0  0  0
    0.6736   49.6751   25.2064 O   0  0  0  0  0  0
   -4.1114   49.2582   27.6378 C   0  0  0  0  0  0
    1.4955   53.9509   23.4362 C   0  0  0  0  0  0
    3.0132   53.9447   23.4319 C   0  0  0  0  0  0
    3.8864   54.0932   24.4431 C   0  0  0  0  0  0
    3.6628   54.2350   25.8895 C   0  0  0  0  0  0
    4.6997   54.3746   26.7377 C   0  0  0  0  0  0
    6.0431   54.3853   26.1771 C   0  0  0  0  0  0
    6.2675   54.2663   24.8414 C   0  0  0  0  0  0
    5.1957   54.1136   23.9535 C   0  0  0  0  0  0
    5.1990   53.9866   22.6481 N   0  3  0  0  0  0
    3.8197   53.8500   22.1519 C   0  0  0  0  0  0
    0.9259   48.0665   17.1810 H   0  0  0  0  0  0
    2.2109   47.6445   18.2950 H   0  0  0  0  0  0
    0.5882   46.9828   18.5244 H   0  0  0  0  0  0
   -0.2611   49.3586   18.8718 H   0  0  0  0  0  0
    1.3795   49.9375   18.7863 H   0  0  0  0  0  0
    2.7267   47.6332   20.5462 H   0  0  0  0  0  0
    3.0547   49.3171   20.7787 H   0  0  0  0  0  0
    2.4367   48.3548   22.1210 H   0  0  0  0  0  0
    0.2961   52.4521   25.5784 H   0  0  0  0  0  0
   -3.2197   53.2635   24.1071 H   0  0  0  0  0  0
   -5.3765   53.0989   25.3022 H   0  0  0  0  0  0
   -5.7748   51.2719   26.9091 H   0  0  0  0  0  0
   -1.3408   48.9906   26.7775 H   0  0  0  0  0  0
   -3.6772   48.3225   27.2846 H   0  0  0  0  0  0
   -3.6951   49.4766   28.6216 H   0  0  0  0  0  0
   -5.1807   49.0785   27.7431 H   0  0  0  0  0  0
    1.1547   54.4607   22.5346 H   0  0  0  0  0  0
    1.1863   54.5953   24.2592 H   0  0  0  0  0  0
    2.6679   54.2213   26.3079 H   0  0  0  0  0  0
    4.5461   54.4706   27.8037 H   0  0  0  0  0  0
    6.8825   54.4796   26.8518 H   0  0  0  0  0  0
    7.2865   54.2750   24.4826 H   0  0  0  0  0  0
    3.7418   52.8863   21.6487 H   0  0  0  0  0  0
    3.6217   54.6559   21.4428 H   0  0  0  0  0  0
    6.0233   53.9757   22.0530 H   0  0  0  0  0  0
  1  2  1  0  0  0
  1 39  1  0  0  0
  1 40  1  0  0  0
  1 41  1  0  0  0
  2  3  1  0  0  0
  2 42  1  0  0  0
  2 43  1  0  0  0
  3  4  1  0  0  0
  3  5  1  0  0  0
  3  6  1  0  0  0
  5 44  1  0  0  0
  5 45  1  0  0  0
  5 46  1  0  0  0
  6 17  1  0  0  0
  6  7  1  0  0  0
  7  8  2  0  0  0
  7  9  1  0  0  0
  9 10  1  0  0  0
  9 15  1  0  0  0
  9 11  1  0  0  0
 11 12  1  0  0  0
 11 13  1  0  0  0
 11 29  1  0  0  0
 13 14  1  0  0  0
 13 47  1  0  0  0
 14 26  1  0  0  0
 14 15  1  0  0  0
 14 19  1  0  0  0
 15 16  1  0  0  0
 15 17  1  0  0  0
 17 18  2  0  0  0
 19 24  2  0  0  0
 19 20  1  0  0  0
 20 21  2  0  0  0
 20 48  1  0  0  0
 21 22  1  0  0  0
 21 49  1  0  0  0
 22 23  2  0  0  0
 22 50  1  0  0  0
 23 24  1  0  0  0
 23 28  1  0  0  0
 24 25  1  0  0  0
 25 26  1  0  0  0
 25 51  1  0  0  0
 26 27  2  0  0  0
 28 52  1  0  0  0
 28 53  1  0  0  0
 28 54  1  0  0  0
 29 30  1  0  0  0
 29 55  1  0  0  0
 29 56  1  0  0  0
 30 38  1  0  0  0
 30 31  2  0  0  0
 31 36  1  0  0  0
 31 32  1  0  0  0
 32 33  2  0  0  0
 32 57  1  0  0  0
 33 34  1  0  0  0
 33 58  1  0  0  0
 34 35  2  0  0  0
 34 59  1  0  0  0
 35 36  1  0  0  0
 35 60  1  0  0  0
 36 37  2  0  0  0
 37 38  1  0  0  0
 37 63  1  0  0  0
 38 61  1  0  0  0
 38 62  1  0  0  0
M  CHG  1  37   1
M  END
> <i_i_glide_confnum>
11

> <i_i_glide_lignum>
659

> <i_i_glide_posenum>
83

> <i_i_glide_rotatable_bonds>
4

> <i_m_Source_File_Index>
3365

> <b_m_subgroup_collapsed>
0

> <r_i_docking_score>
-5.2494

> <r_i_glide_ecoul>
-2.65456

> <r_i_glide_eff_state_penalty>
0

> <r_i_glide_einternal>
2.89158

> <r_i_glide_emodel>
-51.3939

> <r_i_glide_energy>
-39.4923

> <r_i_glide_erotb>
0.288121

> <r_i_glide_esite>
-0.135538

> <r_i_glide_evdw>
-36.8378

> <r_i_glide_gscore>
-5.2494

> <r_i_glide_hbond>
-0.16

> <r_i_glide_ligand_efficiency>
-0.154394

> <r_i_glide_ligand_efficiency_ln>
-1.15974

> <r_i_glide_ligand_efficiency_sa>
-0.500177

> <r_i_glide_lipo>
-2.59742

> <r_i_glide_metal>
0

> <r_i_glide_rewards>
-0.404487

> <s_i_glide_gridfile>
wee1_glide-grid

> <s_m_Source_File>
wee1_decoys_glide_SP.sdf

> <s_m_Source_Path>
/Users/zhangxujun/Desktop

> <s_m_entry_id>
3640

> <s_m_entry_name>
wee1_decoys_glide_SP.3365

> <s_m_subgroup_title>
wee1_decoys_glide_SP

> <s_m_subgroupid>
wee1_decoys_glide_SP


$$$$
