ZINC59768902_857
                    3D
 Schrodinger Suite 2024-2.
 66 68  0  0  1  0            999 V2000
    1.6592   56.6513   29.4593 C   0  0  0  0  0  0
    1.3615   55.3958   28.6254 C   0  0  0  0  0  0
    1.7784   54.1510   29.3108 N   0  0  0  0  0  0
    1.0867   53.7681   30.5689 C   0  0  0  0  0  0
   -0.2631   53.0976   30.3018 C   0  0  0  0  0  0
    2.3719   52.8493   28.2703 S   0  0  0  0  0  0
    2.5434   51.6544   29.1047 O   0  0  0  0  0  0
    1.5513   52.8209   27.0535 O   0  0  0  0  0  0
    4.0113   53.3817   27.8153 C   0  0  0  0  0  0
    5.0115   53.2875   28.7774 C   0  0  0  0  0  0
    6.3068   53.6969   28.4817 C   0  0  0  0  0  0
    6.6085   54.1936   27.2243 C   0  0  0  0  0  0
    5.6187   54.2906   26.2406 C   0  0  0  0  0  0
    4.3051   53.8930   26.5469 C   0  0  0  0  0  0
    6.0011   54.8304   24.8933 C   0  0  0  0  0  0
    6.8709   55.6966   24.8257 O   0  0  0  0  0  0
    5.3700   54.2718   23.8399 N   0  0  0  0  0  0
    5.5653   54.4966   22.4617 C   0  0  0  0  0  0
    6.7043   55.1395   21.9440 C   0  0  0  0  0  0
    6.8687   55.2967   20.5710 C   0  0  0  0  0  0
    5.9116   54.7942   19.6797 C   0  0  0  0  0  0
    4.7551   54.1976   20.1946 C   0  0  0  0  0  0
    4.5740   54.0425   21.5722 C   0  0  0  0  0  0
    3.2848   53.3927   22.0648 C   0  0  0  0  0  0
    6.1263   54.8471   18.1894 C   0  0  0  0  0  0
    5.1815   54.9826   17.4118 O   0  0  0  0  0  0
    7.3989   54.6781   17.7916 N   0  0  0  0  0  0
    7.8439   54.5107   16.4070 C   0  0  0  0  0  0
    9.3616   54.7928   16.2921 C   0  0  0  0  0  0
   10.2171   53.7719   17.0792 C   0  0  0  0  0  0
    9.9117   52.3236   16.6414 C   0  0  0  0  0  0
    8.4013   52.0064   16.6527 C   0  0  0  0  0  0
    7.5943   53.0735   15.8787 C   0  0  0  0  0  0
    1.4851   57.5559   28.8812 H   0  0  0  0  0  0
    2.7042   56.6783   29.7651 H   0  0  0  0  0  0
    1.0368   56.7149   30.3517 H   0  0  0  0  0  0
    0.3174   55.2977   28.3190 H   0  0  0  0  0  0
    1.9334   55.4673   27.7004 H   0  0  0  0  0  0
    1.7163   53.0605   31.1100 H   0  0  0  0  0  0
    0.9595   54.6459   31.2018 H   0  0  0  0  0  0
   -0.7786   52.8942   31.2417 H   0  0  0  0  0  0
   -0.8955   53.7402   29.6940 H   0  0  0  0  0  0
   -0.1487   52.1453   29.7819 H   0  0  0  0  0  0
    4.7725   52.8899   29.7516 H   0  0  0  0  0  0
    7.0869   53.6454   29.2270 H   0  0  0  0  0  0
    7.6249   54.4966   27.0250 H   0  0  0  0  0  0
    3.5147   53.9707   25.8130 H   0  0  0  0  0  0
    4.6448   53.6066   24.0556 H   0  0  0  0  0  0
    7.5018   55.4956   22.5771 H   0  0  0  0  0  0
    7.7693   55.7732   20.2092 H   0  0  0  0  0  0
    3.9977   53.8257   19.5163 H   0  0  0  0  0  0
    2.5451   53.2921   21.2688 H   0  0  0  0  0  0
    3.4877   52.4067   22.4812 H   0  0  0  0  0  0
    2.8251   54.0011   22.8443 H   0  0  0  0  0  0
    8.0600   54.3849   18.4933 H   0  0  0  0  0  0
    7.3126   55.2374   15.7869 H   0  0  0  0  0  0
    9.6565   54.7805   15.2416 H   0  0  0  0  0  0
    9.5784   55.8023   16.6453 H   0  0  0  0  0  0
   11.2775   53.9848   16.9374 H   0  0  0  0  0  0
   10.0334   53.8769   18.1493 H   0  0  0  0  0  0
   10.3006   52.1665   15.6341 H   0  0  0  0  0  0
   10.4445   51.6191   17.2806 H   0  0  0  0  0  0
    8.2310   51.0214   16.2170 H   0  0  0  0  0  0
    8.0412   51.9449   17.6811 H   0  0  0  0  0  0
    6.5308   52.8359   15.9326 H   0  0  0  0  0  0
    7.8496   53.0246   14.8192 H   0  0  0  0  0  0
  1  2  1  0  0  0
  1 34  1  0  0  0
  1 35  1  0  0  0
  1 36  1  0  0  0
  2  3  1  0  0  0
  2 37  1  0  0  0
  2 38  1  0  0  0
  3  4  1  0  0  0
  3  6  1  0  0  0
  4  5  1  0  0  0
  4 39  1  0  0  0
  4 40  1  0  0  0
  5 41  1  0  0  0
  5 42  1  0  0  0
  5 43  1  0  0  0
  6  7  2  0  0  0
  6  8  2  0  0  0
  6  9  1  0  0  0
  9 14  2  0  0  0
  9 10  1  0  0  0
 10 11  2  0  0  0
 10 44  1  0  0  0
 11 12  1  0  0  0
 11 45  1  0  0  0
 12 13  2  0  0  0
 12 46  1  0  0  0
 13 14  1  0  0  0
 13 15  1  0  0  0
 14 47  1  0  0  0
 15 16  2  0  0  0
 15 17  1  0  0  0
 17 18  1  0  0  0
 17 48  1  0  0  0
 18 23  2  0  0  0
 18 19  1  0  0  0
 19 20  2  0  0  0
 19 49  1  0  0  0
 20 21  1  0  0  0
 20 50  1  0  0  0
 21 22  2  0  0  0
 21 25  1  0  0  0
 22 23  1  0  0  0
 22 51  1  0  0  0
 23 24  1  0  0  0
 24 52  1  0  0  0
 24 53  1  0  0  0
 24 54  1  0  0  0
 25 26  2  0  0  0
 25 27  1  0  0  0
 27 28  1  0  0  0
 27 55  1  0  0  0
 28 33  1  0  0  0
 28 29  1  0  0  0
 28 56  1  0  0  0
 29 30  1  0  0  0
 29 57  1  0  0  0
 29 58  1  0  0  0
 30 31  1  0  0  0
 30 59  1  0  0  0
 30 60  1  0  0  0
 31 32  1  0  0  0
 31 61  1  0  0  0
 31 62  1  0  0  0
 32 33  1  0  0  0
 32 63  1  0  0  0
 32 64  1  0  0  0
 33 65  1  0  0  0
 33 66  1  0  0  0
M  END
> <i_i_glide_confnum>
34

> <i_i_glide_lignum>
858

> <i_i_glide_posenum>
111

> <i_i_glide_rotatable_bonds>
10

> <i_m_Source_File_Index>
5439

> <b_m_subgroup_collapsed>
0

> <r_i_docking_score>
-6.03672

> <r_i_glide_ecoul>
-2.21214

> <r_i_glide_eff_state_penalty>
0

> <r_i_glide_einternal>
5.41348

> <r_i_glide_emodel>
-68.0454

> <r_i_glide_energy>
-53.1833

> <r_i_glide_erotb>
0.727056

> <r_i_glide_esite>
0

> <r_i_glide_evdw>
-50.9711

> <r_i_glide_gscore>
-6.03672

> <r_i_glide_hbond>
-0.185359

> <r_i_glide_ligand_efficiency>
-0.182931

> <r_i_glide_ligand_efficiency_ln>
-1.34254

> <r_i_glide_ligand_efficiency_sa>
-0.586757

> <r_i_glide_lipo>
-3.24561

> <r_i_glide_metal>
0

> <r_i_glide_rewards>
-0.452432

> <s_i_glide_gridfile>
wee1_glide-grid

> <s_m_Source_File>
wee1_decoys_glide_SP.sdf

> <s_m_Source_Path>
/Users/zhangxujun/Desktop

> <s_m_entry_id>
5714

> <s_m_entry_name>
wee1_decoys_glide_SP.5439

> <s_m_subgroup_title>
wee1_decoys_glide_SP

> <s_m_subgroupid>
wee1_decoys_glide_SP


$$$$
