ZINC23078218_2143
                    3D
 Schrodinger Suite 2024-2.
 47 50  0  0  1  0            999 V2000
   -6.0969   48.8263   31.4725 C   0  0  0  0  0  0
   -6.0435   50.1588   31.0827 C   0  0  0  0  0  0
   -5.5374   50.4899   29.8281 C   0  0  0  0  0  0
   -5.0624   49.5075   28.9490 C   0  0  0  0  0  0
   -5.0780   48.1600   29.3642 C   0  0  0  0  0  0
   -5.6187   47.8386   30.6160 C   0  0  0  0  0  0
   -4.4577   47.0674   28.5056 C   0  0  0  0  0  0
   -4.3448   47.4301   27.0047 C   0  0  1  0  0  0
   -5.3005   47.4322   26.4776 H   0  0  0  0  0  0
   -3.6956   48.8438   26.8818 N   0  3  2  0  0  0
   -4.5860   49.9217   27.5579 C   0  0  0  0  0  0
   -3.3674   49.3194   25.4275 C   0  0  0  0  0  0
   -2.2279   50.3245   25.4286 C   0  0  0  0  0  0
   -1.5156   50.7530   26.4339 N   0  0  0  0  0  0
   -0.6296   51.5376   25.8480 C   0  0  0  0  0  0
   -0.7415   51.6456   24.5377 N   0  0  0  0  0  0
   -1.8254   50.8234   24.2347 O   0  0  0  0  0  0
    0.4276   52.2592   26.6343 C   0  0  0  0  0  0
    1.5048   52.8969   26.0015 C   0  0  0  0  0  0
    2.4676   53.5761   26.7481 C   0  0  0  0  0  0
    2.3630   53.6317   28.1368 C   0  0  0  0  0  0
    1.2944   53.0070   28.7896 C   0  0  0  0  0  0
    0.3414   52.3169   28.0321 C   0  0  0  0  0  0
    1.1708   53.1023   30.3068 C   0  0  0  0  0  0
    0.0802   52.4942   30.7709 F   0  0  0  0  0  0
    2.2376   52.5411   30.8789 F   0  0  0  0  0  0
    1.1037   54.3866   30.6556 F   0  0  0  0  0  0
   -3.4159   46.3827   26.3303 C   0  0  0  0  0  0
   -3.8930   45.4561   25.6807 O   0  0  0  0  0  0
   -2.0957   46.4964   26.4816 N   0  0  0  0  0  0
   -6.4916   48.5607   32.4430 H   0  0  0  0  0  0
   -6.4007   50.9272   31.7525 H   0  0  0  0  0  0
   -5.5265   51.5281   29.5287 H   0  0  0  0  0  0
   -5.6326   46.8114   30.9484 H   0  0  0  0  0  0
   -3.4649   46.8869   28.9293 H   0  0  0  0  0  0
   -5.0142   46.1365   28.6195 H   0  0  0  0  0  0
   -5.4480   50.0845   26.9094 H   0  0  0  0  0  0
   -3.9920   50.8357   27.5908 H   0  0  0  0  0  0
   -3.0758   48.4562   24.8326 H   0  0  0  0  0  0
   -4.2892   49.7066   24.9924 H   0  0  0  0  0  0
    1.6073   52.8689   24.9267 H   0  0  0  0  0  0
    3.2935   54.0596   26.2477 H   0  0  0  0  0  0
    3.1104   54.1675   28.7053 H   0  0  0  0  0  0
   -0.4821   51.8302   28.5360 H   0  0  0  0  0  0
   -1.4605   45.8443   26.0552 H   0  0  0  0  0  0
   -1.7104   47.1731   27.1488 H   0  0  0  0  0  0
   -2.8214   48.7825   27.4193 H   0  0  0  0  0  0
  1  6  2  0  0  0
  1  2  1  0  0  0
  1 31  1  0  0  0
  2  3  2  0  0  0
  2 32  1  0  0  0
  3  4  1  0  0  0
  3 33  1  0  0  0
  4 11  1  0  0  0
  4  5  2  0  0  0
  5  6  1  0  0  0
  5  7  1  0  0  0
  6 34  1  0  0  0
  7  8  1  0  0  0
  7 35  1  0  0  0
  7 36  1  0  0  0
  8  9  1  0  0  0
  8 10  1  0  0  0
  8 28  1  0  0  0
 10 11  1  0  0  0
 10 12  1  0  0  0
 10 47  1  0  0  0
 11 37  1  0  0  0
 11 38  1  0  0  0
 12 13  1  0  0  0
 12 39  1  0  0  0
 12 40  1  0  0  0
 13 17  1  0  0  0
 13 14  2  0  0  0
 14 15  1  0  0  0
 15 16  2  0  0  0
 15 18  1  0  0  0
 16 17  1  0  0  0
 18 23  2  0  0  0
 18 19  1  0  0  0
 19 20  2  0  0  0
 19 41  1  0  0  0
 20 21  1  0  0  0
 20 42  1  0  0  0
 21 22  2  0  0  0
 21 43  1  0  0  0
 22 23  1  0  0  0
 22 24  1  0  0  0
 23 44  1  0  0  0
 24 25  1  0  0  0
 24 26  1  0  0  0
 24 27  1  0  0  0
 28 29  2  0  0  0
 28 30  1  0  0  0
 30 45  1  0  0  0
 30 46  1  0  0  0
M  CHG  1  10   1
M  END
> <i_i_glide_confnum>
2

> <i_i_glide_lignum>
2144

> <i_i_glide_posenum>
264

> <i_i_glide_rotatable_bonds>
5

> <i_m_Source_File_Index>
3297

> <b_m_subgroup_collapsed>
0

> <r_i_docking_score>
-5.27629

> <r_i_glide_ecoul>
-9.66292

> <r_i_glide_eff_state_penalty>
0

> <r_i_glide_einternal>
4.53184

> <r_i_glide_emodel>
-49.7344

> <r_i_glide_energy>
-36.7742

> <r_i_glide_erotb>
0.361977

> <r_i_glide_esite>
-0.447081

> <r_i_glide_evdw>
-27.1113

> <r_i_glide_gscore>
-5.27629

> <r_i_glide_hbond>
-0.529546

> <r_i_glide_ligand_efficiency>
-0.181941

> <r_i_glide_ligand_efficiency_ln>
-1.20814

> <r_i_glide_ligand_efficiency_sa>
-0.558981

> <r_i_glide_lipo>
-0.953777

> <r_i_glide_metal>
0

> <r_i_glide_rewards>
-0.902865

> <s_i_glide_gridfile>
wee1_glide-grid

> <s_m_Source_File>
wee1_decoys_glide_SP.sdf

> <s_m_Source_Path>
/Users/zhangxujun/Desktop

> <s_m_entry_id>
3572

> <s_m_entry_name>
wee1_decoys_glide_SP.3297

> <s_m_subgroup_title>
wee1_decoys_glide_SP

> <s_m_subgroupid>
wee1_decoys_glide_SP


$$$$
