ZINC63104772_3797
                    3D
 Schrodinger Suite 2024-2.
 35 38  0  0  1  0            999 V2000
    5.5126   54.1902   20.5820 C   0  0  0  0  0  0
    5.2914   54.1974   22.0892 C   0  0  0  0  0  0
    6.3045   54.7089   22.9103 C   0  0  0  0  0  0
    6.1031   54.7171   24.2957 C   0  0  0  0  0  0
    4.8947   54.2118   24.8374 C   0  0  0  0  0  0
    3.8696   53.7174   24.0244 C   0  0  0  0  0  0
    4.0982   53.6966   22.6438 C   0  0  0  0  0  0
    3.0150   53.0930   21.7592 C   0  0  0  0  0  0
    5.0570   54.3170   26.2091 N   0  0  0  0  0  0
    6.2993   54.8968   26.3844 C   0  0  0  0  0  0
    6.9412   55.1618   25.2803 N   0  0  0  0  0  0
    4.2329   53.9229   27.2394 C   0  0  0  0  0  0
    2.9267   53.9281   27.1819 N   0  0  0  0  0  0
    2.3788   53.4502   28.3333 C   0  0  0  0  0  0
    1.0043   53.3445   28.5966 C   0  0  0  0  0  0
    0.6014   52.8664   29.8481 C   0  0  0  0  0  0
    1.5342   52.4970   30.8202 C   0  0  0  0  0  0
    2.9030   52.5499   30.5644 C   0  0  0  0  0  0
    3.3146   53.0458   29.3223 C   0  0  0  0  0  0
    4.9340   53.2969   28.7133 S   0  0  0  0  0  0
    1.1044   52.0970   32.0816 N   0  0  0  0  0  0
    5.3719   53.1844   20.1817 H   0  0  0  0  0  0
    6.5156   54.5181   20.3058 H   0  0  0  0  0  0
    4.7915   54.8440   20.0891 H   0  0  0  0  0  0
    7.2266   55.0886   22.4943 H   0  0  0  0  0  0
    2.9583   53.3211   24.4488 H   0  0  0  0  0  0
    2.0531   53.0297   22.2710 H   0  0  0  0  0  0
    2.8519   53.6966   20.8680 H   0  0  0  0  0  0
    3.3092   52.0938   21.4311 H   0  0  0  0  0  0
    6.6640   55.0998   27.3828 H   0  0  0  0  0  0
    0.2749   53.6347   27.8562 H   0  0  0  0  0  0
   -0.4540   52.7948   30.0709 H   0  0  0  0  0  0
    3.6249   52.2584   31.3141 H   0  0  0  0  0  0
    0.1054   52.0950   32.2977 H   0  0  0  0  0  0
    1.7581   52.0967   32.8556 H   0  0  0  0  0  0
  1  2  1  0  0  0
  1 22  1  0  0  0
  1 23  1  0  0  0
  1 24  1  0  0  0
  2  7  2  0  0  0
  2  3  1  0  0  0
  3  4  2  0  0  0
  3 25  1  0  0  0
  4 11  1  0  0  0
  4  5  1  0  0  0
  5  6  2  0  0  0
  5  9  1  0  0  0
  6  7  1  0  0  0
  6 26  1  0  0  0
  7  8  1  0  0  0
  8 27  1  0  0  0
  8 28  1  0  0  0
  8 29  1  0  0  0
  9 10  1  0  0  0
  9 12  1  0  0  0
 10 11  2  0  0  0
 10 30  1  0  0  0
 12 20  1  0  0  0
 12 13  2  0  0  0
 13 14  1  0  0  0
 14 19  2  0  0  0
 14 15  1  0  0  0
 15 16  2  0  0  0
 15 31  1  0  0  0
 16 17  1  0  0  0
 16 32  1  0  0  0
 17 18  2  0  0  0
 17 21  1  0  0  0
 18 19  1  0  0  0
 18 33  1  0  0  0
 19 20  1  0  0  0
 21 34  1  0  0  0
 21 35  1  0  0  0
M  END
> <i_i_glide_confnum>
1

> <i_i_glide_lignum>
3798

> <i_i_glide_posenum>
387

> <i_i_glide_rotatable_bonds>
1

> <i_m_Source_File_Index>
5652

> <b_m_subgroup_collapsed>
0

> <r_i_docking_score>
-9.46737

> <r_i_glide_ecoul>
-7.64482

> <r_i_glide_eff_state_penalty>
0

> <r_i_glide_einternal>
0.271308

> <r_i_glide_emodel>
-69.9957

> <r_i_glide_energy>
-45.5004

> <r_i_glide_erotb>
0.211035

> <r_i_glide_esite>
-0.1

> <r_i_glide_evdw>
-37.8556

> <r_i_glide_gscore>
-9.46737

> <r_i_glide_hbond>
-0.72

> <r_i_glide_ligand_efficiency>
-0.450827

> <r_i_glide_ligand_efficiency_ln>
-2.34079

> <r_i_glide_ligand_efficiency_sa>
-1.2438

> <r_i_glide_lipo>
-2.48086

> <r_i_glide_metal>
0

> <r_i_glide_rewards>
-3.33805

> <s_i_glide_gridfile>
wee1_glide-grid

> <s_m_Source_File>
wee1_decoys_glide_SP.sdf

> <s_m_Source_Path>
/Users/zhangxujun/Desktop

> <s_m_entry_id>
5927

> <s_m_entry_name>
wee1_decoys_glide_SP.5652

> <s_m_subgroup_title>
wee1_decoys_glide_SP

> <s_m_subgroupid>
wee1_decoys_glide_SP


$$$$
