ZINC13114597_4171
                    3D
 Schrodinger Suite 2024-2.
 54 58  0  0  1  0            999 V2000
   -4.7228   53.7031   24.8813 C   0  0  0  0  0  0
   -3.5853   53.6435   24.0825 C   0  0  0  0  0  0
   -2.4844   52.8971   24.4930 C   0  0  0  0  0  0
   -2.5006   52.2192   25.7195 C   0  0  0  0  0  0
   -3.6652   52.2725   26.5020 C   0  0  0  0  0  0
   -4.7713   53.0112   26.0867 C   0  0  0  0  0  0
   -1.2858   51.3440   26.1368 C   0  0  0  0  0  0
    0.0528   52.0996   26.0298 C   0  0  0  0  0  0
    0.6251   52.4331   24.9875 O   0  0  0  0  0  0
    0.4599   52.3187   27.2998 N   0  0  0  0  0  0
   -0.2712   51.6684   28.2359 C   0  0  0  0  0  0
   -0.1405   51.7051   29.4572 O   0  0  0  0  0  0
   -1.2595   51.0781   27.5554 N   0  0  0  0  0  0
    1.6941   52.9341   27.5961 N   0  0  0  0  0  0
    1.7173   54.1328   28.2311 C   0  0  0  0  0  0
    0.7079   54.7910   28.4823 O   0  0  0  0  0  0
    3.0730   54.6998   28.6905 C   0  0  0  0  0  0
    4.2838   54.4767   27.7907 C   0  0  0  0  0  0
    5.5851   54.1987   28.2026 C   0  0  0  0  0  0
    6.6363   54.1066   26.8265 S   0  0  0  0  0  0
    5.2547   54.4238   25.8222 C   0  0  0  0  0  0
    4.1339   54.5932   26.4816 N   0  0  0  0  0  0
    5.3517   54.4624   24.3320 C   0  0  0  0  0  0
    6.5335   54.8619   23.6984 C   0  0  0  0  0  0
    6.6039   54.8969   22.3088 C   0  0  0  0  0  0
    5.5045   54.4996   21.5490 C   0  0  0  0  0  0
    4.3237   54.0982   22.1683 C   0  0  0  0  0  0
    4.2423   54.0955   23.5566 C   0  0  0  0  0  0
    5.5811   54.5178   20.2003 F   0  0  0  0  0  0
   -1.2771   49.9950   25.3646 C   0  0  0  0  0  0
   -2.4107   49.5512   24.6506 C   0  0  0  0  0  0
   -2.4107   48.3312   23.9852 C   0  0  0  0  0  0
   -1.2815   47.5230   24.0361 C   0  0  0  0  0  0
   -0.1577   47.9397   24.7458 C   0  0  0  0  0  0
   -0.1513   49.1597   25.4019 C   0  0  0  0  0  0
   -5.5790   54.2755   24.5523 H   0  0  0  0  0  0
   -3.5539   54.1797   23.1517 H   0  0  0  0  0  0
   -1.6222   52.8443   23.8449 H   0  0  0  0  0  0
   -3.7313   51.7304   27.4339 H   0  0  0  0  0  0
   -5.6604   53.0449   26.6964 H   0  0  0  0  0  0
   -1.6954   50.2292   27.9068 H   0  0  0  0  0  0
    2.4792   52.3021   27.5434 H   0  0  0  0  0  0
    2.9445   55.7767   28.8227 H   0  0  0  0  0  0
    3.2635   54.3058   29.6881 H   0  0  0  0  0  0
    5.9746   54.0941   29.2041 H   0  0  0  0  0  0
    7.4019   55.1564   24.2719 H   0  0  0  0  0  0
    7.5170   55.2117   21.8221 H   0  0  0  0  0  0
    3.4739   53.8034   21.5699 H   0  0  0  0  0  0
    3.3201   53.7875   24.0311 H   0  0  0  0  0  0
   -3.3166   50.1362   24.6045 H   0  0  0  0  0  0
   -3.2872   48.0099   23.4424 H   0  0  0  0  0  0
   -1.2857   46.5669   23.5362 H   0  0  0  0  0  0
    0.7039   47.2977   24.8508 H   0  0  0  0  0  0
    0.7267   49.4319   25.9738 H   0  0  0  0  0  0
  1  6  2  0  0  0
  1  2  1  0  0  0
  1 36  1  0  0  0
  2  3  2  0  0  0
  2 37  1  0  0  0
  3  4  1  0  0  0
  3 38  1  0  0  0
  4  5  2  0  0  0
  4  7  1  0  0  0
  5  6  1  0  0  0
  5 39  1  0  0  0
  6 40  1  0  0  0
  7 13  1  0  0  0
  7  8  1  0  0  0
  7 30  1  0  0  0
  8  9  2  0  0  0
  8 10  1  0  0  0
 10 11  1  0  0  0
 10 14  1  0  0  0
 11 12  2  0  0  0
 11 13  1  0  0  0
 13 41  1  0  0  0
 14 15  1  0  0  0
 14 42  1  0  0  0
 15 16  2  0  0  0
 15 17  1  0  0  0
 17 18  1  0  0  0
 17 43  1  0  0  0
 17 44  1  0  0  0
 18 22  1  0  0  0
 18 19  2  0  0  0
 19 20  1  0  0  0
 19 45  1  0  0  0
 20 21  1  0  0  0
 21 22  2  0  0  0
 21 23  1  0  0  0
 23 28  2  0  0  0
 23 24  1  0  0  0
 24 25  2  0  0  0
 24 46  1  0  0  0
 25 26  1  0  0  0
 25 47  1  0  0  0
 26 27  2  0  0  0
 26 29  1  0  0  0
 27 28  1  0  0  0
 27 48  1  0  0  0
 28 49  1  0  0  0
 30 35  2  0  0  0
 30 31  1  0  0  0
 31 32  2  0  0  0
 31 50  1  0  0  0
 32 33  1  0  0  0
 32 51  1  0  0  0
 33 34  2  0  0  0
 33 52  1  0  0  0
 34 35  1  0  0  0
 34 53  1  0  0  0
 35 54  1  0  0  0
M  END
> <i_i_glide_confnum>
5

> <i_i_glide_lignum>
4172

> <i_i_glide_posenum>
259

> <i_i_glide_rotatable_bonds>
7

> <i_m_Source_File_Index>
5039

> <b_m_subgroup_collapsed>
0

> <r_i_docking_score>
-6.82792

> <r_i_glide_ecoul>
-2.78751

> <r_i_glide_eff_state_penalty>
0

> <r_i_glide_einternal>
6.95385

> <r_i_glide_emodel>
-73.2908

> <r_i_glide_energy>
-53.3585

> <r_i_glide_erotb>
0.601012

> <r_i_glide_esite>
-0.141069

> <r_i_glide_evdw>
-50.571

> <r_i_glide_gscore>
-6.82792

> <r_i_glide_hbond>
-0.150986

> <r_i_glide_ligand_efficiency>
-0.195083

> <r_i_glide_ligand_efficiency_ln>
-1.49888

> <r_i_glide_ligand_efficiency_sa>
-0.63813

> <r_i_glide_lipo>
-3.46965

> <r_i_glide_metal>
0

> <r_i_glide_rewards>
-0.720544

> <s_i_glide_gridfile>
wee1_glide-grid

> <s_m_Source_File>
wee1_decoys_glide_SP.sdf

> <s_m_Source_Path>
/Users/zhangxujun/Desktop

> <s_m_entry_id>
5314

> <s_m_entry_name>
wee1_decoys_glide_SP.5039

> <s_m_subgroup_title>
wee1_decoys_glide_SP

> <s_m_subgroupid>
wee1_decoys_glide_SP


$$$$
