ZINC01628535_4467
                    3D
 Schrodinger Suite 2024-2.
 59 61  0  0  1  0            999 V2000
    5.5378   51.7676   14.4144 C   0  0  0  0  0  0
    4.1511   52.4500   14.4280 C   0  0  0  0  0  0
    3.9413   53.1921   13.0928 C   0  0  0  0  0  0
    3.0129   51.4241   14.6323 C   0  0  0  0  0  0
    4.1088   53.4865   15.4647 N   0  0  0  0  0  0
    4.2591   53.0158   16.7917 N   0  0  0  0  0  0
    3.2660   53.1894   17.6921 C   0  0  0  0  0  0
    2.0812   53.3160   17.3617 O   0  0  0  0  0  0
    3.6754   53.3063   19.0968 C   0  0  0  0  0  0
    4.8571   53.8986   19.4364 C   0  0  0  0  0  0
    5.4059   54.1526   20.7981 C   0  0  0  0  0  0
    6.2407   55.2594   20.9894 C   0  0  0  0  0  0
    6.7057   55.5813   22.2647 C   0  0  0  0  0  0
    6.3041   54.8419   23.3785 C   0  0  0  0  0  0
    5.5346   53.6971   23.1753 C   0  0  0  0  0  0
    5.1041   53.3442   21.9025 C   0  0  0  0  0  0
    6.7046   55.2629   24.6355 O   0  0  0  0  0  0
    6.0526   54.8674   25.7903 C   0  0  0  0  0  0
    6.8270   54.4705   26.8795 C   0  0  0  0  0  0
    6.2362   54.0658   28.0725 C   0  0  0  0  0  0
    4.8496   54.0651   28.2015 C   0  0  0  0  0  0
    4.0540   54.4808   27.1275 C   0  0  0  0  0  0
    4.6560   54.8885   25.9308 C   0  0  0  0  0  0
    2.3302   54.4958   27.2688 Cl  0  0  0  0  0  0
    4.1467   53.5502   29.6950 Cl  0  0  0  0  0  0
    2.8131   52.8932   20.0794 N   0  0  0  0  0  0
    2.2341   51.6813   20.2348 C   0  0  0  0  0  0
    2.2313   50.7896   19.3851 O   0  0  0  0  0  0
    1.6382   51.4423   21.6041 C   0  0  0  0  0  0
    1.6140   50.1421   22.1283 C   0  0  0  0  0  0
    1.1036   49.9061   23.4020 C   0  0  0  0  0  0
    0.6119   50.9661   24.1584 C   0  0  0  0  0  0
    0.6203   52.2620   23.6506 C   0  0  0  0  0  0
    1.1278   52.5004   22.3761 C   0  0  0  0  0  0
    5.7700   51.3015   15.3702 H   0  0  0  0  0  0
    5.5907   50.9881   13.6533 H   0  0  0  0  0  0
    6.3376   52.4827   14.2164 H   0  0  0  0  0  0
    2.9836   53.7158   13.0724 H   0  0  0  0  0  0
    4.7149   53.9414   12.9164 H   0  0  0  0  0  0
    3.9554   52.5024   12.2483 H   0  0  0  0  0  0
    2.0365   51.9105   14.6432 H   0  0  0  0  0  0
    3.0029   50.6706   13.8448 H   0  0  0  0  0  0
    3.1041   50.8982   15.5826 H   0  0  0  0  0  0
    4.7721   54.2301   15.3019 H   0  0  0  0  0  0
    5.2014   52.7524   17.0452 H   0  0  0  0  0  0
    5.5088   54.2443   18.6446 H   0  0  0  0  0  0
    6.5197   55.8830   20.1521 H   0  0  0  0  0  0
    7.3537   56.4332   22.3962 H   0  0  0  0  0  0
    5.2622   53.0724   24.0093 H   0  0  0  0  0  0
    4.5367   52.4333   21.8022 H   0  0  0  0  0  0
    7.9010   54.4669   26.8071 H   0  0  0  0  0  0
    6.8623   53.7575   28.8960 H   0  0  0  0  0  0
    4.0386   55.2144   25.1070 H   0  0  0  0  0  0
    2.8707   53.4347   20.9275 H   0  0  0  0  0  0
    2.0034   49.3094   21.5577 H   0  0  0  0  0  0
    1.0952   48.9041   23.8072 H   0  0  0  0  0  0
    0.2186   50.7784   25.1476 H   0  0  0  0  0  0
    0.2355   53.0790   24.2432 H   0  0  0  0  0  0
    1.1178   53.5146   22.0003 H   0  0  0  0  0  0
  1  2  1  0  0  0
  1 35  1  0  0  0
  1 36  1  0  0  0
  1 37  1  0  0  0
  2  3  1  0  0  0
  2  4  1  0  0  0
  2  5  1  0  0  0
  3 38  1  0  0  0
  3 39  1  0  0  0
  3 40  1  0  0  0
  4 41  1  0  0  0
  4 42  1  0  0  0
  4 43  1  0  0  0
  5  6  1  0  0  0
  5 44  1  0  0  0
  6  7  1  0  0  0
  6 45  1  0  0  0
  7  8  2  0  0  0
  7  9  1  0  0  0
  9 10  2  0  0  0
  9 26  1  0  0  0
 10 11  1  0  0  0
 10 46  1  0  0  0
 11 16  2  0  0  0
 11 12  1  0  0  0
 12 13  2  0  0  0
 12 47  1  0  0  0
 13 14  1  0  0  0
 13 48  1  0  0  0
 14 15  2  0  0  0
 14 17  1  0  0  0
 15 16  1  0  0  0
 15 49  1  0  0  0
 16 50  1  0  0  0
 17 18  1  0  0  0
 18 23  2  0  0  0
 18 19  1  0  0  0
 19 20  2  0  0  0
 19 51  1  0  0  0
 20 21  1  0  0  0
 20 52  1  0  0  0
 21 22  2  0  0  0
 21 25  1  0  0  0
 22 23  1  0  0  0
 22 24  1  0  0  0
 23 53  1  0  0  0
 26 27  1  0  0  0
 26 54  1  0  0  0
 27 28  2  0  0  0
 27 29  1  0  0  0
 29 34  2  0  0  0
 29 30  1  0  0  0
 30 31  2  0  0  0
 30 55  1  0  0  0
 31 32  1  0  0  0
 31 56  1  0  0  0
 32 33  2  0  0  0
 32 57  1  0  0  0
 33 34  1  0  0  0
 33 58  1  0  0  0
 34 59  1  0  0  0
M  END
> <i_i_glide_confnum>
218

> <i_i_glide_lignum>
4468

> <i_i_glide_posenum>
222

> <i_i_glide_rotatable_bonds>
10

> <i_m_Source_File_Index>
744

> <b_m_subgroup_collapsed>
0

> <r_i_docking_score>
-5.16022

> <r_i_glide_ecoul>
-0.492191

> <r_i_glide_eff_state_penalty>
0

> <r_i_glide_einternal>
11.7195

> <r_i_glide_emodel>
-49.615

> <r_i_glide_energy>
-41.8613

> <r_i_glide_erotb>
0.657182

> <r_i_glide_esite>
-0.122186

> <r_i_glide_evdw>
-41.3691

> <r_i_glide_gscore>
-5.16022

> <r_i_glide_hbond>
0

> <r_i_glide_ligand_efficiency>
-0.151771

> <r_i_glide_ligand_efficiency_ln>
-1.14004

> <r_i_glide_ligand_efficiency_sa>
-0.49168

> <r_i_glide_lipo>
-3.50059

> <r_i_glide_metal>
0

> <r_i_glide_rewards>
-0.0523407

> <s_i_glide_gridfile>
wee1_glide-grid

> <s_m_Source_File>
wee1_decoys_glide_SP.sdf

> <s_m_Source_Path>
/Users/zhangxujun/Desktop

> <s_m_entry_id>
1019

> <s_m_entry_name>
wee1_decoys_glide_SP.744

> <s_m_subgroup_title>
wee1_decoys_glide_SP

> <s_m_subgroupid>
wee1_decoys_glide_SP


$$$$
