ZINC22505006_5990
                    3D
 Schrodinger Suite 2024-2.
 63 67  0  0  1  0            999 V2000
    5.0461   57.4725   16.1000 C   0  0  0  0  0  0
    5.7638   58.2527   17.0021 C   0  0  0  0  0  0
    6.7948   57.6822   17.7427 C   0  0  0  0  0  0
    7.1167   56.3288   17.5754 C   0  0  0  0  0  0
    6.3849   55.5534   16.6681 C   0  0  0  0  0  0
    5.3519   56.1247   15.9296 C   0  0  0  0  0  0
    8.2229   55.6663   18.4159 C   0  0  0  0  0  0
    9.6101   56.0154   17.8766 C   0  0  0  0  0  0
   10.3609   55.0417   17.2077 C   0  0  0  0  0  0
   11.6246   55.3516   16.7113 C   0  0  0  0  0  0
   12.1393   56.6344   16.8839 C   0  0  0  0  0  0
   11.4054   57.6090   17.5570 C   0  0  0  0  0  0
   10.1440   57.2981   18.0579 C   0  0  0  0  0  0
    8.1455   55.8723   19.8745 N   0  0  0  0  0  0
    7.0451   55.6967   20.6258 C   0  0  0  0  0  0
    5.9044   55.8179   20.1841 O   0  0  0  0  0  0
    7.3272   55.3395   21.8944 N   0  0  0  0  0  0
    6.3964   54.8967   22.8529 C   0  0  0  0  0  0
    5.2380   54.1938   22.5071 C   0  0  0  0  0  0
    4.3501   53.7922   23.4912 C   0  0  0  0  0  0
    4.6031   54.0447   24.8430 C   0  0  0  0  0  0
    5.8058   54.6904   25.2152 C   0  0  0  0  0  0
    6.6669   55.1344   24.2034 C   0  0  0  0  0  0
    6.2061   54.8322   26.6808 C   0  0  0  0  0  0
    5.0464   54.4898   27.6283 C   0  0  0  0  0  0
    4.2946   53.2535   27.1360 C   0  0  0  0  0  0
    3.7184   53.4822   25.8016 N   0  0  0  0  0  0
    1.9440   53.6954   25.6792 S   0  0  0  0  0  0
    1.5045   54.0965   27.0216 O   0  0  0  0  0  0
    1.6718   54.4967   24.4814 O   0  0  0  0  0  0
    1.2070   52.0968   25.3385 C   0  0  0  0  0  0
    0.7044   51.3051   26.3765 C   0  0  0  0  0  0
    0.2134   50.0324   26.0917 C   0  0  0  0  0  0
    0.2084   49.5614   24.7823 C   0  0  0  0  0  0
    0.6826   50.3563   23.7431 C   0  0  0  0  0  0
    1.1802   51.6259   24.0210 C   0  0  0  0  0  0
    4.2442   57.9208   15.5317 H   0  0  0  0  0  0
    5.5152   59.2969   17.1297 H   0  0  0  0  0  0
    7.3298   58.2926   18.4542 H   0  0  0  0  0  0
    6.6083   54.5043   16.5364 H   0  0  0  0  0  0
    4.7876   55.5234   15.2323 H   0  0  0  0  0  0
    8.1019   54.5861   18.3002 H   0  0  0  0  0  0
    9.9705   54.0438   17.0670 H   0  0  0  0  0  0
   12.2022   54.5992   16.1946 H   0  0  0  0  0  0
   13.1195   56.8736   16.4981 H   0  0  0  0  0  0
   11.8153   58.5985   17.6939 H   0  0  0  0  0  0
    9.5858   58.0549   18.5882 H   0  0  0  0  0  0
    9.0389   55.8642   20.3432 H   0  0  0  0  0  0
    8.2749   55.4463   22.2296 H   0  0  0  0  0  0
    5.0074   53.9525   21.4798 H   0  0  0  0  0  0
    3.4723   53.2486   23.1856 H   0  0  0  0  0  0
    7.5687   55.6558   24.4813 H   0  0  0  0  0  0
    7.0207   54.1307   26.8682 H   0  0  0  0  0  0
    6.6088   55.8201   26.8958 H   0  0  0  0  0  0
    4.3264   55.2976   27.6951 H   0  0  0  0  0  0
    5.4182   54.3367   28.6423 H   0  0  0  0  0  0
    3.5625   52.8955   27.8603 H   0  0  0  0  0  0
    5.0228   52.4583   27.0049 H   0  0  0  0  0  0
    0.7196   51.6547   27.3988 H   0  0  0  0  0  0
   -0.1527   49.3961   26.8822 H   0  0  0  0  0  0
   -0.1665   48.5693   24.5769 H   0  0  0  0  0  0
    0.6715   49.9869   22.7280 H   0  0  0  0  0  0
    1.5451   52.2336   23.2071 H   0  0  0  0  0  0
  1  6  2  0  0  0
  1  2  1  0  0  0
  1 37  1  0  0  0
  2  3  2  0  0  0
  2 38  1  0  0  0
  3  4  1  0  0  0
  3 39  1  0  0  0
  4  5  2  0  0  0
  4  7  1  0  0  0
  5  6  1  0  0  0
  5 40  1  0  0  0
  6 41  1  0  0  0
  7  8  1  0  0  0
  7 14  1  0  0  0
  7 42  1  0  0  0
  8 13  2  0  0  0
  8  9  1  0  0  0
  9 10  2  0  0  0
  9 43  1  0  0  0
 10 11  1  0  0  0
 10 44  1  0  0  0
 11 12  2  0  0  0
 11 45  1  0  0  0
 12 13  1  0  0  0
 12 46  1  0  0  0
 13 47  1  0  0  0
 14 15  1  0  0  0
 14 48  1  0  0  0
 15 16  2  0  0  0
 15 17  1  0  0  0
 17 18  1  0  0  0
 17 49  1  0  0  0
 18 23  2  0  0  0
 18 19  1  0  0  0
 19 20  2  0  0  0
 19 50  1  0  0  0
 20 21  1  0  0  0
 20 51  1  0  0  0
 21 27  1  0  0  0
 21 22  2  0  0  0
 22 23  1  0  0  0
 22 24  1  0  0  0
 23 52  1  0  0  0
 24 25  1  0  0  0
 24 53  1  0  0  0
 24 54  1  0  0  0
 25 26  1  0  0  0
 25 55  1  0  0  0
 25 56  1  0  0  0
 26 27  1  0  0  0
 26 57  1  0  0  0
 26 58  1  0  0  0
 27 28  1  0  0  0
 28 29  2  0  0  0
 28 30  2  0  0  0
 28 31  1  0  0  0
 31 36  2  0  0  0
 31 32  1  0  0  0
 32 33  2  0  0  0
 32 59  1  0  0  0
 33 34  1  0  0  0
 33 60  1  0  0  0
 34 35  2  0  0  0
 34 61  1  0  0  0
 35 36  1  0  0  0
 35 62  1  0  0  0
 36 63  1  0  0  0
M  END
> <i_i_glide_confnum>
113

> <i_i_glide_lignum>
5991

> <i_i_glide_posenum>
103

> <i_i_glide_rotatable_bonds>
8

> <i_m_Source_File_Index>
2821

> <b_m_subgroup_collapsed>
0

> <r_i_docking_score>
-5.11411

> <r_i_glide_ecoul>
-3.73233

> <r_i_glide_eff_state_penalty>
0

> <r_i_glide_einternal>
4.50398

> <r_i_glide_emodel>
-55.8601

> <r_i_glide_energy>
-40.6224

> <r_i_glide_erotb>
0.659099

> <r_i_glide_esite>
0

> <r_i_glide_evdw>
-36.8901

> <r_i_glide_gscore>
-5.11411

> <r_i_glide_hbond>
-0.319683

> <r_i_glide_ligand_efficiency>
-0.142059

> <r_i_glide_ligand_efficiency_ln>
-1.11576

> <r_i_glide_ligand_efficiency_sa>
-0.469067

> <r_i_glide_lipo>
-2.53751

> <r_i_glide_metal>
0

> <r_i_glide_rewards>
-0.51166

> <s_i_glide_gridfile>
wee1_glide-grid

> <s_m_Source_File>
wee1_decoys_glide_SP.sdf

> <s_m_Source_Path>
/Users/zhangxujun/Desktop

> <s_m_entry_id>
3096

> <s_m_entry_name>
wee1_decoys_glide_SP.2821

> <s_m_subgroup_title>
wee1_decoys_glide_SP

> <s_m_subgroupid>
wee1_decoys_glide_SP


$$$$
