ZINC16801287_4178
                    3D
 Schrodinger Suite 2024-2.
 57 61  0  0  1  0            999 V2000
    2.0680   50.0186   22.6990 C   0  0  0  0  0  0
    1.0602   49.8961   23.6484 C   0  0  0  0  0  0
   -0.1695   50.5384   23.4797 C   0  0  0  0  0  0
   -0.4038   51.2804   22.2960 C   0  0  0  0  0  0
    0.6196   51.3637   21.3321 C   0  0  0  0  0  0
    1.8648   50.7530   21.5313 C   0  0  0  0  0  0
    2.9948   50.9037   20.5442 C   0  0  0  0  0  0
    4.1462   51.1143   20.9153 O   0  0  0  0  0  0
    2.7004   50.7503   19.2561 N   0  0  0  0  0  0
   -1.6758   51.9963   22.0376 N   0  3  0  0  0  0
   -2.0532   52.0955   20.8724 O   0  0  0  0  0  0
   -2.2911   52.4923   22.9748 O   0  5  0  0  0  0
   -1.1970   50.3780   24.6076 C   0  0  0  0  0  0
   -1.2407   51.6271   25.9752 S   0  0  0  0  0  0
    0.3620   52.4964   26.0278 C   0  0  0  0  0  0
    0.8886   52.7996   24.8956 N   0  0  0  0  0  0
    2.1272   53.3378   24.8833 C   0  0  0  0  0  0
    2.8869   53.6073   26.0087 C   0  0  0  0  0  0
    4.1740   54.0825   25.6861 C   0  0  0  0  0  0
    4.3586   54.1588   24.2942 C   0  0  0  0  0  0
    2.9416   53.6976   23.4054 S   0  0  0  0  0  0
    5.6709   54.5118   23.6189 C   0  0  0  0  0  0
    6.5274   55.3011   24.6283 C   0  0  0  0  0  0
    6.6518   54.5360   25.9600 C   0  0  0  0  0  0
    5.2953   54.3874   26.6827 C   0  0  0  0  0  0
    2.3049   53.3519   27.3256 C   0  0  0  0  0  0
    2.8895   53.5511   28.3936 O   0  0  0  0  0  0
    0.9914   52.8703   27.2312 N   0  0  0  0  0  0
    0.2189   52.7647   28.5138 C   0  0  0  0  0  0
    0.7041   51.6433   29.4520 C   0  0  0  0  0  0
    0.5234   52.1713   30.8775 C   0  0  0  0  0  0
    0.7746   53.6694   30.7518 C   0  0  0  0  0  0
    0.1574   54.0417   29.4012 C   0  0  0  0  0  0
    3.0147   49.5342   22.8814 H   0  0  0  0  0  0
    1.2480   49.3166   24.5408 H   0  0  0  0  0  0
    0.4583   51.9528   20.4390 H   0  0  0  0  0  0
    1.7693   50.5181   18.9538 H   0  0  0  0  0  0
    3.4654   50.7516   18.5864 H   0  0  0  0  0  0
   -2.1989   50.2914   24.1901 H   0  0  0  0  0  0
   -1.0330   49.4150   25.0940 H   0  0  0  0  0  0
    6.1908   53.5973   23.3296 H   0  0  0  0  0  0
    5.5209   55.0715   22.6961 H   0  0  0  0  0  0
    7.5043   55.4886   24.1961 H   0  0  0  0  0  0
    6.0885   56.2842   24.8081 H   0  0  0  0  0  0
    7.0633   53.5443   25.7647 H   0  0  0  0  0  0
    7.3597   55.0246   26.6276 H   0  0  0  0  0  0
    5.0590   55.2967   27.2312 H   0  0  0  0  0  0
    5.3724   53.6026   27.4364 H   0  0  0  0  0  0
   -0.8364   52.5486   28.3466 H   0  0  0  0  0  0
    0.1419   50.7298   29.2746 H   0  0  0  0  0  0
    1.7553   51.4016   29.2910 H   0  0  0  0  0  0
   -0.4961   51.9877   31.2202 H   0  0  0  0  0  0
    1.1977   51.6980   31.5933 H   0  0  0  0  0  0
    0.3419   54.2316   31.5803 H   0  0  0  0  0  0
    1.8459   53.8663   30.7438 H   0  0  0  0  0  0
    0.6359   54.9180   28.9624 H   0  0  0  0  0  0
   -0.8844   54.2895   29.6007 H   0  0  0  0  0  0
  1  6  2  0  0  0
  1  2  1  0  0  0
  1 34  1  0  0  0
  2  3  2  0  0  0
  2 35  1  0  0  0
  3  4  1  0  0  0
  3 13  1  0  0  0
  4  5  2  0  0  0
  4 10  1  0  0  0
  5  6  1  0  0  0
  5 36  1  0  0  0
  6  7  1  0  0  0
  7  8  2  0  0  0
  7  9  1  0  0  0
  9 37  1  0  0  0
  9 38  1  0  0  0
 10 11  2  0  0  0
 10 12  1  0  0  0
 13 14  1  0  0  0
 13 39  1  0  0  0
 13 40  1  0  0  0
 14 15  1  0  0  0
 15 28  1  0  0  0
 15 16  2  0  0  0
 16 17  1  0  0  0
 17 21  1  0  0  0
 17 18  2  0  0  0
 18 19  1  0  0  0
 18 26  1  0  0  0
 19 25  1  0  0  0
 19 20  2  0  0  0
 20 21  1  0  0  0
 20 22  1  0  0  0
 22 23  1  0  0  0
 22 41  1  0  0  0
 22 42  1  0  0  0
 23 24  1  0  0  0
 23 43  1  0  0  0
 23 44  1  0  0  0
 24 25  1  0  0  0
 24 45  1  0  0  0
 24 46  1  0  0  0
 25 47  1  0  0  0
 25 48  1  0  0  0
 26 27  2  0  0  0
 26 28  1  0  0  0
 28 29  1  0  0  0
 29 33  1  0  0  0
 29 30  1  0  0  0
 29 49  1  0  0  0
 30 31  1  0  0  0
 30 50  1  0  0  0
 30 51  1  0  0  0
 31 32  1  0  0  0
 31 52  1  0  0  0
 31 53  1  0  0  0
 32 33  1  0  0  0
 32 54  1  0  0  0
 32 55  1  0  0  0
 33 56  1  0  0  0
 33 57  1  0  0  0
M  CHG  2  10   1  12  -1
M  END
> <i_i_glide_confnum>
207

> <i_i_glide_lignum>
4179

> <i_i_glide_posenum>
209

> <i_i_glide_rotatable_bonds>
6

> <i_m_Source_File_Index>
6053

> <b_m_subgroup_collapsed>
0

> <r_i_docking_score>
-6.54569

> <r_i_glide_ecoul>
-6.97104

> <r_i_glide_eff_state_penalty>
0

> <r_i_glide_einternal>
4.65692

> <r_i_glide_emodel>
-70.3116

> <r_i_glide_energy>
-52.1195

> <r_i_glide_erotb>
0.345936

> <r_i_glide_esite>
-0.157212

> <r_i_glide_evdw>
-45.1484

> <r_i_glide_gscore>
-6.54569

> <r_i_glide_hbond>
-0.170387

> <r_i_glide_ligand_efficiency>
-0.198354

> <r_i_glide_ligand_efficiency_ln>
-1.45573

> <r_i_glide_ligand_efficiency_sa>
-0.636228

> <r_i_glide_lipo>
-2.94624

> <r_i_glide_metal>
0

> <r_i_glide_rewards>
-0.314716

> <s_i_glide_gridfile>
wee1_glide-grid

> <s_m_Source_File>
wee1_decoys_glide_SP.sdf

> <s_m_Source_Path>
/Users/zhangxujun/Desktop

> <s_m_entry_id>
6328

> <s_m_entry_name>
wee1_decoys_glide_SP.6053

> <s_m_subgroup_title>
wee1_decoys_glide_SP

> <s_m_subgroupid>
wee1_decoys_glide_SP


$$$$
