ZINC09237785_664
                    3D
 Schrodinger Suite 2024-2.
 52 55  0  0  1  0            999 V2000
    5.4417   54.8301   27.0075 C   0  0  0  0  0  0
    4.7339   54.4190   25.7286 C   0  0  0  0  0  0
    5.4083   54.4731   24.5081 C   0  0  0  0  0  0
    4.7581   54.1011   23.3316 C   0  0  0  0  0  0
    3.4230   53.6893   23.3527 C   0  0  0  0  0  0
    2.7589   53.5686   24.5930 C   0  0  0  0  0  0
    3.4092   53.9746   25.7644 C   0  0  0  0  0  0
    1.4739   53.0172   24.7456 N   0  0  0  0  0  0
    1.1034   51.7814   24.3317 C   0  0  0  0  0  0
    1.8360   51.0373   23.6789 O   0  0  0  0  0  0
   -0.2823   51.2403   24.7477 C   0  0  1  0  0  0
   -0.4658   50.4098   24.0631 H   0  0  0  0  0  0
   -0.2758   50.6838   26.2154 C   0  0  2  0  0  0
    0.3982   49.8247   26.2105 H   0  0  0  0  0  0
   -1.5869   50.0967   26.4817 N   0  0  0  0  0  0
   -2.6544   50.9817   26.3674 N   0  0  0  0  0  0
   -3.7941   51.0145   27.1342 C   0  0  0  0  0  0
   -4.5837   51.9824   26.7383 N   0  0  0  0  0  0
   -3.9474   52.6268   25.6785 N   0  0  0  0  0  0
   -2.8023   52.0214   25.4753 C   0  0  0  0  0  0
   -1.5559   52.4973   24.3142 S   0  0  0  0  0  0
   -4.0831   50.0637   28.2772 C   0  0  0  0  0  0
    0.2716   51.6115   27.3178 C   0  0  0  0  0  0
   -0.4078   52.7668   27.6922 C   0  0  0  0  0  0
    0.1277   53.6345   28.6291 C   0  0  0  0  0  0
    1.3761   53.4003   29.2135 C   0  0  0  0  0  0
    2.0437   52.2152   28.8812 C   0  0  0  0  0  0
    1.4901   51.3308   27.9471 C   0  0  0  0  0  0
    3.7248   51.8040   29.6818 Br  0  0  0  0  0  0
    1.9807   54.2926   30.0817 O   0  0  0  0  0  0
    1.3111   55.5206   30.3811 C   0  0  0  0  0  0
    2.7391   53.4148   22.0201 C   0  0  0  0  0  0
    4.7290   55.1214   27.7802 H   0  0  0  0  0  0
    6.0523   54.0097   27.3861 H   0  0  0  0  0  0
    6.0889   55.6919   26.8323 H   0  0  0  0  0  0
    6.4353   54.8057   24.4658 H   0  0  0  0  0  0
    5.2875   54.1732   22.3926 H   0  0  0  0  0  0
    2.9025   53.9018   26.7156 H   0  0  0  0  0  0
    0.8654   53.4753   25.4063 H   0  0  0  0  0  0
   -1.6370   49.5624   27.3602 H   0  0  0  0  0  0
   -5.0328   50.2771   28.7672 H   0  0  0  0  0  0
   -4.1234   49.0289   27.9361 H   0  0  0  0  0  0
   -3.3081   50.1076   29.0447 H   0  0  0  0  0  0
   -1.3526   53.0333   27.2568 H   0  0  0  0  0  0
   -0.4580   54.4950   28.8754 H   0  0  0  0  0  0
    2.0222   50.4310   27.6822 H   0  0  0  0  0  0
    1.9050   56.1317   31.0568 H   0  0  0  0  0  0
    1.1430   56.1154   29.4814 H   0  0  0  0  0  0
    0.3540   55.3405   30.8735 H   0  0  0  0  0  0
    2.9107   52.3883   21.6954 H   0  0  0  0  0  0
    1.6667   53.6020   22.0760 H   0  0  0  0  0  0
    3.1201   54.0822   21.2470 H   0  0  0  0  0  0
  1  2  1  0  0  0
  1 33  1  0  0  0
  1 34  1  0  0  0
  1 35  1  0  0  0
  2  7  2  0  0  0
  2  3  1  0  0  0
  3  4  2  0  0  0
  3 36  1  0  0  0
  4  5  1  0  0  0
  4 37  1  0  0  0
  5  6  2  0  0  0
  5 32  1  0  0  0
  6  7  1  0  0  0
  6  8  1  0  0  0
  7 38  1  0  0  0
  8  9  1  0  0  0
  8 39  1  0  0  0
  9 10  2  0  0  0
  9 11  1  0  0  0
 11 12  1  0  0  0
 11 21  1  0  0  0
 11 13  1  0  0  0
 13 14  1  0  0  0
 13 15  1  0  0  0
 13 23  1  0  0  0
 15 16  1  0  0  0
 15 40  1  0  0  0
 16 20  1  0  0  0
 16 17  1  0  0  0
 17 18  2  0  0  0
 17 22  1  0  0  0
 18 19  1  0  0  0
 19 20  2  0  0  0
 20 21  1  0  0  0
 22 41  1  0  0  0
 22 42  1  0  0  0
 22 43  1  0  0  0
 23 28  2  0  0  0
 23 24  1  0  0  0
 24 25  2  0  0  0
 24 44  1  0  0  0
 25 26  1  0  0  0
 25 45  1  0  0  0
 26 27  2  0  0  0
 26 30  1  0  0  0
 27 28  1  0  0  0
 27 29  1  0  0  0
 28 46  1  0  0  0
 30 31  1  0  0  0
 31 47  1  0  0  0
 31 48  1  0  0  0
 31 49  1  0  0  0
 32 50  1  0  0  0
 32 51  1  0  0  0
 32 52  1  0  0  0
M  END
> <i_i_glide_confnum>
118

> <i_i_glide_lignum>
665

> <i_i_glide_posenum>
16

> <i_i_glide_rotatable_bonds>
5

> <i_m_Source_File_Index>
5425

> <b_m_subgroup_collapsed>
0

> <r_i_docking_score>
-6.57368

> <r_i_glide_ecoul>
-7.7307

> <r_i_glide_eff_state_penalty>
0

> <r_i_glide_einternal>
7.84249

> <r_i_glide_emodel>
-61.09

> <r_i_glide_energy>
-46.3294

> <r_i_glide_erotb>
0.341016

> <r_i_glide_esite>
-0.196914

> <r_i_glide_evdw>
-38.5987

> <r_i_glide_gscore>
-6.57368

> <r_i_glide_hbond>
-0.426649

> <r_i_glide_ligand_efficiency>
-0.219123

> <r_i_glide_ligand_efficiency_ln>
-1.49361

> <r_i_glide_ligand_efficiency_sa>
-0.680865

> <r_i_glide_lipo>
-2.91527

> <r_i_glide_metal>
0

> <r_i_glide_rewards>
-0.28632

> <s_i_glide_gridfile>
wee1_glide-grid

> <s_m_Source_File>
wee1_decoys_glide_SP.sdf

> <s_m_Source_Path>
/Users/zhangxujun/Desktop

> <s_m_entry_id>
5700

> <s_m_entry_name>
wee1_decoys_glide_SP.5425

> <s_m_subgroup_title>
wee1_decoys_glide_SP

> <s_m_subgroupid>
wee1_decoys_glide_SP


$$$$
