ZINC57345561_234
                    3D
 Schrodinger Suite 2024-2.
 51 54  0  0  1  0            999 V2000
    0.2370   52.8233   27.5283 C   0  0  0  0  0  0
    0.1408   52.7351   28.9147 C   0  0  0  0  0  0
    1.2898   52.6557   29.6957 C   0  0  0  0  0  0
    2.5497   52.6172   29.0770 C   0  0  0  0  0  0
    2.6206   52.6175   27.6789 C   0  0  0  0  0  0
    1.4863   52.7992   26.8799 C   0  0  0  0  0  0
    1.5774   52.8972   25.4489 N   0  0  0  0  0  0
    2.5886   53.3206   24.5639 C   0  0  0  0  0  0
    2.0662   52.9604   23.2950 C   0  0  0  0  0  0
    0.8111   52.5776   23.4207 N   0  0  0  0  0  0
    0.5096   52.4889   24.7498 N   0  0  0  0  0  0
    2.7068   52.9798   21.8988 C   0  0  0  0  0  0
    2.1119   52.0970   20.8757 N   0  0  0  0  0  0
    2.7757   52.3563   19.5828 C   0  0  0  0  0  0
    2.2279   51.4760   18.4437 C   0  0  0  0  0  0
    2.2445   49.9846   18.8090 C   0  0  0  0  0  0
    1.5674   49.7609   20.1679 C   0  0  0  0  0  0
    2.1836   50.6706   21.2514 C   0  0  0  0  0  0
    1.5048   49.2052   17.7141 N   0  3  0  0  0  0
    3.9313   53.9492   24.9201 C   0  0  0  0  0  0
    5.0721   53.7975   24.1064 C   0  0  0  0  0  0
    6.3108   54.2903   24.5222 C   0  0  0  0  0  0
    6.4908   54.9054   25.7116 N   0  0  0  0  0  0
    5.3932   55.0786   26.4822 C   0  0  0  0  0  0
    4.1077   54.6909   26.0963 C   0  0  0  0  0  0
    3.8408   52.6398   29.8897 C   0  0  0  0  0  0
    3.9044   53.8274   30.4815 F   0  0  0  0  0  0
    3.8612   51.6968   30.8274 F   0  0  0  0  0  0
    4.9266   52.4966   29.1305 F   0  0  0  0  0  0
    1.1065   52.6189   31.4169 Cl  0  0  0  0  0  0
   -0.6818   52.8997   26.9639 H   0  0  0  0  0  0
   -0.8303   52.7441   29.3883 H   0  0  0  0  0  0
    3.5840   52.4996   27.2068 H   0  0  0  0  0  0
    3.7419   52.6661   21.9436 H   0  0  0  0  0  0
    2.7229   54.0082   21.5335 H   0  0  0  0  0  0
    3.8522   52.1956   19.6805 H   0  0  0  0  0  0
    2.6535   53.4065   19.3132 H   0  0  0  0  0  0
    2.7738   51.6427   17.5134 H   0  0  0  0  0  0
    1.2153   51.8148   18.2190 H   0  0  0  0  0  0
    3.2816   49.6439   18.8823 H   0  0  0  0  0  0
    0.4992   49.9763   20.1104 H   0  0  0  0  0  0
    1.6124   48.7088   20.4519 H   0  0  0  0  0  0
    3.2265   50.3982   21.4252 H   0  0  0  0  0  0
    1.6680   50.4933   22.1954 H   0  0  0  0  0  0
    0.6056   49.6171   17.5142 H   0  0  0  0  0  0
    1.3899   48.2385   17.9790 H   0  0  0  0  0  0
    5.0687   53.2547   23.1861 H   0  0  0  0  0  0
    7.1961   54.1568   23.9154 H   0  0  0  0  0  0
    5.5596   55.5704   27.4294 H   0  0  0  0  0  0
    3.2753   54.9134   26.7459 H   0  0  0  0  0  0
    2.0889   49.2352   16.8821 H   0  0  0  0  0  0
  1  6  2  0  0  0
  1  2  1  0  0  0
  1 31  1  0  0  0
  2  3  2  0  0  0
  2 32  1  0  0  0
  3  4  1  0  0  0
  3 30  1  0  0  0
  4  5  2  0  0  0
  4 26  1  0  0  0
  5  6  1  0  0  0
  5 33  1  0  0  0
  6  7  1  0  0  0
  7 11  1  0  0  0
  7  8  1  0  0  0
  8  9  2  0  0  0
  8 20  1  0  0  0
  9 10  1  0  0  0
  9 12  1  0  0  0
 10 11  2  0  0  0
 12 13  1  0  0  0
 12 34  1  0  0  0
 12 35  1  0  0  0
 13 18  1  0  0  0
 13 14  1  0  0  0
 14 15  1  0  0  0
 14 36  1  0  0  0
 14 37  1  0  0  0
 15 16  1  0  0  0
 15 38  1  0  0  0
 15 39  1  0  0  0
 16 17  1  0  0  0
 16 19  1  0  0  0
 16 40  1  0  0  0
 17 18  1  0  0  0
 17 41  1  0  0  0
 17 42  1  0  0  0
 18 43  1  0  0  0
 18 44  1  0  0  0
 19 45  1  0  0  0
 19 46  1  0  0  0
 19 51  1  0  0  0
 20 25  2  0  0  0
 20 21  1  0  0  0
 21 22  2  0  0  0
 21 47  1  0  0  0
 22 23  1  0  0  0
 22 48  1  0  0  0
 23 24  2  0  0  0
 24 25  1  0  0  0
 24 49  1  0  0  0
 25 50  1  0  0  0
 26 27  1  0  0  0
 26 28  1  0  0  0
 26 29  1  0  0  0
M  CHG  1  19   1
M  END
> <i_i_glide_confnum>
8

> <i_i_glide_lignum>
235

> <i_i_glide_posenum>
167

> <i_i_glide_rotatable_bonds>
5

> <i_m_Source_File_Index>
3840

> <b_m_subgroup_collapsed>
0

> <r_i_docking_score>
-7.18159

> <r_i_glide_ecoul>
-5.4457

> <r_i_glide_eff_state_penalty>
0

> <r_i_glide_einternal>
4.90344

> <r_i_glide_emodel>
-59.78

> <r_i_glide_energy>
-39.1972

> <r_i_glide_erotb>
0.416108

> <r_i_glide_esite>
-0.11948

> <r_i_glide_evdw>
-33.7515

> <r_i_glide_gscore>
-7.18159

> <r_i_glide_hbond>
-0.167538

> <r_i_glide_ligand_efficiency>
-0.239386

> <r_i_glide_ligand_efficiency_ln>
-1.63173

> <r_i_glide_ligand_efficiency_sa>
-0.743828

> <r_i_glide_lipo>
-2.84916

> <r_i_glide_metal>
0

> <r_i_glide_rewards>
-1.95709

> <s_i_glide_gridfile>
wee1_glide-grid

> <s_m_Source_File>
wee1_decoys_glide_SP.sdf

> <s_m_Source_Path>
/Users/zhangxujun/Desktop

> <s_m_entry_id>
4115

> <s_m_entry_name>
wee1_decoys_glide_SP.3840

> <s_m_subgroup_title>
wee1_decoys_glide_SP

> <s_m_subgroupid>
wee1_decoys_glide_SP


$$$$
