ZINC39634418_4078
                    3D
 Schrodinger Suite 2024-2.
 66 70  0  0  1  0            999 V2000
    6.1328   54.7589   27.2022 C   0  0  0  0  0  0
    5.7282   54.5188   25.7581 C   0  0  0  0  0  0
    4.3863   54.3338   25.4232 C   0  0  0  0  0  0
    4.0275   54.1082   24.0963 C   0  0  0  0  0  0
    5.0060   54.1029   23.0930 C   0  0  0  0  0  0
    6.3466   54.2865   23.4361 C   0  0  0  0  0  0
    6.7043   54.4965   24.7635 C   0  0  0  0  0  0
    4.6361   53.9130   21.6247 C   0  0  0  0  0  0
    3.4552   53.0802   21.4072 N   0  0  0  0  0  0
    3.4765   51.7691   21.1166 C   0  0  0  0  0  0
    4.5268   51.1721   20.8948 O   0  0  0  0  0  0
    2.1363   50.9993   20.9632 C   0  0  1  0  0  0
    2.3357   49.9905   21.3306 H   0  0  0  0  0  0
    1.0646   51.5667   21.9263 C   0  0  0  0  0  0
   -0.1879   51.4855   21.1722 N   0  0  0  0  0  0
    0.0098   50.9801   19.8056 C   0  0  0  0  0  0
    1.5291   50.9900   19.5298 C   0  0  0  0  0  0
    1.9288   52.2320   18.6610 C   0  0  0  0  0  0
    1.3613   52.1969   17.2273 C   0  0  0  0  0  0
    1.8264   50.8867   16.5546 N   0  3  0  0  0  0
    1.4051   49.6321   17.3466 C   0  0  0  0  0  0
    2.0192   49.7444   18.7500 C   0  0  0  0  0  0
   -1.4494   51.6977   21.6458 C   0  0  0  0  0  0
   -2.4263   51.6918   20.8899 O   0  0  0  0  0  0
   -1.6859   51.9258   23.0677 C   0  0  0  0  0  0
   -2.8951   52.1039   23.7296 C   0  0  0  0  0  0
   -2.6154   52.1976   25.0896 C   0  0  0  0  0  0
   -1.2406   52.0989   25.2303 C   0  0  0  0  0  0
   -0.6822   51.9592   23.9940 O   0  0  0  0  0  0
   -0.3451   52.0969   26.4253 C   0  0  0  0  0  0
    0.9927   52.4957   26.3348 C   0  0  0  0  0  0
    1.7957   52.4966   27.4737 C   0  0  0  0  0  0
    1.2682   52.0966   28.6977 C   0  0  0  0  0  0
   -0.0614   51.6980   28.7977 C   0  0  0  0  0  0
   -0.8673   51.6954   27.6603 C   0  0  0  0  0  0
    2.0565   52.0946   29.7975 F   0  0  0  0  0  0
    5.2721   54.8524   27.8662 H   0  0  0  0  0  0
    6.7661   53.9439   27.5592 H   0  0  0  0  0  0
    6.7104   55.6791   27.2819 H   0  0  0  0  0  0
    3.6222   54.3677   26.1841 H   0  0  0  0  0  0
    2.9847   53.9774   23.8486 H   0  0  0  0  0  0
    7.1193   54.2855   22.6802 H   0  0  0  0  0  0
    7.7443   54.6431   25.0074 H   0  0  0  0  0  0
    4.4491   54.8949   21.1914 H   0  0  0  0  0  0
    5.5007   53.5059   21.0927 H   0  0  0  0  0  0
    2.5650   53.5492   21.4762 H   0  0  0  0  0  0
    1.0389   50.9442   22.8209 H   0  0  0  0  0  0
    1.1974   52.6237   22.1567 H   0  0  0  0  0  0
   -0.5937   51.4457   19.0283 H   0  0  0  0  0  0
   -0.3095   49.9392   19.8482 H   0  0  0  0  0  0
    1.5994   53.1474   19.1504 H   0  0  0  0  0  0
    3.0145   52.3188   18.5783 H   0  0  0  0  0  0
    0.2717   52.2115   17.1859 H   0  0  0  0  0  0
    1.7494   53.0113   16.6138 H   0  0  0  0  0  0
    1.4771   50.8311   15.6087 H   0  0  0  0  0  0
    0.3147   49.5879   17.3383 H   0  0  0  0  0  0
    1.8113   48.7823   16.7936 H   0  0  0  0  0  0
    3.1047   49.7378   18.6880 H   0  0  0  0  0  0
    1.7641   48.8423   19.3042 H   0  0  0  0  0  0
   -3.8783   52.1222   23.2805 H   0  0  0  0  0  0
   -3.3334   52.3132   25.8859 H   0  0  0  0  0  0
    1.4108   52.8011   25.3882 H   0  0  0  0  0  0
    2.8328   52.7900   27.4179 H   0  0  0  0  0  0
   -0.4657   51.3753   29.7477 H   0  0  0  0  0  0
   -1.8925   51.3637   27.7493 H   0  0  0  0  0  0
    2.8418   50.8531   16.4929 H   0  0  0  0  0  0
  1  2  1  0  0  0
  1 37  1  0  0  0
  1 38  1  0  0  0
  1 39  1  0  0  0
  2  7  2  0  0  0
  2  3  1  0  0  0
  3  4  2  0  0  0
  3 40  1  0  0  0
  4  5  1  0  0  0
  4 41  1  0  0  0
  5  6  2  0  0  0
  5  8  1  0  0  0
  6  7  1  0  0  0
  6 42  1  0  0  0
  7 43  1  0  0  0
  8  9  1  0  0  0
  8 44  1  0  0  0
  8 45  1  0  0  0
  9 10  1  0  0  0
  9 46  1  0  0  0
 10 11  2  0  0  0
 10 12  1  0  0  0
 12 13  1  0  0  0
 12 17  1  0  0  0
 12 14  1  0  0  0
 14 15  1  0  0  0
 14 47  1  0  0  0
 14 48  1  0  0  0
 15 16  1  0  0  0
 15 23  1  0  0  0
 16 17  1  0  0  0
 16 49  1  0  0  0
 16 50  1  0  0  0
 17 22  1  0  0  0
 17 18  1  0  0  0
 18 19  1  0  0  0
 18 51  1  0  0  0
 18 52  1  0  0  0
 19 20  1  0  0  0
 19 53  1  0  0  0
 19 54  1  0  0  0
 20 21  1  0  0  0
 20 55  1  0  0  0
 20 66  1  0  0  0
 21 22  1  0  0  0
 21 56  1  0  0  0
 21 57  1  0  0  0
 22 58  1  0  0  0
 22 59  1  0  0  0
 23 24  2  0  0  0
 23 25  1  0  0  0
 25 29  1  0  0  0
 25 26  2  0  0  0
 26 27  1  0  0  0
 26 60  1  0  0  0
 27 28  2  0  0  0
 27 61  1  0  0  0
 28 29  1  0  0  0
 28 30  1  0  0  0
 30 35  2  0  0  0
 30 31  1  0  0  0
 31 32  2  0  0  0
 31 62  1  0  0  0
 32 33  1  0  0  0
 32 63  1  0  0  0
 33 34  2  0  0  0
 33 36  1  0  0  0
 34 35  1  0  0  0
 34 64  1  0  0  0
 35 65  1  0  0  0
M  CHG  1  20   1
M  END
> <i_i_glide_confnum>
288

> <i_i_glide_lignum>
4079

> <i_i_glide_posenum>
380

> <i_i_glide_rotatable_bonds>
7

> <i_m_Source_File_Index>
5240

> <b_m_subgroup_collapsed>
0

> <r_i_docking_score>
-5.97258

> <r_i_glide_ecoul>
-8.46519

> <r_i_glide_eff_state_penalty>
0

> <r_i_glide_einternal>
9.31856

> <r_i_glide_emodel>
-66.9143

> <r_i_glide_energy>
-50.9752

> <r_i_glide_erotb>
0.624163

> <r_i_glide_esite>
-0.12054

> <r_i_glide_evdw>
-42.51

> <r_i_glide_gscore>
-5.97258

> <r_i_glide_hbond>
-0.212693

> <r_i_glide_ligand_efficiency>
-0.170645

> <r_i_glide_ligand_efficiency_ln>
-1.31111

> <r_i_glide_ligand_efficiency_sa>
-0.558192

> <r_i_glide_lipo>
-2.6492

> <r_i_glide_metal>
0

> <r_i_glide_rewards>
-0.219039

> <s_i_glide_gridfile>
wee1_glide-grid

> <s_m_Source_File>
wee1_decoys_glide_SP.sdf

> <s_m_Source_Path>
/Users/zhangxujun/Desktop

> <s_m_entry_id>
5515

> <s_m_entry_name>
wee1_decoys_glide_SP.5240

> <s_m_subgroup_title>
wee1_decoys_glide_SP

> <s_m_subgroupid>
wee1_decoys_glide_SP


$$$$
