ZINC61886227_4760
                    3D
 Schrodinger Suite 2024-2.
 32 33  0  0  1  0            999 V2000
    6.4437   54.4777   26.3474 C   0  0  0  0  0  0
    6.5897   54.6113   24.9664 C   0  0  0  0  0  0
    5.3272   54.4946   24.4156 C   0  0  0  0  0  0
    4.4139   54.3104   25.4016 O   0  0  0  0  0  0
    5.0913   54.2900   26.5851 C   0  0  0  0  0  0
    4.3871   54.0711   27.8154 C   0  0  0  0  0  0
    4.9794   53.9182   28.8825 O   0  0  0  0  0  0
    3.0515   54.0595   27.6980 N   0  0  0  0  0  0
    2.1162   53.8693   28.8055 C   0  0  1  0  0  0
    2.3910   54.5861   29.5862 H   0  0  0  0  0  0
    0.7054   54.1931   28.3340 C   0  0  0  0  0  0
    0.1654   52.8969   27.7044 C   0  0  0  0  0  0
    0.9819   51.7560   28.3237 C   0  0  0  0  0  0
    2.0132   52.4048   29.2837 C   0  0  2  0  0  0
    2.9510   51.8923   29.0656 H   0  0  0  0  0  0
    1.6748   52.3224   30.7924 C   0  0  0  0  0  0
    2.5569   52.0967   31.6817 N   0  0  0  0  0  0
    3.9044   52.0966   31.2600 O   0  0  0  0  0  0
    0.3402   52.4967   31.0785 N   0  0  0  0  0  0
    4.7137   54.4956   22.6141 Br  0  0  0  0  0  0
    7.2190   54.4970   27.0987 H   0  0  0  0  0  0
    7.5043   54.7529   24.4191 H   0  0  0  0  0  0
    2.6567   54.1063   26.7697 H   0  0  0  0  0  0
    0.0904   54.4724   29.1906 H   0  0  0  0  0  0
    0.7023   55.0654   27.6817 H   0  0  0  0  0  0
   -0.9020   52.7763   27.8872 H   0  0  0  0  0  0
    0.3052   52.8998   26.6221 H   0  0  0  0  0  0
    1.5034   51.2162   27.5307 H   0  0  0  0  0  0
    0.3494   51.0089   28.8080 H   0  0  0  0  0  0
    3.8671   52.4173   30.3526 H   0  0  0  0  0  0
    0.0025   52.3672   32.0276 H   0  0  0  0  0  0
   -0.3367   52.4044   30.3372 H   0  0  0  0  0  0
  1  5  2  0  0  0
  1  2  1  0  0  0
  1 21  1  0  0  0
  2  3  2  0  0  0
  2 22  1  0  0  0
  3  4  1  0  0  0
  3 20  1  0  0  0
  4  5  1  0  0  0
  5  6  1  0  0  0
  6  7  2  0  0  0
  6  8  1  0  0  0
  8  9  1  0  0  0
  8 23  1  0  0  0
  9 10  1  0  0  0
  9 14  1  0  0  0
  9 11  1  0  0  0
 11 12  1  0  0  0
 11 24  1  0  0  0
 11 25  1  0  0  0
 12 13  1  0  0  0
 12 26  1  0  0  0
 12 27  1  0  0  0
 13 14  1  0  0  0
 13 28  1  0  0  0
 13 29  1  0  0  0
 14 15  1  0  0  0
 14 16  1  0  0  0
 16 17  2  0  0  0
 16 19  1  0  0  0
 17 18  1  0  0  0
 18 30  1  0  0  0
 19 31  1  0  0  0
 19 32  1  0  0  0
M  END
> <i_i_glide_confnum>
167

> <i_i_glide_lignum>
4761

> <i_i_glide_posenum>
157

> <i_i_glide_rotatable_bonds>
5

> <i_m_Source_File_Index>
3215

> <b_m_subgroup_collapsed>
0

> <r_i_docking_score>
-5.29188

> <r_i_glide_ecoul>
-3.28635

> <r_i_glide_eff_state_penalty>
0

> <r_i_glide_einternal>
1.82185

> <r_i_glide_emodel>
-48.7161

> <r_i_glide_energy>
-37.377

> <r_i_glide_erotb>
0.931087

> <r_i_glide_esite>
-0.199854

> <r_i_glide_evdw>
-34.0907

> <r_i_glide_gscore>
-5.29188

> <r_i_glide_hbond>
-0.126914

> <r_i_glide_ligand_efficiency>
-0.293994

> <r_i_glide_ligand_efficiency_ln>
-1.36025

> <r_i_glide_ligand_efficiency_sa>
-0.770481

> <r_i_glide_lipo>
-1.99801

> <r_i_glide_metal>
0

> <r_i_glide_rewards>
-1.7007

> <s_i_glide_gridfile>
wee1_glide-grid

> <s_m_Source_File>
wee1_decoys_glide_SP.sdf

> <s_m_Source_Path>
/Users/zhangxujun/Desktop

> <s_m_entry_id>
3490

> <s_m_entry_name>
wee1_decoys_glide_SP.3215

> <s_m_subgroup_title>
wee1_decoys_glide_SP

> <s_m_subgroupid>
wee1_decoys_glide_SP


$$$$
