ZINC66175197_249
                    3D
 Schrodinger Suite 2024-2.
 60 62  0  0  1  0            999 V2000
    2.0152   50.7951   18.2715 C   0  0  0  0  0  0
    2.1564   51.8736   19.3556 C   0  0  0  0  0  0
    1.8768   51.3228   20.7720 C   0  0  0  0  0  0
    2.0014   52.3596   21.9326 C   0  0  2  0  0  0
    1.4152   53.2286   21.6252 H   0  0  0  0  0  0
    3.4469   52.9014   22.1798 C   0  0  0  0  0  0
    4.3607   52.4316   21.4942 O   0  0  0  0  0  0
    3.6943   53.8262   23.1546 N   0  0  0  0  0  0
    2.6639   54.3987   24.0472 C   0  0  0  0  0  0
    2.8808   53.8233   25.4729 C   0  0  0  0  0  0
    4.3191   54.0970   25.8803 C   0  0  0  0  0  0
    5.3487   54.2769   24.9541 C   0  0  0  0  0  0
    6.5843   54.4942   25.5753 C   0  0  0  0  0  0
    6.5137   54.4138   26.9598 C   0  0  0  0  0  0
    4.9027   54.0971   27.5150 S   0  0  0  0  0  0
    5.0954   54.2268   23.4514 C   0  0  0  0  0  0
    1.4117   51.8247   23.1693 N   0  0  0  0  0  0
    0.1004   51.7960   23.4565 C   0  0  0  0  0  0
   -0.7864   52.0980   22.6580 O   0  0  0  0  0  0
   -0.1323   51.4110   24.7219 N   0  0  0  0  0  0
   -1.4551   51.1385   25.2980 C   0  0  2  0  0  0
   -1.5483   51.4632   26.8040 C   0  0  0  0  0  0
   -2.9316   51.1710   27.4132 C   0  0  0  0  0  0
   -3.2959   49.7001   27.1240 N   0  3  2  0  0  0
   -3.3819   49.4345   25.6033 C   0  0  0  0  0  0
   -2.0145   49.7375   24.9625 C   0  0  0  0  0  0
   -4.5871   49.2891   27.8653 C   0  0  0  0  0  0
   -4.6228   47.7616   28.0296 C   0  0  0  0  0  0
    2.2934   51.1842   17.2925 H   0  0  0  0  0  0
    2.6674   49.9443   18.4707 H   0  0  0  0  0  0
    0.9928   50.4246   18.2076 H   0  0  0  0  0  0
    1.4766   52.6975   19.1363 H   0  0  0  0  0  0
    3.1652   52.2852   19.2908 H   0  0  0  0  0  0
    2.5352   50.4737   20.9761 H   0  0  0  0  0  0
    0.8650   50.9064   20.7677 H   0  0  0  0  0  0
    1.6480   54.3149   23.6618 H   0  0  0  0  0  0
    2.8114   55.4752   24.0758 H   0  0  0  0  0  0
    2.6720   52.7543   25.4922 H   0  0  0  0  0  0
    2.1855   54.2737   26.1792 H   0  0  0  0  0  0
    7.4975   54.6635   25.0220 H   0  0  0  0  0  0
    7.3163   54.4993   27.6780 H   0  0  0  0  0  0
    5.3461   55.1691   22.9667 H   0  0  0  0  0  0
    5.8218   53.5477   23.0009 H   0  0  0  0  0  0
    2.0660   51.3942   23.8024 H   0  0  0  0  0  0
    0.6243   51.4851   25.3821 H   0  0  0  0  0  0
   -2.1509   51.8474   24.8388 H   0  0  0  0  0  0
   -0.8114   50.8638   27.3463 H   0  0  0  0  0  0
   -1.2947   52.5106   26.9762 H   0  0  0  0  0  0
   -3.7256   51.8013   27.0091 H   0  0  0  0  0  0
   -2.8812   51.2768   28.4978 H   0  0  0  0  0  0
   -4.1884   50.0492   25.2014 H   0  0  0  0  0  0
   -3.6197   48.3810   25.4702 H   0  0  0  0  0  0
   -2.0919   49.6210   23.8796 H   0  0  0  0  0  0
   -1.3069   48.9833   25.3110 H   0  0  0  0  0  0
   -4.5331   49.7584   28.8502 H   0  0  0  0  0  0
   -5.4382   49.6979   27.3168 H   0  0  0  0  0  0
   -5.4609   47.4640   28.6576 H   0  0  0  0  0  0
   -4.7314   47.2434   27.0783 H   0  0  0  0  0  0
   -3.7092   47.3979   28.5060 H   0  0  0  0  0  0
   -2.5503   49.1197   27.5382 H   0  0  0  0  0  0
  1  2  1  0  0  0
  1 29  1  0  0  0
  1 30  1  0  0  0
  1 31  1  0  0  0
  2  3  1  0  0  0
  2 32  1  0  0  0
  2 33  1  0  0  0
  3  4  1  0  0  0
  3 34  1  0  0  0
  3 35  1  0  0  0
  4  5  1  0  0  0
  4  6  1  0  0  0
  4 17  1  0  0  0
  6  7  2  0  0  0
  6  8  1  0  0  0
  8 16  1  0  0  0
  8  9  1  0  0  0
  9 10  1  0  0  0
  9 36  1  0  0  0
  9 37  1  0  0  0
 10 11  1  0  0  0
 10 38  1  0  0  0
 10 39  1  0  0  0
 11 15  1  0  0  0
 11 12  2  0  0  0
 12 13  1  0  0  0
 12 16  1  0  0  0
 13 14  2  0  0  0
 13 40  1  0  0  0
 14 15  1  0  0  0
 14 41  1  0  0  0
 16 42  1  0  0  0
 16 43  1  0  0  0
 17 18  1  0  0  0
 17 44  1  0  0  0
 18 19  2  0  0  0
 18 20  1  0  0  0
 20 21  1  0  0  0
 20 45  1  0  0  0
 21 26  1  0  0  0
 21 22  1  0  0  0
 21 46  1  0  0  0
 22 23  1  0  0  0
 22 47  1  0  0  0
 22 48  1  0  0  0
 23 24  1  0  0  0
 23 49  1  0  0  0
 23 50  1  0  0  0
 24 25  1  0  0  0
 24 27  1  0  0  0
 24 60  1  0  0  0
 25 26  1  0  0  0
 25 51  1  0  0  0
 25 52  1  0  0  0
 26 53  1  0  0  0
 26 54  1  0  0  0
 27 28  1  0  0  0
 27 55  1  0  0  0
 27 56  1  0  0  0
 28 57  1  0  0  0
 28 58  1  0  0  0
 28 59  1  0  0  0
M  CHG  1  24   1
M  END
> <i_i_glide_confnum>
106

> <i_i_glide_lignum>
250

> <i_i_glide_posenum>
325

> <i_i_glide_rotatable_bonds>
9

> <i_m_Source_File_Index>
5010

> <b_m_subgroup_collapsed>
0

> <r_i_docking_score>
-5.36787

> <r_i_glide_ecoul>
-4.03078

> <r_i_glide_eff_state_penalty>
0

> <r_i_glide_einternal>
4.26262

> <r_i_glide_emodel>
-53.0119

> <r_i_glide_energy>
-38.0873

> <r_i_glide_erotb>
0.756748

> <r_i_glide_esite>
-0.1

> <r_i_glide_evdw>
-34.0565

> <r_i_glide_gscore>
-5.36787

> <r_i_glide_hbond>
-0.2

> <r_i_glide_ligand_efficiency>
-0.19881

> <r_i_glide_ligand_efficiency_ln>
-1.24955

> <r_i_glide_ligand_efficiency_sa>
-0.59643

> <r_i_glide_lipo>
-2.19339

> <r_i_glide_metal>
0

> <r_i_glide_rewards>
-1.32378

> <s_i_glide_gridfile>
wee1_glide-grid

> <s_m_Source_File>
wee1_decoys_glide_SP.sdf

> <s_m_Source_Path>
/Users/zhangxujun/Desktop

> <s_m_entry_id>
5285

> <s_m_entry_name>
wee1_decoys_glide_SP.5010

> <s_m_subgroup_title>
wee1_decoys_glide_SP

> <s_m_subgroupid>
wee1_decoys_glide_SP


$$$$
