ZINC33604700_3179
                    3D
 Schrodinger Suite 2024-2.
 69 73  0  0  1  0            999 V2000
    4.0878   54.0509   24.1446 C   0  0  0  0  0  0
    3.7867   53.6170   22.7119 C   0  0  0  0  0  0
    4.6494   54.1063   21.7235 C   0  0  0  0  0  0
    4.5185   53.7121   20.3959 C   0  0  0  0  0  0
    3.5149   52.8226   20.0350 C   0  0  0  0  0  0
    2.6393   52.3354   21.0013 C   0  0  0  0  0  0
    2.7515   52.7092   22.3550 C   0  0  0  0  0  0
    1.8433   52.1272   23.2949 N   0  0  0  0  0  0
    1.5039   50.7898   23.2983 C   0  0  0  0  0  0
    1.9851   49.8606   22.6502 O   0  0  0  0  0  0
    0.3159   50.6850   24.2326 C   0  0  1  0  0  0
   -0.5632   50.9224   23.6265 H   0  0  0  0  0  0
   -0.0415   49.4574   25.0844 C   0  0  1  0  0  0
    0.8345   48.9377   25.4835 H   0  0  0  0  0  0
   -0.7042   50.1801   26.2976 N   0  3  0  0  0  0
   -0.5453   51.7374   26.1848 C   0  0  1  0  0  0
    0.6512   51.7231   25.2054 C   0  0  2  0  0  0
    1.5044   51.4884   25.8433 H   0  0  0  0  0  0
    1.1837   52.8150   24.2888 C   0  0  0  0  0  0
    1.1046   54.0297   24.4653 O   0  0  0  0  0  0
   -1.8326   52.4675   25.6411 C   0  0  0  0  0  0
   -3.1827   51.6829   25.6883 C   0  0  0  0  0  0
   -4.3404   52.5419   26.2478 C   0  0  0  0  0  0
   -5.6601   51.7463   26.3273 C   0  0  0  0  0  0
   -6.0419   51.1329   24.9634 C   0  0  0  0  0  0
   -4.8841   50.3201   24.3477 C   0  0  0  0  0  0
   -3.5885   51.1512   24.2921 C   0  0  0  0  0  0
   -0.2532   52.2504   27.6411 C   0  0  0  0  0  0
    0.5092   53.2368   27.7617 O   0  0  0  0  0  0
   -0.8133   51.6955   28.6121 O   0  5  0  0  0  0
   -1.0359   48.4531   24.4730 C   0  0  0  0  0  0
   -1.1143   48.2898   23.0854 C   0  0  0  0  0  0
   -2.1114   47.4987   22.5227 C   0  0  0  0  0  0
   -3.0463   46.8443   23.3251 C   0  0  0  0  0  0
   -2.9260   46.9520   24.7202 C   0  0  0  0  0  0
   -1.9197   47.7307   25.2830 C   0  0  0  0  0  0
   -4.0567   46.1826   22.6421 O   0  0  0  0  0  0
   -4.9263   45.2866   23.1839 C   0  0  0  0  0  0
   -4.8943   44.7823   24.3068 O   0  0  0  0  0  0
   -6.0143   44.8956   22.1934 C   0  0  0  0  0  0
    3.8468   53.2799   24.8733 H   0  0  0  0  0  0
    5.1503   54.2565   24.2801 H   0  0  0  0  0  0
    3.5333   54.9535   24.3959 H   0  0  0  0  0  0
    5.4439   54.7896   21.9846 H   0  0  0  0  0  0
    5.1966   54.0907   19.6447 H   0  0  0  0  0  0
    3.4167   52.5087   19.0053 H   0  0  0  0  0  0
    1.8705   51.6477   20.6806 H   0  0  0  0  0  0
   -0.3309   49.8398   27.1774 H   0  0  0  0  0  0
   -1.9768   53.3985   26.1850 H   0  0  0  0  0  0
   -1.6611   52.8187   24.6225 H   0  0  0  0  0  0
   -3.1114   50.8320   26.3655 H   0  0  0  0  0  0
   -4.0731   52.8957   27.2445 H   0  0  0  0  0  0
   -4.4699   53.4404   25.6420 H   0  0  0  0  0  0
   -5.5576   50.9490   27.0656 H   0  0  0  0  0  0
   -6.4645   52.3901   26.6866 H   0  0  0  0  0  0
   -6.9228   50.5002   25.0746 H   0  0  0  0  0  0
   -6.3259   51.9308   24.2741 H   0  0  0  0  0  0
   -4.7161   49.4190   24.9385 H   0  0  0  0  0  0
   -5.1534   49.9791   23.3473 H   0  0  0  0  0  0
   -3.6958   51.9814   23.5926 H   0  0  0  0  0  0
   -2.7870   50.5472   23.8722 H   0  0  0  0  0  0
   -0.4344   48.8053   22.4248 H   0  0  0  0  0  0
   -2.1786   47.4262   21.4472 H   0  0  0  0  0  0
   -3.6216   46.4846   25.3982 H   0  0  0  0  0  0
   -1.8738   47.7962   26.3604 H   0  0  0  0  0  0
   -5.5767   44.5935   21.2426 H   0  0  0  0  0  0
   -6.6046   44.0657   22.5819 H   0  0  0  0  0  0
   -6.6801   45.7404   22.0186 H   0  0  0  0  0  0
   -1.6853   49.9459   26.3579 H   0  0  0  0  0  0
  1  2  1  0  0  0
  1 41  1  0  0  0
  1 42  1  0  0  0
  1 43  1  0  0  0
  2  7  2  0  0  0
  2  3  1  0  0  0
  3  4  2  0  0  0
  3 44  1  0  0  0
  4  5  1  0  0  0
  4 45  1  0  0  0
  5  6  2  0  0  0
  5 46  1  0  0  0
  6  7  1  0  0  0
  6 47  1  0  0  0
  7  8  1  0  0  0
  8 19  1  0  0  0
  8  9  1  0  0  0
  9 10  2  0  0  0
  9 11  1  0  0  0
 11 12  1  0  0  0
 11 17  1  0  0  0
 11 13  1  0  0  0
 13 14  1  0  0  0
 13 15  1  0  0  0
 13 31  1  0  0  0
 15 16  1  0  0  0
 15 48  1  0  0  0
 15 69  1  0  0  0
 16 17  1  0  0  0
 16 21  1  0  0  0
 16 28  1  0  0  0
 17 18  1  0  0  0
 17 19  1  0  0  0
 19 20  2  0  0  0
 21 22  1  0  0  0
 21 49  1  0  0  0
 21 50  1  0  0  0
 22 27  1  0  0  0
 22 23  1  0  0  0
 22 51  1  0  0  0
 23 24  1  0  0  0
 23 52  1  0  0  0
 23 53  1  0  0  0
 24 25  1  0  0  0
 24 54  1  0  0  0
 24 55  1  0  0  0
 25 26  1  0  0  0
 25 56  1  0  0  0
 25 57  1  0  0  0
 26 27  1  0  0  0
 26 58  1  0  0  0
 26 59  1  0  0  0
 27 60  1  0  0  0
 27 61  1  0  0  0
 28 29  2  0  0  0
 28 30  1  0  0  0
 31 36  2  0  0  0
 31 32  1  0  0  0
 32 33  2  0  0  0
 32 62  1  0  0  0
 33 34  1  0  0  0
 33 63  1  0  0  0
 34 35  2  0  0  0
 34 37  1  0  0  0
 35 36  1  0  0  0
 35 64  1  0  0  0
 36 65  1  0  0  0
 37 38  1  0  0  0
 38 39  2  0  0  0
 38 40  1  0  0  0
 40 66  1  0  0  0
 40 67  1  0  0  0
 40 68  1  0  0  0
M  CHG  2  15   1  30  -1
M  END
> <i_i_glide_confnum>
26

> <i_i_glide_lignum>
3180

> <i_i_glide_posenum>
82

> <i_i_glide_rotatable_bonds>
7

> <i_m_Source_File_Index>
1427

> <b_m_subgroup_collapsed>
0

> <r_i_docking_score>
-3.39913

> <r_i_glide_ecoul>
-4.12089

> <r_i_glide_eff_state_penalty>
0

> <r_i_glide_einternal>
9.85307

> <r_i_glide_emodel>
-40.0854

> <r_i_glide_energy>
-35.5265

> <r_i_glide_erotb>
0.40157

> <r_i_glide_esite>
-0.12278

> <r_i_glide_evdw>
-31.4056

> <r_i_glide_gscore>
-3.39913

> <r_i_glide_hbond>
-0.123105

> <r_i_glide_ligand_efficiency>
-0.0918683

> <r_i_glide_ligand_efficiency_ln>
-0.737191

> <r_i_glide_ligand_efficiency_sa>
-0.306126

> <r_i_glide_lipo>
-0.842625

> <r_i_glide_metal>
0

> <r_i_glide_rewards>
-0.523771

> <s_i_glide_gridfile>
wee1_glide-grid

> <s_m_Source_File>
wee1_decoys_glide_SP.sdf

> <s_m_Source_Path>
/Users/zhangxujun/Desktop

> <s_m_entry_id>
1702

> <s_m_entry_name>
wee1_decoys_glide_SP.1427

> <s_m_subgroup_title>
wee1_decoys_glide_SP

> <s_m_subgroupid>
wee1_decoys_glide_SP


$$$$
