ZINC32961829_5948
                    3D
 Schrodinger Suite 2024-2.
 49 52  0  0  1  0            999 V2000
    2.2712   49.7333   22.0678 C   0  0  0  0  0  0
    1.9044   50.3252   23.2811 C   0  0  0  0  0  0
    1.5808   51.6733   23.1493 C   0  0  0  0  0  0
    1.6632   52.1912   21.4931 S   0  0  0  0  0  0
    2.1998   50.6169   21.0004 C   0  0  0  0  0  0
    1.1058   52.8004   24.4900 S   0  0  0  0  0  0
   -0.1898   53.3125   24.0342 O   0  0  0  0  0  0
    1.1027   51.9330   25.6723 O   0  0  0  0  0  0
    2.2276   53.9061   24.4742 N   0  5  0  0  0  0
    3.1944   54.0584   25.4496 C   0  0  0  0  0  0
    2.7782   54.0282   26.7955 C   0  0  0  0  0  0
    3.6490   54.2154   27.8705 C   0  0  0  0  0  0
    4.9912   54.4394   27.5940 C   0  0  0  0  0  0
    5.4337   54.5090   26.2824 C   0  0  0  0  0  0
    4.5795   54.3315   25.1705 C   0  0  0  0  0  0
    5.1392   54.4926   23.8735 N   0  0  0  0  0  0
    4.4753   53.9882   22.6571 C   0  0  0  0  0  0
    5.1090   54.2105   21.2646 C   0  0  0  0  0  0
    6.1497   55.2421   21.1888 N   0  0  0  0  0  0
    7.1042   55.0669   22.2880 C   0  0  0  0  0  0
    6.5953   54.5078   23.6344 C   0  0  0  0  0  0
    6.5464   55.7767   19.9583 C   0  0  0  0  0  0
    5.6011   56.0413   18.9549 C   0  0  0  0  0  0
    5.9811   56.6018   17.7380 C   0  0  0  0  0  0
    7.3188   56.9034   17.5039 C   0  0  0  0  0  0
    8.2761   56.6505   18.4803 C   0  0  0  0  0  0
    7.8906   56.0965   19.6975 C   0  0  0  0  0  0
    7.7938   57.5963   15.9971 Cl  0  0  0  0  0  0
    3.1553   54.2118   29.2824 C   0  0  0  0  0  0
    3.8979   53.7196   30.1644 O   0  0  0  0  0  0
    2.0401   54.7313   29.5149 O   0  5  0  0  0  0
    2.5803   48.7024   21.9746 H   0  0  0  0  0  0
    1.8953   49.7921   24.2205 H   0  0  0  0  0  0
    2.4319   50.4217   19.9625 H   0  0  0  0  0  0
    1.7304   53.8856   27.0215 H   0  0  0  0  0  0
    5.6987   54.5908   28.3985 H   0  0  0  0  0  0
    6.4843   54.7130   26.1915 H   0  0  0  0  0  0
    4.1531   52.9524   22.7641 H   0  0  0  0  0  0
    3.6051   54.6385   22.5820 H   0  0  0  0  0  0
    4.3401   54.2714   20.4957 H   0  0  0  0  0  0
    5.6586   53.2935   21.0510 H   0  0  0  0  0  0
    7.3844   56.0957   22.5187 H   0  0  0  0  0  0
    7.9993   54.5169   21.9975 H   0  0  0  0  0  0
    7.2129   54.9386   24.4161 H   0  0  0  0  0  0
    6.8296   53.4415   23.6076 H   0  0  0  0  0  0
    4.5543   55.8335   19.1100 H   0  0  0  0  0  0
    5.2386   56.8050   16.9802 H   0  0  0  0  0  0
    9.3155   56.8844   18.2985 H   0  0  0  0  0  0
    8.6631   55.9190   20.4306 H   0  0  0  0  0  0
  1  5  2  0  0  0
  1  2  1  0  0  0
  1 32  1  0  0  0
  2  3  2  0  0  0
  2 33  1  0  0  0
  3  4  1  0  0  0
  3  6  1  0  0  0
  4  5  1  0  0  0
  5 34  1  0  0  0
  6  7  2  0  0  0
  6  8  2  0  0  0
  6  9  1  0  0  0
  9 10  1  0  0  0
 10 15  2  0  0  0
 10 11  1  0  0  0
 11 12  2  0  0  0
 11 35  1  0  0  0
 12 13  1  0  0  0
 12 29  1  0  0  0
 13 14  2  0  0  0
 13 36  1  0  0  0
 14 15  1  0  0  0
 14 37  1  0  0  0
 15 16  1  0  0  0
 16 21  1  0  0  0
 16 17  1  0  0  0
 17 18  1  0  0  0
 17 38  1  0  0  0
 17 39  1  0  0  0
 18 19  1  0  0  0
 18 40  1  0  0  0
 18 41  1  0  0  0
 19 20  1  0  0  0
 19 22  1  0  0  0
 20 21  1  0  0  0
 20 42  1  0  0  0
 20 43  1  0  0  0
 21 44  1  0  0  0
 21 45  1  0  0  0
 22 27  2  0  0  0
 22 23  1  0  0  0
 23 24  2  0  0  0
 23 46  1  0  0  0
 24 25  1  0  0  0
 24 47  1  0  0  0
 25 26  2  0  0  0
 25 28  1  0  0  0
 26 27  1  0  0  0
 26 48  1  0  0  0
 27 49  1  0  0  0
 29 30  2  0  0  0
 29 31  1  0  0  0
M  CHG  2   9  -1  31  -1
M  END
> <i_i_glide_confnum>
587

> <i_i_glide_lignum>
5949

> <i_i_glide_posenum>
191

> <i_i_glide_rotatable_bonds>
6

> <i_m_Source_File_Index>
1927

> <b_m_subgroup_collapsed>
0

> <r_i_docking_score>
-6.23652

> <r_i_glide_ecoul>
-6.43404

> <r_i_glide_eff_state_penalty>
0

> <r_i_glide_einternal>
14.2297

> <r_i_glide_emodel>
-63.4899

> <r_i_glide_energy>
-50.214

> <r_i_glide_erotb>
0.446845

> <r_i_glide_esite>
0

> <r_i_glide_evdw>
-43.78

> <r_i_glide_gscore>
-6.23652

> <r_i_glide_hbond>
-0.16

> <r_i_glide_ligand_efficiency>
-0.201178

> <r_i_glide_ligand_efficiency_ln>
-1.40653

> <r_i_glide_ligand_efficiency_sa>
-0.631977

> <r_i_glide_lipo>
-2.95761

> <r_i_glide_metal>
0

> <r_i_glide_rewards>
-0.411657

> <s_i_glide_gridfile>
wee1_glide-grid

> <s_m_Source_File>
wee1_decoys_glide_SP.sdf

> <s_m_Source_Path>
/Users/zhangxujun/Desktop

> <s_m_entry_id>
2202

> <s_m_entry_name>
wee1_decoys_glide_SP.1927

> <s_m_subgroup_title>
wee1_decoys_glide_SP

> <s_m_subgroupid>
wee1_decoys_glide_SP


$$$$
