ZINC04453376_1812
                    3D
 Schrodinger Suite 2024-2.
 37 39  0  0  1  0            999 V2000
    2.3230   51.8053   22.4813 C   0  0  0  0  0  0
    2.2427   52.7271   23.7189 C   0  0  0  0  0  0
    1.6892   54.1012   23.3167 C   0  0  0  0  0  0
    1.4518   52.1175   24.8754 C   0  0  0  0  0  0
    1.3156   52.4646   26.2213 C   0  0  0  0  0  0
    0.5027   51.4526   26.7607 C   0  0  0  0  0  0
    0.1272   50.5530   25.8895 N   0  0  0  0  0  0
    0.7013   50.9684   24.7574 N   0  0  0  0  0  0
    0.6044   50.4462   23.8991 H   0  0  0  0  0  0
    0.0971   51.3633   28.0709 O   0  0  0  0  0  0
    0.4114   52.4347   28.8485 C   0  0  0  0  0  0
    1.1762   53.4938   28.4817 C   0  0  0  0  0  0
    1.8561   53.5853   27.1021 C   0  0  1  0  0  0
    1.5043   54.4967   26.6524 H   0  0  0  0  0  0
    3.3801   53.7568   27.1103 C   0  0  0  0  0  0
    4.1645   53.1555   28.1002 C   0  0  0  0  0  0
    5.5408   53.3626   28.1219 C   0  0  0  0  0  0
    6.1384   54.1699   27.1604 C   0  0  0  0  0  0
    5.3738   54.7610   26.1614 C   0  0  0  0  0  0
    3.9978   54.5570   26.1402 C   0  0  0  0  0  0
    7.4697   54.3900   27.2022 F   0  0  0  0  0  0
    1.3630   54.5882   29.3781 C   0  0  0  0  0  0
    1.5045   55.4948   30.0816 N   0  0  0  0  0  0
   -0.2014   52.2466   30.0593 N   0  0  0  0  0  0
    2.7044   50.8162   22.7370 H   0  0  0  0  0  0
    1.3447   51.6687   22.0186 H   0  0  0  0  0  0
    2.9825   52.2238   21.7199 H   0  0  0  0  0  0
    3.2648   52.8967   24.0570 H   0  0  0  0  0  0
    1.5950   54.7822   24.1604 H   0  0  0  0  0  0
    2.3210   54.5804   22.5674 H   0  0  0  0  0  0
    0.7044   53.9912   22.8818 H   0  0  0  0  0  0
    3.7116   52.5276   28.8532 H   0  0  0  0  0  0
    6.1490   52.9027   28.8817 H   0  0  0  0  0  0
    5.8439   55.3853   25.4164 H   0  0  0  0  0  0
    3.4180   55.0413   25.3722 H   0  0  0  0  0  0
   -0.0634   52.8783   30.8342 H   0  0  0  0  0  0
   -0.8201   51.4595   30.2058 H   0  0  0  0  0  0
  1  2  1  0  0  0
  1 25  1  0  0  0
  1 26  1  0  0  0
  1 27  1  0  0  0
  2  3  1  0  0  0
  2  4  1  0  0  0
  2 28  1  0  0  0
  3 29  1  0  0  0
  3 30  1  0  0  0
  3 31  1  0  0  0
  4  8  1  0  0  0
  4  5  2  0  0  0
  5 13  1  0  0  0
  5  6  1  0  0  0
  6  7  2  0  0  0
  6 10  1  0  0  0
  7  8  1  0  0  0
  8  9  1  0  0  0
 10 11  1  0  0  0
 11 12  2  0  0  0
 11 24  1  0  0  0
 12 13  1  0  0  0
 12 22  1  0  0  0
 13 14  1  0  0  0
 13 15  1  0  0  0
 15 20  2  0  0  0
 15 16  1  0  0  0
 16 17  2  0  0  0
 16 32  1  0  0  0
 17 18  1  0  0  0
 17 33  1  0  0  0
 18 19  2  0  0  0
 18 21  1  0  0  0
 19 20  1  0  0  0
 19 34  1  0  0  0
 20 35  1  0  0  0
 22 23  3  0  0  0
 24 36  1  0  0  0
 24 37  1  0  0  0
M  END
> <i_i_glide_confnum>
2

> <i_i_glide_lignum>
1813

> <i_i_glide_posenum>
371

> <i_i_glide_rotatable_bonds>
3

> <i_m_Source_File_Index>
1505

> <b_m_subgroup_collapsed>
0

> <r_i_docking_score>
-6.17232

> <r_i_glide_ecoul>
-1.31569

> <r_i_glide_eff_state_penalty>
0

> <r_i_glide_einternal>
2.96074

> <r_i_glide_emodel>
-43.9888

> <r_i_glide_energy>
-33.3393

> <r_i_glide_erotb>
0.206189

> <r_i_glide_esite>
-0.0897921

> <r_i_glide_evdw>
-32.0236

> <r_i_glide_gscore>
-6.17232

> <r_i_glide_hbond>
0

> <r_i_glide_ligand_efficiency>
-0.28056

> <r_i_glide_ligand_efficiency_ln>
-1.50874

> <r_i_glide_ligand_efficiency_sa>
-0.786141

> <r_i_glide_lipo>
-2.71027

> <r_i_glide_metal>
0

> <r_i_glide_rewards>
-1.77991

> <s_i_glide_gridfile>
wee1_glide-grid

> <s_m_Source_File>
wee1_decoys_glide_SP.sdf

> <s_m_Source_Path>
/Users/zhangxujun/Desktop

> <s_m_entry_id>
1780

> <s_m_entry_name>
wee1_decoys_glide_SP.1505

> <s_m_subgroup_title>
wee1_decoys_glide_SP

> <s_m_subgroupid>
wee1_decoys_glide_SP


$$$$
