ZINC08897905_3355
                    3D
 Schrodinger Suite 2024-2.
 61 64  0  0  1  0            999 V2000
    5.7318   54.1339   28.6577 C   0  0  0  0  0  0
    5.3429   53.8516   27.1970 C   0  0  1  0  0  0
    5.4961   52.7829   27.0299 H   0  0  0  0  0  0
    3.8735   54.2305   26.9485 C   0  0  0  0  0  0
    3.3657   53.8000   25.5587 C   0  0  0  0  0  0
    4.4163   54.0975   24.4773 C   0  0  0  0  0  0
    5.7214   54.4949   24.8142 C   0  0  0  0  0  0
    6.6756   54.8515   23.4228 S   0  0  0  0  0  0
    5.3560   54.4448   22.3612 C   0  0  0  0  0  0
    4.2317   53.9688   23.0726 C   0  0  0  0  0  0
    2.9815   53.5150   22.4791 C   0  0  0  0  0  0
    1.8952   53.8352   22.9664 O   0  0  0  0  0  0
    3.1520   52.6960   21.4138 N   0  0  0  0  0  0
    2.2014   52.0586   20.7047 C   0  0  0  0  0  0
    0.9799   52.1033   20.8907 O   0  0  0  0  0  0
    2.8742   51.3442   19.7482 O   0  0  0  0  0  0
    2.0719   50.5932   18.8411 C   0  0  0  0  0  0
    5.4928   54.5537   20.9796 N   0  0  0  0  0  0
    6.1635   55.5118   20.3061 C   0  0  0  0  0  0
    6.7043   56.4912   20.8341 O   0  0  0  0  0  0
    6.1489   55.4073   18.7629 C   0  0  2  0  0  0
    6.8970   56.1171   18.4069 H   0  0  0  0  0  0
    4.7377   55.6757   18.1833 C   0  0  0  0  0  0
    4.4565   54.5340   17.2210 C   0  0  0  0  0  0
    5.2365   53.3561   17.7910 C   0  0  0  0  0  0
    6.4633   54.0144   18.3014 N   0  0  0  0  0  0
    7.9934   53.7343   17.4539 S   0  0  0  0  0  0
    9.0378   54.4887   18.1577 O   0  0  0  0  0  0
    8.1307   52.2924   17.2296 O   0  0  0  0  0  0
    7.7642   54.4990   15.8546 C   0  0  0  0  0  0
    8.0619   55.8525   15.6812 C   0  0  0  0  0  0
    7.8296   56.4561   14.4487 C   0  0  0  0  0  0
    7.3078   55.7062   13.3973 C   0  0  0  0  0  0
    7.0195   54.3534   13.5653 C   0  0  0  0  0  0
    7.2471   53.7457   14.7960 C   0  0  0  0  0  0
    7.0740   56.2986   12.2036 F   0  0  0  0  0  0
    6.2589   54.6439   26.2341 C   0  0  0  0  0  0
    5.6029   55.1888   28.9068 H   0  0  0  0  0  0
    5.1021   53.5571   29.3339 H   0  0  0  0  0  0
    6.7673   53.8692   28.8786 H   0  0  0  0  0  0
    3.2383   53.7678   27.7049 H   0  0  0  0  0  0
    3.7317   55.2966   27.1022 H   0  0  0  0  0  0
    2.4395   54.3391   25.3586 H   0  0  0  0  0  0
    3.1072   52.7415   25.5574 H   0  0  0  0  0  0
    4.0962   52.4843   21.1407 H   0  0  0  0  0  0
    2.7058   50.0934   18.1083 H   0  0  0  0  0  0
    1.3849   51.2391   18.2927 H   0  0  0  0  0  0
    1.4941   49.8280   19.3621 H   0  0  0  0  0  0
    4.8542   54.0249   20.4101 H   0  0  0  0  0  0
    3.9519   55.6973   18.9390 H   0  0  0  0  0  0
    4.6991   56.6347   17.6647 H   0  0  0  0  0  0
    3.3930   54.3157   17.1266 H   0  0  0  0  0  0
    4.8266   54.7748   16.2219 H   0  0  0  0  0  0
    4.6974   52.9121   18.6276 H   0  0  0  0  0  0
    5.4340   52.4977   17.1440 H   0  0  0  0  0  0
    8.4604   56.4376   16.4990 H   0  0  0  0  0  0
    8.0472   57.5048   14.3076 H   0  0  0  0  0  0
    6.6130   53.7817   12.7430 H   0  0  0  0  0  0
    7.0118   52.6978   14.9306 H   0  0  0  0  0  0
    7.2817   54.2724   26.3037 H   0  0  0  0  0  0
    6.2783   55.6980   26.5096 H   0  0  0  0  0  0
  1  2  1  0  0  0
  1 38  1  0  0  0
  1 39  1  0  0  0
  1 40  1  0  0  0
  2  3  1  0  0  0
  2 37  1  0  0  0
  2  4  1  0  0  0
  4  5  1  0  0  0
  4 41  1  0  0  0
  4 42  1  0  0  0
  5  6  1  0  0  0
  5 43  1  0  0  0
  5 44  1  0  0  0
  6 10  1  0  0  0
  6  7  2  0  0  0
  7  8  1  0  0  0
  7 37  1  0  0  0
  8  9  1  0  0  0
  9 10  2  0  0  0
  9 18  1  0  0  0
 10 11  1  0  0  0
 11 12  2  0  0  0
 11 13  1  0  0  0
 13 14  1  0  0  0
 13 45  1  0  0  0
 14 15  2  0  0  0
 14 16  1  0  0  0
 16 17  1  0  0  0
 17 46  1  0  0  0
 17 47  1  0  0  0
 17 48  1  0  0  0
 18 19  1  0  0  0
 18 49  1  0  0  0
 19 20  2  0  0  0
 19 21  1  0  0  0
 21 22  1  0  0  0
 21 26  1  0  0  0
 21 23  1  0  0  0
 23 24  1  0  0  0
 23 50  1  0  0  0
 23 51  1  0  0  0
 24 25  1  0  0  0
 24 52  1  0  0  0
 24 53  1  0  0  0
 25 26  1  0  0  0
 25 54  1  0  0  0
 25 55  1  0  0  0
 26 27  1  0  0  0
 27 28  2  0  0  0
 27 29  2  0  0  0
 27 30  1  0  0  0
 30 35  2  0  0  0
 30 31  1  0  0  0
 31 32  2  0  0  0
 31 56  1  0  0  0
 32 33  1  0  0  0
 32 57  1  0  0  0
 33 34  2  0  0  0
 33 36  1  0  0  0
 34 35  1  0  0  0
 34 58  1  0  0  0
 35 59  1  0  0  0
 37 60  1  0  0  0
 37 61  1  0  0  0
M  END
> <i_i_glide_confnum>
38

> <i_i_glide_lignum>
3356

> <i_i_glide_posenum>
107

> <i_i_glide_rotatable_bonds>
9

> <i_m_Source_File_Index>
5883

> <b_m_subgroup_collapsed>
0

> <r_i_docking_score>
-5.24227

> <r_i_glide_ecoul>
-3.28901

> <r_i_glide_eff_state_penalty>
0

> <r_i_glide_einternal>
11.584

> <r_i_glide_emodel>
-57.2137

> <r_i_glide_energy>
-46.606

> <r_i_glide_erotb>
0.600276

> <r_i_glide_esite>
-0.0252523

> <r_i_glide_evdw>
-43.3169

> <r_i_glide_gscore>
-5.24227

> <r_i_glide_hbond>
-0.219026

> <r_i_glide_ligand_efficiency>
-0.149779

> <r_i_glide_ligand_efficiency_ln>
-1.1508

> <r_i_glide_ligand_efficiency_sa>
-0.489938

> <r_i_glide_lipo>
-2.55262

> <r_i_glide_metal>
0

> <r_i_glide_rewards>
-0.386452

> <s_i_glide_gridfile>
wee1_glide-grid

> <s_m_Source_File>
wee1_decoys_glide_SP.sdf

> <s_m_Source_Path>
/Users/zhangxujun/Desktop

> <s_m_entry_id>
6158

> <s_m_entry_name>
wee1_decoys_glide_SP.5883

> <s_m_subgroup_title>
wee1_decoys_glide_SP

> <s_m_subgroupid>
wee1_decoys_glide_SP


$$$$
