ZINC20571800_2302
                    3D
 Schrodinger Suite 2024-2.
 56 59  0  0  1  0            999 V2000
    4.1341   52.2386   29.7980 C   0  0  0  0  0  0
    4.1230   53.7660   29.5742 C   0  0  2  0  0  0
    4.3051   54.2175   30.5471 H   0  0  0  0  0  0
    2.7632   54.3401   29.1158 C   0  0  0  0  0  0
    2.3306   53.7744   27.7444 C   0  0  0  0  0  0
    3.4916   53.9137   26.7477 C   0  0  0  0  0  0
    4.8101   54.1335   27.1813 C   0  0  0  0  0  0
    5.9005   54.3315   25.8543 S   0  0  0  0  0  0
    4.6098   54.0978   24.6980 C   0  0  0  0  0  0
    3.3803   53.8962   25.3395 C   0  0  0  0  0  0
    2.1212   53.6911   24.6312 C   0  0  0  0  0  0
    1.1241   53.5329   24.0686 N   0  0  0  0  0  0
    4.8062   54.1158   23.3128 N   0  0  0  0  0  0
    5.8850   54.5558   22.6285 C   0  0  0  0  0  0
    6.8735   55.0674   23.1460 O   0  0  0  0  0  0
    5.7781   54.4934   21.1213 C   0  0  0  0  0  0
    4.9679   53.5370   20.4843 C   0  0  0  0  0  0
    4.9419   53.4455   19.0963 C   0  0  0  0  0  0
    5.7109   54.3096   18.3135 C   0  0  0  0  0  0
    6.5091   55.2691   18.9410 C   0  0  0  0  0  0
    6.5526   55.3501   20.3303 C   0  0  0  0  0  0
    5.5684   54.2174   16.9200 N   0  0  0  0  0  0
    6.8347   54.5182   15.7055 S   0  0  0  0  0  0
    6.1238   54.6721   14.4311 O   0  0  0  0  0  0
    7.7236   55.5747   16.1920 O   0  0  0  0  0  0
    7.8113   53.0209   15.5868 C   0  0  0  0  0  0
    8.5480   52.5806   16.6870 C   0  0  0  0  0  0
    9.3593   51.4552   16.5649 C   0  0  0  0  0  0
    9.4571   50.7713   15.3509 C   0  0  0  0  0  0
    8.6979   51.2114   14.2573 C   0  0  0  0  0  0
    7.8757   52.3279   14.3755 C   0  0  0  0  0  0
   10.3178   49.6928   15.3145 O   0  0  0  0  0  0
   10.5219   49.0043   14.0818 C   0  0  0  0  0  0
    5.2581   54.2604   28.6371 C   0  0  0  0  0  0
    3.9372   51.6965   28.8762 H   0  0  0  0  0  0
    5.1037   51.9002   30.1664 H   0  0  0  0  0  0
    3.3828   51.9400   30.5298 H   0  0  0  0  0  0
    2.8140   55.4302   29.0660 H   0  0  0  0  0  0
    1.9875   54.0966   29.8434 H   0  0  0  0  0  0
    2.0364   52.7286   27.8318 H   0  0  0  0  0  0
    1.4444   54.3036   27.3970 H   0  0  0  0  0  0
    3.9917   53.9056   22.7590 H   0  0  0  0  0  0
    4.3719   52.8343   21.0486 H   0  0  0  0  0  0
    4.3197   52.6923   18.6271 H   0  0  0  0  0  0
    7.0917   55.9814   18.3795 H   0  0  0  0  0  0
    7.1968   56.0896   20.7846 H   0  0  0  0  0  0
    4.7433   53.7523   16.5776 H   0  0  0  0  0  0
    8.5030   53.1125   17.6276 H   0  0  0  0  0  0
    9.9293   51.1102   17.4130 H   0  0  0  0  0  0
    8.7366   50.7046   13.3052 H   0  0  0  0  0  0
    7.3088   52.6635   13.5170 H   0  0  0  0  0  0
   11.2974   48.2490   14.2050 H   0  0  0  0  0  0
    9.6129   48.4978   13.7597 H   0  0  0  0  0  0
   10.8515   49.6770   13.2879 H   0  0  0  0  0  0
    5.5032   55.2962   28.8746 H   0  0  0  0  0  0
    6.1700   53.6902   28.8142 H   0  0  0  0  0  0
  1  2  1  0  0  0
  1 35  1  0  0  0
  1 36  1  0  0  0
  1 37  1  0  0  0
  2  3  1  0  0  0
  2 34  1  0  0  0
  2  4  1  0  0  0
  4  5  1  0  0  0
  4 38  1  0  0  0
  4 39  1  0  0  0
  5  6  1  0  0  0
  5 40  1  0  0  0
  5 41  1  0  0  0
  6 10  1  0  0  0
  6  7  2  0  0  0
  7  8  1  0  0  0
  7 34  1  0  0  0
  8  9  1  0  0  0
  9 10  2  0  0  0
  9 13  1  0  0  0
 10 11  1  0  0  0
 11 12  3  0  0  0
 13 14  1  0  0  0
 13 42  1  0  0  0
 14 15  2  0  0  0
 14 16  1  0  0  0
 16 21  2  0  0  0
 16 17  1  0  0  0
 17 18  2  0  0  0
 17 43  1  0  0  0
 18 19  1  0  0  0
 18 44  1  0  0  0
 19 20  2  0  0  0
 19 22  1  0  0  0
 20 21  1  0  0  0
 20 45  1  0  0  0
 21 46  1  0  0  0
 22 23  1  0  0  0
 22 47  1  0  0  0
 23 24  2  0  0  0
 23 25  2  0  0  0
 23 26  1  0  0  0
 26 31  2  0  0  0
 26 27  1  0  0  0
 27 28  2  0  0  0
 27 48  1  0  0  0
 28 29  1  0  0  0
 28 49  1  0  0  0
 29 30  2  0  0  0
 29 32  1  0  0  0
 30 31  1  0  0  0
 30 50  1  0  0  0
 31 51  1  0  0  0
 32 33  1  0  0  0
 33 52  1  0  0  0
 33 53  1  0  0  0
 33 54  1  0  0  0
 34 55  1  0  0  0
 34 56  1  0  0  0
M  END
> <i_i_glide_confnum>
150

> <i_i_glide_lignum>
2303

> <i_i_glide_posenum>
316

> <i_i_glide_rotatable_bonds>
8

> <i_m_Source_File_Index>
419

> <b_m_subgroup_collapsed>
0

> <r_i_docking_score>
-4.88033

> <r_i_glide_ecoul>
-0.845954

> <r_i_glide_eff_state_penalty>
0

> <r_i_glide_einternal>
6.99512

> <r_i_glide_emodel>
-56.34

> <r_i_glide_energy>
-47.072

> <r_i_glide_erotb>
0.524837

> <r_i_glide_esite>
-0.0117397

> <r_i_glide_evdw>
-46.226

> <r_i_glide_gscore>
-4.88033

> <r_i_glide_hbond>
0

> <r_i_glide_ligand_efficiency>
-0.147889

> <r_i_glide_ligand_efficiency_ln>
-1.08536

> <r_i_glide_ligand_efficiency_sa>
-0.474359

> <r_i_glide_lipo>
-2.81367

> <r_i_glide_metal>
0

> <r_i_glide_rewards>
-0.141566

> <s_i_glide_gridfile>
wee1_glide-grid

> <s_m_Source_File>
wee1_decoys_glide_SP.sdf

> <s_m_Source_Path>
/Users/zhangxujun/Desktop

> <s_m_entry_id>
694

> <s_m_entry_name>
wee1_decoys_glide_SP.419

> <s_m_subgroup_title>
wee1_decoys_glide_SP

> <s_m_subgroupid>
wee1_decoys_glide_SP


$$$$
