ZINC39560770_1238
                    3D
 Schrodinger Suite 2024-2.
 67 72  0  0  1  0            999 V2000
   -3.4020   51.5838   18.5211 C   0  0  0  0  0  0
   -2.2574   50.8825   18.9785 O   0  0  0  0  0  0
   -1.6815   51.2001   20.1590 C   0  0  0  0  0  0
   -2.0828   52.0776   20.9312 O   0  0  0  0  0  0
   -0.4647   50.2824   20.4838 C   0  0  2  0  0  0
   -0.6873   49.3274   20.0077 H   0  0  0  0  0  0
   -0.3189   49.9622   21.9982 C   0  0  0  0  0  0
    0.4071   51.0582   22.7664 C   0  0  0  0  0  0
    0.4954   51.3525   24.0633 C   0  0  0  0  0  0
   -0.0998   50.6581   25.3001 C   0  0  0  0  0  0
    0.3204   51.4035   26.5752 C   0  0  0  0  0  0
    1.1033   52.5030   26.5709 C   0  0  0  0  0  0
    1.6119   53.0755   25.3343 C   0  0  0  0  0  0
    1.3245   52.5291   24.1369 C   0  0  0  0  0  0
    1.7010   52.9243   22.9038 N   0  0  0  0  0  0
    1.1705   52.0825   22.1028 C   0  0  0  0  0  0
    1.2564   52.1022   20.5535 C   0  0  2  0  0  0
    0.5549   52.8707   20.2246 H   0  0  0  0  0  0
    0.8262   50.8037   19.9458 N   0  0  0  0  0  0
    0.9524   50.7248   18.4691 C   0  0  1  0  0  0
    0.2163   51.4038   18.0351 H   0  0  0  0  0  0
    2.3428   51.1972   17.9926 C   0  0  0  0  0  0
    2.6859   52.6021   18.4998 C   0  0  1  0  0  0
    1.9599   53.3171   18.1074 H   0  0  0  0  0  0
    2.6566   52.5344   20.0400 C   0  0  0  0  0  0
    4.1105   52.9119   18.0037 N   0  3  0  0  0  0
    4.5704   54.3854   18.1150 C   0  0  0  0  0  0
    3.8316   55.2749   17.0805 C   0  0  0  0  0  0
    4.3195   56.7161   16.9868 C   0  0  0  0  0  0
    3.5814   57.8625   16.6874 C   0  0  0  0  0  0
    4.4784   58.8967   16.6556 N   0  0  0  0  0  0
    4.3005   59.8896   16.4817 H   0  0  0  0  0  0
    5.6833   58.3266   16.9569 C   0  0  0  0  0  0
    5.6007   57.0301   17.1495 N   0  0  0  0  0  0
    0.6649   49.3360   17.8891 C   0  0  0  0  0  0
    1.3686   48.2143   18.3476 C   0  0  0  0  0  0
    1.1093   46.9530   17.8129 C   0  0  0  0  0  0
    0.1444   46.8003   16.8176 C   0  0  0  0  0  0
   -0.5599   47.9117   16.3545 C   0  0  0  0  0  0
   -0.2991   49.1751   16.8868 C   0  0  0  0  0  0
   -1.7534   47.7262   15.1217 Cl  0  0  0  0  0  0
   -3.2015   52.6526   18.4317 H   0  0  0  0  0  0
   -3.6935   51.2109   17.5382 H   0  0  0  0  0  0
   -4.2436   51.4446   19.2028 H   0  0  0  0  0  0
   -1.2855   49.7388   22.4509 H   0  0  0  0  0  0
    0.2580   49.0419   22.0873 H   0  0  0  0  0  0
   -1.1877   50.6415   25.2338 H   0  0  0  0  0  0
    0.2477   49.6251   25.3567 H   0  0  0  0  0  0
   -0.0255   51.0248   27.5276 H   0  0  0  0  0  0
    1.3575   52.9728   27.5096 H   0  0  0  0  0  0
    2.2339   53.9572   25.3801 H   0  0  0  0  0  0
    3.1004   50.4957   18.3513 H   0  0  0  0  0  0
    2.4347   51.1407   16.9066 H   0  0  0  0  0  0
    2.9750   53.4843   20.4712 H   0  0  0  0  0  0
    3.4030   51.8180   20.3905 H   0  0  0  0  0  0
    4.7443   52.2790   18.4818 H   0  0  0  0  0  0
    4.4239   54.7078   19.1473 H   0  0  0  0  0  0
    5.6442   54.3464   17.9185 H   0  0  0  0  0  0
    3.9220   54.8153   16.0955 H   0  0  0  0  0  0
    2.7621   55.2729   17.2954 H   0  0  0  0  0  0
    2.5325   58.0316   16.4899 H   0  0  0  0  0  0
    6.5648   58.9499   17.0206 H   0  0  0  0  0  0
    2.1229   48.3269   19.1140 H   0  0  0  0  0  0
    1.6603   46.0970   18.1703 H   0  0  0  0  0  0
   -0.0527   45.8235   16.4007 H   0  0  0  0  0  0
   -0.8502   50.0281   16.5192 H   0  0  0  0  0  0
    4.1839   52.6085   17.0428 H   0  0  0  0  0  0
  1  2  1  0  0  0
  1 42  1  0  0  0
  1 43  1  0  0  0
  1 44  1  0  0  0
  2  3  1  0  0  0
  3  4  2  0  0  0
  3  5  1  0  0  0
  5  6  1  0  0  0
  5 19  1  0  0  0
  5  7  1  0  0  0
  7  8  1  0  0  0
  7 45  1  0  0  0
  7 46  1  0  0  0
  8 16  1  0  0  0
  8  9  2  0  0  0
  9 14  1  0  0  0
  9 10  1  0  0  0
 10 11  1  0  0  0
 10 47  1  0  0  0
 10 48  1  0  0  0
 11 12  2  0  0  0
 11 49  1  0  0  0
 12 13  1  0  0  0
 12 50  1  0  0  0
 13 14  2  0  0  0
 13 51  1  0  0  0
 14 15  1  0  0  0
 15 16  2  0  0  0
 16 17  1  0  0  0
 17 18  1  0  0  0
 17 25  1  0  0  0
 17 19  1  0  0  0
 19 20  1  0  0  0
 20 21  1  0  0  0
 20 22  1  0  0  0
 20 35  1  0  0  0
 22 23  1  0  0  0
 22 52  1  0  0  0
 22 53  1  0  0  0
 23 24  1  0  0  0
 23 25  1  0  0  0
 23 26  1  0  0  0
 25 54  1  0  0  0
 25 55  1  0  0  0
 26 27  1  0  0  0
 26 56  1  0  0  0
 26 67  1  0  0  0
 27 28  1  0  0  0
 27 57  1  0  0  0
 27 58  1  0  0  0
 28 29  1  0  0  0
 28 59  1  0  0  0
 28 60  1  0  0  0
 29 34  1  0  0  0
 29 30  2  0  0  0
 30 31  1  0  0  0
 30 61  1  0  0  0
 31 32  1  0  0  0
 31 33  1  0  0  0
 33 34  2  0  0  0
 33 62  1  0  0  0
 35 40  2  0  0  0
 35 36  1  0  0  0
 36 37  2  0  0  0
 36 63  1  0  0  0
 37 38  1  0  0  0
 37 64  1  0  0  0
 38 39  2  0  0  0
 38 65  1  0  0  0
 39 40  1  0  0  0
 39 41  1  0  0  0
 40 66  1  0  0  0
M  CHG  1  26   1
M  END
> <i_i_glide_confnum>
26

> <i_i_glide_lignum>
1239

> <i_i_glide_posenum>
389

> <i_i_glide_rotatable_bonds>
7

> <i_m_Source_File_Index>
5738

> <b_m_subgroup_collapsed>
0

> <r_i_docking_score>
-4.04199

> <r_i_glide_ecoul>
-10.7673

> <r_i_glide_eff_state_penalty>
0

> <r_i_glide_einternal>
4.11838

> <r_i_glide_emodel>
-48.4786

> <r_i_glide_energy>
-38.2222

> <r_i_glide_erotb>
0.400904

> <r_i_glide_esite>
-0.2604

> <r_i_glide_evdw>
-27.4549

> <r_i_glide_gscore>
-4.04199

> <r_i_glide_hbond>
-0.463252

> <r_i_glide_ligand_efficiency>
-0.112277

> <r_i_glide_ligand_efficiency_ln>
-0.881852

> <r_i_glide_ligand_efficiency_sa>
-0.370732

> <r_i_glide_lipo>
-0.653732

> <r_i_glide_metal>
0

> <r_i_glide_rewards>
-0.0776628

> <s_i_glide_gridfile>
wee1_glide-grid

> <s_m_Source_File>
wee1_decoys_glide_SP.sdf

> <s_m_Source_Path>
/Users/zhangxujun/Desktop

> <s_m_entry_id>
6013

> <s_m_entry_name>
wee1_decoys_glide_SP.5738

> <s_m_subgroup_title>
wee1_decoys_glide_SP

> <s_m_subgroupid>
wee1_decoys_glide_SP


$$$$
