ZINC26608274_3224
                    3D
 Schrodinger Suite 2024-2.
 64 67  0  0  1  0            999 V2000
    2.4753   54.3136   29.6813 C   0  0  0  0  0  0
    2.8944   52.8356   29.5614 C   0  0  0  0  0  0
    3.5042   52.3061   30.8659 C   0  0  0  0  0  0
    1.7692   51.9977   29.3221 O   0  0  0  0  0  0
    1.0988   52.0176   28.1170 C   0  0  0  0  0  0
    1.5250   52.6749   26.9554 C   0  0  0  0  0  0
    0.7499   52.6145   25.7979 C   0  0  0  0  0  0
   -0.4477   51.8884   25.7693 C   0  0  0  0  0  0
   -0.8356   51.2040   26.9249 C   0  0  0  0  0  0
   -0.0845   51.2967   28.0876 C   0  0  0  0  0  0
   -1.3247   51.9117   24.4893 C   0  0  2  0  0  0
   -1.2015   52.9368   24.1322 H   0  0  0  0  0  0
   -2.8634   51.7308   24.7162 C   0  0  2  0  0  0
   -3.3730   51.9894   23.7868 H   0  0  0  0  0  0
   -3.4541   52.6746   25.7975 C   0  0  0  0  0  0
   -4.8547   52.3090   26.0747 N   0  0  0  0  0  0
   -5.2279   50.9098   26.3862 C   0  0  0  0  0  0
   -4.2694   49.9328   25.7155 C   0  0  0  0  0  0
   -3.2005   50.2490   24.9534 C   0  0  0  0  0  0
   -2.3481   49.2094   24.3603 C   0  0  0  0  0  0
   -1.2536   49.5153   23.6230 C   0  0  0  0  0  0
   -0.8318   50.9692   23.3380 C   0  0  0  0  0  0
   -1.4753   51.3743   22.0734 C   0  0  0  0  0  0
   -1.9827   51.6968   21.0835 N   0  0  0  0  0  0
    0.6273   51.0812   23.1274 C   0  0  0  0  0  0
    1.7679   51.1673   22.9525 N   0  0  0  0  0  0
   -0.4955   48.5507   22.9958 N   0  0  0  0  0  0
   -2.6733   47.8213   24.5462 C   0  0  0  0  0  0
   -2.9010   46.6884   24.6484 N   0  0  0  0  0  0
   -5.7590   53.3602   26.3222 C   0  0  0  0  0  0
   -5.4944   54.5599   26.2167 O   0  0  0  0  0  0
   -6.9888   52.9047   26.6939 O   0  0  0  0  0  0
   -8.0320   53.7855   27.1178 C   0  0  0  0  0  0
   -8.6488   54.6168   25.9903 C   0  0  0  0  0  0
   -8.5736   54.2228   24.6499 C   0  0  0  0  0  0
   -9.1309   55.0232   23.6556 C   0  0  0  0  0  0
   -9.7711   56.2114   24.0051 C   0  0  0  0  0  0
   -9.8655   56.6026   25.3377 C   0  0  0  0  0  0
   -9.3072   55.7999   26.3300 C   0  0  0  0  0  0
    3.3366   54.9466   29.8959 H   0  0  0  0  0  0
    1.7433   54.4522   30.4782 H   0  0  0  0  0  0
    2.0261   54.6888   28.7633 H   0  0  0  0  0  0
    3.6362   52.7167   28.7697 H   0  0  0  0  0  0
    4.3034   52.9510   31.2205 H   0  0  0  0  0  0
    2.7577   52.2504   31.6606 H   0  0  0  0  0  0
    3.9144   51.3048   30.7291 H   0  0  0  0  0  0
    2.4448   53.2352   26.9330 H   0  0  0  0  0  0
    1.0816   53.1559   24.9237 H   0  0  0  0  0  0
   -1.7331   50.6104   26.9762 H   0  0  0  0  0  0
   -0.4242   50.7902   28.9779 H   0  0  0  0  0  0
   -2.8973   52.7287   26.7323 H   0  0  0  0  0  0
   -3.4014   53.6746   25.3622 H   0  0  0  0  0  0
   -6.2425   50.6814   26.0548 H   0  0  0  0  0  0
   -5.2111   50.7466   27.4659 H   0  0  0  0  0  0
   -4.4803   48.8868   25.8888 H   0  0  0  0  0  0
    0.3290   48.7905   22.4611 H   0  0  0  0  0  0
   -0.7006   47.5694   23.1218 H   0  0  0  0  0  0
   -8.8220   53.1871   27.5724 H   0  0  0  0  0  0
   -7.6471   54.4494   27.8944 H   0  0  0  0  0  0
   -8.0750   53.3073   24.3676 H   0  0  0  0  0  0
   -9.0579   54.7247   22.6208 H   0  0  0  0  0  0
  -10.1943   56.8339   23.2319 H   0  0  0  0  0  0
  -10.3606   57.5254   25.6013 H   0  0  0  0  0  0
   -9.3797   56.0978   27.3633 H   0  0  0  0  0  0
  1  2  1  0  0  0
  1 40  1  0  0  0
  1 41  1  0  0  0
  1 42  1  0  0  0
  2  3  1  0  0  0
  2  4  1  0  0  0
  2 43  1  0  0  0
  3 44  1  0  0  0
  3 45  1  0  0  0
  3 46  1  0  0  0
  4  5  1  0  0  0
  5 10  2  0  0  0
  5  6  1  0  0  0
  6  7  2  0  0  0
  6 47  1  0  0  0
  7  8  1  0  0  0
  7 48  1  0  0  0
  8  9  2  0  0  0
  8 11  1  0  0  0
  9 10  1  0  0  0
  9 49  1  0  0  0
 10 50  1  0  0  0
 11 12  1  0  0  0
 11 22  1  0  0  0
 11 13  1  0  0  0
 13 14  1  0  0  0
 13 19  1  0  0  0
 13 15  1  0  0  0
 15 16  1  0  0  0
 15 51  1  0  0  0
 15 52  1  0  0  0
 16 17  1  0  0  0
 16 30  1  0  0  0
 17 18  1  0  0  0
 17 53  1  0  0  0
 17 54  1  0  0  0
 18 19  2  0  0  0
 18 55  1  0  0  0
 19 20  1  0  0  0
 20 21  2  0  0  0
 20 28  1  0  0  0
 21 22  1  0  0  0
 21 27  1  0  0  0
 22 23  1  0  0  0
 22 25  1  0  0  0
 23 24  3  0  0  0
 25 26  3  0  0  0
 27 56  1  0  0  0
 27 57  1  0  0  0
 28 29  3  0  0  0
 30 31  2  0  0  0
 30 32  1  0  0  0
 32 33  1  0  0  0
 33 34  1  0  0  0
 33 58  1  0  0  0
 33 59  1  0  0  0
 34 39  2  0  0  0
 34 35  1  0  0  0
 35 36  2  0  0  0
 35 60  1  0  0  0
 36 37  1  0  0  0
 36 61  1  0  0  0
 37 38  2  0  0  0
 37 62  1  0  0  0
 38 39  1  0  0  0
 38 63  1  0  0  0
 39 64  1  0  0  0
M  END
> <i_i_glide_confnum>
50

> <i_i_glide_lignum>
3225

> <i_i_glide_posenum>
268

> <i_i_glide_rotatable_bonds>
10

> <i_m_Source_File_Index>
1380

> <b_m_subgroup_collapsed>
0

> <r_i_docking_score>
-3.60674

> <r_i_glide_ecoul>
-3.82032

> <r_i_glide_eff_state_penalty>
0

> <r_i_glide_einternal>
17.3816

> <r_i_glide_emodel>
-45.3473

> <r_i_glide_energy>
-43.5285

> <r_i_glide_erotb>
0.418155

> <r_i_glide_esite>
-0.04097

> <r_i_glide_evdw>
-39.7082

> <r_i_glide_gscore>
-3.60674

> <r_i_glide_hbond>
-0.32

> <r_i_glide_ligand_efficiency>
-0.0974795

> <r_i_glide_ligand_efficiency_ln>
-0.782218

> <r_i_glide_ligand_efficiency_sa>
-0.324823

> <r_i_glide_lipo>
-0.902026

> <r_i_glide_metal>
0

> <r_i_glide_rewards>
-0.203443

> <s_i_glide_gridfile>
wee1_glide-grid

> <s_m_Source_File>
wee1_decoys_glide_SP.sdf

> <s_m_Source_Path>
/Users/zhangxujun/Desktop

> <s_m_entry_id>
1655

> <s_m_entry_name>
wee1_decoys_glide_SP.1380

> <s_m_subgroup_title>
wee1_decoys_glide_SP

> <s_m_subgroupid>
wee1_decoys_glide_SP


$$$$
