ZINC34942116_3734
                    3D
 Schrodinger Suite 2024-2.
 64 67  0  0  1  0            999 V2000
   -3.0498   49.9873   26.4363 C   0  0  0  0  0  0
   -2.6856   51.1915   25.5406 C   0  0  0  0  0  0
   -3.5957   52.3903   25.8656 C   0  0  0  0  0  0
   -1.1759   51.5987   25.5782 C   0  0  2  0  0  0
   -1.0353   52.5141   25.0014 H   0  0  0  0  0  0
   -0.3095   50.4776   24.9188 C   0  0  0  0  0  0
    0.3041   49.7063   25.6631 O   0  0  0  0  0  0
   -0.2433   50.3812   23.5604 N   0  0  0  0  0  0
   -0.8175   51.3525   22.6096 C   0  0  0  0  0  0
    0.3383   52.2624   22.1058 C   0  0  0  0  0  0
    1.6171   51.5133   21.5738 C   0  0  0  0  0  0
    1.9416   50.3434   22.5653 C   0  0  0  0  0  0
    0.7306   49.4631   22.9469 C   0  0  0  0  0  0
    1.3038   50.9159   20.1736 C   0  0  0  0  0  0
    0.2450   50.4237   19.7838 O   0  0  0  0  0  0
    2.3975   51.1228   19.4473 N   0  0  0  0  0  0
    3.3817   51.9305   20.1177 C   0  0  0  0  0  0
    2.8015   52.3800   21.3808 N   0  0  0  0  0  0
    3.5757   53.0794   22.3426 C   0  0  0  0  0  0
    4.8333   53.6062   21.9935 C   0  0  0  0  0  0
    5.6214   54.2846   22.9202 C   0  0  0  0  0  0
    5.1402   54.4970   24.2069 C   0  0  0  0  0  0
    3.8727   54.0528   24.5623 C   0  0  0  0  0  0
    3.1039   53.3486   23.6378 C   0  0  0  0  0  0
   -0.7272   51.9295   26.9465 N   0  0  0  0  0  0
    0.4512   52.5199   27.2030 C   0  0  0  0  0  0
    1.1844   52.9514   26.3106 O   0  0  0  0  0  0
    0.7520   52.5990   28.5140 N   0  0  0  0  0  0
    2.0136   53.0437   28.9273 C   0  0  0  0  0  0
    3.0038   52.0809   29.1203 C   0  0  0  0  0  0
    4.3341   52.4659   29.2778 C   0  0  0  0  0  0
    4.6782   53.8151   29.2652 C   0  0  0  0  0  0
    3.6760   54.7737   29.2096 C   0  0  0  0  0  0
    2.3536   54.4030   29.0176 C   0  0  0  0  0  0
    1.1047   55.8139   28.8354 Br  0  0  0  0  0  0
   -2.8410   50.1849   27.4880 H   0  0  0  0  0  0
   -4.1089   49.7415   26.3551 H   0  0  0  0  0  0
   -2.4920   49.0930   26.1567 H   0  0  0  0  0  0
   -2.9437   50.8963   24.5225 H   0  0  0  0  0  0
   -3.4296   52.7541   26.8788 H   0  0  0  0  0  0
   -3.4132   53.2198   25.1819 H   0  0  0  0  0  0
   -4.6490   52.1209   25.7793 H   0  0  0  0  0  0
   -1.2214   50.7650   21.7848 H   0  0  0  0  0  0
   -1.6863   51.8877   22.9906 H   0  0  0  0  0  0
   -0.0451   52.8912   21.2995 H   0  0  0  0  0  0
    0.5585   53.0495   22.8172 H   0  0  0  0  0  0
    2.5021   50.6788   23.4348 H   0  0  0  0  0  0
    2.6937   49.6981   22.1070 H   0  0  0  0  0  0
    0.9685   48.6018   23.5747 H   0  0  0  0  0  0
    0.2628   49.0262   22.0640 H   0  0  0  0  0  0
    2.5313   50.7772   18.5068 H   0  0  0  0  0  0
    4.2772   51.3314   20.2934 H   0  0  0  0  0  0
    3.6596   52.7865   19.5008 H   0  0  0  0  0  0
    5.2367   53.4719   21.0018 H   0  0  0  0  0  0
    6.5981   54.6510   22.6387 H   0  0  0  0  0  0
    5.7464   55.0246   24.9285 H   0  0  0  0  0  0
    3.4962   54.2172   25.5622 H   0  0  0  0  0  0
    2.1684   52.9584   23.9918 H   0  0  0  0  0  0
   -1.2262   51.4620   27.6885 H   0  0  0  0  0  0
    0.1580   52.1472   29.1931 H   0  0  0  0  0  0
    2.7544   51.0330   29.0386 H   0  0  0  0  0  0
    5.1047   51.7129   29.3412 H   0  0  0  0  0  0
    5.7144   54.1208   29.2831 H   0  0  0  0  0  0
    3.9048   55.8196   29.2787 H   0  0  0  0  0  0
  1  2  1  0  0  0
  1 36  1  0  0  0
  1 37  1  0  0  0
  1 38  1  0  0  0
  2  3  1  0  0  0
  2  4  1  0  0  0
  2 39  1  0  0  0
  3 40  1  0  0  0
  3 41  1  0  0  0
  3 42  1  0  0  0
  4  5  1  0  0  0
  4  6  1  0  0  0
  4 25  1  0  0  0
  6  7  2  0  0  0
  6  8  1  0  0  0
  8 13  1  0  0  0
  8  9  1  0  0  0
  9 10  1  0  0  0
  9 43  1  0  0  0
  9 44  1  0  0  0
 10 11  1  0  0  0
 10 45  1  0  0  0
 10 46  1  0  0  0
 11 18  1  0  0  0
 11 12  1  0  0  0
 11 14  1  0  0  0
 12 13  1  0  0  0
 12 47  1  0  0  0
 12 48  1  0  0  0
 13 49  1  0  0  0
 13 50  1  0  0  0
 14 15  2  0  0  0
 14 16  1  0  0  0
 16 17  1  0  0  0
 16 51  1  0  0  0
 17 18  1  0  0  0
 17 52  1  0  0  0
 17 53  1  0  0  0
 18 19  1  0  0  0
 19 24  2  0  0  0
 19 20  1  0  0  0
 20 21  2  0  0  0
 20 54  1  0  0  0
 21 22  1  0  0  0
 21 55  1  0  0  0
 22 23  2  0  0  0
 22 56  1  0  0  0
 23 24  1  0  0  0
 23 57  1  0  0  0
 24 58  1  0  0  0
 25 26  1  0  0  0
 25 59  1  0  0  0
 26 27  2  0  0  0
 26 28  1  0  0  0
 28 29  1  0  0  0
 28 60  1  0  0  0
 29 34  2  0  0  0
 29 30  1  0  0  0
 30 31  2  0  0  0
 30 61  1  0  0  0
 31 32  1  0  0  0
 31 62  1  0  0  0
 32 33  2  0  0  0
 32 63  1  0  0  0
 33 34  1  0  0  0
 33 64  1  0  0  0
 34 35  1  0  0  0
M  END
> <i_i_glide_confnum>
165

> <i_i_glide_lignum>
3735

> <i_i_glide_posenum>
52

> <i_i_glide_rotatable_bonds>
8

> <i_m_Source_File_Index>
2133

> <b_m_subgroup_collapsed>
0

> <r_i_docking_score>
-4.56702

> <r_i_glide_ecoul>
1.41378

> <r_i_glide_eff_state_penalty>
0

> <r_i_glide_einternal>
20.2097

> <r_i_glide_emodel>
-41.7835

> <r_i_glide_energy>
-41.0003

> <r_i_glide_erotb>
0.442645

> <r_i_glide_esite>
-0.149105

> <r_i_glide_evdw>
-42.4141

> <r_i_glide_gscore>
-4.56702

> <r_i_glide_hbond>
0

> <r_i_glide_ligand_efficiency>
-0.134324

> <r_i_glide_ligand_efficiency_ln>
-1.00898

> <r_i_glide_ligand_efficiency_sa>
-0.435158

> <r_i_glide_lipo>
-2.84294

> <r_i_glide_metal>
0

> <r_i_glide_rewards>
-0.108982

> <s_i_glide_gridfile>
wee1_glide-grid

> <s_m_Source_File>
wee1_decoys_glide_SP.sdf

> <s_m_Source_Path>
/Users/zhangxujun/Desktop

> <s_m_entry_id>
2408

> <s_m_entry_name>
wee1_decoys_glide_SP.2133

> <s_m_subgroup_title>
wee1_decoys_glide_SP

> <s_m_subgroupid>
wee1_decoys_glide_SP


$$$$
