ZINC39677059_3690
                    3D
 Schrodinger Suite 2024-2.
 71 74  0  0  1  0            999 V2000
    6.4687   54.6950   23.1025 C   0  0  0  0  0  0
    5.0751   54.0953   23.0540 C   0  0  0  0  0  0
    4.0971   54.4937   23.9593 C   0  0  0  0  0  0
    2.8181   53.9500   23.8975 C   0  0  0  0  0  0
    2.4933   52.9331   22.9821 C   0  0  0  0  0  0
    3.4858   52.5569   22.0387 C   0  0  0  0  0  0
    4.7519   53.1534   22.0818 C   0  0  0  0  0  0
    3.2725   51.4721   20.9857 C   0  0  0  0  0  0
    1.1174   52.2728   22.9943 C   0  0  0  0  0  0
    0.5769   52.0021   21.9199 O   0  0  0  0  0  0
    0.5248   51.9257   24.1720 N   0  0  0  0  0  0
    0.9702   52.2426   25.5306 C   0  0  0  0  0  0
    0.0878   51.3594   26.4460 C   0  0  2  0  0  0
    0.5686   50.3910   26.6076 H   0  0  0  0  0  0
   -1.2340   51.1901   25.6369 C   0  0  0  0  0  0
   -0.6840   51.0969   24.1953 C   0  0  0  0  0  0
   -2.2314   52.3844   25.7646 C   0  0  0  0  0  0
   -3.4684   52.2471   24.8478 C   0  0  0  0  0  0
   -4.1731   50.9071   25.1727 N   0  3  0  0  0  0
   -3.2372   49.6765   25.1530 C   0  0  0  0  0  0
   -2.0505   49.9640   26.0955 C   0  0  0  0  0  0
   -0.0741   52.0730   27.8126 C   0  0  0  0  0  0
   -0.0957   53.2968   27.8717 O   0  0  0  0  0  0
   -0.1275   51.3307   28.9310 N   0  0  0  0  0  0
   -0.3235   51.8875   30.2862 C   0  0  0  0  0  0
    0.9679   52.3309   31.0306 C   0  0  0  0  0  0
    1.9374   53.2050   30.2310 C   0  0  0  0  0  0
    3.0592   52.6065   29.6403 C   0  0  0  0  0  0
    3.9644   53.3651   28.8971 C   0  0  0  0  0  0
    3.7277   54.7207   28.7028 C   0  0  0  0  0  0
    2.6210   55.3309   29.2838 C   0  0  0  0  0  0
    1.7366   54.5907   30.0733 C   0  0  0  0  0  0
    0.5953   55.3204   30.7580 C   0  0  0  0  0  0
    5.2240   52.7463   28.3302 C   0  0  0  0  0  0
    6.4961   55.6198   23.6811 H   0  0  0  0  0  0
    7.1755   53.9866   23.5348 H   0  0  0  0  0  0
    6.8159   54.9385   22.0977 H   0  0  0  0  0  0
    4.3179   55.2475   24.7008 H   0  0  0  0  0  0
    2.0905   54.3438   24.5864 H   0  0  0  0  0  0
    5.5032   52.8565   21.3650 H   0  0  0  0  0  0
    4.1992   51.1689   20.4967 H   0  0  0  0  0  0
    2.8523   50.5743   21.4399 H   0  0  0  0  0  0
    2.5783   51.8133   20.2167 H   0  0  0  0  0  0
    0.6959   53.2906   25.6614 H   0  0  0  0  0  0
    2.0338   52.0967   25.7138 H   0  0  0  0  0  0
   -0.3541   50.0698   24.0338 H   0  0  0  0  0  0
   -1.4135   51.2999   23.4132 H   0  0  0  0  0  0
   -2.5501   52.5398   26.7963 H   0  0  0  0  0  0
   -1.7151   53.2967   25.4786 H   0  0  0  0  0  0
   -4.2045   53.0299   25.0357 H   0  0  0  0  0  0
   -3.2398   52.2370   23.7812 H   0  0  0  0  0  0
   -4.5678   50.9758   26.1024 H   0  0  0  0  0  0
   -3.8352   48.8290   25.4922 H   0  0  0  0  0  0
   -2.9408   49.5120   24.1147 H   0  0  0  0  0  0
   -1.4155   49.0756   26.0858 H   0  0  0  0  0  0
   -2.3716   50.0938   27.1355 H   0  0  0  0  0  0
   -0.1872   50.3246   28.8358 H   0  0  0  0  0  0
   -0.8953   51.1708   30.8811 H   0  0  0  0  0  0
   -0.9572   52.7652   30.1750 H   0  0  0  0  0  0
    1.5164   51.4648   31.3914 H   0  0  0  0  0  0
    0.6867   52.8430   31.9510 H   0  0  0  0  0  0
    3.2377   51.5508   29.7644 H   0  0  0  0  0  0
    4.4226   55.2968   28.1146 H   0  0  0  0  0  0
    2.4712   56.3918   29.1410 H   0  0  0  0  0  0
   -0.3633   54.8840   30.4841 H   0  0  0  0  0  0
    0.7040   55.2464   31.8393 H   0  0  0  0  0  0
    0.5670   56.3776   30.4903 H   0  0  0  0  0  0
    6.0636   53.4367   28.4200 H   0  0  0  0  0  0
    5.0949   52.4973   27.2776 H   0  0  0  0  0  0
    5.5036   51.8491   28.8815 H   0  0  0  0  0  0
   -4.9505   50.7602   24.5424 H   0  0  0  0  0  0
  1  2  1  0  0  0
  1 35  1  0  0  0
  1 36  1  0  0  0
  1 37  1  0  0  0
  2  7  2  0  0  0
  2  3  1  0  0  0
  3  4  2  0  0  0
  3 38  1  0  0  0
  4  5  1  0  0  0
  4 39  1  0  0  0
  5  6  2  0  0  0
  5  9  1  0  0  0
  6  7  1  0  0  0
  6  8  1  0  0  0
  7 40  1  0  0  0
  8 41  1  0  0  0
  8 42  1  0  0  0
  8 43  1  0  0  0
  9 10  2  0  0  0
  9 11  1  0  0  0
 11 16  1  0  0  0
 11 12  1  0  0  0
 12 13  1  0  0  0
 12 44  1  0  0  0
 12 45  1  0  0  0
 13 14  1  0  0  0
 13 15  1  0  0  0
 13 22  1  0  0  0
 15 21  1  0  0  0
 15 16  1  0  0  0
 15 17  1  0  0  0
 16 46  1  0  0  0
 16 47  1  0  0  0
 17 18  1  0  0  0
 17 48  1  0  0  0
 17 49  1  0  0  0
 18 19  1  0  0  0
 18 50  1  0  0  0
 18 51  1  0  0  0
 19 20  1  0  0  0
 19 52  1  0  0  0
 19 71  1  0  0  0
 20 21  1  0  0  0
 20 53  1  0  0  0
 20 54  1  0  0  0
 21 55  1  0  0  0
 21 56  1  0  0  0
 22 23  2  0  0  0
 22 24  1  0  0  0
 24 25  1  0  0  0
 24 57  1  0  0  0
 25 26  1  0  0  0
 25 58  1  0  0  0
 25 59  1  0  0  0
 26 27  1  0  0  0
 26 60  1  0  0  0
 26 61  1  0  0  0
 27 32  2  0  0  0
 27 28  1  0  0  0
 28 29  2  0  0  0
 28 62  1  0  0  0
 29 30  1  0  0  0
 29 34  1  0  0  0
 30 31  2  0  0  0
 30 63  1  0  0  0
 31 32  1  0  0  0
 31 64  1  0  0  0
 32 33  1  0  0  0
 33 65  1  0  0  0
 33 66  1  0  0  0
 33 67  1  0  0  0
 34 68  1  0  0  0
 34 69  1  0  0  0
 34 70  1  0  0  0
M  CHG  1  19   1
M  END
> <i_i_glide_confnum>
2

> <i_i_glide_lignum>
3691

> <i_i_glide_posenum>
337

> <i_i_glide_rotatable_bonds>
7

> <i_m_Source_File_Index>
3804

> <b_m_subgroup_collapsed>
0

> <r_i_docking_score>
-5.47257

> <r_i_glide_ecoul>
-2.29269

> <r_i_glide_eff_state_penalty>
0

> <r_i_glide_einternal>
2.77693

> <r_i_glide_emodel>
-58.7551

> <r_i_glide_energy>
-43.3362

> <r_i_glide_erotb>
0.696809

> <r_i_glide_esite>
-0.0468835

> <r_i_glide_evdw>
-41.0435

> <r_i_glide_gscore>
-5.47257

> <r_i_glide_hbond>
-0.0354718

> <r_i_glide_ligand_efficiency>
-0.165835

> <r_i_glide_ligand_efficiency_ln>
-1.21707

> <r_i_glide_ligand_efficiency_sa>
-0.531923

> <r_i_glide_lipo>
-3.07791

> <r_i_glide_metal>
0

> <r_i_glide_rewards>
-0.613034

> <s_i_glide_gridfile>
wee1_glide-grid

> <s_m_Source_File>
wee1_decoys_glide_SP.sdf

> <s_m_Source_Path>
/Users/zhangxujun/Desktop

> <s_m_entry_id>
4079

> <s_m_entry_name>
wee1_decoys_glide_SP.3804

> <s_m_subgroup_title>
wee1_decoys_glide_SP

> <s_m_subgroupid>
wee1_decoys_glide_SP


$$$$
