ZINC22505830_1968
                    3D
 Schrodinger Suite 2024-2.
 65 67  0  0  1  0            999 V2000
   -5.1153   52.5117   24.6295 C   0  0  0  0  0  0
   -3.8410   53.3706   24.4801 C   0  0  0  0  0  0
   -2.7368   52.7416   23.6037 C   0  0  0  0  0  0
   -1.3380   53.2921   23.9284 C   0  0  0  0  0  0
   -0.1767   52.5214   23.2460 C   0  0  0  0  0  0
   -0.0038   51.0419   23.7006 C   0  0  0  0  0  0
    0.1759   50.8549   25.2176 C   0  0  0  0  0  0
    0.7044   51.8113   25.8888 N   0  0  0  0  0  0
    0.8391   51.7038   27.1969 N   0  5  0  0  0  0
    1.7074   52.4533   27.7520 C   0  0  0  0  0  0
    2.0087   52.3941   28.9760 N   0  0  0  0  0  0
    3.0119   53.2289   29.3728 C   0  0  0  0  0  0
    3.4266   53.2966   30.5222 O   0  0  0  0  0  0
    3.6282   54.0681   28.2570 C   0  0  2  0  0  0
    3.4679   55.1173   28.5034 H   0  0  0  0  0  0
    2.6421   53.6960   26.8004 S   0  0  0  0  0  0
    5.1561   53.7571   28.1944 C   0  0  0  0  0  0
    5.9715   54.1296   26.9525 C   0  0  0  0  0  0
    7.1120   53.6965   26.8764 O   0  0  0  0  0  0
    5.4367   54.8972   25.9943 N   0  0  0  0  0  0
    6.0758   55.1993   24.7087 C   0  0  0  0  0  0
    5.5597   54.2854   23.5727 C   0  0  1  0  0  0
    5.9755   53.2920   23.7417 H   0  0  0  0  0  0
    4.0331   54.1552   23.4693 C   0  0  0  0  0  0
    3.7526   54.0787   21.9833 C   0  0  0  0  0  0
    5.1141   54.2285   21.3133 C   0  0  0  0  0  0
    5.9621   54.8000   22.3080 O   0  0  0  0  0  0
   -0.3209   49.4921   25.7622 C   0  0  0  0  0  0
   -1.8444   49.2514   25.5786 C   0  0  0  0  0  0
   -2.7885   50.3420   26.1451 C   0  0  0  0  0  0
   -4.2271   50.2268   25.5925 C   0  0  0  0  0  0
   -5.1096   51.4809   25.7903 C   0  0  0  0  0  0
   -5.3521   52.0189   23.6843 H   0  0  0  0  0  0
   -5.9484   53.1928   24.8076 H   0  0  0  0  0  0
   -4.1046   54.3376   24.0489 H   0  0  0  0  0  0
   -3.4599   53.5984   25.4768 H   0  0  0  0  0  0
   -2.7417   51.6622   23.7304 H   0  0  0  0  0  0
   -2.9438   52.8969   22.5456 H   0  0  0  0  0  0
   -1.2919   54.3500   23.6817 H   0  0  0  0  0  0
   -1.2017   53.2821   25.0074 H   0  0  0  0  0  0
    0.7549   53.0631   23.4206 H   0  0  0  0  0  0
   -0.3187   52.5375   22.1650 H   0  0  0  0  0  0
    0.8492   50.5960   23.1892 H   0  0  0  0  0  0
   -0.8633   50.4839   23.3358 H   0  0  0  0  0  0
    5.3048   52.6779   28.2881 H   0  0  0  0  0  0
    5.6563   54.1973   29.0584 H   0  0  0  0  0  0
    4.4779   55.1948   26.1095 H   0  0  0  0  0  0
    7.1626   55.1094   24.7711 H   0  0  0  0  0  0
    5.8840   56.2461   24.4817 H   0  0  0  0  0  0
    3.5343   55.0364   23.8723 H   0  0  0  0  0  0
    3.6567   53.2968   24.0264 H   0  0  0  0  0  0
    3.1027   54.8967   21.6814 H   0  0  0  0  0  0
    3.2649   53.1449   21.7016 H   0  0  0  0  0  0
    5.0808   54.8630   20.4272 H   0  0  0  0  0  0
    5.5056   53.2643   20.9880 H   0  0  0  0  0  0
    0.2239   48.6915   25.2601 H   0  0  0  0  0  0
   -0.0808   49.3643   26.8179 H   0  0  0  0  0  0
   -2.0541   49.0964   24.5204 H   0  0  0  0  0  0
   -2.0995   48.3018   26.0526 H   0  0  0  0  0  0
   -2.7996   50.2719   27.2349 H   0  0  0  0  0  0
   -2.3957   51.3334   25.9350 H   0  0  0  0  0  0
   -4.2138   49.9704   24.5322 H   0  0  0  0  0  0
   -4.7032   49.3769   26.0839 H   0  0  0  0  0  0
   -6.1377   51.1382   25.9152 H   0  0  0  0  0  0
   -4.8611   51.9718   26.7321 H   0  0  0  0  0  0
  1 32  1  0  0  0
  1  2  1  0  0  0
  1 33  1  0  0  0
  1 34  1  0  0  0
  2  3  1  0  0  0
  2 35  1  0  0  0
  2 36  1  0  0  0
  3  4  1  0  0  0
  3 37  1  0  0  0
  3 38  1  0  0  0
  4  5  1  0  0  0
  4 39  1  0  0  0
  4 40  1  0  0  0
  5  6  1  0  0  0
  5 41  1  0  0  0
  5 42  1  0  0  0
  6  7  1  0  0  0
  6 43  1  0  0  0
  6 44  1  0  0  0
  7  8  2  0  0  0
  7 28  1  0  0  0
  8  9  1  0  0  0
  9 10  1  0  0  0
 10 16  1  0  0  0
 10 11  2  0  0  0
 11 12  1  0  0  0
 12 13  2  0  0  0
 12 14  1  0  0  0
 14 15  1  0  0  0
 14 16  1  0  0  0
 14 17  1  0  0  0
 17 18  1  0  0  0
 17 45  1  0  0  0
 17 46  1  0  0  0
 18 19  2  0  0  0
 18 20  1  0  0  0
 20 21  1  0  0  0
 20 47  1  0  0  0
 21 22  1  0  0  0
 21 48  1  0  0  0
 21 49  1  0  0  0
 22 23  1  0  0  0
 22 27  1  0  0  0
 22 24  1  0  0  0
 24 25  1  0  0  0
 24 50  1  0  0  0
 24 51  1  0  0  0
 25 26  1  0  0  0
 25 52  1  0  0  0
 25 53  1  0  0  0
 26 27  1  0  0  0
 26 54  1  0  0  0
 26 55  1  0  0  0
 28 29  1  0  0  0
 28 56  1  0  0  0
 28 57  1  0  0  0
 29 30  1  0  0  0
 29 58  1  0  0  0
 29 59  1  0  0  0
 30 31  1  0  0  0
 30 60  1  0  0  0
 30 61  1  0  0  0
 31 32  1  0  0  0
 31 62  1  0  0  0
 31 63  1  0  0  0
 32 64  1  0  0  0
 32 65  1  0  0  0
M  CHG  1   9  -1
M  END
> <i_i_glide_confnum>
1998

> <i_i_glide_lignum>
1969

> <i_i_glide_posenum>
178

> <i_i_glide_rotatable_bonds>
7

> <i_m_Source_File_Index>
516

> <b_m_subgroup_collapsed>
0

> <r_i_docking_score>
-6.36415

> <r_i_glide_ecoul>
-7.06119

> <r_i_glide_eff_state_penalty>
0

> <r_i_glide_einternal>
8.49956

> <r_i_glide_emodel>
-63.7805

> <r_i_glide_energy>
-49.4519

> <r_i_glide_erotb>
0.630059

> <r_i_glide_esite>
-0.00263669

> <r_i_glide_evdw>
-42.3907

> <r_i_glide_gscore>
-6.36415

> <r_i_glide_hbond>
-0.32

> <r_i_glide_ligand_efficiency>
-0.212138

> <r_i_glide_ligand_efficiency_ln>
-1.446

> <r_i_glide_ligand_efficiency_sa>
-0.659163

> <r_i_glide_lipo>
-2.17801

> <r_i_glide_metal>
0

> <r_i_glide_rewards>
-1.31485

> <s_i_glide_gridfile>
wee1_glide-grid

> <s_m_Source_File>
wee1_decoys_glide_SP.sdf

> <s_m_Source_Path>
/Users/zhangxujun/Desktop

> <s_m_entry_id>
791

> <s_m_entry_name>
wee1_decoys_glide_SP.516

> <s_m_subgroup_title>
wee1_decoys_glide_SP

> <s_m_subgroupid>
wee1_decoys_glide_SP


$$$$
