ZINC33705185_4234
                    3D
 Schrodinger Suite 2024-2.
 72 76  0  0  1  0            999 V2000
    0.2121   53.8355   29.8333 C   0  0  0  0  0  0
    1.5050   54.6460   30.0321 C   0  0  0  0  0  0
    2.8436   53.8808   29.8122 C   0  0  1  0  0  0
    3.5906   54.4680   30.3505 H   0  0  0  0  0  0
    2.8586   52.4691   30.4389 C   0  0  0  0  0  0
    3.3737   53.8723   28.3718 C   0  0  0  0  0  0
    4.7297   53.6154   28.1639 C   0  0  0  0  0  0
    5.2742   53.6962   26.8889 C   0  0  0  0  0  0
    4.4842   54.0657   25.7936 C   0  0  0  0  0  0
    3.1125   54.2447   25.9903 C   0  0  0  0  0  0
    2.5627   54.1503   27.2664 C   0  0  0  0  0  0
    5.0839   54.2469   24.5108 N   0  0  0  0  0  0
    6.2948   54.8863   24.2823 C   0  0  0  0  0  0
    6.5908   54.7685   22.9476 C   0  0  0  0  0  0
    5.5013   54.2335   22.2699 C   0  0  0  0  0  0
    4.5874   53.8648   23.2617 C   0  0  0  0  0  0
    3.2483   53.1677   23.0773 C   0  0  0  0  0  0
    5.3694   54.0305   20.8318 C   0  0  0  0  0  0
    5.7904   54.7524   19.7497 C   0  0  0  0  0  0
    5.5466   54.2096   18.4051 C   0  0  0  0  0  0
    4.6851   53.3289   18.1182 N   0  0  0  0  0  0
    6.4012   54.7684   17.3963 N   0  0  0  0  0  0
    7.2645   55.8434   17.6988 C   0  0  0  0  0  0
    7.3725   56.4011   18.8412 N   0  0  0  0  0  0
    6.5181   56.0435   19.8964 C   0  0  0  0  0  0
    6.3043   56.7593   20.8766 O   0  0  0  0  0  0
    8.1784   56.3302   16.2670 S   0  0  0  0  0  0
    7.4925   54.9560   15.3635 C   0  0  0  0  0  0
    6.3117   54.5017   15.9721 N   0  0  0  0  0  0
    8.0832   54.4525   14.2571 C   0  0  0  0  0  0
    7.5872   53.3272   13.4964 C   0  0  0  0  0  0
    7.2723   53.4955   12.3186 O   0  0  0  0  0  0
    7.4715   52.1239   14.1296 N   0  0  0  0  0  0
    6.9645   50.9556   13.3829 C   0  0  0  0  0  0
    8.1921   50.1776   12.8539 C   0  0  0  0  0  0
    9.1776   49.8019   13.9811 C   0  0  0  0  0  0
    9.5068   51.0147   14.8786 C   0  0  0  0  0  0
    8.2353   51.7644   15.3457 C   0  0  0  0  0  0
    7.0875   55.6176   25.3350 C   0  0  0  0  0  0
   -0.6553   54.4790   29.9661 H   0  0  0  0  0  0
    0.1447   53.3863   28.8435 H   0  0  0  0  0  0
    0.1253   53.0328   30.5661 H   0  0  0  0  0  0
    1.4845   55.0388   31.0464 H   0  0  0  0  0  0
    1.4801   55.5413   29.4080 H   0  0  0  0  0  0
    3.8610   52.0392   30.4321 H   0  0  0  0  0  0
    2.5224   52.4893   31.4765 H   0  0  0  0  0  0
    2.2050   51.7861   29.8928 H   0  0  0  0  0  0
    5.3732   53.3625   28.9930 H   0  0  0  0  0  0
    6.3126   53.4348   26.7698 H   0  0  0  0  0  0
    2.4584   54.4981   25.1712 H   0  0  0  0  0  0
    1.5080   54.3367   27.3792 H   0  0  0  0  0  0
    7.4983   55.1377   22.4904 H   0  0  0  0  0  0
    3.2299   52.5511   22.1794 H   0  0  0  0  0  0
    3.0054   52.4975   23.9003 H   0  0  0  0  0  0
    2.4320   53.8833   22.9745 H   0  0  0  0  0  0
    4.8215   53.1167   20.6435 H   0  0  0  0  0  0
    4.6795   53.0797   17.1422 H   0  0  0  0  0  0
    8.9862   54.8931   13.8633 H   0  0  0  0  0  0
    6.2502   53.4993   15.8454 H   0  0  0  0  0  0
    6.2356   51.2310   12.6198 H   0  0  0  0  0  0
    6.3947   50.3433   14.0795 H   0  0  0  0  0  0
    8.7019   50.7723   12.0934 H   0  0  0  0  0  0
    7.8561   49.2757   12.3424 H   0  0  0  0  0  0
    8.7378   49.0117   14.5910 H   0  0  0  0  0  0
   10.0923   49.3830   13.5573 H   0  0  0  0  0  0
   10.0746   50.6838   15.7494 H   0  0  0  0  0  0
   10.1615   51.7080   14.3455 H   0  0  0  0  0  0
    8.4310   52.6001   16.0172 H   0  0  0  0  0  0
    7.6040   51.1081   15.9427 H   0  0  0  0  0  0
    7.9045   56.1614   24.8718 H   0  0  0  0  0  0
    6.4738   56.3569   25.8410 H   0  0  0  0  0  0
    7.5041   54.9586   26.0887 H   0  0  0  0  0  0
  1  2  1  0  0  0
  1 40  1  0  0  0
  1 41  1  0  0  0
  1 42  1  0  0  0
  2  3  1  0  0  0
  2 43  1  0  0  0
  2 44  1  0  0  0
  3  4  1  0  0  0
  3  5  1  0  0  0
  3  6  1  0  0  0
  5 45  1  0  0  0
  5 46  1  0  0  0
  5 47  1  0  0  0
  6 11  2  0  0  0
  6  7  1  0  0  0
  7  8  2  0  0  0
  7 48  1  0  0  0
  8  9  1  0  0  0
  8 49  1  0  0  0
  9 10  2  0  0  0
  9 12  1  0  0  0
 10 11  1  0  0  0
 10 50  1  0  0  0
 11 51  1  0  0  0
 12 16  1  0  0  0
 12 13  1  0  0  0
 13 14  2  0  0  0
 13 39  1  0  0  0
 14 15  1  0  0  0
 14 52  1  0  0  0
 15 16  2  0  0  0
 15 18  1  0  0  0
 16 17  1  0  0  0
 17 53  1  0  0  0
 17 54  1  0  0  0
 17 55  1  0  0  0
 18 19  2  0  0  0
 18 56  1  0  0  0
 19 25  1  0  0  0
 19 20  1  0  0  0
 20 21  2  0  0  0
 20 22  1  0  0  0
 21 57  1  0  0  0
 22 23  1  0  0  0
 22 29  1  0  0  0
 23 24  2  0  0  0
 23 27  1  0  0  0
 24 25  1  0  0  0
 25 26  2  0  0  0
 27 28  1  0  0  0
 28 30  2  0  0  0
 28 29  1  0  0  0
 29 59  1  0  0  0
 30 31  1  0  0  0
 30 58  1  0  0  0
 31 32  2  0  0  0
 31 33  1  0  0  0
 33 38  1  0  0  0
 33 34  1  0  0  0
 34 35  1  0  0  0
 34 60  1  0  0  0
 34 61  1  0  0  0
 35 36  1  0  0  0
 35 62  1  0  0  0
 35 63  1  0  0  0
 36 37  1  0  0  0
 36 64  1  0  0  0
 36 65  1  0  0  0
 37 38  1  0  0  0
 37 66  1  0  0  0
 37 67  1  0  0  0
 38 68  1  0  0  0
 38 69  1  0  0  0
 39 70  1  0  0  0
 39 71  1  0  0  0
 39 72  1  0  0  0
M  END
> <i_i_glide_confnum>
48

> <i_i_glide_lignum>
4235

> <i_i_glide_posenum>
40

> <i_i_glide_rotatable_bonds>
6

> <i_m_Source_File_Index>
5366

> <b_m_subgroup_collapsed>
0

> <r_i_docking_score>
-5.9638

> <r_i_glide_ecoul>
-0.900305

> <r_i_glide_eff_state_penalty>
0

> <r_i_glide_einternal>
5.89855

> <r_i_glide_emodel>
-57.8053

> <r_i_glide_energy>
-44.9537

> <r_i_glide_erotb>
0.292804

> <r_i_glide_esite>
-0.00217018

> <r_i_glide_evdw>
-44.0534

> <r_i_glide_gscore>
-5.9638

> <r_i_glide_hbond>
-0.168492

> <r_i_glide_ligand_efficiency>
-0.156942

> <r_i_glide_ligand_efficiency_ln>
-1.28597

> <r_i_glide_ligand_efficiency_sa>
-0.527635

> <r_i_glide_lipo>
-3.40509

> <r_i_glide_metal>
0

> <r_i_glide_rewards>
-0.343133

> <s_i_glide_gridfile>
wee1_glide-grid

> <s_m_Source_File>
wee1_decoys_glide_SP.sdf

> <s_m_Source_Path>
/Users/zhangxujun/Desktop

> <s_m_entry_id>
5641

> <s_m_entry_name>
wee1_decoys_glide_SP.5366

> <s_m_subgroup_title>
wee1_decoys_glide_SP

> <s_m_subgroupid>
wee1_decoys_glide_SP


$$$$
