ZINC28286083_3977
                    3D
 Schrodinger Suite 2024-2.
 67 71  0  0  1  0            999 V2000
    0.2120   48.5045   24.1447 C   0  0  0  0  0  0
   -1.0149   48.1975   23.2736 C   0  0  0  0  0  0
   -2.3366   48.9274   23.6378 C   0  0  2  0  0  0
   -3.1089   48.3221   23.1618 H   0  0  0  0  0  0
   -2.4964   50.3145   22.9541 C   0  0  0  0  0  0
   -1.6832   51.3676   23.5414 N   0  0  0  0  0  0
   -0.4475   51.7732   23.0156 C   0  0  0  0  0  0
    0.4856   52.3196   23.8969 C   0  0  0  0  0  0
    1.7260   52.7939   23.3932 C   0  0  0  0  0  0
    2.5718   53.3590   24.3837 C   0  0  0  0  0  0
    3.8597   53.9691   24.2972 C   0  0  0  0  0  0
    4.4338   54.4316   25.5076 C   0  0  0  0  0  0
    3.7253   54.2464   26.7119 C   0  0  0  0  0  0
    2.5075   53.6661   26.7831 N   0  0  0  0  0  0
    1.9714   53.2574   25.6581 C   0  0  0  0  0  0
    0.4198   52.4713   25.6295 S   0  0  0  0  0  0
    4.2764   54.5460   27.9521 N   0  0  0  0  0  0
    5.1423   53.5579   28.6129 C   0  0  0  0  0  0
    4.3252   52.5301   29.4412 C   0  0  0  0  0  0
    3.5044   53.1918   30.4064 O   0  0  0  0  0  0
    2.6281   54.1544   29.8251 C   0  0  0  0  0  0
    3.4561   55.1739   29.0051 C   0  0  0  0  0  0
    5.7783   55.1684   25.4876 C   0  0  0  0  0  0
    6.2118   55.5442   24.1794 O   0  0  0  0  0  0
    6.1035   54.5786   23.1326 C   0  0  0  0  0  0
    4.6117   54.1539   22.9796 C   0  0  0  0  0  0
    7.0126   53.3774   23.4480 C   0  0  0  0  0  0
    6.5470   55.3132   21.8551 C   0  0  0  0  0  0
    2.0344   52.6888   22.0923 N   0  0  0  0  0  0
    1.0874   52.0924   21.3073 C   0  0  0  0  0  0
   -0.1361   51.6467   21.6990 N   0  0  0  0  0  0
    1.4781   51.8180   19.6045 S   0  0  0  0  0  0
    3.2028   52.3184   19.3387 C   0  0  0  0  0  0
   -2.7108   48.8803   25.1514 C   0  0  0  0  0  0
   -1.8975   49.6842   25.9939 O   0  0  0  0  0  0
    1.1030   48.0971   23.6816 H   0  0  0  0  0  0
    0.1248   48.0653   25.1379 H   0  0  0  0  0  0
    0.3807   49.5689   24.2741 H   0  0  0  0  0  0
   -0.7645   48.4157   22.2331 H   0  0  0  0  0  0
   -1.1826   47.1205   23.3058 H   0  0  0  0  0  0
   -2.3204   50.2404   21.8793 H   0  0  0  0  0  0
   -3.5352   50.6321   23.0430 H   0  0  0  0  0  0
   -1.7354   51.3923   24.5532 H   0  0  0  0  0  0
    5.7588   53.0444   27.8721 H   0  0  0  0  0  0
    5.8407   54.0862   29.2640 H   0  0  0  0  0  0
    4.9895   51.8359   29.9543 H   0  0  0  0  0  0
    3.6979   51.9348   28.7739 H   0  0  0  0  0  0
    2.0553   54.6731   30.5897 H   0  0  0  0  0  0
    1.8881   53.6470   29.2075 H   0  0  0  0  0  0
    4.1344   55.6966   29.6738 H   0  0  0  0  0  0
    2.8032   55.9335   28.5737 H   0  0  0  0  0  0
    5.7131   56.0911   26.0612 H   0  0  0  0  0  0
    6.5435   54.5673   25.9771 H   0  0  0  0  0  0
    4.5610   53.2390   22.3907 H   0  0  0  0  0  0
    4.0529   54.8967   22.4122 H   0  0  0  0  0  0
    6.7105   52.4979   22.8816 H   0  0  0  0  0  0
    8.0493   53.5902   23.1991 H   0  0  0  0  0  0
    7.0047   53.1225   24.5022 H   0  0  0  0  0  0
    6.5106   54.6588   20.9823 H   0  0  0  0  0  0
    5.9141   56.1745   21.6441 H   0  0  0  0  0  0
    7.5688   55.6827   21.9509 H   0  0  0  0  0  0
    3.4968   52.1150   18.3089 H   0  0  0  0  0  0
    3.3252   53.3843   19.5306 H   0  0  0  0  0  0
    3.8724   51.7588   19.9925 H   0  0  0  0  0  0
   -3.7431   49.2010   25.2994 H   0  0  0  0  0  0
   -2.6278   47.8560   25.5204 H   0  0  0  0  0  0
   -1.7310   49.1990   26.8216 H   0  0  0  0  0  0
  1  2  1  0  0  0
  1 36  1  0  0  0
  1 37  1  0  0  0
  1 38  1  0  0  0
  2  3  1  0  0  0
  2 39  1  0  0  0
  2 40  1  0  0  0
  3  4  1  0  0  0
  3  5  1  0  0  0
  3 34  1  0  0  0
  5  6  1  0  0  0
  5 41  1  0  0  0
  5 42  1  0  0  0
  6  7  1  0  0  0
  6 43  1  0  0  0
  7 31  2  0  0  0
  7  8  1  0  0  0
  8 16  1  0  0  0
  8  9  2  0  0  0
  9 10  1  0  0  0
  9 29  1  0  0  0
 10 15  2  0  0  0
 10 11  1  0  0  0
 11 26  1  0  0  0
 11 12  2  0  0  0
 12 13  1  0  0  0
 12 23  1  0  0  0
 13 14  2  0  0  0
 13 17  1  0  0  0
 14 15  1  0  0  0
 15 16  1  0  0  0
 17 22  1  0  0  0
 17 18  1  0  0  0
 18 19  1  0  0  0
 18 44  1  0  0  0
 18 45  1  0  0  0
 19 20  1  0  0  0
 19 46  1  0  0  0
 19 47  1  0  0  0
 20 21  1  0  0  0
 21 22  1  0  0  0
 21 48  1  0  0  0
 21 49  1  0  0  0
 22 50  1  0  0  0
 22 51  1  0  0  0
 23 24  1  0  0  0
 23 52  1  0  0  0
 23 53  1  0  0  0
 24 25  1  0  0  0
 25 26  1  0  0  0
 25 27  1  0  0  0
 25 28  1  0  0  0
 26 54  1  0  0  0
 26 55  1  0  0  0
 27 56  1  0  0  0
 27 57  1  0  0  0
 27 58  1  0  0  0
 28 59  1  0  0  0
 28 60  1  0  0  0
 28 61  1  0  0  0
 29 30  2  0  0  0
 30 31  1  0  0  0
 30 32  1  0  0  0
 32 33  1  0  0  0
 33 62  1  0  0  0
 33 63  1  0  0  0
 33 64  1  0  0  0
 34 35  1  0  0  0
 34 65  1  0  0  0
 34 66  1  0  0  0
 35 67  1  0  0  0
M  END
> <i_i_glide_confnum>
378

> <i_i_glide_lignum>
3978

> <i_i_glide_posenum>
234

> <i_i_glide_rotatable_bonds>
8

> <i_m_Source_File_Index>
3785

> <b_m_subgroup_collapsed>
0

> <r_i_docking_score>
-6.64304

> <r_i_glide_ecoul>
-6.89111

> <r_i_glide_eff_state_penalty>
0

> <r_i_glide_einternal>
8.01648

> <r_i_glide_emodel>
-62.8448

> <r_i_glide_energy>
-46.3281

> <r_i_glide_erotb>
0.402875

> <r_i_glide_esite>
-0.00757797

> <r_i_glide_evdw>
-39.437

> <r_i_glide_gscore>
-6.64304

> <r_i_glide_hbond>
-0.456

> <r_i_glide_ligand_efficiency>
-0.195384

> <r_i_glide_ligand_efficiency_ln>
-1.46763

> <r_i_glide_ligand_efficiency_sa>
-0.632967

> <r_i_glide_lipo>
-3.15173

> <r_i_glide_metal>
0

> <r_i_glide_rewards>
-0.425093

> <s_i_glide_gridfile>
wee1_glide-grid

> <s_m_Source_File>
wee1_decoys_glide_SP.sdf

> <s_m_Source_Path>
/Users/zhangxujun/Desktop

> <s_m_entry_id>
4060

> <s_m_entry_name>
wee1_decoys_glide_SP.3785

> <s_m_subgroup_title>
wee1_decoys_glide_SP

> <s_m_subgroupid>
wee1_decoys_glide_SP


$$$$
