ZINC34971878_5684
                    3D
 Schrodinger Suite 2024-2.
 72 74  0  0  1  0            999 V2000
    4.1547   52.0966   30.9932 C   0  0  0  0  0  0
    3.0528   51.9571   30.1096 O   0  0  0  0  0  0
    3.0799   52.5680   28.8678 C   0  0  0  0  0  0
    4.1761   53.3012   28.3832 C   0  0  0  0  0  0
    4.1366   53.8897   27.1195 C   0  0  0  0  0  0
    3.0092   53.7487   26.3101 C   0  0  0  0  0  0
    1.9073   53.0357   26.7971 C   0  0  0  0  0  0
    1.9352   52.4320   28.0662 C   0  0  0  0  0  0
    0.8825   51.6999   28.5900 O   0  0  0  0  0  0
   -0.2810   51.4637   27.8054 C   0  0  0  0  0  0
    2.9291   54.4926   24.9772 C   0  0  0  0  0  0
    3.2610   53.7153   23.7642 N   0  0  0  0  0  0
    4.7226   53.6916   23.5056 C   0  0  0  0  0  0
    5.2178   53.6152   22.0383 C   0  0  0  0  0  0
    4.7720   54.7841   21.1522 C   0  0  0  0  0  0
    5.2661   54.7004   19.6916 C   0  0  0  0  0  0
    4.8720   55.9543   18.8940 C   0  0  0  0  0  0
    5.4256   56.0236   17.4627 C   0  0  0  0  0  0
    5.0947   57.3114   16.8353 N   0  0  0  0  0  0
    3.8058   57.6285   16.3296 C   0  0  0  0  0  0
    2.7632   56.6960   16.2264 C   0  0  0  0  0  0
    1.5316   57.0873   15.6981 C   0  0  0  0  0  0
    1.3510   58.4098   15.2804 C   0  0  0  0  0  0
    2.4051   59.3171   15.4153 C   0  0  0  0  0  0
    3.5757   58.8966   15.9294 N   0  3  0  0  0  0
    2.3586   52.8990   23.1341 C   0  0  0  0  0  0
    2.6821   52.0823   22.2752 O   0  0  0  0  0  0
    1.0767   53.0822   23.5207 N   0  0  0  0  0  0
   -0.1023   52.4320   23.1251 C   0  0  0  0  0  0
   -0.2278   51.6127   21.9930 C   0  0  0  0  0  0
   -1.4572   51.0343   21.6853 C   0  0  0  0  0  0
   -2.5667   51.2682   22.4975 C   0  0  0  0  0  0
   -2.4594   52.0947   23.6220 C   0  0  0  0  0  0
   -1.2208   52.6671   23.9268 C   0  0  0  0  0  0
   -3.6599   52.3803   24.5249 C   0  0  0  0  0  0
   -3.3605   52.0804   25.7881 F   0  0  0  0  0  0
   -3.9693   53.6748   24.4591 F   0  0  0  0  0  0
   -4.7365   51.6780   24.1734 F   0  0  0  0  0  0
    3.9578   51.5425   31.9128 H   0  0  0  0  0  0
    5.0722   51.6967   30.5594 H   0  0  0  0  0  0
    4.3035   53.1409   31.2677 H   0  0  0  0  0  0
    5.0699   53.4250   28.9701 H   0  0  0  0  0  0
    4.9836   54.4628   26.7747 H   0  0  0  0  0  0
    1.0262   52.9551   26.1832 H   0  0  0  0  0  0
   -1.0034   50.8965   28.3923 H   0  0  0  0  0  0
   -0.7650   52.3963   27.5100 H   0  0  0  0  0  0
   -0.0456   50.8788   26.9144 H   0  0  0  0  0  0
    3.5718   55.3657   25.0410 H   0  0  0  0  0  0
    1.9251   54.8967   24.8778 H   0  0  0  0  0  0
    5.1855   52.8967   24.0841 H   0  0  0  0  0  0
    5.1468   54.6073   23.9176 H   0  0  0  0  0  0
    4.9633   52.6568   21.5816 H   0  0  0  0  0  0
    6.3032   53.6295   22.0827 H   0  0  0  0  0  0
    5.1609   55.6965   21.5943 H   0  0  0  0  0  0
    3.6835   54.8658   21.1672 H   0  0  0  0  0  0
    4.8570   53.8088   19.2131 H   0  0  0  0  0  0
    6.3507   54.5881   19.6815 H   0  0  0  0  0  0
    5.2314   56.8326   19.4312 H   0  0  0  0  0  0
    3.7830   56.0312   18.8800 H   0  0  0  0  0  0
    5.0428   55.2166   16.8360 H   0  0  0  0  0  0
    6.5141   55.9494   17.4566 H   0  0  0  0  0  0
    5.8017   58.0353   16.8537 H   0  0  0  0  0  0
    2.8953   55.6717   16.5416 H   0  0  0  0  0  0
    0.7256   56.3729   15.6119 H   0  0  0  0  0  0
    0.4005   58.7306   14.8763 H   0  0  0  0  0  0
    2.3585   60.3677   15.1578 H   0  0  0  0  0  0
    0.9474   53.7671   24.2471 H   0  0  0  0  0  0
    0.6048   51.4188   21.3323 H   0  0  0  0  0  0
   -1.5476   50.3968   20.8172 H   0  0  0  0  0  0
   -3.5090   50.8047   22.2407 H   0  0  0  0  0  0
   -1.1392   53.2968   24.8012 H   0  0  0  0  0  0
    4.2961   59.5966   16.0741 H   0  0  0  0  0  0
  1  2  1  0  0  0
  1 39  1  0  0  0
  1 40  1  0  0  0
  1 41  1  0  0  0
  2  3  1  0  0  0
  3  8  2  0  0  0
  3  4  1  0  0  0
  4  5  2  0  0  0
  4 42  1  0  0  0
  5  6  1  0  0  0
  5 43  1  0  0  0
  6  7  2  0  0  0
  6 11  1  0  0  0
  7  8  1  0  0  0
  7 44  1  0  0  0
  8  9  1  0  0  0
  9 10  1  0  0  0
 10 45  1  0  0  0
 10 46  1  0  0  0
 10 47  1  0  0  0
 11 12  1  0  0  0
 11 48  1  0  0  0
 11 49  1  0  0  0
 12 13  1  0  0  0
 12 26  1  0  0  0
 13 14  1  0  0  0
 13 50  1  0  0  0
 13 51  1  0  0  0
 14 15  1  0  0  0
 14 52  1  0  0  0
 14 53  1  0  0  0
 15 16  1  0  0  0
 15 54  1  0  0  0
 15 55  1  0  0  0
 16 17  1  0  0  0
 16 56  1  0  0  0
 16 57  1  0  0  0
 17 18  1  0  0  0
 17 58  1  0  0  0
 17 59  1  0  0  0
 18 19  1  0  0  0
 18 60  1  0  0  0
 18 61  1  0  0  0
 19 20  1  0  0  0
 19 62  1  0  0  0
 20 25  2  0  0  0
 20 21  1  0  0  0
 21 22  2  0  0  0
 21 63  1  0  0  0
 22 23  1  0  0  0
 22 64  1  0  0  0
 23 24  2  0  0  0
 23 65  1  0  0  0
 24 25  1  0  0  0
 24 66  1  0  0  0
 25 72  1  0  0  0
 26 27  2  0  0  0
 26 28  1  0  0  0
 28 29  1  0  0  0
 28 67  1  0  0  0
 29 34  2  0  0  0
 29 30  1  0  0  0
 30 31  2  0  0  0
 30 68  1  0  0  0
 31 32  1  0  0  0
 31 69  1  0  0  0
 32 33  2  0  0  0
 32 70  1  0  0  0
 33 34  1  0  0  0
 33 35  1  0  0  0
 34 71  1  0  0  0
 35 36  1  0  0  0
 35 37  1  0  0  0
 35 38  1  0  0  0
M  CHG  1  25   1
M  END
> <i_i_glide_confnum>
339

> <i_i_glide_lignum>
5685

> <i_i_glide_posenum>
380

> <i_i_glide_rotatable_bonds>
16

> <i_m_Source_File_Index>
3874

> <b_m_subgroup_collapsed>
0

> <r_i_docking_score>
-5.1417

> <r_i_glide_ecoul>
-3.96854

> <r_i_glide_eff_state_penalty>
0

> <r_i_glide_einternal>
4.41881

> <r_i_glide_emodel>
-60.7604

> <r_i_glide_energy>
-43.3706

> <r_i_glide_erotb>
0.87566

> <r_i_glide_esite>
-0.105111

> <r_i_glide_evdw>
-39.4021

> <r_i_glide_gscore>
-5.1417

> <r_i_glide_hbond>
-0.437093

> <r_i_glide_ligand_efficiency>
-0.135308

> <r_i_glide_ligand_efficiency_ln>
-1.1087

> <r_i_glide_ligand_efficiency_sa>
-0.454902

> <r_i_glide_lipo>
-2.45305

> <r_i_glide_metal>
0

> <r_i_glide_rewards>
-0.456723

> <s_i_glide_gridfile>
wee1_glide-grid

> <s_m_Source_File>
wee1_decoys_glide_SP.sdf

> <s_m_Source_Path>
/Users/zhangxujun/Desktop

> <s_m_entry_id>
4149

> <s_m_entry_name>
wee1_decoys_glide_SP.3874

> <s_m_subgroup_title>
wee1_decoys_glide_SP

> <s_m_subgroupid>
wee1_decoys_glide_SP


$$$$
