ZINC08705907_4718
                    3D
 Schrodinger Suite 2024-2.
 34 36  0  0  1  0            999 V2000
    2.0367   53.9825   23.6977 C   0  0  0  0  0  0
    3.5457   54.1077   23.5690 C   0  0  0  0  0  0
    4.1213   54.0961   22.2903 C   0  0  0  0  0  0
    5.4977   54.2187   22.1063 C   0  0  0  0  0  0
    6.3372   54.3523   23.2087 C   0  0  0  0  0  0
    5.7890   54.3599   24.4640 N   0  0  0  0  0  0
    4.4055   54.2512   24.6850 C   0  0  0  0  0  0
    4.1335   54.3041   26.0169 N   0  0  0  0  0  0
    5.3068   54.3681   26.6211 C   0  0  0  0  0  0
    6.3573   54.4468   25.7062 C   0  0  0  0  0  0
    5.3985   54.3318   28.1333 C   0  0  0  0  0  0
    4.4284   52.9770   28.8817 S   0  0  0  0  0  0
    2.8822   53.6225   29.4378 C   0  0  0  0  0  0
    1.9717   52.7136   29.8696 N   0  0  0  0  0  0
    0.8414   53.2095   30.4299 C   0  0  0  0  0  0
    0.6164   54.5779   30.5693 C   0  0  0  0  0  0
    1.6060   55.4316   30.0818 C   0  0  0  0  0  0
    2.7358   54.9715   29.4970 N   0  0  0  0  0  0
    1.5044   56.8038   30.2656 N   0  0  0  0  0  0
   -0.0931   52.2871   30.8815 N   0  0  0  0  0  0
    1.5506   53.7921   22.7394 H   0  0  0  0  0  0
    1.7875   53.1642   24.3751 H   0  0  0  0  0  0
    1.6211   54.8963   24.1200 H   0  0  0  0  0  0
    3.4904   53.9985   21.4149 H   0  0  0  0  0  0
    5.9049   54.2115   21.1061 H   0  0  0  0  0  0
    7.4123   54.4502   23.1415 H   0  0  0  0  0  0
    7.4227   54.4988   25.8488 H   0  0  0  0  0  0
    5.1383   55.2961   28.5691 H   0  0  0  0  0  0
    6.4335   54.1579   28.4260 H   0  0  0  0  0  0
   -0.2778   54.9525   31.0424 H   0  0  0  0  0  0
    0.7866   57.1621   30.8750 H   0  0  0  0  0  0
    2.2775   57.3956   29.9866 H   0  0  0  0  0  0
   -0.7980   52.5284   31.5730 H   0  0  0  0  0  0
    0.1034   51.3116   30.7278 H   0  0  0  0  0  0
  1  2  1  0  0  0
  1 21  1  0  0  0
  1 22  1  0  0  0
  1 23  1  0  0  0
  2  7  1  0  0  0
  2  3  2  0  0  0
  3  4  1  0  0  0
  3 24  1  0  0  0
  4  5  2  0  0  0
  4 25  1  0  0  0
  5  6  1  0  0  0
  5 26  1  0  0  0
  6 10  1  0  0  0
  6  7  1  0  0  0
  7  8  2  0  0  0
  8  9  1  0  0  0
  9 10  2  0  0  0
  9 11  1  0  0  0
 10 27  1  0  0  0
 11 12  1  0  0  0
 11 28  1  0  0  0
 11 29  1  0  0  0
 12 13  1  0  0  0
 13 18  2  0  0  0
 13 14  1  0  0  0
 14 15  2  0  0  0
 15 16  1  0  0  0
 15 20  1  0  0  0
 16 17  2  0  0  0
 16 30  1  0  0  0
 17 18  1  0  0  0
 17 19  1  0  0  0
 19 31  1  0  0  0
 19 32  1  0  0  0
 20 33  1  0  0  0
 20 34  1  0  0  0
M  END
> <i_i_glide_confnum>
4

> <i_i_glide_lignum>
4719

> <i_i_glide_posenum>
161

> <i_i_glide_rotatable_bonds>
3

> <i_m_Source_File_Index>
1516

> <b_m_subgroup_collapsed>
0

> <r_i_docking_score>
-8.0918

> <r_i_glide_ecoul>
-4.39232

> <r_i_glide_eff_state_penalty>
0

> <r_i_glide_einternal>
1.47315

> <r_i_glide_emodel>
-66.286

> <r_i_glide_energy>
-45.5515

> <r_i_glide_erotb>
0.664343

> <r_i_glide_esite>
-0.1

> <r_i_glide_evdw>
-41.1592

> <r_i_glide_gscore>
-8.0918

> <r_i_glide_hbond>
-0.496953

> <r_i_glide_ligand_efficiency>
-0.40459

> <r_i_glide_ligand_efficiency_ln>
-2.02511

> <r_i_glide_ligand_efficiency_sa>
-1.09823

> <r_i_glide_lipo>
-3.11374

> <r_i_glide_metal>
0

> <r_i_glide_rewards>
-2.32864

> <s_i_glide_gridfile>
wee1_glide-grid

> <s_m_Source_File>
wee1_decoys_glide_SP.sdf

> <s_m_Source_Path>
/Users/zhangxujun/Desktop

> <s_m_entry_id>
1791

> <s_m_entry_name>
wee1_decoys_glide_SP.1516

> <s_m_subgroup_title>
wee1_decoys_glide_SP

> <s_m_subgroupid>
wee1_decoys_glide_SP


$$$$
