ZINC59293545_3646
                    3D
 Schrodinger Suite 2024-2.
 60 63  0  0  1  0            999 V2000
   11.4899   55.4009   16.8808 C   0  0  0  0  0  0
   10.1686   54.8531   17.4396 C   0  0  0  0  0  0
    9.3268   55.9197   18.1553 C   0  0  0  0  0  0
    8.1041   55.3524   18.7146 N   0  0  0  0  0  0
    6.8675   55.8623   18.5780 C   0  0  0  0  0  0
    6.6205   56.8988   17.9641 O   0  0  0  0  0  0
    5.8199   55.0443   19.1649 C   0  0  0  0  0  0
    5.7884   54.7546   20.4979 C   0  0  0  0  0  0
    4.8224   53.9973   21.1193 N   0  0  0  0  0  0
    4.8636   53.9238   22.4917 C   0  0  0  0  0  0
    4.0550   53.3024   23.1867 O   0  0  0  0  0  0
    5.9914   54.6701   23.0203 C   0  0  0  0  0  0
    6.3038   54.8653   24.3242 C   0  0  0  0  0  0
    5.6320   54.4985   25.5945 C   0  0  0  0  0  0
    6.4321   54.0943   26.6677 C   0  0  0  0  0  0
    5.8598   53.7719   27.8937 C   0  0  0  0  0  0
    4.4787   53.8611   28.0614 C   0  0  0  0  0  0
    3.6715   54.2716   26.9992 C   0  0  0  0  0  0
    4.2484   54.5968   25.7741 C   0  0  0  0  0  0
    3.8566   53.4957   29.3972 C   0  0  0  0  0  0
    6.9598   55.2970   21.7077 S   0  0  0  0  0  0
    3.8544   53.4004   20.2909 C   0  0  0  0  0  0
    3.7421   53.6424   18.9583 C   0  0  0  0  0  0
    4.6923   54.5901   18.2071 C   0  0  2  0  0  0
    4.1357   55.4982   17.9698 H   0  0  0  0  0  0
    5.1518   54.0045   16.8622 C   0  0  0  0  0  0
    6.2036   53.0784   16.8116 C   0  0  0  0  0  0
    6.6059   52.5406   15.5951 C   0  0  0  0  0  0
    5.9594   52.9206   14.4171 C   0  0  0  0  0  0
    4.9223   53.8531   14.4593 C   0  0  0  0  0  0
    4.5179   54.3918   15.6781 C   0  0  0  0  0  0
    6.3952   52.3251   13.0906 C   0  0  0  0  0  0
    2.7136   53.0070   18.1867 C   0  0  0  0  0  0
    1.8480   52.5143   17.5963 N   0  0  0  0  0  0
    2.9806   52.4978   20.8737 N   0  0  0  0  0  0
   12.0450   54.6202   16.3553 H   0  0  0  0  0  0
   12.1331   55.7814   17.6749 H   0  0  0  0  0  0
   11.3151   56.2129   16.1733 H   0  0  0  0  0  0
    9.5898   54.4188   16.6227 H   0  0  0  0  0  0
   10.3918   54.0353   18.1255 H   0  0  0  0  0  0
    9.9044   56.3839   18.9554 H   0  0  0  0  0  0
    9.1247   56.7378   17.4590 H   0  0  0  0  0  0
    8.2130   54.5224   19.2762 H   0  0  0  0  0  0
    7.2184   55.4228   24.4832 H   0  0  0  0  0  0
    7.5043   54.0261   26.5617 H   0  0  0  0  0  0
    6.4915   53.4585   28.7123 H   0  0  0  0  0  0
    2.5990   54.3401   27.1230 H   0  0  0  0  0  0
    3.6086   54.9365   24.9711 H   0  0  0  0  0  0
    2.8465   53.1048   29.2630 H   0  0  0  0  0  0
    4.4340   52.7068   29.8862 H   0  0  0  0  0  0
    3.8230   54.3672   30.0542 H   0  0  0  0  0  0
    6.6926   52.7578   17.7200 H   0  0  0  0  0  0
    7.4075   51.8167   15.5713 H   0  0  0  0  0  0
    4.4173   54.1538   13.5497 H   0  0  0  0  0  0
    3.7035   55.1030   15.6982 H   0  0  0  0  0  0
    7.4811   52.2391   13.0500 H   0  0  0  0  0  0
    5.9697   51.3301   12.9664 H   0  0  0  0  0  0
    6.0942   52.9526   12.2520 H   0  0  0  0  0  0
    2.2748   52.0242   20.3293 H   0  0  0  0  0  0
    2.9948   52.3519   21.8753 H   0  0  0  0  0  0
  1  2  1  0  0  0
  1 36  1  0  0  0
  1 37  1  0  0  0
  1 38  1  0  0  0
  2  3  1  0  0  0
  2 39  1  0  0  0
  2 40  1  0  0  0
  3  4  1  0  0  0
  3 41  1  0  0  0
  3 42  1  0  0  0
  4  5  1  0  0  0
  4 43  1  0  0  0
  5  6  2  0  0  0
  5  7  1  0  0  0
  7 24  1  0  0  0
  7  8  2  0  0  0
  8 21  1  0  0  0
  8  9  1  0  0  0
  9 10  1  0  0  0
  9 22  1  0  0  0
 10 11  2  0  0  0
 10 12  1  0  0  0
 12 13  2  0  0  0
 12 21  1  0  0  0
 13 14  1  0  0  0
 13 44  1  0  0  0
 14 19  2  0  0  0
 14 15  1  0  0  0
 15 16  2  0  0  0
 15 45  1  0  0  0
 16 17  1  0  0  0
 16 46  1  0  0  0
 17 18  2  0  0  0
 17 20  1  0  0  0
 18 19  1  0  0  0
 18 47  1  0  0  0
 19 48  1  0  0  0
 20 49  1  0  0  0
 20 50  1  0  0  0
 20 51  1  0  0  0
 22 23  2  0  0  0
 22 35  1  0  0  0
 23 24  1  0  0  0
 23 33  1  0  0  0
 24 25  1  0  0  0
 24 26  1  0  0  0
 26 31  2  0  0  0
 26 27  1  0  0  0
 27 28  2  0  0  0
 27 52  1  0  0  0
 28 29  1  0  0  0
 28 53  1  0  0  0
 29 30  2  0  0  0
 29 32  1  0  0  0
 30 31  1  0  0  0
 30 54  1  0  0  0
 31 55  1  0  0  0
 32 56  1  0  0  0
 32 57  1  0  0  0
 32 58  1  0  0  0
 33 34  3  0  0  0
 35 59  1  0  0  0
 35 60  1  0  0  0
M  END
> <i_i_glide_confnum>
133

> <i_i_glide_lignum>
3647

> <i_i_glide_posenum>
246

> <i_i_glide_rotatable_bonds>
7

> <i_m_Source_File_Index>
1290

> <b_m_subgroup_collapsed>
0

> <r_i_docking_score>
-4.82949

> <r_i_glide_ecoul>
1.50797

> <r_i_glide_eff_state_penalty>
0

> <r_i_glide_einternal>
2.4773

> <r_i_glide_emodel>
-50.8145

> <r_i_glide_energy>
-39.8423

> <r_i_glide_erotb>
0.45622

> <r_i_glide_esite>
-0.0283426

> <r_i_glide_evdw>
-41.3503

> <r_i_glide_gscore>
-4.82949

> <r_i_glide_hbond>
0

> <r_i_glide_ligand_efficiency>
-0.142044

> <r_i_glide_ligand_efficiency_ln>
-1.06697

> <r_i_glide_ligand_efficiency_sa>
-0.460167

> <r_i_glide_lipo>
-2.95695

> <r_i_glide_metal>
0

> <r_i_glide_rewards>
-0.459103

> <s_i_glide_gridfile>
wee1_glide-grid

> <s_m_Source_File>
wee1_decoys_glide_SP.sdf

> <s_m_Source_Path>
/Users/zhangxujun/Desktop

> <s_m_entry_id>
1565

> <s_m_entry_name>
wee1_decoys_glide_SP.1290

> <s_m_subgroup_title>
wee1_decoys_glide_SP

> <s_m_subgroupid>
wee1_decoys_glide_SP


$$$$
