ZINC41991885_1643
                    3D
 Schrodinger Suite 2024-2.
 29 30  0  0  1  0            999 V2000
    1.3064   54.1438   27.4181 C   0  0  0  0  0  0
    2.5155   53.4971   28.1358 C   0  0  1  0  0  0
    3.8921   53.7243   27.4147 C   0  0  0  0  0  0
    5.0924   53.4013   28.0823 C   0  0  0  0  0  0
    6.3389   53.6958   27.5350 C   0  0  0  0  0  0
    6.4310   54.2690   26.2747 C   0  0  0  0  0  0
    5.2702   54.5275   25.5584 C   0  0  0  0  0  0
    4.0176   54.2509   26.1072 C   0  0  0  0  0  0
    2.9513   54.4967   25.3164 F   0  0  0  0  0  0
    5.0659   52.7736   29.2764 F   0  0  0  0  0  0
    2.5108   54.1996   29.5295 C   0  0  0  0  0  0
    1.8672   53.6976   30.4815 O   0  0  0  0  0  0
    3.1042   55.2964   29.6171 O   0  5  0  0  0  0
    2.3044   51.6947   28.4816 S   0  0  0  0  0  0
    0.6283   51.4244   28.0097 C   0  0  0  0  0  0
    0.2616   50.9097   26.8599 N   0  0  0  0  0  0
   -1.1302   50.9437   26.8132 N   0  0  0  0  0  0
   -1.5293   51.4063   27.9707 C   0  0  0  0  0  0
   -0.4699   51.6973   28.7898 N   0  0  0  0  0  0
   -0.5038   52.1821   30.0792 N   0  0  0  0  0  0
    1.4558   55.2097   27.2861 H   0  0  0  0  0  0
    1.1064   53.6865   26.4501 H   0  0  0  0  0  0
    0.3802   54.0659   27.9884 H   0  0  0  0  0  0
    7.2312   53.4533   28.0923 H   0  0  0  0  0  0
    7.3966   54.4869   25.8461 H   0  0  0  0  0  0
    5.3378   54.9420   24.5644 H   0  0  0  0  0  0
   -2.5437   51.5297   28.3170 H   0  0  0  0  0  0
   -0.4072   51.4350   30.7516 H   0  0  0  0  0  0
    0.2148   52.8918   30.2151 H   0  0  0  0  0  0
  1  2  1  0  0  0
  1 21  1  0  0  0
  1 22  1  0  0  0
  1 23  1  0  0  0
  2  3  1  0  0  0
  2 11  1  0  0  0
  2 14  1  0  0  0
  3  8  2  0  0  0
  3  4  1  0  0  0
  4  5  2  0  0  0
  4 10  1  0  0  0
  5  6  1  0  0  0
  5 24  1  0  0  0
  6  7  2  0  0  0
  6 25  1  0  0  0
  7  8  1  0  0  0
  7 26  1  0  0  0
  8  9  1  0  0  0
 11 12  2  0  0  0
 11 13  1  0  0  0
 14 15  1  0  0  0
 15 19  1  0  0  0
 15 16  2  0  0  0
 16 17  1  0  0  0
 17 18  2  0  0  0
 18 19  1  0  0  0
 18 27  1  0  0  0
 19 20  1  0  0  0
 20 28  1  0  0  0
 20 29  1  0  0  0
M  CHG  1  13  -1
M  END
> <i_i_glide_confnum>
13

> <i_i_glide_lignum>
1644

> <i_i_glide_posenum>
235

> <i_i_glide_rotatable_bonds>
4

> <i_m_Source_File_Index>
681

> <b_m_subgroup_collapsed>
0

> <r_i_docking_score>
-5.35266

> <r_i_glide_ecoul>
-1.35285

> <r_i_glide_eff_state_penalty>
0

> <r_i_glide_einternal>
5.56689

> <r_i_glide_emodel>
-35.7692

> <r_i_glide_energy>
-27.0426

> <r_i_glide_erotb>
0.615089

> <r_i_glide_esite>
-0.345158

> <r_i_glide_evdw>
-25.6898

> <r_i_glide_gscore>
-5.35266

> <r_i_glide_hbond>
-0.159813

> <r_i_glide_ligand_efficiency>
-0.267633

> <r_i_glide_ligand_efficiency_ln>
-1.33959

> <r_i_glide_ligand_efficiency_sa>
-0.726467

> <r_i_glide_lipo>
-2.16103

> <r_i_glide_metal>
0

> <r_i_glide_rewards>
-1.81433

> <s_i_glide_gridfile>
wee1_glide-grid

> <s_m_Source_File>
wee1_decoys_glide_SP.sdf

> <s_m_Source_Path>
/Users/zhangxujun/Desktop

> <s_m_entry_id>
956

> <s_m_entry_name>
wee1_decoys_glide_SP.681

> <s_m_subgroup_title>
wee1_decoys_glide_SP

> <s_m_subgroupid>
wee1_decoys_glide_SP


$$$$
