ZINC13192111_1986
                    3D
 Schrodinger Suite 2024-2.
 60 62  0  0  1  0            999 V2000
    6.5086   54.6497   26.8672 C   0  0  0  0  0  0
    5.7070   54.4989   25.5842 C   0  0  0  0  0  0
    6.3303   54.6603   24.3477 C   0  0  0  0  0  0
    5.6185   54.4907   23.1556 C   0  0  0  0  0  0
    4.2623   54.0969   23.2043 C   0  0  0  0  0  0
    3.6148   54.0034   24.4524 C   0  0  0  0  0  0
    4.3466   54.1921   25.6299 C   0  0  0  0  0  0
    2.1279   53.6829   24.5579 C   0  0  0  0  0  0
    3.5063   53.8444   22.0438 N   0  0  0  0  0  0
    3.6945   52.8130   21.1909 C   0  0  0  0  0  0
    4.6279   52.0092   21.2824 O   0  0  0  0  0  0
    2.6413   52.6716   20.0667 C   0  0  0  0  0  0
    2.2519   51.3029   19.8140 N   0  0  0  0  0  0
    1.3117   50.7055   20.6711 C   0  0  0  0  0  0
    1.8607   49.8150   21.5967 C   0  0  0  0  0  0
    1.0714   49.2395   22.5813 C   0  0  0  0  0  0
   -0.2837   49.5280   22.6521 C   0  0  0  0  0  0
   -0.8537   50.3836   21.7155 C   0  0  0  0  0  0
   -0.0879   50.9741   20.6932 C   0  0  0  0  0  0
   -0.8126   51.8401   19.6950 C   0  0  0  0  0  0
   -2.0202   52.1035   19.9253 O   0  0  0  0  0  0
   -1.2713   48.8425   23.9710 S   0  0  0  0  0  0
   -2.6763   48.9735   23.5634 O   0  0  0  0  0  0
   -0.7098   47.5266   24.3031 O   0  0  0  0  0  0
   -0.9563   49.9539   25.3141 N   0  0  0  0  0  0
    0.2206   49.6370   26.1617 C   0  0  0  0  0  0
    0.6545   50.8756   26.9769 C   0  0  0  0  0  0
   -0.5229   51.5260   27.7371 C   0  0  0  0  0  0
   -1.7658   51.7294   26.8429 C   0  0  0  0  0  0
   -2.1362   50.4505   26.0623 C   0  0  0  0  0  0
    6.3436   54.8126   21.8546 C   0  0  0  0  0  0
    6.7059   55.6989   27.0764 H   0  0  0  0  0  0
    7.4695   54.1399   26.7817 H   0  0  0  0  0  0
    5.9921   54.2116   27.7214 H   0  0  0  0  0  0
    7.3745   54.9359   24.3120 H   0  0  0  0  0  0
    3.8572   54.0872   26.5882 H   0  0  0  0  0  0
    1.9274   52.6820   24.1737 H   0  0  0  0  0  0
    1.7651   53.7484   25.5834 H   0  0  0  0  0  0
    1.5449   54.3844   23.9593 H   0  0  0  0  0  0
    2.6861   54.4159   21.9007 H   0  0  0  0  0  0
    1.7822   53.2922   20.3116 H   0  0  0  0  0  0
    3.0914   53.1170   19.1789 H   0  0  0  0  0  0
    3.0400   50.7138   19.5740 H   0  0  0  0  0  0
    2.9175   49.5853   21.5793 H   0  0  0  0  0  0
    1.5046   48.5415   23.2814 H   0  0  0  0  0  0
   -1.9156   50.5792   21.7869 H   0  0  0  0  0  0
   -0.0902   48.8814   26.8815 H   0  0  0  0  0  0
    1.0402   49.2673   25.5458 H   0  0  0  0  0  0
    1.4451   50.5980   27.6799 H   0  0  0  0  0  0
    1.0993   51.6046   26.3004 H   0  0  0  0  0  0
   -0.2122   52.4788   28.1659 H   0  0  0  0  0  0
   -0.7937   50.8963   28.5827 H   0  0  0  0  0  0
   -1.5860   52.5415   26.1372 H   0  0  0  0  0  0
   -2.6128   52.0433   27.4532 H   0  0  0  0  0  0
   -2.9628   50.6477   25.3796 H   0  0  0  0  0  0
   -2.4109   49.6979   26.8037 H   0  0  0  0  0  0
    5.9374   54.2924   20.9899 H   0  0  0  0  0  0
    6.3009   55.8838   21.6586 H   0  0  0  0  0  0
    7.3929   54.5313   21.9269 H   0  0  0  0  0  0
   -0.2074   52.2649   18.6875 O   0  5  0  0  0  0
  1  2  1  0  0  0
  1 32  1  0  0  0
  1 33  1  0  0  0
  1 34  1  0  0  0
  2  7  2  0  0  0
  2  3  1  0  0  0
  3  4  2  0  0  0
  3 35  1  0  0  0
  4  5  1  0  0  0
  4 31  1  0  0  0
  5  6  2  0  0  0
  5  9  1  0  0  0
  6  7  1  0  0  0
  6  8  1  0  0  0
  7 36  1  0  0  0
  8 37  1  0  0  0
  8 38  1  0  0  0
  8 39  1  0  0  0
  9 10  1  0  0  0
  9 40  1  0  0  0
 10 11  2  0  0  0
 10 12  1  0  0  0
 12 13  1  0  0  0
 12 41  1  0  0  0
 12 42  1  0  0  0
 13 14  1  0  0  0
 13 43  1  0  0  0
 14 19  2  0  0  0
 14 15  1  0  0  0
 15 16  2  0  0  0
 15 44  1  0  0  0
 16 17  1  0  0  0
 16 45  1  0  0  0
 17 18  2  0  0  0
 17 22  1  0  0  0
 18 19  1  0  0  0
 18 46  1  0  0  0
 19 20  1  0  0  0
 20 21  2  0  0  0
 20 60  1  0  0  0
 22 23  2  0  0  0
 22 24  2  0  0  0
 22 25  1  0  0  0
 25 30  1  0  0  0
 25 26  1  0  0  0
 26 27  1  0  0  0
 26 47  1  0  0  0
 26 48  1  0  0  0
 27 28  1  0  0  0
 27 49  1  0  0  0
 27 50  1  0  0  0
 28 29  1  0  0  0
 28 51  1  0  0  0
 28 52  1  0  0  0
 29 30  1  0  0  0
 29 53  1  0  0  0
 29 54  1  0  0  0
 30 55  1  0  0  0
 30 56  1  0  0  0
 31 57  1  0  0  0
 31 58  1  0  0  0
 31 59  1  0  0  0
M  CHG  1  60  -1
M  END
> <i_i_glide_confnum>
133

> <i_i_glide_lignum>
1987

> <i_i_glide_posenum>
149

> <i_i_glide_rotatable_bonds>
8

> <i_m_Source_File_Index>
5978

> <b_m_subgroup_collapsed>
0

> <r_i_docking_score>
-5.39716

> <r_i_glide_ecoul>
-6.88743

> <r_i_glide_eff_state_penalty>
0

> <r_i_glide_einternal>
8.96856

> <r_i_glide_emodel>
-58.3666

> <r_i_glide_energy>
-45.5764

> <r_i_glide_erotb>
0.669596

> <r_i_glide_esite>
-0.173603

> <r_i_glide_evdw>
-38.689

> <r_i_glide_gscore>
-5.39716

> <r_i_glide_hbond>
-0.217636

> <r_i_glide_ligand_efficiency>
-0.168661

> <r_i_glide_ligand_efficiency_ln>
-1.20857

> <r_i_glide_ligand_efficiency_sa>
-0.535466

> <r_i_glide_lipo>
-2.50407

> <r_i_glide_metal>
0

> <r_i_glide_rewards>
-0.203883

> <s_i_glide_gridfile>
wee1_glide-grid

> <s_m_Source_File>
wee1_decoys_glide_SP.sdf

> <s_m_Source_Path>
/Users/zhangxujun/Desktop

> <s_m_entry_id>
6253

> <s_m_entry_name>
wee1_decoys_glide_SP.5978

> <s_m_subgroup_title>
wee1_decoys_glide_SP

> <s_m_subgroupid>
wee1_decoys_glide_SP


$$$$
