ZINC39695933_403
                    3D
 Schrodinger Suite 2024-2.
 72 75  0  0  1  0            999 V2000
    1.0656   52.8915   27.0058 C   0  0  0  0  0  0
    1.1241   52.7736   25.4711 C   0  0  0  0  0  0
    2.3909   53.2982   24.7932 C   0  0  0  0  0  0
    2.4447   53.2878   23.4001 C   0  0  0  0  0  0
    3.5899   53.7165   22.7364 C   0  0  0  0  0  0
    4.7107   54.1700   23.4484 C   0  0  0  0  0  0
    4.6426   54.1880   24.8493 C   0  0  0  0  0  0
    3.4960   53.7611   25.5159 C   0  0  0  0  0  0
    5.9622   54.6884   22.6994 C   0  0  2  0  0  0
    6.5486   53.7921   22.4881 H   0  0  0  0  0  0
    6.8646   55.6171   23.5556 C   0  0  0  0  0  0
    5.6239   55.2563   21.3827 N   0  0  0  0  0  0
    6.4533   55.6406   20.3999 C   0  0  0  0  0  0
    7.6768   55.6582   20.5238 O   0  0  0  0  0  0
    5.7745   56.1328   19.0924 C   0  0  1  0  0  0
    4.7066   56.2258   19.2733 H   0  0  0  0  0  0
    6.3521   57.4790   18.6192 C   0  0  0  0  0  0
    7.4702   57.0834   17.7577 N   0  0  0  0  0  0
    7.3892   55.6708   17.3525 C   0  0  0  0  0  0
    6.0295   55.1661   17.8907 C   0  0  0  0  0  0
    4.9931   55.3524   16.7379 C   0  0  0  0  0  0
    3.5619   54.9194   17.1346 C   0  0  0  0  0  0
    3.5963   53.4450   17.6048 N   0  3  0  0  0  0
    4.6583   53.1667   18.6877 C   0  0  0  0  0  0
    6.0271   53.6306   18.1496 C   0  0  0  0  0  0
    8.5523   57.8805   17.5917 C   0  0  0  0  0  0
    8.6421   59.0092   18.0833 O   0  0  0  0  0  0
    9.7452   57.3485   16.7576 C   0  0  2  0  0  0
    9.3883   56.6848   15.9706 H   0  0  0  0  0  0
   10.7630   56.6131   17.6402 C   0  0  0  0  0  0
   11.7347   57.6961   18.0806 C   0  0  0  0  0  0
   11.8355   58.5809   16.8425 C   0  0  0  0  0  0
   10.5494   58.4284   16.1547 N   0  0  0  0  0  0
   10.1159   59.1620   15.0995 C   0  0  0  0  0  0
    9.0271   58.9317   14.5644 O   0  0  0  0  0  0
   10.9974   60.3105   14.5589 C   0  0  0  0  0  0
   11.1036   61.2695   15.4819 F   0  0  0  0  0  0
   10.4578   60.8405   13.4566 F   0  0  0  0  0  0
   12.2138   59.8553   14.2561 F   0  0  0  0  0  0
    0.1165   52.5149   27.3867 H   0  0  0  0  0  0
    1.8564   52.3084   27.4803 H   0  0  0  0  0  0
    1.1617   53.9275   27.3327 H   0  0  0  0  0  0
    0.2684   53.2962   25.0420 H   0  0  0  0  0  0
    1.0058   51.7242   25.1955 H   0  0  0  0  0  0
    1.5999   52.9369   22.8250 H   0  0  0  0  0  0
    3.5890   53.6819   21.6599 H   0  0  0  0  0  0
    5.4741   54.5258   25.4486 H   0  0  0  0  0  0
    3.4913   53.7787   26.5951 H   0  0  0  0  0  0
    7.3713   55.0501   24.3373 H   0  0  0  0  0  0
    7.6480   56.0966   22.9712 H   0  0  0  0  0  0
    6.3052   56.4127   24.0458 H   0  0  0  0  0  0
    4.6353   55.2985   21.1941 H   0  0  0  0  0  0
    6.6205   58.1093   19.4693 H   0  0  0  0  0  0
    5.5805   57.9792   18.0318 H   0  0  0  0  0  0
    7.5519   55.4533   16.2964 H   0  0  0  0  0  0
    8.1695   55.1378   17.8991 H   0  0  0  0  0  0
    4.9603   56.3974   16.4248 H   0  0  0  0  0  0
    5.3093   54.8137   15.8424 H   0  0  0  0  0  0
    3.1313   55.4977   17.9526 H   0  0  0  0  0  0
    2.8727   54.9553   16.2898 H   0  0  0  0  0  0
    2.6833   53.1684   17.9455 H   0  0  0  0  0  0
    4.3350   53.7077   19.5727 H   0  0  0  0  0  0
    4.6139   52.0968   18.8956 H   0  0  0  0  0  0
    6.2977   53.0683   17.2533 H   0  0  0  0  0  0
    6.7913   53.3666   18.8805 H   0  0  0  0  0  0
   11.2898   55.8636   17.0478 H   0  0  0  0  0  0
   10.3047   56.0922   18.4814 H   0  0  0  0  0  0
   12.6929   57.3066   18.4274 H   0  0  0  0  0  0
   11.2924   58.2602   18.9033 H   0  0  0  0  0  0
   12.6309   58.2173   16.1909 H   0  0  0  0  0  0
   12.0581   59.6123   17.1148 H   0  0  0  0  0  0
    3.7956   52.8406   16.8166 H   0  0  0  0  0  0
  1  2  1  0  0  0
  1 40  1  0  0  0
  1 41  1  0  0  0
  1 42  1  0  0  0
  2  3  1  0  0  0
  2 43  1  0  0  0
  2 44  1  0  0  0
  3  8  2  0  0  0
  3  4  1  0  0  0
  4  5  2  0  0  0
  4 45  1  0  0  0
  5  6  1  0  0  0
  5 46  1  0  0  0
  6  7  2  0  0  0
  6  9  1  0  0  0
  7  8  1  0  0  0
  7 47  1  0  0  0
  8 48  1  0  0  0
  9 10  1  0  0  0
  9 11  1  0  0  0
  9 12  1  0  0  0
 11 49  1  0  0  0
 11 50  1  0  0  0
 11 51  1  0  0  0
 12 13  1  0  0  0
 12 52  1  0  0  0
 13 14  2  0  0  0
 13 15  1  0  0  0
 15 16  1  0  0  0
 15 20  1  0  0  0
 15 17  1  0  0  0
 17 18  1  0  0  0
 17 53  1  0  0  0
 17 54  1  0  0  0
 18 19  1  0  0  0
 18 26  1  0  0  0
 19 20  1  0  0  0
 19 55  1  0  0  0
 19 56  1  0  0  0
 20 25  1  0  0  0
 20 21  1  0  0  0
 21 22  1  0  0  0
 21 57  1  0  0  0
 21 58  1  0  0  0
 22 23  1  0  0  0
 22 59  1  0  0  0
 22 60  1  0  0  0
 23 24  1  0  0  0
 23 61  1  0  0  0
 23 72  1  0  0  0
 24 25  1  0  0  0
 24 62  1  0  0  0
 24 63  1  0  0  0
 25 64  1  0  0  0
 25 65  1  0  0  0
 26 27  2  0  0  0
 26 28  1  0  0  0
 28 29  1  0  0  0
 28 33  1  0  0  0
 28 30  1  0  0  0
 30 31  1  0  0  0
 30 66  1  0  0  0
 30 67  1  0  0  0
 31 32  1  0  0  0
 31 68  1  0  0  0
 31 69  1  0  0  0
 32 33  1  0  0  0
 32 70  1  0  0  0
 32 71  1  0  0  0
 33 34  1  0  0  0
 34 35  2  0  0  0
 34 36  1  0  0  0
 36 37  1  0  0  0
 36 38  1  0  0  0
 36 39  1  0  0  0
M  CHG  1  23   1
M  END
> <i_i_glide_confnum>
482

> <i_i_glide_lignum>
404

> <i_i_glide_posenum>
343

> <i_i_glide_rotatable_bonds>
9

> <i_m_Source_File_Index>
5830

> <b_m_subgroup_collapsed>
0

> <r_i_docking_score>
-3.42484

> <r_i_glide_ecoul>
-2.7774

> <r_i_glide_eff_state_penalty>
0

> <r_i_glide_einternal>
7.02788

> <r_i_glide_emodel>
-38.8114

> <r_i_glide_energy>
-31.6481

> <r_i_glide_erotb>
0.552096

> <r_i_glide_esite>
-0.0300122

> <r_i_glide_evdw>
-28.8707

> <r_i_glide_gscore>
-3.42484

> <r_i_glide_hbond>
0

> <r_i_glide_ligand_efficiency>
-0.0951343

> <r_i_glide_ligand_efficiency_ln>
-0.747207

> <r_i_glide_ligand_efficiency_sa>
-0.314127

> <r_i_glide_lipo>
-1.85636

> <r_i_glide_metal>
0

> <r_i_glide_rewards>
-0.230416

> <s_i_glide_gridfile>
wee1_glide-grid

> <s_m_Source_File>
wee1_decoys_glide_SP.sdf

> <s_m_Source_Path>
/Users/zhangxujun/Desktop

> <s_m_entry_id>
6105

> <s_m_entry_name>
wee1_decoys_glide_SP.5830

> <s_m_subgroup_title>
wee1_decoys_glide_SP

> <s_m_subgroupid>
wee1_decoys_glide_SP


$$$$
