ZINC12659586_5135
                    3D
 Schrodinger Suite 2024-2.
 64 69  0  0  1  0            999 V2000
   -2.3940   49.9528   24.5532 C   0  0  0  0  0  0
   -2.3755   50.7986   25.6939 O   0  0  0  0  0  0
   -1.1975   51.4267   26.0438 C   0  0  0  0  0  0
   -1.1891   52.0960   27.2635 C   0  0  0  0  0  0
   -0.0455   52.7554   27.7050 C   0  0  0  0  0  0
    1.1159   52.7679   26.9253 C   0  0  0  0  0  0
    1.1044   52.0933   25.7023 C   0  0  0  0  0  0
   -0.0368   51.4317   25.2582 C   0  0  0  0  0  0
    2.3348   53.4574   27.4758 C   0  0  0  0  0  0
    2.6580   53.6514   28.8198 C   0  0  0  0  0  0
    3.8113   54.2588   28.9728 N   0  0  0  0  0  0
    4.3090   54.4972   27.7125 N   0  0  0  0  0  0
    3.4194   54.0374   26.8115 N   0  0  0  0  0  0
    3.7207   54.1827   25.4263 C   0  0  0  0  0  0
    2.7082   54.3964   24.4815 C   0  0  0  0  0  0
    2.9999   54.4063   23.1214 C   0  0  0  0  0  0
    4.3128   54.2303   22.6866 C   0  0  0  0  0  0
    5.3442   54.0953   23.6242 C   0  0  0  0  0  0
    5.0507   54.0924   24.9856 C   0  0  0  0  0  0
    4.5203   54.1347   21.2978 N   0  0  0  0  0  0
    5.4688   54.6696   20.4692 C   0  0  0  0  0  0
    6.7047   55.6987   20.9821 S   0  0  0  0  0  0
    5.2322   54.2784   19.1740 N   0  0  0  0  0  0
    5.9539   54.3885   18.0287 C   0  0  0  0  0  0
    7.1473   54.6956   17.9899 O   0  0  0  0  0  0
    5.2185   54.0858   16.6847 C   0  0  0  0  0  0
    5.1625   55.4019   15.8425 C   0  0  0  0  0  0
    4.4891   55.1243   14.4706 C   0  0  1  0  0  0
    5.3062   54.0525   13.7031 C   0  0  0  0  0  0
    5.3489   52.7364   14.5233 C   0  0  1  0  0  0
    6.0265   53.0108   15.8926 C   0  0  0  0  0  0
    3.9035   52.2244   14.7518 C   0  0  0  0  0  0
    3.0847   53.2910   15.5204 C   0  0  2  0  0  0
    3.0469   54.6057   14.6996 C   0  0  0  0  0  0
    3.7549   53.5594   16.8926 C   0  0  0  0  0  0
   -3.3738   49.4813   24.4698 H   0  0  0  0  0  0
   -2.2154   50.5134   23.6352 H   0  0  0  0  0  0
   -1.6531   49.1579   24.6376 H   0  0  0  0  0  0
   -2.0759   52.0792   27.8801 H   0  0  0  0  0  0
   -0.0746   53.2537   28.6619 H   0  0  0  0  0  0
    1.9889   52.0513   25.0904 H   0  0  0  0  0  0
    0.0049   50.9149   24.3116 H   0  0  0  0  0  0
    2.0729   53.3371   29.6706 H   0  0  0  0  0  0
    1.6791   54.4964   24.7907 H   0  0  0  0  0  0
    2.1960   54.5108   22.4077 H   0  0  0  0  0  0
    6.3670   53.9427   23.3118 H   0  0  0  0  0  0
    5.8560   53.9376   25.6895 H   0  0  0  0  0  0
    3.7641   53.6607   20.8264 H   0  0  0  0  0  0
    4.3000   53.9339   19.0123 H   0  0  0  0  0  0
    6.1645   55.8038   15.6769 H   0  0  0  0  0  0
    4.6095   56.1772   16.3752 H   0  0  0  0  0  0
    4.4626   56.0464   13.8887 H   0  0  0  0  0  0
    6.3175   54.4141   13.5124 H   0  0  0  0  0  0
    4.8626   53.8706   12.7241 H   0  0  0  0  0  0
    5.9197   51.9855   13.9772 H   0  0  0  0  0  0
    6.0920   52.0907   16.4711 H   0  0  0  0  0  0
    7.0557   53.3361   15.7284 H   0  0  0  0  0  0
    3.9172   51.2899   15.3114 H   0  0  0  0  0  0
    3.4272   51.9922   13.7986 H   0  0  0  0  0  0
    2.0679   52.9278   15.6758 H   0  0  0  0  0  0
    2.5527   54.4360   13.7435 H   0  0  0  0  0  0
    2.4535   55.3577   15.2179 H   0  0  0  0  0  0
    3.1539   54.2832   17.4472 H   0  0  0  0  0  0
    3.7543   52.6383   17.4810 H   0  0  0  0  0  0
  1  2  1  0  0  0
  1 36  1  0  0  0
  1 37  1  0  0  0
  1 38  1  0  0  0
  2  3  1  0  0  0
  3  8  2  0  0  0
  3  4  1  0  0  0
  4  5  2  0  0  0
  4 39  1  0  0  0
  5  6  1  0  0  0
  5 40  1  0  0  0
  6  7  2  0  0  0
  6  9  1  0  0  0
  7  8  1  0  0  0
  7 41  1  0  0  0
  8 42  1  0  0  0
  9 13  1  0  0  0
  9 10  2  0  0  0
 10 11  1  0  0  0
 10 43  1  0  0  0
 11 12  2  0  0  0
 12 13  1  0  0  0
 13 14  1  0  0  0
 14 19  2  0  0  0
 14 15  1  0  0  0
 15 16  2  0  0  0
 15 44  1  0  0  0
 16 17  1  0  0  0
 16 45  1  0  0  0
 17 18  2  0  0  0
 17 20  1  0  0  0
 18 19  1  0  0  0
 18 46  1  0  0  0
 19 47  1  0  0  0
 20 21  1  0  0  0
 20 48  1  0  0  0
 21 22  2  0  0  0
 21 23  1  0  0  0
 23 24  1  0  0  0
 23 49  1  0  0  0
 24 25  2  0  0  0
 24 26  1  0  0  0
 26 31  1  0  0  0
 26 35  1  0  0  0
 26 27  1  0  0  0
 27 28  1  0  0  0
 27 50  1  0  0  0
 27 51  1  0  0  0
 28 34  1  0  0  0
 28 29  1  0  0  0
 28 52  1  0  0  0
 29 30  1  0  0  0
 29 53  1  0  0  0
 29 54  1  0  0  0
 30 31  1  0  0  0
 30 32  1  0  0  0
 30 55  1  0  0  0
 31 56  1  0  0  0
 31 57  1  0  0  0
 32 33  1  0  0  0
 32 58  1  0  0  0
 32 59  1  0  0  0
 33 34  1  0  0  0
 33 35  1  0  0  0
 33 60  1  0  0  0
 34 61  1  0  0  0
 34 62  1  0  0  0
 35 63  1  0  0  0
 35 64  1  0  0  0
M  END
> <i_i_glide_confnum>
67

> <i_i_glide_lignum>
5136

> <i_i_glide_posenum>
73

> <i_i_glide_rotatable_bonds>
8

> <i_m_Source_File_Index>
5060

> <b_m_subgroup_collapsed>
0

> <r_i_docking_score>
-4.20032

> <r_i_glide_ecoul>
-2.44437

> <r_i_glide_eff_state_penalty>
0

> <r_i_glide_einternal>
2.84716

> <r_i_glide_emodel>
-50.9066

> <r_i_glide_energy>
-40.9426

> <r_i_glide_erotb>
0.513031

> <r_i_glide_esite>
-0.0191273

> <r_i_glide_evdw>
-38.4982

> <r_i_glide_gscore>
-4.20032

> <r_i_glide_hbond>
0

> <r_i_glide_ligand_efficiency>
-0.120009

> <r_i_glide_ligand_efficiency_ln>
-0.922064

> <r_i_glide_ligand_efficiency_sa>
-0.392558

> <r_i_glide_lipo>
-1.83473

> <r_i_glide_metal>
0

> <r_i_glide_rewards>
-0.567937

> <s_i_glide_gridfile>
wee1_glide-grid

> <s_m_Source_File>
wee1_decoys_glide_SP.sdf

> <s_m_Source_Path>
/Users/zhangxujun/Desktop

> <s_m_entry_id>
5335

> <s_m_entry_name>
wee1_decoys_glide_SP.5060

> <s_m_subgroup_title>
wee1_decoys_glide_SP

> <s_m_subgroupid>
wee1_decoys_glide_SP


$$$$
