ZINC13363058_523
                    3D
 Schrodinger Suite 2024-2.
 56 59  0  0  1  0            999 V2000
    0.3885   48.9365   25.3408 C   0  0  0  0  0  0
    0.7045   50.0864   24.4036 C   0  0  0  0  0  0
    1.2393   50.0685   23.1284 C   0  0  0  0  0  0
    1.4170   51.3717   22.6594 C   0  0  0  0  0  0
    0.9003   52.2008   23.6630 C   0  0  0  0  0  0
    0.5077   51.4111   24.7375 N   0  0  0  0  0  0
   -0.0012   51.8906   26.0326 C   0  0  0  0  0  0
    1.1523   52.1332   27.0374 C   0  0  2  0  0  0
    1.6289   51.1813   27.2804 H   0  0  0  0  0  0
    0.7014   52.7626   28.3830 C   0  0  0  0  0  0
    1.8284   52.8959   29.2655 O   0  0  0  0  0  0
    2.9407   53.4501   28.6614 C   0  0  0  0  0  0
    3.9522   53.9576   29.4695 C   0  0  0  0  0  0
    5.1056   54.4925   28.8869 C   0  0  0  0  0  0
    5.2652   54.4967   27.5039 C   0  0  0  0  0  0
    4.2573   53.9829   26.6955 C   0  0  0  0  0  0
    3.1058   53.4499   27.2698 C   0  0  0  0  0  0
    2.1267   52.9852   26.4222 O   0  0  0  0  0  0
    0.7554   53.7149   23.6818 C   0  0  0  0  0  0
    2.0053   51.7557   21.3824 C   0  0  0  0  0  0
    3.0277   52.6231   21.1959 C   0  0  0  0  0  0
    3.6665   53.2460   22.3104 C   0  0  0  0  0  0
    4.2095   53.7216   23.2086 N   0  0  0  0  0  0
    3.5115   52.9457   19.8584 C   0  0  0  0  0  0
    2.9634   52.5001   18.8477 O   0  0  0  0  0  0
    4.5715   53.7946   19.8397 N   0  0  0  0  0  0
    5.3010   54.3641   18.7693 C   0  0  0  0  0  0
    5.2350   53.8379   17.4678 C   0  0  0  0  0  0
    5.9273   54.4335   16.4175 C   0  0  0  0  0  0
    6.6956   55.5675   16.6482 C   0  0  0  0  0  0
    6.7913   56.0928   17.9324 C   0  0  0  0  0  0
    6.1228   55.5027   19.0185 C   0  0  0  0  0  0
    6.3270   56.0987   20.3911 C   0  0  0  0  0  0
    6.7044   57.2938   20.4813 O   0  0  0  0  0  0
    0.6786   47.9789   24.9076 H   0  0  0  0  0  0
    0.9213   49.0189   26.2866 H   0  0  0  0  0  0
   -0.6748   48.8741   25.5759 H   0  0  0  0  0  0
    1.5240   49.1746   22.5926 H   0  0  0  0  0  0
   -0.5734   52.8039   25.8675 H   0  0  0  0  0  0
   -0.7068   51.1591   26.4287 H   0  0  0  0  0  0
    0.2669   53.7473   28.1997 H   0  0  0  0  0  0
   -0.0522   52.1411   28.8668 H   0  0  0  0  0  0
    3.8593   53.9277   30.5405 H   0  0  0  0  0  0
    5.8881   54.8966   29.5130 H   0  0  0  0  0  0
    6.1598   54.9083   27.0629 H   0  0  0  0  0  0
    4.3764   53.9920   25.6276 H   0  0  0  0  0  0
    1.1044   54.1720   22.7550 H   0  0  0  0  0  0
   -0.2823   54.0218   23.8163 H   0  0  0  0  0  0
    1.3346   54.1880   24.4725 H   0  0  0  0  0  0
    1.5491   51.2578   20.5373 H   0  0  0  0  0  0
    4.8929   54.1564   20.7352 H   0  0  0  0  0  0
    4.6674   52.9478   17.2448 H   0  0  0  0  0  0
    5.8676   54.0105   15.4259 H   0  0  0  0  0  0
    7.2296   56.0333   15.8325 H   0  0  0  0  0  0
    7.4117   56.9667   18.0813 H   0  0  0  0  0  0
    6.1417   55.3590   21.3827 O   0  5  0  0  0  0
  1  2  1  0  0  0
  1 35  1  0  0  0
  1 36  1  0  0  0
  1 37  1  0  0  0
  2  6  1  0  0  0
  2  3  2  0  0  0
  3  4  1  0  0  0
  3 38  1  0  0  0
  4  5  2  0  0  0
  4 20  1  0  0  0
  5  6  1  0  0  0
  5 19  1  0  0  0
  6  7  1  0  0  0
  7  8  1  0  0  0
  7 39  1  0  0  0
  7 40  1  0  0  0
  8  9  1  0  0  0
  8 18  1  0  0  0
  8 10  1  0  0  0
 10 11  1  0  0  0
 10 41  1  0  0  0
 10 42  1  0  0  0
 11 12  1  0  0  0
 12 17  2  0  0  0
 12 13  1  0  0  0
 13 14  2  0  0  0
 13 43  1  0  0  0
 14 15  1  0  0  0
 14 44  1  0  0  0
 15 16  2  0  0  0
 15 45  1  0  0  0
 16 17  1  0  0  0
 16 46  1  0  0  0
 17 18  1  0  0  0
 19 47  1  0  0  0
 19 48  1  0  0  0
 19 49  1  0  0  0
 20 21  2  0  0  0
 20 50  1  0  0  0
 21 22  1  0  0  0
 21 24  1  0  0  0
 22 23  3  0  0  0
 24 25  2  0  0  0
 24 26  1  0  0  0
 26 27  1  0  0  0
 26 51  1  0  0  0
 27 32  2  0  0  0
 27 28  1  0  0  0
 28 29  2  0  0  0
 28 52  1  0  0  0
 29 30  1  0  0  0
 29 53  1  0  0  0
 30 31  2  0  0  0
 30 54  1  0  0  0
 31 32  1  0  0  0
 31 55  1  0  0  0
 32 33  1  0  0  0
 33 34  2  0  0  0
 33 56  1  0  0  0
M  CHG  1  56  -1
M  END
> <i_i_glide_confnum>
106

> <i_i_glide_lignum>
524

> <i_i_glide_posenum>
363

> <i_i_glide_rotatable_bonds>
8

> <i_m_Source_File_Index>
4774

> <b_m_subgroup_collapsed>
0

> <r_i_docking_score>
-4.77659

> <r_i_glide_ecoul>
-4.15501

> <r_i_glide_eff_state_penalty>
0

> <r_i_glide_einternal>
5.70298

> <r_i_glide_emodel>
-58.7489

> <r_i_glide_energy>
-45.2225

> <r_i_glide_erotb>
0.675165

> <r_i_glide_esite>
0

> <r_i_glide_evdw>
-41.0675

> <r_i_glide_gscore>
-4.77659

> <r_i_glide_hbond>
-0.16

> <r_i_glide_ligand_efficiency>
-0.140488

> <r_i_glide_ligand_efficiency_ln>
-1.05528

> <r_i_glide_ligand_efficiency_sa>
-0.455126

> <r_i_glide_lipo>
-1.94787

> <r_i_glide_metal>
0

> <r_i_glide_rewards>
-0.667256

> <s_i_glide_gridfile>
wee1_glide-grid

> <s_m_Source_File>
wee1_decoys_glide_SP.sdf

> <s_m_Source_Path>
/Users/zhangxujun/Desktop

> <s_m_entry_id>
5049

> <s_m_entry_name>
wee1_decoys_glide_SP.4774

> <s_m_subgroup_title>
wee1_decoys_glide_SP

> <s_m_subgroupid>
wee1_decoys_glide_SP


$$$$
