ZINC13985481_3117
                    3D
 Schrodinger Suite 2024-2.
 50 51  0  0  1  0            999 V2000
    4.6993   54.5550   29.3736 C   0  0  0  0  0  0
    4.6726   54.3906   27.8648 C   0  0  0  0  0  0
    5.8724   54.4177   27.1510 C   0  0  0  0  0  0
    5.8691   54.2936   25.7634 C   0  0  0  0  0  0
    4.6600   54.1429   25.0595 C   0  0  0  0  0  0
    3.4668   54.0985   25.7924 C   0  0  0  0  0  0
    3.4638   54.2308   27.1793 C   0  0  0  0  0  0
    1.6133   54.1998   28.1721 I   0  0  0  0  0  0
    4.6058   54.0262   23.5524 C   0  0  0  0  0  0
    3.5914   53.5738   23.0148 O   0  0  0  0  0  0
    5.6977   54.4975   22.8931 N   0  0  0  0  0  0
    5.9711   54.6909   21.5605 C   0  0  0  0  0  0
    5.0886   54.0679   20.2608 S   0  0  0  0  0  0
    7.0906   55.4711   21.4167 N   0  0  0  0  0  0
    7.7382   55.6820   20.1960 N   0  0  0  0  0  0
    7.4811   56.7802   19.4508 C   0  0  0  0  0  0
    6.7069   57.6747   19.8043 O   0  0  0  0  0  0
    8.2438   56.9414   18.1147 C   0  0  0  0  0  0
    9.0386   55.7627   17.7255 N   0  0  0  0  0  0
    8.5081   54.6362   17.2082 C   0  0  0  0  0  0
    7.2957   54.5054   17.0518 O   0  0  0  0  0  0
    9.4745   53.4601   16.9254 C   0  0  0  0  0  0
    8.7212   52.1412   16.5968 C   0  0  0  0  0  0
    9.7323   51.0007   16.3506 C   0  0  0  0  0  0
   10.7776   51.3657   15.2765 C   0  0  0  0  0  0
   11.4927   52.6965   15.5942 C   0  0  0  0  0  0
   10.5027   53.8580   15.8347 C   0  0  0  0  0  0
    5.6722   54.8968   29.7251 H   0  0  0  0  0  0
    3.9668   55.3027   29.6767 H   0  0  0  0  0  0
    4.4345   53.6165   29.8633 H   0  0  0  0  0  0
    6.8114   54.5340   27.6738 H   0  0  0  0  0  0
    6.8180   54.3042   25.2457 H   0  0  0  0  0  0
    2.5159   53.9823   25.2894 H   0  0  0  0  0  0
    6.4191   54.8184   23.5163 H   0  0  0  0  0  0
    7.7417   55.5659   22.1842 H   0  0  0  0  0  0
    8.4014   54.9622   19.9501 H   0  0  0  0  0  0
    8.9255   57.7830   18.2150 H   0  0  0  0  0  0
    7.5381   57.2015   17.3249 H   0  0  0  0  0  0
   10.0363   55.8190   17.8622 H   0  0  0  0  0  0
   10.0342   53.3629   17.8569 H   0  0  0  0  0  0
    8.1400   52.2459   15.6787 H   0  0  0  0  0  0
    8.0826   51.8259   17.4241 H   0  0  0  0  0  0
    9.2013   50.0934   16.0574 H   0  0  0  0  0  0
   10.2496   50.7635   17.2824 H   0  0  0  0  0  0
   10.2892   51.4381   14.3020 H   0  0  0  0  0  0
   11.5100   50.5621   15.1835 H   0  0  0  0  0  0
   12.1699   52.9499   14.7777 H   0  0  0  0  0  0
   12.1215   52.5625   16.4764 H   0  0  0  0  0  0
   11.0996   54.7223   16.1247 H   0  0  0  0  0  0
   10.0023   54.0270   14.8799 H   0  0  0  0  0  0
  1  2  1  0  0  0
  1 28  1  0  0  0
  1 29  1  0  0  0
  1 30  1  0  0  0
  2  7  2  0  0  0
  2  3  1  0  0  0
  3  4  2  0  0  0
  3 31  1  0  0  0
  4  5  1  0  0  0
  4 32  1  0  0  0
  5  6  2  0  0  0
  5  9  1  0  0  0
  6  7  1  0  0  0
  6 33  1  0  0  0
  7  8  1  0  0  0
  9 10  2  0  0  0
  9 11  1  0  0  0
 11 12  1  0  0  0
 11 34  1  0  0  0
 12 13  2  0  0  0
 12 14  1  0  0  0
 14 15  1  0  0  0
 14 35  1  0  0  0
 15 16  1  0  0  0
 15 36  1  0  0  0
 16 17  2  0  0  0
 16 18  1  0  0  0
 18 19  1  0  0  0
 18 37  1  0  0  0
 18 38  1  0  0  0
 19 20  1  0  0  0
 19 39  1  0  0  0
 20 21  2  0  0  0
 20 22  1  0  0  0
 22 27  1  0  0  0
 22 23  1  0  0  0
 22 40  1  0  0  0
 23 24  1  0  0  0
 23 41  1  0  0  0
 23 42  1  0  0  0
 24 25  1  0  0  0
 24 43  1  0  0  0
 24 44  1  0  0  0
 25 26  1  0  0  0
 25 45  1  0  0  0
 25 46  1  0  0  0
 26 27  1  0  0  0
 26 47  1  0  0  0
 26 48  1  0  0  0
 27 49  1  0  0  0
 27 50  1  0  0  0
M  END
> <i_i_glide_confnum>
191

> <i_i_glide_lignum>
3118

> <i_i_glide_posenum>
121

> <i_i_glide_rotatable_bonds>
10

> <i_m_Source_File_Index>
1938

> <b_m_subgroup_collapsed>
0

> <r_i_docking_score>
-5.09036

> <r_i_glide_ecoul>
-3.89386

> <r_i_glide_eff_state_penalty>
0

> <r_i_glide_einternal>
7.85689

> <r_i_glide_emodel>
-54.523

> <r_i_glide_energy>
-43.0722

> <r_i_glide_erotb>
0.728653

> <r_i_glide_esite>
-0.036952

> <r_i_glide_evdw>
-39.1784

> <r_i_glide_gscore>
-5.09036

> <r_i_glide_hbond>
-0.32

> <r_i_glide_ligand_efficiency>
-0.188532

> <r_i_glide_ligand_efficiency_ln>
-1.18495

> <r_i_glide_ligand_efficiency_sa>
-0.565595

> <r_i_glide_lipo>
-2.25506

> <r_i_glide_metal>
0

> <r_i_glide_rewards>
-0.664

> <s_i_glide_gridfile>
wee1_glide-grid

> <s_m_Source_File>
wee1_decoys_glide_SP.sdf

> <s_m_Source_Path>
/Users/zhangxujun/Desktop

> <s_m_entry_id>
2213

> <s_m_entry_name>
wee1_decoys_glide_SP.1938

> <s_m_subgroup_title>
wee1_decoys_glide_SP

> <s_m_subgroupid>
wee1_decoys_glide_SP


$$$$
