ZINC09490775_3160
                    3D
 Schrodinger Suite 2024-2.
 63 68  0  0  1  0            999 V2000
   -2.4865   50.7058   21.8034 C   0  0  0  0  0  0
   -1.6993   51.2349   20.7104 C   0  0  0  0  0  0
   -0.4373   50.7782   20.5396 C   0  0  0  0  0  0
    0.1123   49.7740   21.3589 N   0  0  0  0  0  0
   -0.5711   49.2963   22.4621 C   0  0  0  0  0  0
   -0.1179   48.4966   23.2818 O   0  0  0  0  0  0
   -1.9291   49.7977   22.6285 C   0  0  0  0  0  0
    1.4100   49.0970   21.0650 C   0  0  0  0  0  0
    2.2702   49.7331   19.9383 C   0  0  1  0  0  0
    2.8857   48.9730   19.4525 H   0  0  0  0  0  0
    1.3443   50.2830   18.8471 C   0  0  0  0  0  0
    0.4821   51.3881   19.4743 C   0  0  2  0  0  0
   -0.1076   51.8392   18.6752 H   0  0  0  0  0  0
    1.3662   52.4963   20.1102 C   0  0  0  0  0  0
    2.3162   51.9560   21.0908 N   0  0  0  0  0  0
    3.1337   50.9052   20.4655 C   0  0  0  0  0  0
    2.8007   52.7414   22.1254 C   0  0  0  0  0  0
    2.0224   52.7977   23.2827 C   0  0  0  0  0  0
    2.4875   53.4404   24.4247 C   0  0  0  0  0  0
    3.7524   54.0470   24.4372 C   0  0  0  0  0  0
    4.4795   54.0967   23.2380 C   0  0  0  0  0  0
    4.0114   53.4625   22.0744 C   0  0  0  0  0  0
    4.6964   53.5298   20.8456 N   0  0  0  0  0  0
    5.5037   54.4977   20.3668 C   0  0  0  0  0  0
    5.9060   55.4724   21.0041 O   0  0  0  0  0  0
    5.9322   54.2802   19.0070 C   0  0  0  0  0  0
    7.0558   54.8315   18.3898 C   0  0  0  0  0  0
    7.1855   54.4603   17.0472 C   0  0  0  0  0  0
    6.1423   53.6555   16.6116 C   0  0  0  0  0  0
    4.9797   53.3588   17.8615 S   0  0  0  0  0  0
    4.3531   54.5930   25.7142 C   0  0  0  0  0  0
    5.2956   55.3854   25.6825 O   0  0  0  0  0  0
    3.8332   54.1069   26.8578 N   0  0  0  0  0  0
    4.2068   54.4645   28.2265 C   0  0  0  0  0  0
    2.9615   54.7563   29.0415 C   0  0  0  0  0  0
    2.0286   53.9516   29.6818 C   0  0  0  0  0  0
    1.0997   54.8000   30.2850 C   0  0  0  0  0  0
    1.5119   56.0908   30.0064 C   0  0  0  0  0  0
    2.6488   56.0620   29.2652 O   0  0  0  0  0  0
   -3.5025   51.0384   21.9638 H   0  0  0  0  0  0
   -2.0925   52.0188   20.0820 H   0  0  0  0  0  0
   -2.5017   49.4021   23.4547 H   0  0  0  0  0  0
    1.2107   48.0547   20.8229 H   0  0  0  0  0  0
    2.0073   49.0447   21.9781 H   0  0  0  0  0  0
    1.9378   50.6819   18.0218 H   0  0  0  0  0  0
    0.7243   49.4921   18.4208 H   0  0  0  0  0  0
    0.7268   53.2485   20.5764 H   0  0  0  0  0  0
    1.9500   53.0016   19.3392 H   0  0  0  0  0  0
    3.7901   51.2898   19.6850 H   0  0  0  0  0  0
    3.8015   50.4996   21.2272 H   0  0  0  0  0  0
    1.0716   52.2851   23.3205 H   0  0  0  0  0  0
    1.8664   53.4133   25.3085 H   0  0  0  0  0  0
    5.4403   54.5912   23.2282 H   0  0  0  0  0  0
    4.3912   52.8478   20.1669 H   0  0  0  0  0  0
    7.7672   55.4653   18.9001 H   0  0  0  0  0  0
    8.0059   54.7730   16.4166 H   0  0  0  0  0  0
    5.9967   53.2307   15.6286 H   0  0  0  0  0  0
    3.1405   53.3778   26.7720 H   0  0  0  0  0  0
    4.9132   55.2965   28.2556 H   0  0  0  0  0  0
    4.7230   53.6067   28.6600 H   0  0  0  0  0  0
    2.0161   52.8717   29.6976 H   0  0  0  0  0  0
    0.2357   54.5065   30.8634 H   0  0  0  0  0  0
    1.1367   57.0712   30.2651 H   0  0  0  0  0  0
  1  7  2  0  0  0
  1  2  1  0  0  0
  1 40  1  0  0  0
  2  3  2  0  0  0
  2 41  1  0  0  0
  3 12  1  0  0  0
  3  4  1  0  0  0
  4  5  1  0  0  0
  4  8  1  0  0  0
  5  6  2  0  0  0
  5  7  1  0  0  0
  7 42  1  0  0  0
  8  9  1  0  0  0
  8 43  1  0  0  0
  8 44  1  0  0  0
  9 10  1  0  0  0
  9 16  1  0  0  0
  9 11  1  0  0  0
 11 12  1  0  0  0
 11 45  1  0  0  0
 11 46  1  0  0  0
 12 13  1  0  0  0
 12 14  1  0  0  0
 14 15  1  0  0  0
 14 47  1  0  0  0
 14 48  1  0  0  0
 15 16  1  0  0  0
 15 17  1  0  0  0
 16 49  1  0  0  0
 16 50  1  0  0  0
 17 22  2  0  0  0
 17 18  1  0  0  0
 18 19  2  0  0  0
 18 51  1  0  0  0
 19 20  1  0  0  0
 19 52  1  0  0  0
 20 21  2  0  0  0
 20 31  1  0  0  0
 21 22  1  0  0  0
 21 53  1  0  0  0
 22 23  1  0  0  0
 23 24  1  0  0  0
 23 54  1  0  0  0
 24 25  2  0  0  0
 24 26  1  0  0  0
 26 30  1  0  0  0
 26 27  2  0  0  0
 27 28  1  0  0  0
 27 55  1  0  0  0
 28 29  2  0  0  0
 28 56  1  0  0  0
 29 30  1  0  0  0
 29 57  1  0  0  0
 31 32  2  0  0  0
 31 33  1  0  0  0
 33 34  1  0  0  0
 33 58  1  0  0  0
 34 35  1  0  0  0
 34 59  1  0  0  0
 34 60  1  0  0  0
 35 39  1  0  0  0
 35 36  2  0  0  0
 36 37  1  0  0  0
 36 61  1  0  0  0
 37 38  2  0  0  0
 37 62  1  0  0  0
 38 39  1  0  0  0
 38 63  1  0  0  0
M  END
> <i_i_glide_confnum>
116

> <i_i_glide_lignum>
3161

> <i_i_glide_posenum>
284

> <i_i_glide_rotatable_bonds>
8

> <i_m_Source_File_Index>
3771

> <b_m_subgroup_collapsed>
0

> <r_i_docking_score>
-5.06351

> <r_i_glide_ecoul>
-2.34938

> <r_i_glide_eff_state_penalty>
0

> <r_i_glide_einternal>
9.72954

> <r_i_glide_emodel>
-61.5437

> <r_i_glide_energy>
-49.7965

> <r_i_glide_erotb>
0.54226

> <r_i_glide_esite>
0

> <r_i_glide_evdw>
-47.4471

> <r_i_glide_gscore>
-5.06351

> <r_i_glide_hbond>
0

> <r_i_glide_ligand_efficiency>
-0.136852

> <r_i_glide_ligand_efficiency_ln>
-1.09816

> <r_i_glide_ligand_efficiency_sa>
-0.45602

> <r_i_glide_lipo>
-2.39842

> <r_i_glide_metal>
0

> <r_i_glide_rewards>
-0.482584

> <s_i_glide_gridfile>
wee1_glide-grid

> <s_m_Source_File>
wee1_decoys_glide_SP.sdf

> <s_m_Source_Path>
/Users/zhangxujun/Desktop

> <s_m_entry_id>
4046

> <s_m_entry_name>
wee1_decoys_glide_SP.3771

> <s_m_subgroup_title>
wee1_decoys_glide_SP

> <s_m_subgroupid>
wee1_decoys_glide_SP


$$$$
