ZINC40010058_2776
                    3D
 Schrodinger Suite 2024-2.
 52 55  0  0  1  0            999 V2000
    1.3126   53.2668   30.4363 C   0  0  0  0  0  0
    2.1749   52.3122   29.5871 C   0  0  2  0  0  0
    1.9487   51.2970   29.9085 H   0  0  0  0  0  0
    3.6959   52.5287   29.7645 C   0  0  0  0  0  0
    4.1935   53.8599   29.1493 C   0  0  0  0  0  0
    3.7737   53.9352   27.6807 C   0  0  0  0  0  0
    4.5273   54.1580   26.5764 C   0  0  0  0  0  0
    3.7320   54.0952   25.3663 C   0  0  0  0  0  0
    4.2152   54.2627   24.1920 N   0  0  0  0  0  0
    5.5902   54.4970   24.1110 C   0  0  0  0  0  0
    6.4239   54.5850   25.0875 N   0  0  0  0  0  0
    5.9741   54.4257   26.4126 C   0  0  0  0  0  0
    6.6846   54.4954   27.4074 O   0  0  0  0  0  0
    6.3243   54.7196   22.4749 S   0  0  0  0  0  0
    4.8738   54.6306   21.3591 C   0  0  0  0  0  0
    4.4063   53.2031   21.0744 C   0  0  0  0  0  0
    5.1618   52.4395   20.4808 O   0  0  0  0  0  0
    3.1830   52.8620   21.5236 N   0  0  0  0  0  0
    2.5125   51.6462   21.3160 C   0  0  0  0  0  0
    1.5648   51.2753   22.2704 C   0  0  0  0  0  0
    0.8427   50.0941   22.1180 C   0  0  0  0  0  0
    1.0560   49.2794   21.0074 C   0  0  0  0  0  0
    2.0071   49.6341   20.0352 C   0  0  0  0  0  0
    2.7190   50.8266   20.1932 C   0  0  0  0  0  0
    2.3032   48.8817   18.8811 N   0  0  0  0  0  0
    1.8329   47.6797   18.4995 C   0  0  0  0  0  0
    1.0658   46.9661   19.1490 O   0  0  0  0  0  0
    2.3302   47.1780   17.1503 C   0  0  0  0  0  0
    2.0196   53.6986   25.6383 S   0  0  0  0  0  0
    2.2837   53.6946   27.4223 C   0  0  1  0  0  0
    1.7147   54.5319   27.8289 H   0  0  0  0  0  0
    1.8342   52.3738   28.0847 C   0  0  0  0  0  0
    1.4957   54.3155   30.2075 H   0  0  0  0  0  0
    0.2488   53.0787   30.2753 H   0  0  0  0  0  0
    1.5008   53.1174   31.5002 H   0  0  0  0  0  0
    4.2403   51.7004   29.3035 H   0  0  0  0  0  0
    3.9523   52.5037   30.8255 H   0  0  0  0  0  0
    5.2733   53.9220   29.2817 H   0  0  0  0  0  0
    3.8010   54.7094   29.7093 H   0  0  0  0  0  0
    5.1582   55.0737   20.4039 H   0  0  0  0  0  0
    4.0554   55.2358   21.7485 H   0  0  0  0  0  0
    2.7223   53.5158   22.1383 H   0  0  0  0  0  0
    1.3869   51.8937   23.1383 H   0  0  0  0  0  0
    0.1131   49.8053   22.8615 H   0  0  0  0  0  0
    0.4702   48.3806   20.9246 H   0  0  0  0  0  0
    3.4312   51.1098   19.4287 H   0  0  0  0  0  0
    2.9856   49.2956   18.2489 H   0  0  0  0  0  0
    2.2353   47.9524   16.3871 H   0  0  0  0  0  0
    1.7618   46.3059   16.8240 H   0  0  0  0  0  0
    3.3821   46.8963   17.2192 H   0  0  0  0  0  0
    0.7604   52.2455   27.9418 H   0  0  0  0  0  0
    2.3051   51.5287   27.5814 H   0  0  0  0  0  0
  1  2  1  0  0  0
  1 33  1  0  0  0
  1 34  1  0  0  0
  1 35  1  0  0  0
  2  3  1  0  0  0
  2 32  1  0  0  0
  2  4  1  0  0  0
  4  5  1  0  0  0
  4 36  1  0  0  0
  4 37  1  0  0  0
  5  6  1  0  0  0
  5 38  1  0  0  0
  5 39  1  0  0  0
  6 30  1  0  0  0
  6  7  2  0  0  0
  7 12  1  0  0  0
  7  8  1  0  0  0
  8  9  2  0  0  0
  8 29  1  0  0  0
  9 10  1  0  0  0
 10 11  2  0  0  0
 10 14  1  0  0  0
 11 12  1  0  0  0
 12 13  2  0  0  0
 14 15  1  0  0  0
 15 16  1  0  0  0
 15 40  1  0  0  0
 15 41  1  0  0  0
 16 17  2  0  0  0
 16 18  1  0  0  0
 18 19  1  0  0  0
 18 42  1  0  0  0
 19 24  2  0  0  0
 19 20  1  0  0  0
 20 21  2  0  0  0
 20 43  1  0  0  0
 21 22  1  0  0  0
 21 44  1  0  0  0
 22 23  2  0  0  0
 22 45  1  0  0  0
 23 24  1  0  0  0
 23 25  1  0  0  0
 24 46  1  0  0  0
 25 26  1  0  0  0
 25 47  1  0  0  0
 26 27  2  0  0  0
 26 28  1  0  0  0
 28 48  1  0  0  0
 28 49  1  0  0  0
 28 50  1  0  0  0
 29 30  1  0  0  0
 30 31  1  0  0  0
 30 32  1  0  0  0
 32 51  1  0  0  0
 32 52  1  0  0  0
M  END
> <i_i_glide_confnum>
5

> <i_i_glide_lignum>
2777

> <i_i_glide_posenum>
333

> <i_i_glide_rotatable_bonds>
7

> <i_m_Source_File_Index>
275

> <b_m_subgroup_collapsed>
0

> <r_i_docking_score>
-6.72214

> <r_i_glide_ecoul>
-4.13217

> <r_i_glide_eff_state_penalty>
0

> <r_i_glide_einternal>
0.814252

> <r_i_glide_emodel>
-76.1757

> <r_i_glide_energy>
-54.0677

> <r_i_glide_erotb>
0.612215

> <r_i_glide_esite>
-0.16103

> <r_i_glide_evdw>
-49.9355

> <r_i_glide_gscore>
-6.72214

> <r_i_glide_hbond>
-0.16

> <r_i_glide_ligand_efficiency>
-0.224071

> <r_i_glide_ligand_efficiency_ln>
-1.52734

> <r_i_glide_ligand_efficiency_sa>
-0.696242

> <r_i_glide_lipo>
-2.17887

> <r_i_glide_metal>
0

> <r_i_glide_rewards>
-1.71785

> <s_i_glide_gridfile>
wee1_glide-grid

> <s_m_Source_File>
wee1_decoys_glide_SP.sdf

> <s_m_Source_Path>
/Users/zhangxujun/Desktop

> <s_m_entry_id>
550

> <s_m_entry_name>
wee1_decoys_glide_SP.275

> <s_m_subgroup_title>
wee1_decoys_glide_SP

> <s_m_subgroupid>
wee1_decoys_glide_SP


$$$$
