ZINC54499135_6174
                    3D
 Schrodinger Suite 2024-2.
 26 27  0  0  1  0            999 V2000
    6.4082   54.6920   22.5719 C   0  0  0  0  0  0
    5.9827   54.6051   24.0191 C   0  0  0  0  0  0
    4.8155   54.1045   24.3861 N   0  0  0  0  0  0
    4.8365   54.1639   25.7016 C   0  0  0  0  0  0
    6.0509   54.7080   26.0709 N   0  0  0  0  0  0
    6.7773   54.9838   24.9881 N   0  0  0  0  0  0
    6.6435   54.9555   27.3717 C   0  0  0  0  0  0
    3.7135   53.6810   26.6033 C   0  0  0  0  0  0
    4.0124   53.2970   27.9220 C   0  0  0  0  0  0
    3.0336   52.8110   28.7851 C   0  0  0  0  0  0
    1.7223   52.6785   28.3458 C   0  0  0  0  0  0
    1.4007   53.0203   27.0365 C   0  0  0  0  0  0
    2.3776   53.5098   26.1663 C   0  0  0  0  0  0
    1.9728   53.7852   24.8595 N   0  0  0  0  0  0
    3.5045   52.2977   30.5541 Br  0  0  0  0  0  0
    7.4659   54.4403   22.4772 H   0  0  0  0  0  0
    6.3047   55.6961   22.1615 H   0  0  0  0  0  0
    5.8970   53.9680   21.9373 H   0  0  0  0  0  0
    5.8964   55.3410   28.0628 H   0  0  0  0  0  0
    7.0773   54.0324   27.7573 H   0  0  0  0  0  0
    7.4319   55.6965   27.2825 H   0  0  0  0  0  0
    5.0178   53.3165   28.3012 H   0  0  0  0  0  0
    0.9609   52.2930   29.0086 H   0  0  0  0  0  0
    0.3827   52.8915   26.6985 H   0  0  0  0  0  0
    2.6867   54.0261   24.1851 H   0  0  0  0  0  0
    1.0518   53.5060   24.5578 H   0  0  0  0  0  0
  1  2  1  0  0  0
  1 16  1  0  0  0
  1 17  1  0  0  0
  1 18  1  0  0  0
  2  6  2  0  0  0
  2  3  1  0  0  0
  3  4  2  0  0  0
  4  5  1  0  0  0
  4  8  1  0  0  0
  5  6  1  0  0  0
  5  7  1  0  0  0
  7 19  1  0  0  0
  7 20  1  0  0  0
  7 21  1  0  0  0
  8 13  2  0  0  0
  8  9  1  0  0  0
  9 10  2  0  0  0
  9 22  1  0  0  0
 10 11  1  0  0  0
 10 15  1  0  0  0
 11 12  2  0  0  0
 11 23  1  0  0  0
 12 13  1  0  0  0
 12 24  1  0  0  0
 13 14  1  0  0  0
 14 25  1  0  0  0
 14 26  1  0  0  0
M  END
> <i_i_glide_confnum>
1

> <i_i_glide_lignum>
6175

> <i_i_glide_posenum>
309

> <i_i_glide_rotatable_bonds>
1

> <i_m_Source_File_Index>
1466

> <b_m_subgroup_collapsed>
0

> <r_i_docking_score>
-6.77097

> <r_i_glide_ecoul>
-1.33375

> <r_i_glide_eff_state_penalty>
0

> <r_i_glide_einternal>
1.94829

> <r_i_glide_emodel>
-43.2997

> <r_i_glide_energy>
-31.3818

> <r_i_glide_erotb>
0.249826

> <r_i_glide_esite>
0

> <r_i_glide_evdw>
-30.0481

> <r_i_glide_gscore>
-6.77097

> <r_i_glide_hbond>
-0.0850084

> <r_i_glide_ligand_efficiency>
-0.451398

> <r_i_glide_ligand_efficiency_ln>
-1.82602

> <r_i_glide_ligand_efficiency_sa>
-1.11324

> <r_i_glide_lipo>
-1.66429

> <r_i_glide_metal>
0

> <r_i_glide_rewards>
-3.56903

> <s_i_glide_gridfile>
wee1_glide-grid

> <s_m_Source_File>
wee1_decoys_glide_SP.sdf

> <s_m_Source_Path>
/Users/zhangxujun/Desktop

> <s_m_entry_id>
1741

> <s_m_entry_name>
wee1_decoys_glide_SP.1466

> <s_m_subgroup_title>
wee1_decoys_glide_SP

> <s_m_subgroupid>
wee1_decoys_glide_SP


$$$$
