ZINC12309225_3290
                    3D
 Schrodinger Suite 2024-2.
 52 54  0  0  1  0            999 V2000
    0.9859   52.0907   29.4253 C   0  0  0  0  0  0
    2.0611   52.3782   28.3617 C   0  0  0  0  0  0
    1.4924   52.2459   26.9367 C   0  0  0  0  0  0
    2.7690   54.1227   28.6457 S   0  0  0  0  0  0
    3.2033   54.2162   30.0458 O   0  0  0  0  0  0
    1.8298   55.1071   28.0987 O   0  0  0  0  0  0
    4.2441   54.1829   27.6234 C   0  0  0  0  0  0
    5.5060   54.0598   28.2069 C   0  0  0  0  0  0
    6.6482   54.0975   27.4128 C   0  0  0  0  0  0
    6.5391   54.2524   26.0315 C   0  0  0  0  0  0
    5.2796   54.3724   25.4199 C   0  0  0  0  0  0
    4.1379   54.3576   26.2399 C   0  0  0  0  0  0
    5.1245   54.4940   23.9156 C   0  0  0  0  0  0
    4.0023   54.4304   23.4066 O   0  0  0  0  0  0
    6.3109   54.7046   23.2138 N   0  0  0  0  0  0
    6.3839   55.0201   21.9719 C   0  0  0  0  0  0
    5.5275   54.8974   20.8758 N   0  0  0  0  0  0
    5.7957   55.7546   19.7991 C   0  0  0  0  0  0
    4.9704   56.0510   18.7074 C   0  0  0  0  0  0
    5.4592   56.8165   17.6542 C   0  0  0  0  0  0
    6.7795   57.2673   17.6828 C   0  0  0  0  0  0
    7.6026   56.9850   18.7765 C   0  0  0  0  0  0
    7.0925   56.2345   19.8336 C   0  0  0  0  0  0
    7.9039   55.6961   21.2814 S   0  0  0  0  0  0
    7.4259   58.2136   16.3294 S   0  0  0  0  0  0
    8.6503   57.5443   15.8809 O   0  0  0  0  0  0
    6.3335   58.5070   15.3978 O   0  0  0  0  0  0
    7.9044   59.6968   17.0788 N   0  0  0  0  0  0
    4.6493   53.7418   20.6350 C   0  0  0  0  0  0
    4.9201   52.8991   19.3895 C   0  0  0  0  0  0
    5.9724   53.0163   18.5523 C   0  0  0  0  0  0
    0.5414   51.1040   29.2818 H   0  0  0  0  0  0
    1.4030   52.1199   30.4324 H   0  0  0  0  0  0
    0.1794   52.8241   29.3844 H   0  0  0  0  0  0
    2.8996   51.6928   28.4907 H   0  0  0  0  0  0
    1.1019   51.2426   26.7632 H   0  0  0  0  0  0
    0.6781   52.9505   26.7642 H   0  0  0  0  0  0
    2.2517   52.4288   26.1777 H   0  0  0  0  0  0
    5.6068   53.9446   29.2757 H   0  0  0  0  0  0
    7.6173   54.0049   27.8759 H   0  0  0  0  0  0
    7.4439   54.2572   25.4398 H   0  0  0  0  0  0
    3.1545   54.4714   25.8048 H   0  0  0  0  0  0
    3.9601   55.6708   18.6554 H   0  0  0  0  0  0
    4.8174   57.0362   16.8111 H   0  0  0  0  0  0
    8.6248   57.3367   18.7895 H   0  0  0  0  0  0
    8.5522   60.2173   16.4866 H   0  0  0  0  0  0
    7.0904   60.3151   17.2812 H   0  0  0  0  0  0
    4.6707   53.0513   21.4790 H   0  0  0  0  0  0
    3.6245   54.1100   20.5603 H   0  0  0  0  0  0
    4.1795   52.1427   19.1654 H   0  0  0  0  0  0
    6.0542   52.4094   17.6653 H   0  0  0  0  0  0
    6.7799   53.7119   18.7130 H   0  0  0  0  0  0
  1  2  1  0  0  0
  1 32  1  0  0  0
  1 33  1  0  0  0
  1 34  1  0  0  0
  2  3  1  0  0  0
  2  4  1  0  0  0
  2 35  1  0  0  0
  3 36  1  0  0  0
  3 37  1  0  0  0
  3 38  1  0  0  0
  4  5  2  0  0  0
  4  6  2  0  0  0
  4  7  1  0  0  0
  7 12  2  0  0  0
  7  8  1  0  0  0
  8  9  2  0  0  0
  8 39  1  0  0  0
  9 10  1  0  0  0
  9 40  1  0  0  0
 10 11  2  0  0  0
 10 41  1  0  0  0
 11 12  1  0  0  0
 11 13  1  0  0  0
 12 42  1  0  0  0
 13 14  2  0  0  0
 13 15  1  0  0  0
 15 16  2  0  0  0
 16 24  1  0  0  0
 16 17  1  0  0  0
 17 18  1  0  0  0
 17 29  1  0  0  0
 18 23  2  0  0  0
 18 19  1  0  0  0
 19 20  2  0  0  0
 19 43  1  0  0  0
 20 21  1  0  0  0
 20 44  1  0  0  0
 21 22  2  0  0  0
 21 25  1  0  0  0
 22 23  1  0  0  0
 22 45  1  0  0  0
 23 24  1  0  0  0
 25 26  2  0  0  0
 25 27  2  0  0  0
 25 28  1  0  0  0
 28 46  1  0  0  0
 28 47  1  0  0  0
 29 30  1  0  0  0
 29 48  1  0  0  0
 29 49  1  0  0  0
 30 31  2  0  0  0
 30 50  1  0  0  0
 31 51  1  0  0  0
 31 52  1  0  0  0
M  END
> <i_i_glide_confnum>
86

> <i_i_glide_lignum>
3291

> <i_i_glide_posenum>
257

> <i_i_glide_rotatable_bonds>
7

> <i_m_Source_File_Index>
2806

> <b_m_subgroup_collapsed>
0

> <r_i_docking_score>
-6.32393

> <r_i_glide_ecoul>
-8.95309

> <r_i_glide_eff_state_penalty>
0

> <r_i_glide_einternal>
3.68176

> <r_i_glide_emodel>
-65.0112

> <r_i_glide_energy>
-48.3417

> <r_i_glide_erotb>
0.440692

> <r_i_glide_esite>
-0.207741

> <r_i_glide_evdw>
-39.3886

> <r_i_glide_gscore>
-6.32393

> <r_i_glide_hbond>
-0.16

> <r_i_glide_ligand_efficiency>
-0.203998

> <r_i_glide_ligand_efficiency_ln>
-1.42624

> <r_i_glide_ligand_efficiency_sa>
-0.640835

> <r_i_glide_lipo>
-2.85817

> <r_i_glide_metal>
0

> <r_i_glide_rewards>
-0.226317

> <s_i_glide_gridfile>
wee1_glide-grid

> <s_m_Source_File>
wee1_decoys_glide_SP.sdf

> <s_m_Source_Path>
/Users/zhangxujun/Desktop

> <s_m_entry_id>
3081

> <s_m_entry_name>
wee1_decoys_glide_SP.2806

> <s_m_subgroup_title>
wee1_decoys_glide_SP

> <s_m_subgroupid>
wee1_decoys_glide_SP


$$$$
