ZINC63608940_6075
                    3D
 Schrodinger Suite 2024-2.
 47 50  0  0  1  0            999 V2000
    2.3043   51.1373   18.8285 C   0  0  0  0  0  0
    2.1720   49.6880   18.8820 C   0  0  0  0  0  0
    1.9047   49.0278   20.0377 C   0  0  0  0  0  0
    1.7317   49.7395   21.2298 C   0  0  0  0  0  0
    1.4565   49.2971   22.4379 N   0  3  0  0  0  0
    1.2955   50.4201   23.3787 C   0  0  2  0  0  0
    2.0626   50.2807   24.1339 H   0  0  0  0  0  0
   -0.1218   50.6134   24.0106 C   0  0  1  0  0  0
   -0.2205   49.8500   24.7861 H   0  0  0  0  0  0
   -0.0547   51.9418   24.6824 N   0  0  0  0  0  0
    0.2510   53.1459   23.8766 C   0  0  0  0  0  0
    1.5890   52.9565   23.1156 C   0  0  0  0  0  0
    1.6356   51.5825   22.4737 C   0  0  0  0  0  0
    1.8468   51.1340   21.2284 C   0  0  0  0  0  0
    2.1515   51.8334   19.9724 C   0  0  0  0  0  0
   -0.4144   52.1085   25.9904 C   0  0  0  0  0  0
   -2.0322   52.0965   26.4283 S   0  0  0  0  0  0
    0.6425   52.3622   26.8251 N   0  0  0  0  0  0
    0.6592   52.7437   28.1809 C   0  0  0  0  0  0
   -0.0599   52.0471   29.1623 C   0  0  0  0  0  0
   -0.0619   52.4964   30.4811 C   0  0  0  0  0  0
    0.6556   53.6350   30.8349 C   0  0  0  0  0  0
    1.4076   54.3097   29.8740 C   0  0  0  0  0  0
    1.4415   53.8496   28.5529 C   0  0  0  0  0  0
    2.2208   54.4928   27.6174 O   0  0  0  0  0  0
    3.6306   54.3036   27.7503 C   0  0  0  0  0  0
    4.2117   54.8567   26.6864 F   0  0  0  0  0  0
    4.1142   54.8961   28.8441 F   0  0  0  0  0  0
    3.9510   53.0082   27.7565 F   0  0  0  0  0  0
   -1.3539   50.4005   23.0755 C   0  0  0  0  0  0
   -1.3739   49.1605   22.5872 F   0  0  0  0  0  0
   -2.5156   50.5753   23.6983 F   0  0  0  0  0  0
   -1.3477   51.2335   22.0339 F   0  0  0  0  0  0
    2.5551   51.6292   17.8984 H   0  0  0  0  0  0
    2.3043   49.1239   17.9673 H   0  0  0  0  0  0
    1.8290   47.9512   20.0101 H   0  0  0  0  0  0
   -0.5751   53.2948   23.1833 H   0  0  0  0  0  0
    0.3041   54.0530   24.4825 H   0  0  0  0  0  0
    1.7160   53.7526   22.3806 H   0  0  0  0  0  0
    2.4186   53.0618   23.8154 H   0  0  0  0  0  0
    2.2662   52.9085   19.9346 H   0  0  0  0  0  0
    1.5248   52.5301   26.3635 H   0  0  0  0  0  0
   -0.6287   51.1627   28.9090 H   0  0  0  0  0  0
   -0.6232   51.9609   31.2333 H   0  0  0  0  0  0
    0.6321   53.9859   31.8567 H   0  0  0  0  0  0
    1.9639   55.1917   30.1537 H   0  0  0  0  0  0
    1.3447   48.3234   22.7034 H   0  0  0  0  0  0
  1 15  2  0  0  0
  1  2  1  0  0  0
  1 34  1  0  0  0
  2  3  2  0  0  0
  2 35  1  0  0  0
  3  4  1  0  0  0
  3 36  1  0  0  0
  4 14  1  0  0  0
  4  5  2  0  0  0
  5  6  1  0  0  0
  5 47  1  0  0  0
  6  7  1  0  0  0
  6 13  1  0  0  0
  6  8  1  0  0  0
  8  9  1  0  0  0
  8 10  1  0  0  0
  8 30  1  0  0  0
 10 11  1  0  0  0
 10 16  1  0  0  0
 11 12  1  0  0  0
 11 37  1  0  0  0
 11 38  1  0  0  0
 12 13  1  0  0  0
 12 39  1  0  0  0
 12 40  1  0  0  0
 13 14  2  0  0  0
 14 15  1  0  0  0
 15 41  1  0  0  0
 16 17  2  0  0  0
 16 18  1  0  0  0
 18 19  1  0  0  0
 18 42  1  0  0  0
 19 24  2  0  0  0
 19 20  1  0  0  0
 20 21  2  0  0  0
 20 43  1  0  0  0
 21 22  1  0  0  0
 21 44  1  0  0  0
 22 23  2  0  0  0
 22 45  1  0  0  0
 23 24  1  0  0  0
 23 46  1  0  0  0
 24 25  1  0  0  0
 25 26  1  0  0  0
 26 27  1  0  0  0
 26 28  1  0  0  0
 26 29  1  0  0  0
 30 31  1  0  0  0
 30 32  1  0  0  0
 30 33  1  0  0  0
M  CHG  1   5   1
M  END
> <i_i_glide_confnum>
9

> <i_i_glide_lignum>
6076

> <i_i_glide_posenum>
110

> <i_i_glide_rotatable_bonds>
6

> <i_m_Source_File_Index>
4946

> <b_m_subgroup_collapsed>
0

> <r_i_docking_score>
-4.6573

> <r_i_glide_ecoul>
-3.36845

> <r_i_glide_eff_state_penalty>
0

> <r_i_glide_einternal>
6.83901

> <r_i_glide_emodel>
-49.4408

> <r_i_glide_energy>
-39.1323

> <r_i_glide_erotb>
0.379807

> <r_i_glide_esite>
-0.0309325

> <r_i_glide_evdw>
-35.7638

> <r_i_glide_gscore>
-4.6573

> <r_i_glide_hbond>
0

> <r_i_glide_ligand_efficiency>
-0.150236

> <r_i_glide_ligand_efficiency_ln>
-1.05036

> <r_i_glide_ligand_efficiency_sa>
-0.471947

> <r_i_glide_lipo>
-1.44983

> <r_i_glide_metal>
0

> <r_i_glide_rewards>
-1.26289

> <s_i_glide_gridfile>
wee1_glide-grid

> <s_m_Source_File>
wee1_decoys_glide_SP.sdf

> <s_m_Source_Path>
/Users/zhangxujun/Desktop

> <s_m_entry_id>
5221

> <s_m_entry_name>
wee1_decoys_glide_SP.4946

> <s_m_subgroup_title>
wee1_decoys_glide_SP

> <s_m_subgroupid>
wee1_decoys_glide_SP


$$$$
