ZINC40321281_951
                    3D
 Schrodinger Suite 2024-2.
 61 65  0  0  1  0            999 V2000
    2.3982   57.6958   16.0818 C   0  0  0  0  0  0
    2.4538   56.3165   16.2677 C   0  0  0  0  0  0
    3.6183   55.7351   16.7592 C   0  0  0  0  0  0
    4.7175   56.5362   17.0777 C   0  0  0  0  0  0
    4.6600   57.9196   16.8825 C   0  0  0  0  0  0
    3.4963   58.4966   16.3855 C   0  0  0  0  0  0
    6.2132   55.7673   17.7041 S   0  0  0  0  0  0
    7.0873   56.8218   18.2353 O   0  0  0  0  0  0
    6.6699   54.8272   16.6749 O   0  0  0  0  0  0
    5.6753   54.7656   19.1129 C   0  0  0  0  0  0
    5.0155   53.5474   19.1726 C   0  0  0  0  0  0
    4.8357   53.2671   20.5261 C   0  0  0  0  0  0
    5.4177   54.3140   21.2365 C   0  0  0  0  0  0
    5.9479   55.2140   20.3650 O   0  0  0  0  0  0
    5.6541   54.4966   22.6376 C   0  0  0  0  0  0
    6.7018   55.0017   23.0436 O   0  0  0  0  0  0
    4.6087   54.0967   23.3946 N   0  0  0  0  0  0
    4.4777   54.0971   24.7836 C   0  0  0  0  0  0
    3.2865   53.8412   25.4968 C   0  0  0  0  0  0
    3.4934   53.9691   26.9055 C   0  0  0  0  0  0
    4.8422   54.1799   27.2378 C   0  0  0  0  0  0
    5.8408   54.3569   25.8447 S   0  0  0  0  0  0
    5.4014   54.3481   28.6463 C   0  0  0  0  0  0
    4.3010   54.0707   29.6871 C   0  0  0  0  0  0
    2.9361   54.6417   29.2784 C   0  0  0  0  0  0
    2.4111   53.9673   27.9979 C   0  0  0  0  0  0
    2.0008   53.5879   24.8424 C   0  0  0  0  0  0
    1.7748   53.9591   23.6898 O   0  0  0  0  0  0
    1.1087   52.8974   25.5740 N   0  0  0  0  0  0
   -0.2520   52.5284   25.1767 C   0  0  0  0  0  0
   -0.4035   51.0420   24.8016 C   0  0  1  0  0  0
   -1.4697   50.8230   24.7182 H   0  0  0  0  0  0
    0.2567   50.6421   23.4809 C   0  0  0  0  0  0
    0.8295   49.2663   23.7562 C   0  0  0  0  0  0
    0.5122   48.9705   25.2243 C   0  0  0  0  0  0
    0.2307   50.2401   25.7935 O   0  0  0  0  0  0
    1.4971   58.1527   15.7025 H   0  0  0  0  0  0
    1.5987   55.7017   16.0288 H   0  0  0  0  0  0
    3.6633   54.6642   16.8923 H   0  0  0  0  0  0
    5.5037   58.5534   17.1202 H   0  0  0  0  0  0
    3.4402   59.5677   16.2397 H   0  0  0  0  0  0
    4.7058   52.9330   18.3378 H   0  0  0  0  0  0
    4.3657   52.3842   20.9352 H   0  0  0  0  0  0
    3.7615   53.8513   22.8987 H   0  0  0  0  0  0
    6.2443   53.6817   28.8390 H   0  0  0  0  0  0
    5.7677   55.3620   28.7762 H   0  0  0  0  0  0
    4.2095   52.9969   29.8550 H   0  0  0  0  0  0
    4.6062   54.4965   30.6395 H   0  0  0  0  0  0
    2.2129   54.5091   30.0826 H   0  0  0  0  0  0
    3.0203   55.7176   29.1247 H   0  0  0  0  0  0
    1.5095   54.4882   27.6725 H   0  0  0  0  0  0
    2.1107   52.9418   28.2226 H   0  0  0  0  0  0
    1.4094   52.5416   26.4693 H   0  0  0  0  0  0
   -0.6202   53.1547   24.3600 H   0  0  0  0  0  0
   -0.9165   52.7422   26.0143 H   0  0  0  0  0  0
    1.0789   51.3122   23.2283 H   0  0  0  0  0  0
   -0.4434   50.6584   22.6456 H   0  0  0  0  0  0
    1.9090   49.2967   23.6018 H   0  0  0  0  0  0
    0.4145   48.5030   23.0987 H   0  0  0  0  0  0
    1.3367   48.4971   25.7588 H   0  0  0  0  0  0
   -0.3537   48.3180   25.3489 H   0  0  0  0  0  0
  1  6  2  0  0  0
  1  2  1  0  0  0
  1 37  1  0  0  0
  2  3  2  0  0  0
  2 38  1  0  0  0
  3  4  1  0  0  0
  3 39  1  0  0  0
  4  5  2  0  0  0
  4  7  1  0  0  0
  5  6  1  0  0  0
  5 40  1  0  0  0
  6 41  1  0  0  0
  7  8  2  0  0  0
  7  9  2  0  0  0
  7 10  1  0  0  0
 10 14  1  0  0  0
 10 11  2  0  0  0
 11 12  1  0  0  0
 11 42  1  0  0  0
 12 13  2  0  0  0
 12 43  1  0  0  0
 13 14  1  0  0  0
 13 15  1  0  0  0
 15 16  2  0  0  0
 15 17  1  0  0  0
 17 18  1  0  0  0
 17 44  1  0  0  0
 18 22  1  0  0  0
 18 19  2  0  0  0
 19 20  1  0  0  0
 19 27  1  0  0  0
 20 26  1  0  0  0
 20 21  2  0  0  0
 21 22  1  0  0  0
 21 23  1  0  0  0
 23 24  1  0  0  0
 23 45  1  0  0  0
 23 46  1  0  0  0
 24 25  1  0  0  0
 24 47  1  0  0  0
 24 48  1  0  0  0
 25 26  1  0  0  0
 25 49  1  0  0  0
 25 50  1  0  0  0
 26 51  1  0  0  0
 26 52  1  0  0  0
 27 28  2  0  0  0
 27 29  1  0  0  0
 29 30  1  0  0  0
 29 53  1  0  0  0
 30 31  1  0  0  0
 30 54  1  0  0  0
 30 55  1  0  0  0
 31 32  1  0  0  0
 31 36  1  0  0  0
 31 33  1  0  0  0
 33 34  1  0  0  0
 33 56  1  0  0  0
 33 57  1  0  0  0
 34 35  1  0  0  0
 34 58  1  0  0  0
 34 59  1  0  0  0
 35 36  1  0  0  0
 35 60  1  0  0  0
 35 61  1  0  0  0
M  END
> <i_i_glide_confnum>
463

> <i_i_glide_lignum>
952

> <i_i_glide_posenum>
272

> <i_i_glide_rotatable_bonds>
9

> <i_m_Source_File_Index>
3933

> <b_m_subgroup_collapsed>
0

> <r_i_docking_score>
-4.96698

> <r_i_glide_ecoul>
-2.61033

> <r_i_glide_eff_state_penalty>
0

> <r_i_glide_einternal>
8.53655

> <r_i_glide_emodel>
-62.6188

> <r_i_glide_energy>
-50.4943

> <r_i_glide_erotb>
0.619683

> <r_i_glide_esite>
-0.000362392

> <r_i_glide_evdw>
-47.884

> <r_i_glide_gscore>
-4.96698

> <r_i_glide_hbond>
0

> <r_i_glide_ligand_efficiency>
-0.141914

> <r_i_glide_ligand_efficiency_ln>
-1.09036

> <r_i_glide_ligand_efficiency_sa>
-0.464209

> <r_i_glide_lipo>
-2.16831

> <r_i_glide_metal>
0

> <r_i_glide_rewards>
-0.632233

> <s_i_glide_gridfile>
wee1_glide-grid

> <s_m_Source_File>
wee1_decoys_glide_SP.sdf

> <s_m_Source_Path>
/Users/zhangxujun/Desktop

> <s_m_entry_id>
4208

> <s_m_entry_name>
wee1_decoys_glide_SP.3933

> <s_m_subgroup_title>
wee1_decoys_glide_SP

> <s_m_subgroupid>
wee1_decoys_glide_SP


$$$$
