ZINC38903906_1099
                    3D
 Schrodinger Suite 2024-2.
 74 77  0  0  1  0            999 V2000
   -1.7607   50.1156   25.5524 C   0  0  0  0  0  0
   -0.2725   50.2786   25.1679 C   0  0  1  0  0  0
    0.2423   49.4498   25.6717 H   0  0  0  0  0  0
    0.0568   50.0737   23.6828 C   0  0  0  0  0  0
    1.3724   49.7520   23.3283 C   0  0  0  0  0  0
    1.7032   49.4648   22.0106 C   0  0  0  0  0  0
    0.7169   49.5122   21.0267 C   0  0  0  0  0  0
   -0.5937   49.8669   21.3571 C   0  0  0  0  0  0
   -0.9233   50.1413   22.6821 C   0  0  0  0  0  0
    1.1469   49.0657   19.3491 S   0  0  0  0  0  0
    1.9047   47.8131   19.4336 O   0  0  0  0  0  0
   -0.0774   49.1454   18.5452 O   0  0  0  0  0  0
    2.3046   50.4417   18.8057 C   0  0  0  0  0  0
    0.2744   51.5504   25.6557 N   0  0  0  0  0  0
    0.7036   51.7693   26.9121 C   0  0  0  0  0  0
    0.6889   50.9021   27.7790 O   0  0  0  0  0  0
    1.2754   53.1598   27.2407 C   0  0  1  0  0  0
    1.1053   53.7718   26.3550 H   0  0  0  0  0  0
    0.5530   53.7546   28.4781 C   0  0  0  0  0  0
    1.2063   55.0932   28.8756 C   0  0  0  0  0  0
    2.7257   54.9614   29.1017 C   0  0  0  0  0  0
    3.3665   54.4015   27.8078 N   0  3  2  0  0  0
    2.7938   53.0011   27.4702 C   0  0  0  0  0  0
    4.9138   54.3474   27.9254 C   0  0  0  0  0  0
    5.5505   54.3883   26.5485 C   0  0  0  0  0  0
    5.0189   54.1621   25.3743 N   0  0  0  0  0  0
    5.9912   54.4983   24.5460 C   0  0  0  0  0  0
    7.1044   54.8985   25.1187 N   0  0  0  0  0  0
    6.8293   54.8249   26.4807 O   0  0  0  0  0  0
    5.8300   54.4972   23.0519 C   0  0  0  0  0  0
    4.7759   53.8029   22.4491 C   0  0  0  0  0  0
    4.6052   53.8335   21.0685 C   0  0  0  0  0  0
    5.4754   54.5719   20.2518 C   0  0  0  0  0  0
    6.5221   55.2800   20.8611 C   0  0  0  0  0  0
    6.7048   55.2315   22.2411 C   0  0  0  0  0  0
    5.3282   54.6050   18.7065 C   0  0  0  0  0  0
    5.1757   56.0687   18.2195 C   0  0  0  0  0  0
    4.0980   53.8146   18.1899 C   0  0  0  0  0  0
    6.5838   53.9758   18.0557 C   0  0  0  0  0  0
   -2.1660   49.1715   25.1867 H   0  0  0  0  0  0
   -1.8850   50.1098   26.6384 H   0  0  0  0  0  0
   -2.3750   50.9278   25.1618 H   0  0  0  0  0  0
    2.1448   49.6971   24.0822 H   0  0  0  0  0  0
    2.7147   49.1755   21.7579 H   0  0  0  0  0  0
   -1.3611   49.9059   20.5976 H   0  0  0  0  0  0
   -1.9475   50.3921   22.9196 H   0  0  0  0  0  0
    2.5975   50.2600   17.7722 H   0  0  0  0  0  0
    1.7886   51.3954   18.8859 H   0  0  0  0  0  0
    3.1928   50.4308   19.4316 H   0  0  0  0  0  0
    0.3006   52.3038   24.9849 H   0  0  0  0  0  0
    0.6530   53.1032   29.3531 H   0  0  0  0  0  0
   -0.4965   53.9638   28.2633 H   0  0  0  0  0  0
    0.7398   55.4767   29.7864 H   0  0  0  0  0  0
    1.0191   55.8388   28.1008 H   0  0  0  0  0  0
    2.9809   54.2864   29.9210 H   0  0  0  0  0  0
    3.1578   55.9473   29.2800 H   0  0  0  0  0  0
    3.2859   52.6625   26.5594 H   0  0  0  0  0  0
    3.0452   52.3468   28.3130 H   0  0  0  0  0  0
    5.1757   53.4607   28.5068 H   0  0  0  0  0  0
    5.2053   55.2287   28.5004 H   0  0  0  0  0  0
    4.0740   53.2413   23.0489 H   0  0  0  0  0  0
    3.7755   53.2808   20.6524 H   0  0  0  0  0  0
    7.2160   55.8546   20.2673 H   0  0  0  0  0  0
    7.5237   55.7833   22.6790 H   0  0  0  0  0  0
    5.0568   56.1167   17.1369 H   0  0  0  0  0  0
    6.0422   56.6832   18.4660 H   0  0  0  0  0  0
    4.3006   56.5459   18.6591 H   0  0  0  0  0  0
    4.1668   52.7542   18.4405 H   0  0  0  0  0  0
    3.1633   54.1997   18.6001 H   0  0  0  0  0  0
    4.0147   53.8731   17.1040 H   0  0  0  0  0  0
    6.7107   52.9378   18.3679 H   0  0  0  0  0  0
    6.5124   53.9776   16.9683 H   0  0  0  0  0  0
    7.5000   54.5118   18.3157 H   0  0  0  0  0  0
    3.1491   55.0352   27.0485 H   0  0  0  0  0  0
  1  2  1  0  0  0
  1 40  1  0  0  0
  1 41  1  0  0  0
  1 42  1  0  0  0
  2  3  1  0  0  0
  2  4  1  0  0  0
  2 14  1  0  0  0
  4  9  2  0  0  0
  4  5  1  0  0  0
  5  6  2  0  0  0
  5 43  1  0  0  0
  6  7  1  0  0  0
  6 44  1  0  0  0
  7  8  2  0  0  0
  7 10  1  0  0  0
  8  9  1  0  0  0
  8 45  1  0  0  0
  9 46  1  0  0  0
 10 11  2  0  0  0
 10 12  2  0  0  0
 10 13  1  0  0  0
 13 47  1  0  0  0
 13 48  1  0  0  0
 13 49  1  0  0  0
 14 15  1  0  0  0
 14 50  1  0  0  0
 15 16  2  0  0  0
 15 17  1  0  0  0
 17 18  1  0  0  0
 17 23  1  0  0  0
 17 19  1  0  0  0
 19 20  1  0  0  0
 19 51  1  0  0  0
 19 52  1  0  0  0
 20 21  1  0  0  0
 20 53  1  0  0  0
 20 54  1  0  0  0
 21 22  1  0  0  0
 21 55  1  0  0  0
 21 56  1  0  0  0
 22 23  1  0  0  0
 22 24  1  0  0  0
 22 74  1  0  0  0
 23 57  1  0  0  0
 23 58  1  0  0  0
 24 25  1  0  0  0
 24 59  1  0  0  0
 24 60  1  0  0  0
 25 29  1  0  0  0
 25 26  2  0  0  0
 26 27  1  0  0  0
 27 28  2  0  0  0
 27 30  1  0  0  0
 28 29  1  0  0  0
 30 35  2  0  0  0
 30 31  1  0  0  0
 31 32  2  0  0  0
 31 61  1  0  0  0
 32 33  1  0  0  0
 32 62  1  0  0  0
 33 34  2  0  0  0
 33 36  1  0  0  0
 34 35  1  0  0  0
 34 63  1  0  0  0
 35 64  1  0  0  0
 36 37  1  0  0  0
 36 38  1  0  0  0
 36 39  1  0  0  0
 37 65  1  0  0  0
 37 66  1  0  0  0
 37 67  1  0  0  0
 38 68  1  0  0  0
 38 69  1  0  0  0
 38 70  1  0  0  0
 39 71  1  0  0  0
 39 72  1  0  0  0
 39 73  1  0  0  0
M  CHG  1  22   1
M  END
> <i_i_glide_confnum>
173

> <i_i_glide_lignum>
1100

> <i_i_glide_posenum>
344

> <i_i_glide_rotatable_bonds>
9

> <i_m_Source_File_Index>
1267

> <b_m_subgroup_collapsed>
0

> <r_i_docking_score>
-5.95652

> <r_i_glide_ecoul>
-3.06213

> <r_i_glide_eff_state_penalty>
0

> <r_i_glide_einternal>
7.03673

> <r_i_glide_emodel>
-68.6465

> <r_i_glide_energy>
-50.948

> <r_i_glide_erotb>
0.521416

> <r_i_glide_esite>
-0.079536

> <r_i_glide_evdw>
-47.8859

> <r_i_glide_gscore>
-5.95652

> <r_i_glide_hbond>
0

> <r_i_glide_ligand_efficiency>
-0.160987

> <r_i_glide_ligand_efficiency_ln>
-1.29183

> <r_i_glide_ligand_efficiency_sa>
-0.536444

> <r_i_glide_lipo>
-2.94318

> <r_i_glide_metal>
0

> <r_i_glide_rewards>
-0.601603

> <s_i_glide_gridfile>
wee1_glide-grid

> <s_m_Source_File>
wee1_decoys_glide_SP.sdf

> <s_m_Source_Path>
/Users/zhangxujun/Desktop

> <s_m_entry_id>
1542

> <s_m_entry_name>
wee1_decoys_glide_SP.1267

> <s_m_subgroup_title>
wee1_decoys_glide_SP

> <s_m_subgroupid>
wee1_decoys_glide_SP


$$$$
