ZINC33297924_838
                    3D
 Schrodinger Suite 2024-2.
 54 56  0  0  1  0            999 V2000
   -1.8745   43.4127   19.4853 C   0  0  0  0  0  0
   -2.1213   44.9172   19.7086 C   0  0  0  0  0  0
   -2.2706   45.3359   21.1791 C   0  0  0  0  0  0
   -2.2702   44.4953   22.0816 O   0  0  0  0  0  0
   -2.3911   46.6614   21.3792 N   0  0  0  0  0  0
   -2.4927   47.2571   22.6244 C   0  0  0  0  0  0
   -3.4817   47.0926   23.6081 C   0  0  0  0  0  0
   -3.2637   47.8785   24.6379 N   0  0  0  0  0  0
   -2.1228   48.6167   24.3302 O   0  0  0  0  0  0
   -1.6491   48.2379   23.1182 C   0  0  0  0  0  0
   -0.4625   48.8650   22.5568 C   0  0  0  0  0  0
    0.3572   49.8274   23.0273 C   0  0  0  0  0  0
    0.3461   50.5420   24.3166 C   0  0  0  0  0  0
    0.5589   51.9225   24.2970 C   0  0  0  0  0  0
    0.6531   52.6349   25.4871 C   0  0  0  0  0  0
    0.5451   51.9737   26.7111 C   0  0  0  0  0  0
    0.2758   50.6059   26.7326 C   0  0  0  0  0  0
    0.1917   49.8863   25.5426 C   0  0  0  0  0  0
    0.8578   52.8252   28.2665 S   0  0  0  0  0  0
    0.7638   54.2757   28.0818 O   0  0  0  0  0  0
    0.0755   52.1472   29.3038 O   0  0  0  0  0  0
    2.5472   52.4701   28.6433 N   0  0  0  0  0  0
    3.6444   53.1741   28.1256 C   0  0  0  0  0  0
    4.7352   53.3789   28.9631 C   0  0  0  0  0  0
    5.9052   53.9646   28.4815 C   0  0  0  0  0  0
    6.0045   54.3299   27.1429 C   0  0  0  0  0  0
    4.9257   54.1214   26.2870 C   0  0  0  0  0  0
    3.7395   53.5731   26.7867 C   0  0  0  0  0  0
    5.1296   54.4969   24.5696 S   0  0  0  0  0  0
    3.5423   54.2775   23.7145 C   0  0  0  0  0  0
   -4.7041   46.2021   23.6163 C   0  0  0  0  0  0
   -1.7687   43.2045   18.4207 H   0  0  0  0  0  0
   -2.7104   42.8120   19.8430 H   0  0  0  0  0  0
   -0.9529   43.0828   19.9649 H   0  0  0  0  0  0
   -1.2984   45.4809   19.2677 H   0  0  0  0  0  0
   -3.0232   45.2174   19.1735 H   0  0  0  0  0  0
   -2.2916   47.2724   20.5822 H   0  0  0  0  0  0
   -0.2252   48.4743   21.5780 H   0  0  0  0  0  0
    1.1735   50.1130   22.3780 H   0  0  0  0  0  0
    0.6784   52.4453   23.3595 H   0  0  0  0  0  0
    0.8504   53.6957   25.4476 H   0  0  0  0  0  0
    0.1542   50.0969   27.6755 H   0  0  0  0  0  0
    0.0353   48.8170   25.5876 H   0  0  0  0  0  0
    2.6887   51.9091   29.4665 H   0  0  0  0  0  0
    4.6992   53.0568   29.9922 H   0  0  0  0  0  0
    6.7504   54.1042   29.1395 H   0  0  0  0  0  0
    6.9255   54.7505   26.7678 H   0  0  0  0  0  0
    2.9319   53.3783   26.1139 H   0  0  0  0  0  0
    3.6389   54.5737   22.6700 H   0  0  0  0  0  0
    3.2344   53.2327   23.7426 H   0  0  0  0  0  0
    2.7693   54.8958   24.1703 H   0  0  0  0  0  0
   -4.7157   45.5000   22.7829 H   0  0  0  0  0  0
   -4.7723   45.6143   24.5335 H   0  0  0  0  0  0
   -5.6203   46.7906   23.5449 H   0  0  0  0  0  0
  1  2  1  0  0  0
  1 32  1  0  0  0
  1 33  1  0  0  0
  1 34  1  0  0  0
  2  3  1  0  0  0
  2 35  1  0  0  0
  2 36  1  0  0  0
  3  4  2  0  0  0
  3  5  1  0  0  0
  5  6  1  0  0  0
  5 37  1  0  0  0
  6 10  2  0  0  0
  6  7  1  0  0  0
  7  8  2  0  0  0
  7 31  1  0  0  0
  8  9  1  0  0  0
  9 10  1  0  0  0
 10 11  1  0  0  0
 11 12  2  0  0  0
 11 38  1  0  0  0
 12 13  1  0  0  0
 12 39  1  0  0  0
 13 18  2  0  0  0
 13 14  1  0  0  0
 14 15  2  0  0  0
 14 40  1  0  0  0
 15 16  1  0  0  0
 15 41  1  0  0  0
 16 17  2  0  0  0
 16 19  1  0  0  0
 17 18  1  0  0  0
 17 42  1  0  0  0
 18 43  1  0  0  0
 19 20  2  0  0  0
 19 21  2  0  0  0
 19 22  1  0  0  0
 22 23  1  0  0  0
 22 44  1  0  0  0
 23 28  2  0  0  0
 23 24  1  0  0  0
 24 25  2  0  0  0
 24 45  1  0  0  0
 25 26  1  0  0  0
 25 46  1  0  0  0
 26 27  2  0  0  0
 26 47  1  0  0  0
 27 28  1  0  0  0
 27 29  1  0  0  0
 28 48  1  0  0  0
 29 30  1  0  0  0
 30 49  1  0  0  0
 30 50  1  0  0  0
 30 51  1  0  0  0
 31 52  1  0  0  0
 31 53  1  0  0  0
 31 54  1  0  0  0
M  END
> <i_i_glide_confnum>
206

> <i_i_glide_lignum>
839

> <i_i_glide_posenum>
271

> <i_i_glide_rotatable_bonds>
9

> <i_m_Source_File_Index>
5514

> <b_m_subgroup_collapsed>
0

> <r_i_docking_score>
-4.54312

> <r_i_glide_ecoul>
-2.74678

> <r_i_glide_eff_state_penalty>
0

> <r_i_glide_einternal>
4.82438

> <r_i_glide_emodel>
-51.7341

> <r_i_glide_energy>
-39.9162

> <r_i_glide_erotb>
0.67222

> <r_i_glide_esite>
-0.0693777

> <r_i_glide_evdw>
-37.1695

> <r_i_glide_gscore>
-4.54312

> <r_i_glide_hbond>
-0.16

> <r_i_glide_ligand_efficiency>
-0.146552

> <r_i_glide_ligand_efficiency_ln>
-1.02461

> <r_i_glide_ligand_efficiency_sa>
-0.460377

> <r_i_glide_lipo>
-2.19145

> <r_i_glide_metal>
0

> <r_i_glide_rewards>
-0.524028

> <s_i_glide_gridfile>
wee1_glide-grid

> <s_m_Source_File>
wee1_decoys_glide_SP.sdf

> <s_m_Source_Path>
/Users/zhangxujun/Desktop

> <s_m_entry_id>
5789

> <s_m_entry_name>
wee1_decoys_glide_SP.5514

> <s_m_subgroup_title>
wee1_decoys_glide_SP

> <s_m_subgroupid>
wee1_decoys_glide_SP


$$$$
