ZINC33252477_4188
                    3D
 Schrodinger Suite 2024-2.
 65 68  0  0  1  0            999 V2000
    1.1501   52.0559   29.6043 C   0  0  0  0  0  0
    1.1753   53.5744   29.3459 C   0  0  0  0  0  0
    2.3684   54.0810   28.4969 C   0  0  1  0  0  0
    2.2427   55.1544   28.3346 H   0  0  0  0  0  0
    3.7456   53.9431   29.2325 C   0  0  0  0  0  0
    3.9042   53.6979   30.4265 O   0  0  0  0  0  0
    4.7684   54.1387   28.3733 N   0  0  0  0  0  0
    4.6610   54.1975   26.9810 C   0  0  0  0  0  0
    5.7428   54.5238   26.1633 C   0  0  0  0  0  0
    5.6227   54.4381   24.7675 C   0  0  0  0  0  0
    4.4093   54.0027   24.1930 C   0  0  0  0  0  0
    3.3122   53.7415   25.0237 C   0  0  0  0  0  0
    3.4434   53.8394   26.4010 C   0  0  0  0  0  0
    2.3884   53.4449   27.2003 O   0  0  0  0  0  0
    4.2715   53.6201   22.4313 S   0  0  0  0  0  0
    5.4298   52.7808   22.1025 O   0  0  0  0  0  0
    4.0610   54.8963   21.7502 O   0  0  0  0  0  0
    2.8013   52.6321   22.2544 N   0  0  0  0  0  0
    2.9025   51.2050   21.8721 C   0  0  0  0  0  0
    1.8220   50.3861   22.6129 C   0  0  0  0  0  0
    0.3724   50.9448   22.4308 C   0  0  0  0  0  0
    0.3704   52.4626   22.7899 C   0  0  0  0  0  0
    1.4796   53.2808   22.0834 C   0  0  0  0  0  0
   -0.1828   50.7529   20.9862 C   0  0  0  0  0  0
   -1.1195   51.4556   20.5978 O   0  0  0  0  0  0
    0.4026   49.7944   20.2354 N   0  0  0  0  0  0
    0.1497   49.3921   18.9107 C   0  0  0  0  0  0
   -1.0704   49.6294   18.2560 C   0  0  0  0  0  0
   -1.2595   49.2124   16.9396 C   0  0  0  0  0  0
   -0.2390   48.5480   16.2587 C   0  0  0  0  0  0
    0.9727   48.3014   16.9054 C   0  0  0  0  0  0
    1.1746   48.7097   18.2273 C   0  0  0  0  0  0
    2.5195   48.4050   18.8815 C   0  0  0  0  0  0
   -0.4315   48.1155   14.8172 C   0  0  0  0  0  0
    6.8261   54.8016   23.9137 C   0  0  0  0  0  0
    0.2494   51.7695   30.1497 H   0  0  0  0  0  0
    1.1570   51.4924   28.6700 H   0  0  0  0  0  0
    2.0060   51.7302   30.1951 H   0  0  0  0  0  0
    1.1356   54.1087   30.2969 H   0  0  0  0  0  0
    0.2535   53.8469   28.8300 H   0  0  0  0  0  0
    5.6825   54.1574   28.8007 H   0  0  0  0  0  0
    6.6835   54.8090   26.6116 H   0  0  0  0  0  0
    2.3711   53.3989   24.6325 H   0  0  0  0  0  0
    3.9049   50.8390   22.0809 H   0  0  0  0  0  0
    2.7425   51.1360   20.7955 H   0  0  0  0  0  0
    2.0423   50.3740   23.6817 H   0  0  0  0  0  0
    1.8710   49.3156   22.4065 H   0  0  0  0  0  0
   -0.3676   50.4376   23.0513 H   0  0  0  0  0  0
   -0.6208   52.8968   22.6509 H   0  0  0  0  0  0
    0.4364   52.5510   23.8746 H   0  0  0  0  0  0
    1.5250   54.3111   22.4395 H   0  0  0  0  0  0
    1.2608   53.2965   21.0157 H   0  0  0  0  0  0
    1.2244   49.3723   20.6367 H   0  0  0  0  0  0
   -1.8885   50.1273   18.7518 H   0  0  0  0  0  0
   -2.2027   49.4085   16.4516 H   0  0  0  0  0  0
    1.7706   47.8012   16.3743 H   0  0  0  0  0  0
    2.3851   47.9649   19.8696 H   0  0  0  0  0  0
    3.1082   47.6977   18.2962 H   0  0  0  0  0  0
    3.1008   49.3210   18.9952 H   0  0  0  0  0  0
   -1.2423   48.6639   14.3359 H   0  0  0  0  0  0
   -0.6397   47.0469   14.7635 H   0  0  0  0  0  0
    0.4720   48.3136   14.2390 H   0  0  0  0  0  0
    7.4887   55.4928   24.4355 H   0  0  0  0  0  0
    7.3906   53.9090   23.6398 H   0  0  0  0  0  0
    6.5203   55.3093   22.9984 H   0  0  0  0  0  0
  1  2  1  0  0  0
  1 36  1  0  0  0
  1 37  1  0  0  0
  1 38  1  0  0  0
  2  3  1  0  0  0
  2 39  1  0  0  0
  2 40  1  0  0  0
  3  4  1  0  0  0
  3 14  1  0  0  0
  3  5  1  0  0  0
  5  6  2  0  0  0
  5  7  1  0  0  0
  7  8  1  0  0  0
  7 41  1  0  0  0
  8 13  2  0  0  0
  8  9  1  0  0  0
  9 10  2  0  0  0
  9 42  1  0  0  0
 10 11  1  0  0  0
 10 35  1  0  0  0
 11 12  2  0  0  0
 11 15  1  0  0  0
 12 13  1  0  0  0
 12 43  1  0  0  0
 13 14  1  0  0  0
 15 16  2  0  0  0
 15 17  2  0  0  0
 15 18  1  0  0  0
 18 23  1  0  0  0
 18 19  1  0  0  0
 19 20  1  0  0  0
 19 44  1  0  0  0
 19 45  1  0  0  0
 20 21  1  0  0  0
 20 46  1  0  0  0
 20 47  1  0  0  0
 21 22  1  0  0  0
 21 24  1  0  0  0
 21 48  1  0  0  0
 22 23  1  0  0  0
 22 49  1  0  0  0
 22 50  1  0  0  0
 23 51  1  0  0  0
 23 52  1  0  0  0
 24 25  2  0  0  0
 24 26  1  0  0  0
 26 27  1  0  0  0
 26 53  1  0  0  0
 27 32  2  0  0  0
 27 28  1  0  0  0
 28 29  2  0  0  0
 28 54  1  0  0  0
 29 30  1  0  0  0
 29 55  1  0  0  0
 30 31  2  0  0  0
 30 34  1  0  0  0
 31 32  1  0  0  0
 31 56  1  0  0  0
 32 33  1  0  0  0
 33 57  1  0  0  0
 33 58  1  0  0  0
 33 59  1  0  0  0
 34 60  1  0  0  0
 34 61  1  0  0  0
 34 62  1  0  0  0
 35 63  1  0  0  0
 35 64  1  0  0  0
 35 65  1  0  0  0
M  END
> <i_i_glide_confnum>
135

> <i_i_glide_lignum>
4189

> <i_i_glide_posenum>
110

> <i_i_glide_rotatable_bonds>
6

> <i_m_Source_File_Index>
917

> <b_m_subgroup_collapsed>
0

> <r_i_docking_score>
-4.17477

> <r_i_glide_ecoul>
-5.67051

> <r_i_glide_eff_state_penalty>
0

> <r_i_glide_einternal>
5.54971

> <r_i_glide_emodel>
-48.286

> <r_i_glide_energy>
-44.8182

> <r_i_glide_erotb>
0.430786

> <r_i_glide_esite>
-0.0154574

> <r_i_glide_evdw>
-39.1477

> <r_i_glide_gscore>
-4.17477

> <r_i_glide_hbond>
-0.32

> <r_i_glide_ligand_efficiency>
-0.122787

> <r_i_glide_ligand_efficiency_ln>
-0.922324

> <r_i_glide_ligand_efficiency_sa>
-0.397783

> <r_i_glide_lipo>
-2.40458

> <r_i_glide_metal>
0

> <r_i_glide_rewards>
0.942442

> <s_i_glide_gridfile>
wee1_glide-grid

> <s_m_Source_File>
wee1_decoys_glide_SP.sdf

> <s_m_Source_Path>
/Users/zhangxujun/Desktop

> <s_m_entry_id>
1192

> <s_m_entry_name>
wee1_decoys_glide_SP.917

> <s_m_subgroup_title>
wee1_decoys_glide_SP

> <s_m_subgroupid>
wee1_decoys_glide_SP


$$$$
