ZINC39596277_281
                    3D
 Schrodinger Suite 2024-2.
 69 72  0  0  1  0            999 V2000
    4.3374   53.7384   25.1515 C   0  0  0  0  0  0
    4.9651   54.0959   23.8102 C   0  0  0  0  0  0
    4.3096   53.7382   22.6328 C   0  0  0  0  0  0
    4.8015   54.1373   21.3917 C   0  0  0  0  0  0
    5.9786   54.9042   21.2821 C   0  0  0  0  0  0
    6.6802   55.1631   22.4787 C   0  0  0  0  0  0
    6.1767   54.7976   23.7308 C   0  0  0  0  0  0
    6.9163   55.2509   24.9813 C   0  0  0  0  0  0
    6.5013   55.5489   19.9911 C   0  0  0  0  0  0
    7.5340   56.2218   20.0768 O   0  0  0  0  0  0
    5.8494   55.4972   18.7924 N   0  0  0  0  0  0
    4.7045   54.6830   18.3967 C   0  0  0  0  0  0
    4.5570   54.9406   16.8774 C   0  0  2  0  0  0
    5.1793   54.1910   16.3856 H   0  0  0  0  0  0
    5.0904   56.3809   16.6828 C   0  0  0  0  0  0
    6.2841   56.3441   17.6692 C   0  0  0  0  0  0
    5.5010   56.7111   15.2266 C   0  0  0  0  0  0
    6.2149   58.0783   15.1386 C   0  0  0  0  0  0
    5.2495   59.1688   15.6578 N   0  3  0  0  0  0
    4.6503   58.8949   17.0538 C   0  0  0  0  0  0
    4.0459   57.4780   17.0658 C   0  0  0  0  0  0
    3.1113   54.6606   16.3817 C   0  0  0  0  0  0
    2.8867   54.6575   15.1694 O   0  0  0  0  0  0
    2.1692   54.3425   17.2830 N   0  0  0  0  0  0
    0.8517   53.7822   17.0062 C   0  0  0  0  0  0
    0.9129   52.2984   16.5682 C   0  0  2  0  0  0
    1.2784   52.3022   15.5390 H   0  0  0  0  0  0
   -0.4715   51.6186   16.5616 C   0  0  0  0  0  0
    1.9037   51.5352   17.2734 O   0  0  0  0  0  0
    1.6639   51.0268   18.5325 C   0  0  0  0  0  0
    1.7634   49.6421   18.6935 C   0  0  0  0  0  0
    1.6027   49.0678   19.9503 C   0  0  0  0  0  0
    1.3544   49.8883   21.0506 C   0  0  0  0  0  0
    1.2651   51.2719   20.9036 C   0  0  0  0  0  0
    1.4253   51.8455   19.6425 C   0  0  0  0  0  0
    1.2024   49.3288   22.2726 F   0  0  0  0  0  0
    3.5202   53.0223   25.0498 H   0  0  0  0  0  0
    5.0807   53.2955   25.8150 H   0  0  0  0  0  0
    3.9571   54.6379   25.6380 H   0  0  0  0  0  0
    3.3856   53.1796   22.6754 H   0  0  0  0  0  0
    4.1934   53.8416   20.5610 H   0  0  0  0  0  0
    7.6048   55.7248   22.4569 H   0  0  0  0  0  0
    6.2191   55.5887   25.7475 H   0  0  0  0  0  0
    7.5031   54.4314   25.3932 H   0  0  0  0  0  0
    7.5677   56.0984   24.7678 H   0  0  0  0  0  0
    3.8558   55.1036   18.9382 H   0  0  0  0  0  0
    4.8469   53.6167   18.5882 H   0  0  0  0  0  0
    7.1125   55.8292   17.1785 H   0  0  0  0  0  0
    6.6555   57.3319   17.9433 H   0  0  0  0  0  0
    6.2015   55.9531   14.8752 H   0  0  0  0  0  0
    4.6506   56.6536   14.5440 H   0  0  0  0  0  0
    7.1159   58.1431   15.7525 H   0  0  0  0  0  0
    6.4637   58.3553   14.1142 H   0  0  0  0  0  0
    5.6914   60.0799   15.6993 H   0  0  0  0  0  0
    5.4633   59.0480   17.7655 H   0  0  0  0  0  0
    3.8912   59.6679   17.2293 H   0  0  0  0  0  0
    3.1541   57.4335   16.4362 H   0  0  0  0  0  0
    3.6863   57.3061   18.0785 H   0  0  0  0  0  0
    2.4001   54.4200   18.2657 H   0  0  0  0  0  0
    0.3318   54.3779   16.2557 H   0  0  0  0  0  0
    0.2583   53.8761   17.9164 H   0  0  0  0  0  0
   -1.1741   52.1581   15.9269 H   0  0  0  0  0  0
   -0.3942   50.6022   16.1760 H   0  0  0  0  0  0
   -0.9003   51.5610   17.5625 H   0  0  0  0  0  0
    1.9978   49.0231   17.8368 H   0  0  0  0  0  0
    1.6869   47.9982   20.0758 H   0  0  0  0  0  0
    1.0927   51.8956   21.7678 H   0  0  0  0  0  0
    1.4043   52.9189   19.5460 H   0  0  0  0  0  0
    4.4823   59.2741   15.0096 H   0  0  0  0  0  0
  1  2  1  0  0  0
  1 37  1  0  0  0
  1 38  1  0  0  0
  1 39  1  0  0  0
  2  7  2  0  0  0
  2  3  1  0  0  0
  3  4  2  0  0  0
  3 40  1  0  0  0
  4  5  1  0  0  0
  4 41  1  0  0  0
  5  6  2  0  0  0
  5  9  1  0  0  0
  6  7  1  0  0  0
  6 42  1  0  0  0
  7  8  1  0  0  0
  8 43  1  0  0  0
  8 44  1  0  0  0
  8 45  1  0  0  0
  9 10  2  0  0  0
  9 11  1  0  0  0
 11 16  1  0  0  0
 11 12  1  0  0  0
 12 13  1  0  0  0
 12 46  1  0  0  0
 12 47  1  0  0  0
 13 14  1  0  0  0
 13 15  1  0  0  0
 13 22  1  0  0  0
 15 21  1  0  0  0
 15 16  1  0  0  0
 15 17  1  0  0  0
 16 48  1  0  0  0
 16 49  1  0  0  0
 17 18  1  0  0  0
 17 50  1  0  0  0
 17 51  1  0  0  0
 18 19  1  0  0  0
 18 52  1  0  0  0
 18 53  1  0  0  0
 19 20  1  0  0  0
 19 54  1  0  0  0
 19 69  1  0  0  0
 20 21  1  0  0  0
 20 55  1  0  0  0
 20 56  1  0  0  0
 21 57  1  0  0  0
 21 58  1  0  0  0
 22 23  2  0  0  0
 22 24  1  0  0  0
 24 25  1  0  0  0
 24 59  1  0  0  0
 25 26  1  0  0  0
 25 60  1  0  0  0
 25 61  1  0  0  0
 26 27  1  0  0  0
 26 28  1  0  0  0
 26 29  1  0  0  0
 28 62  1  0  0  0
 28 63  1  0  0  0
 28 64  1  0  0  0
 29 30  1  0  0  0
 30 35  2  0  0  0
 30 31  1  0  0  0
 31 32  2  0  0  0
 31 65  1  0  0  0
 32 33  1  0  0  0
 32 66  1  0  0  0
 33 34  2  0  0  0
 33 36  1  0  0  0
 34 35  1  0  0  0
 34 67  1  0  0  0
 35 68  1  0  0  0
M  CHG  1  19   1
M  END
> <i_i_glide_confnum>
227

> <i_i_glide_lignum>
282

> <i_i_glide_posenum>
292

> <i_i_glide_rotatable_bonds>
8

> <i_m_Source_File_Index>
3818

> <b_m_subgroup_collapsed>
0

> <r_i_docking_score>
-3.02324

> <r_i_glide_ecoul>
-5.63958

> <r_i_glide_eff_state_penalty>
0

> <r_i_glide_einternal>
12.8246

> <r_i_glide_emodel>
-33.4449

> <r_i_glide_energy>
-35.9485

> <r_i_glide_erotb>
0.643699

> <r_i_glide_esite>
-0.0966282

> <r_i_glide_evdw>
-30.3089

> <r_i_glide_gscore>
-3.02324

> <r_i_glide_hbond>
-0.210541

> <r_i_glide_ligand_efficiency>
-0.0889189

> <r_i_glide_ligand_efficiency_ln>
-0.667919

> <r_i_glide_ligand_efficiency_sa>
-0.288063

> <r_i_glide_lipo>
-1.66269

> <r_i_glide_metal>
0

> <r_i_glide_rewards>
0.664294

> <s_i_glide_gridfile>
wee1_glide-grid

> <s_m_Source_File>
wee1_decoys_glide_SP.sdf

> <s_m_Source_Path>
/Users/zhangxujun/Desktop

> <s_m_entry_id>
4093

> <s_m_entry_name>
wee1_decoys_glide_SP.3818

> <s_m_subgroup_title>
wee1_decoys_glide_SP

> <s_m_subgroupid>
wee1_decoys_glide_SP


$$$$
