ZINC63152673_2941
                    3D
 Schrodinger Suite 2024-2.
 61 64  0  0  1  0            999 V2000
    5.3725   54.2297   28.1174 C   0  0  0  0  0  0
    5.0367   54.2028   26.7336 O   0  0  0  0  0  0
    5.9636   54.5455   25.8022 C   0  0  0  0  0  0
    7.1043   54.9035   26.0928 O   0  0  0  0  0  0
    5.4894   54.4235   24.3861 C   0  0  0  0  0  0
    6.3900   54.6297   23.3301 C   0  0  0  0  0  0
    5.9723   54.5068   22.0051 C   0  0  0  0  0  0
    4.6555   54.1717   21.7055 C   0  0  0  0  0  0
    3.7461   53.9635   22.7466 C   0  0  0  0  0  0
    4.1629   54.0956   24.0744 C   0  0  0  0  0  0
    2.4166   53.6277   22.4806 N   0  0  0  0  0  0
    1.9705   52.3571   22.4167 C   0  0  0  0  0  0
    2.7031   51.3649   22.4752 O   0  0  0  0  0  0
    0.4338   52.1907   22.2868 C   0  0  2  0  0  0
    0.1235   52.8391   21.4628 H   0  0  0  0  0  0
   -0.3020   52.6773   23.5847 C   0  0  0  0  0  0
   -0.1112   51.8256   24.8441 C   0  0  0  0  0  0
    0.5258   52.1158   25.9946 C   0  0  0  0  0  0
    1.3430   53.2789   26.3724 C   0  0  0  0  0  0
    1.8352   53.4093   27.6191 C   0  0  0  0  0  0
    1.5158   52.3712   28.5877 C   0  0  0  0  0  0
    0.7449   51.3011   28.2627 C   0  0  0  0  0  0
    0.2442   51.1495   26.9649 C   0  0  0  0  0  0
   -0.5260   50.2066   26.4797 N   0  3  0  0  0  0
   -0.8187   50.4973   25.0616 C   0  0  0  0  0  0
    0.0983   50.8090   21.9018 N   0  0  0  0  0  0
   -1.1966   50.4333   21.5852 C   0  0  0  0  0  0
   -2.1853   51.1702   21.5368 O   0  0  0  0  0  0
   -1.2158   49.1007   21.3944 O   0  0  0  0  0  0
   -2.4222   48.3512   21.5239 C   0  0  0  0  0  0
   -2.6975   48.0516   22.9920 C   0  0  0  0  0  0
   -1.7853   47.2884   23.7250 C   0  0  0  0  0  0
   -2.0084   47.0500   25.0779 C   0  0  0  0  0  0
   -3.1453   47.5683   25.6903 C   0  0  0  0  0  0
   -4.0650   48.3190   24.9620 C   0  0  0  0  0  0
   -3.8415   48.5623   23.6091 C   0  0  0  0  0  0
    4.2758   54.0586   20.4119 F   0  0  0  0  0  0
    4.5300   53.8911   28.7184 H   0  0  0  0  0  0
    6.2172   53.5719   28.3286 H   0  0  0  0  0  0
    5.6363   55.2390   28.4389 H   0  0  0  0  0  0
    7.4240   54.8844   23.5223 H   0  0  0  0  0  0
    6.6741   54.6761   21.2018 H   0  0  0  0  0  0
    3.4567   53.9114   24.8634 H   0  0  0  0  0  0
    1.7771   54.3866   22.2976 H   0  0  0  0  0  0
   -1.3747   52.7424   23.3996 H   0  0  0  0  0  0
   -0.0096   53.7018   23.8172 H   0  0  0  0  0  0
    1.5250   54.0778   25.6715 H   0  0  0  0  0  0
    2.4078   54.2805   27.9016 H   0  0  0  0  0  0
    1.8684   52.4752   29.6040 H   0  0  0  0  0  0
    0.4952   50.5932   29.0361 H   0  0  0  0  0  0
   -0.4119   49.6811   24.4639 H   0  0  0  0  0  0
   -1.9019   50.5431   24.9414 H   0  0  0  0  0  0
    0.8078   50.0976   22.0073 H   0  0  0  0  0  0
   -3.2667   48.8675   21.0643 H   0  0  0  0  0  0
   -2.3100   47.4051   20.9933 H   0  0  0  0  0  0
   -0.8954   46.9001   23.2522 H   0  0  0  0  0  0
   -1.2955   46.4841   25.6627 H   0  0  0  0  0  0
   -3.3035   47.3969   26.7467 H   0  0  0  0  0  0
   -4.9415   48.7196   25.4506 H   0  0  0  0  0  0
   -4.5479   49.1589   23.0493 H   0  0  0  0  0  0
   -0.8953   49.4097   27.0144 H   0  0  0  0  0  0
  1  2  1  0  0  0
  1 38  1  0  0  0
  1 39  1  0  0  0
  1 40  1  0  0  0
  2  3  1  0  0  0
  3  4  2  0  0  0
  3  5  1  0  0  0
  5 10  2  0  0  0
  5  6  1  0  0  0
  6  7  2  0  0  0
  6 41  1  0  0  0
  7  8  1  0  0  0
  7 42  1  0  0  0
  8  9  2  0  0  0
  8 37  1  0  0  0
  9 10  1  0  0  0
  9 11  1  0  0  0
 10 43  1  0  0  0
 11 12  1  0  0  0
 11 44  1  0  0  0
 12 13  2  0  0  0
 12 14  1  0  0  0
 14 15  1  0  0  0
 14 16  1  0  0  0
 14 26  1  0  0  0
 16 17  1  0  0  0
 16 45  1  0  0  0
 16 46  1  0  0  0
 17 25  1  0  0  0
 17 18  2  0  0  0
 18 23  1  0  0  0
 18 19  1  0  0  0
 19 20  2  0  0  0
 19 47  1  0  0  0
 20 21  1  0  0  0
 20 48  1  0  0  0
 21 22  2  0  0  0
 21 49  1  0  0  0
 22 23  1  0  0  0
 22 50  1  0  0  0
 23 24  2  0  0  0
 24 25  1  0  0  0
 24 61  1  0  0  0
 25 51  1  0  0  0
 25 52  1  0  0  0
 26 27  1  0  0  0
 26 53  1  0  0  0
 27 28  2  0  0  0
 27 29  1  0  0  0
 29 30  1  0  0  0
 30 31  1  0  0  0
 30 54  1  0  0  0
 30 55  1  0  0  0
 31 36  2  0  0  0
 31 32  1  0  0  0
 32 33  2  0  0  0
 32 56  1  0  0  0
 33 34  1  0  0  0
 33 57  1  0  0  0
 34 35  2  0  0  0
 34 58  1  0  0  0
 35 36  1  0  0  0
 35 59  1  0  0  0
 36 60  1  0  0  0
M  CHG  1  24   1
M  END
> <i_i_glide_confnum>
36

> <i_i_glide_lignum>
2942

> <i_i_glide_posenum>
153

> <i_i_glide_rotatable_bonds>
12

> <i_m_Source_File_Index>
3078

> <b_m_subgroup_collapsed>
0

> <r_i_docking_score>
-6.35138

> <r_i_glide_ecoul>
-5.99156

> <r_i_glide_eff_state_penalty>
0

> <r_i_glide_einternal>
6.77122

> <r_i_glide_emodel>
-66.8584

> <r_i_glide_energy>
-47.1318

> <r_i_glide_erotb>
0.761281

> <r_i_glide_esite>
-0.0966606

> <r_i_glide_evdw>
-41.1402

> <r_i_glide_gscore>
-6.35138

> <r_i_glide_hbond>
-0.551937

> <r_i_glide_ligand_efficiency>
-0.176427

> <r_i_glide_ligand_efficiency_ln>
-1.3857

> <r_i_glide_ligand_efficiency_sa>
-0.582549

> <r_i_glide_lipo>
-2.35893

> <r_i_glide_metal>
0

> <r_i_glide_rewards>
-1.14938

> <s_i_glide_gridfile>
wee1_glide-grid

> <s_m_Source_File>
wee1_decoys_glide_SP.sdf

> <s_m_Source_Path>
/Users/zhangxujun/Desktop

> <s_m_entry_id>
3353

> <s_m_entry_name>
wee1_decoys_glide_SP.3078

> <s_m_subgroup_title>
wee1_decoys_glide_SP

> <s_m_subgroupid>
wee1_decoys_glide_SP


$$$$
