ZINC03631462_943
                    3D
 Schrodinger Suite 2024-2.
 58 60  0  0  1  0            999 V2000
   -3.5471   50.0118   24.0958 C   0  0  0  0  0  0
   -3.6445   50.9412   22.8809 C   0  0  0  0  0  0
   -2.3715   51.0921   22.2489 O   0  0  0  0  0  0
   -1.5195   52.0930   22.5909 C   0  0  0  0  0  0
   -1.8271   52.9715   23.3997 O   0  0  0  0  0  0
   -0.1504   52.0081   21.9949 C   0  0  0  0  0  0
    0.1558   51.2724   20.8867 C   0  0  0  0  0  0
    1.4594   51.2045   20.4457 N   0  0  0  0  0  0
    2.5347   51.8400   21.0242 C   0  0  0  0  0  0
    2.3530   52.6280   22.1177 C   0  0  0  0  0  0
    0.9724   52.7075   22.8296 C   0  0  2  0  0  0
    0.7042   53.7613   22.9178 H   0  0  0  0  0  0
    1.0028   52.3023   24.3232 C   0  0  0  0  0  0
    0.6473   51.0034   24.7019 C   0  0  0  0  0  0
    0.4542   50.6672   26.0496 C   0  0  0  0  0  0
    0.7054   51.6245   27.0359 C   0  0  0  0  0  0
    1.1459   52.8995   26.6776 C   0  0  0  0  0  0
    1.2800   53.2344   25.3297 C   0  0  0  0  0  0
    1.5086   54.2277   28.0005 Br  0  0  0  0  0  0
    0.4981   51.2975   28.3528 O   0  0  0  0  0  0
    0.0503   49.4240   26.4787 O   0  0  0  0  0  0
   -0.3706   48.4569   25.5278 C   0  0  0  0  0  0
    3.4397   53.5045   22.6036 C   0  0  0  0  0  0
    3.1811   54.4825   23.3059 O   0  0  0  0  0  0
    4.8516   53.2500   22.0101 C   0  0  1  0  0  0
    5.1771   52.3258   22.4817 H   0  0  0  0  0  0
    4.7739   52.9520   20.4737 C   0  0  1  0  0  0
    5.7585   52.6490   20.1126 H   0  0  0  0  0  0
    3.8519   51.7245   20.2507 C   0  0  0  0  0  0
    4.3618   54.1550   19.5856 C   0  0  0  0  0  0
    5.9049   54.2865   22.4844 C   0  0  0  0  0  0
    6.0995   54.4844   23.6867 O   0  0  0  0  0  0
    6.5749   54.8967   21.4886 O   0  0  0  0  0  0
    7.4750   55.9569   21.7538 C   0  0  0  0  0  0
   -0.7959   50.5542   19.9332 C   0  0  0  0  0  0
   -4.5224   49.8845   24.5653 H   0  0  0  0  0  0
   -3.1882   49.0235   23.8058 H   0  0  0  0  0  0
   -2.8702   50.4169   24.8498 H   0  0  0  0  0  0
   -4.0614   51.9003   23.1960 H   0  0  0  0  0  0
   -4.3402   50.5169   22.1558 H   0  0  0  0  0  0
    1.6570   50.5919   19.6675 H   0  0  0  0  0  0
    0.4686   50.2715   23.9295 H   0  0  0  0  0  0
    1.5454   54.2487   25.0771 H   0  0  0  0  0  0
    0.0787   50.4312   28.4170 H   0  0  0  0  0  0
   -0.8957   47.6585   26.0505 H   0  0  0  0  0  0
   -1.0654   48.8638   24.7956 H   0  0  0  0  0  0
    0.4847   48.0272   25.0050 H   0  0  0  0  0  0
    4.3390   50.7777   20.4809 H   0  0  0  0  0  0
    3.6434   51.6976   19.1792 H   0  0  0  0  0  0
    3.5044   54.6795   19.9922 H   0  0  0  0  0  0
    5.1601   54.8882   19.4826 H   0  0  0  0  0  0
    4.1108   53.8427   18.5716 H   0  0  0  0  0  0
    8.2881   55.9562   21.0271 H   0  0  0  0  0  0
    6.9347   56.8965   21.6705 H   0  0  0  0  0  0
    7.9043   55.9085   22.7537 H   0  0  0  0  0  0
   -1.7810   51.0167   19.9006 H   0  0  0  0  0  0
   -0.4282   50.5766   18.9063 H   0  0  0  0  0  0
   -0.9067   49.5107   20.2287 H   0  0  0  0  0  0
  1  2  1  0  0  0
  1 36  1  0  0  0
  1 37  1  0  0  0
  1 38  1  0  0  0
  2  3  1  0  0  0
  2 39  1  0  0  0
  2 40  1  0  0  0
  3  4  1  0  0  0
  4  5  2  0  0  0
  4  6  1  0  0  0
  6 11  1  0  0  0
  6  7  2  0  0  0
  7  8  1  0  0  0
  7 35  1  0  0  0
  8  9  1  0  0  0
  8 41  1  0  0  0
  9 29  1  0  0  0
  9 10  2  0  0  0
 10 11  1  0  0  0
 10 23  1  0  0  0
 11 12  1  0  0  0
 11 13  1  0  0  0
 13 18  2  0  0  0
 13 14  1  0  0  0
 14 15  2  0  0  0
 14 42  1  0  0  0
 15 16  1  0  0  0
 15 21  1  0  0  0
 16 17  2  0  0  0
 16 20  1  0  0  0
 17 18  1  0  0  0
 17 19  1  0  0  0
 18 43  1  0  0  0
 20 44  1  0  0  0
 21 22  1  0  0  0
 22 45  1  0  0  0
 22 46  1  0  0  0
 22 47  1  0  0  0
 23 24  2  0  0  0
 23 25  1  0  0  0
 25 26  1  0  0  0
 25 27  1  0  0  0
 25 31  1  0  0  0
 27 28  1  0  0  0
 27 29  1  0  0  0
 27 30  1  0  0  0
 29 48  1  0  0  0
 29 49  1  0  0  0
 30 50  1  0  0  0
 30 51  1  0  0  0
 30 52  1  0  0  0
 31 32  2  0  0  0
 31 33  1  0  0  0
 33 34  1  0  0  0
 34 53  1  0  0  0
 34 54  1  0  0  0
 34 55  1  0  0  0
 35 56  1  0  0  0
 35 57  1  0  0  0
 35 58  1  0  0  0
M  END
> <i_i_glide_confnum>
80

> <i_i_glide_lignum>
944

> <i_i_glide_posenum>
345

> <i_i_glide_rotatable_bonds>
8

> <i_m_Source_File_Index>
1435

> <b_m_subgroup_collapsed>
0

> <r_i_docking_score>
-3.52894

> <r_i_glide_ecoul>
-1.58592

> <r_i_glide_eff_state_penalty>
0

> <r_i_glide_einternal>
12.7314

> <r_i_glide_emodel>
-38.7412

> <r_i_glide_energy>
-37.1114

> <r_i_glide_erotb>
0.316881

> <r_i_glide_esite>
-0.0121146

> <r_i_glide_evdw>
-35.5255

> <r_i_glide_gscore>
-3.52894

> <r_i_glide_hbond>
0

> <r_i_glide_ligand_efficiency>
-0.11028

> <r_i_glide_ligand_efficiency_ln>
-0.790227

> <r_i_glide_ligand_efficiency_sa>
-0.350116

> <r_i_glide_lipo>
-1.34231

> <r_i_glide_metal>
0

> <r_i_glide_rewards>
-0.477244

> <s_i_glide_gridfile>
wee1_glide-grid

> <s_m_Source_File>
wee1_decoys_glide_SP.sdf

> <s_m_Source_Path>
/Users/zhangxujun/Desktop

> <s_m_entry_id>
1710

> <s_m_entry_name>
wee1_decoys_glide_SP.1435

> <s_m_subgroup_title>
wee1_decoys_glide_SP

> <s_m_subgroupid>
wee1_decoys_glide_SP


$$$$
