ZINC13205394_519
                    3D
 Schrodinger Suite 2024-2.
 47 50  0  0  1  0            999 V2000
    5.3581   54.5211   23.6871 C   0  0  0  0  0  0
    5.3623   54.4450   25.2019 C   0  0  0  0  0  0
    6.5753   54.4258   25.8922 C   0  0  0  0  0  0
    6.5878   54.3241   27.2830 C   0  0  0  0  0  0
    5.3876   54.2506   27.9895 C   0  0  0  0  0  0
    4.1661   54.2851   27.3097 C   0  0  0  0  0  0
    4.1611   54.3896   25.9145 C   0  0  0  0  0  0
    2.8645   54.2570   28.0323 C   0  0  0  0  0  0
    2.0567   55.2828   28.0818 N   0  0  0  0  0  0
    0.9354   54.8966   28.7945 N   0  0  0  0  0  0
    1.1037   53.6599   29.1700 C   0  0  0  0  0  0
    2.3501   53.2157   28.7802 N   0  0  0  0  0  0
    3.0191   51.9922   29.2080 C   0  0  0  0  0  0
    3.6644   52.2570   30.5723 C   0  0  0  0  0  0
    3.9044   51.2969   31.3217 O   0  0  0  0  0  0
   -0.0551   52.8076   30.1892 S   0  0  0  0  0  0
   -0.5988   51.4086   29.1327 C   0  0  0  0  0  0
   -0.7197   51.6230   27.6193 C   0  0  0  0  0  0
   -0.8959   52.7463   27.1587 O   0  0  0  0  0  0
   -0.6731   50.4966   26.8815 N   0  0  0  0  0  0
   -0.6679   50.3505   25.4843 C   0  0  0  0  0  0
   -0.3129   51.3820   24.5830 C   0  0  0  0  0  0
   -0.3390   51.1651   23.1982 C   0  0  0  0  0  0
   -0.7198   49.9058   22.7497 C   0  0  0  0  0  0
   -1.0365   48.8983   23.6137 C   0  0  0  0  0  0
   -1.0127   49.0802   24.9927 C   0  0  0  0  0  0
   -1.3608   47.7831   22.9082 O   0  0  0  0  0  0
   -1.3177   48.1435   21.5494 C   0  0  0  0  0  0
   -0.8476   49.4650   21.4716 O   0  0  0  0  0  0
   -0.4958   47.3307   20.8861 F   0  0  0  0  0  0
   -2.5390   48.0631   21.0199 F   0  0  0  0  0  0
    4.3753   54.7888   23.2968 H   0  0  0  0  0  0
    6.0601   55.2854   23.3480 H   0  0  0  0  0  0
    5.6682   53.5681   23.2576 H   0  0  0  0  0  0
    7.5045   54.4790   25.3453 H   0  0  0  0  0  0
    7.5230   54.3091   27.8218 H   0  0  0  0  0  0
    5.4147   54.1966   29.0673 H   0  0  0  0  0  0
    3.2190   54.4175   25.3855 H   0  0  0  0  0  0
    2.2937   51.1845   29.2592 H   0  0  0  0  0  0
    3.7880   51.7306   28.4868 H   0  0  0  0  0  0
   -1.5581   51.0575   29.5135 H   0  0  0  0  0  0
    0.1059   50.5969   29.2816 H   0  0  0  0  0  0
   -0.7897   49.6222   27.3993 H   0  0  0  0  0  0
   -0.0083   52.3544   24.9405 H   0  0  0  0  0  0
   -0.0746   51.9567   22.5120 H   0  0  0  0  0  0
   -1.2659   48.2745   25.6689 H   0  0  0  0  0  0
    3.9045   53.4344   30.8817 O   0  5  0  0  0  0
  1  2  1  0  0  0
  1 32  1  0  0  0
  1 33  1  0  0  0
  1 34  1  0  0  0
  2  7  2  0  0  0
  2  3  1  0  0  0
  3  4  2  0  0  0
  3 35  1  0  0  0
  4  5  1  0  0  0
  4 36  1  0  0  0
  5  6  2  0  0  0
  5 37  1  0  0  0
  6  7  1  0  0  0
  6  8  1  0  0  0
  7 38  1  0  0  0
  8 12  1  0  0  0
  8  9  2  0  0  0
  9 10  1  0  0  0
 10 11  2  0  0  0
 11 12  1  0  0  0
 11 16  1  0  0  0
 12 13  1  0  0  0
 13 14  1  0  0  0
 13 39  1  0  0  0
 13 40  1  0  0  0
 14 15  2  0  0  0
 14 47  1  0  0  0
 16 17  1  0  0  0
 17 18  1  0  0  0
 17 41  1  0  0  0
 17 42  1  0  0  0
 18 19  2  0  0  0
 18 20  1  0  0  0
 20 21  1  0  0  0
 20 43  1  0  0  0
 21 26  2  0  0  0
 21 22  1  0  0  0
 22 23  2  0  0  0
 22 44  1  0  0  0
 23 24  1  0  0  0
 23 45  1  0  0  0
 24 29  1  0  0  0
 24 25  2  0  0  0
 25 26  1  0  0  0
 25 27  1  0  0  0
 26 46  1  0  0  0
 27 28  1  0  0  0
 28 29  1  0  0  0
 28 30  1  0  0  0
 28 31  1  0  0  0
M  CHG  1  47  -1
M  END
> <i_i_glide_confnum>
32

> <i_i_glide_lignum>
520

> <i_i_glide_posenum>
194

> <i_i_glide_rotatable_bonds>
8

> <i_m_Source_File_Index>
1692

> <b_m_subgroup_collapsed>
0

> <r_i_docking_score>
-7.23363

> <r_i_glide_ecoul>
-11.9084

> <r_i_glide_eff_state_penalty>
0

> <r_i_glide_einternal>
6.2851

> <r_i_glide_emodel>
-67.7326

> <r_i_glide_energy>
-48.9492

> <r_i_glide_erotb>
0.567458

> <r_i_glide_esite>
-0.156714

> <r_i_glide_evdw>
-37.0408

> <r_i_glide_gscore>
-7.23363

> <r_i_glide_hbond>
-0.434038

> <r_i_glide_ligand_efficiency>
-0.226051

> <r_i_glide_ligand_efficiency_ln>
-1.61981

> <r_i_glide_ligand_efficiency_sa>
-0.717667

> <r_i_glide_lipo>
-2.15169

> <r_i_glide_metal>
0

> <r_i_glide_rewards>
-1.42035

> <s_i_glide_gridfile>
wee1_glide-grid

> <s_m_Source_File>
wee1_decoys_glide_SP.sdf

> <s_m_Source_Path>
/Users/zhangxujun/Desktop

> <s_m_entry_id>
1967

> <s_m_entry_name>
wee1_decoys_glide_SP.1692

> <s_m_subgroup_title>
wee1_decoys_glide_SP

> <s_m_subgroupid>
wee1_decoys_glide_SP


$$$$
