ZINC39992603_6121
                    3D
 Schrodinger Suite 2024-2.
 56 59  0  0  1  0            999 V2000
    1.0036   52.5042   26.6063 C   0  0  0  0  0  0
    2.0216   52.9025   25.7425 C   0  0  0  0  0  0
    3.1565   53.5973   26.1991 C   0  0  0  0  0  0
    3.1952   53.9464   27.5685 C   0  0  0  0  0  0
    2.1640   53.5572   28.4271 C   0  0  0  0  0  0
    1.0769   52.8306   27.9550 C   0  0  0  0  0  0
   -0.1804   52.3528   29.0361 Cl  0  0  0  0  0  0
    4.4370   54.8962   28.2845 Cl  0  0  0  0  0  0
    4.1744   53.8794   25.1399 C   0  0  0  0  0  0
    5.5374   53.9845   25.1420 C   0  0  0  0  0  0
    6.3719   53.8503   26.2922 C   0  0  0  0  0  0
    7.1020   53.7723   27.1871 N   0  0  0  0  0  0
    6.2725   54.1554   23.8905 C   0  0  0  0  0  0
    7.3601   53.6215   23.6884 O   0  0  0  0  0  0
    5.6506   54.8960   22.9559 N   0  0  0  0  0  0
    5.8913   54.8651   21.5918 C   0  0  0  0  0  0
    5.3735   53.9711   20.6359 C   0  0  0  0  0  0
    5.6788   54.3992   19.3109 C   0  0  0  0  0  0
    6.4064   55.6009   19.2968 C   0  0  0  0  0  0
    6.7153   56.2019   20.8833 S   0  0  0  0  0  0
    6.9561   56.2934   18.0570 C   0  0  0  0  0  0
    6.2767   55.7125   16.8018 C   0  0  0  0  0  0
    6.2301   54.1771   16.8412 C   0  0  0  0  0  0
    5.3635   53.6543   18.0074 C   0  0  0  0  0  0
    4.7194   52.7257   20.9983 C   0  0  0  0  0  0
    5.0791   52.1017   21.9960 O   0  0  0  0  0  0
    3.7255   52.3214   20.1902 N   0  0  0  0  0  0
    2.9719   51.0673   20.3193 C   0  0  0  0  0  0
    2.3514   50.7666   21.7147 C   0  0  2  0  0  0
    3.1319   50.4746   22.4180 H   0  0  0  0  0  0
    1.1473   49.8234   21.7156 C   0  0  0  0  0  0
   -0.0712   50.7077   21.5401 C   0  0  0  0  0  0
    0.4388   52.1205   21.8146 C   0  0  0  0  0  0
    1.7752   51.9509   22.2746 O   0  0  0  0  0  0
    0.1600   51.9437   26.2290 H   0  0  0  0  0  0
    1.9350   52.6177   24.7031 H   0  0  0  0  0  0
    2.2027   53.8279   29.4718 H   0  0  0  0  0  0
    3.6944   53.9597   24.1720 H   0  0  0  0  0  0
    4.8448   55.4250   23.2433 H   0  0  0  0  0  0
    6.8039   57.3725   18.0994 H   0  0  0  0  0  0
    8.0319   56.1259   17.9913 H   0  0  0  0  0  0
    5.2625   56.1059   16.7144 H   0  0  0  0  0  0
    6.8066   56.0499   15.9100 H   0  0  0  0  0  0
    5.8434   53.7886   15.8980 H   0  0  0  0  0  0
    7.2443   53.7844   16.9336 H   0  0  0  0  0  0
    5.5296   52.5838   18.1180 H   0  0  0  0  0  0
    4.3093   53.7760   17.7583 H   0  0  0  0  0  0
    3.4825   52.9110   19.4085 H   0  0  0  0  0  0
    2.1802   51.0959   19.5702 H   0  0  0  0  0  0
    3.6105   50.2352   20.0195 H   0  0  0  0  0  0
    1.2370   49.0275   20.9750 H   0  0  0  0  0  0
    1.1102   49.3076   22.6765 H   0  0  0  0  0  0
   -0.4669   50.6328   20.5272 H   0  0  0  0  0  0
   -0.8659   50.4247   22.2305 H   0  0  0  0  0  0
    0.4421   52.7381   20.9151 H   0  0  0  0  0  0
   -0.1526   52.6414   22.5670 H   0  0  0  0  0  0
  1  6  2  0  0  0
  1  2  1  0  0  0
  1 35  1  0  0  0
  2  3  2  0  0  0
  2 36  1  0  0  0
  3  4  1  0  0  0
  3  9  1  0  0  0
  4  5  2  0  0  0
  4  8  1  0  0  0
  5  6  1  0  0  0
  5 37  1  0  0  0
  6  7  1  0  0  0
  9 10  2  0  0  0
  9 38  1  0  0  0
 10 11  1  0  0  0
 10 13  1  0  0  0
 11 12  3  0  0  0
 13 14  2  0  0  0
 13 15  1  0  0  0
 15 16  1  0  0  0
 15 39  1  0  0  0
 16 20  1  0  0  0
 16 17  2  0  0  0
 17 18  1  0  0  0
 17 25  1  0  0  0
 18 24  1  0  0  0
 18 19  2  0  0  0
 19 20  1  0  0  0
 19 21  1  0  0  0
 21 22  1  0  0  0
 21 40  1  0  0  0
 21 41  1  0  0  0
 22 23  1  0  0  0
 22 42  1  0  0  0
 22 43  1  0  0  0
 23 24  1  0  0  0
 23 44  1  0  0  0
 23 45  1  0  0  0
 24 46  1  0  0  0
 24 47  1  0  0  0
 25 26  2  0  0  0
 25 27  1  0  0  0
 27 28  1  0  0  0
 27 48  1  0  0  0
 28 29  1  0  0  0
 28 49  1  0  0  0
 28 50  1  0  0  0
 29 30  1  0  0  0
 29 34  1  0  0  0
 29 31  1  0  0  0
 31 32  1  0  0  0
 31 51  1  0  0  0
 31 52  1  0  0  0
 32 33  1  0  0  0
 32 53  1  0  0  0
 32 54  1  0  0  0
 33 34  1  0  0  0
 33 55  1  0  0  0
 33 56  1  0  0  0
M  END
> <i_i_glide_confnum>
551

> <i_i_glide_lignum>
6122

> <i_i_glide_posenum>
321

> <i_i_glide_rotatable_bonds>
9

> <i_m_Source_File_Index>
4610

> <b_m_subgroup_collapsed>
0

> <r_i_docking_score>
-4.83752

> <r_i_glide_ecoul>
-1.65434

> <r_i_glide_eff_state_penalty>
0

> <r_i_glide_einternal>
28.7914

> <r_i_glide_emodel>
-36.2185

> <r_i_glide_energy>
-39.6423

> <r_i_glide_erotb>
0.562495

> <r_i_glide_esite>
-0.0292125

> <r_i_glide_evdw>
-37.988

> <r_i_glide_gscore>
-4.83752

> <r_i_glide_hbond>
0

> <r_i_glide_ligand_efficiency>
-0.146591

> <r_i_glide_ligand_efficiency_ln>
-1.07584

> <r_i_glide_ligand_efficiency_sa>
-0.470197

> <r_i_glide_lipo>
-2.3148

> <r_i_glide_metal>
0

> <r_i_glide_rewards>
-0.908448

> <s_i_glide_gridfile>
wee1_glide-grid

> <s_m_Source_File>
wee1_decoys_glide_SP.sdf

> <s_m_Source_Path>
/Users/zhangxujun/Desktop

> <s_m_entry_id>
4885

> <s_m_entry_name>
wee1_decoys_glide_SP.4610

> <s_m_subgroup_title>
wee1_decoys_glide_SP

> <s_m_subgroupid>
wee1_decoys_glide_SP


$$$$
