ZINC45071634_4738
                    3D
 Schrodinger Suite 2024-2.
 44 46  0  0  1  0            999 V2000
    0.3027   50.6806   26.2919 C   0  0  0  0  0  0
    0.5491   50.1791   25.0140 C   0  0  0  0  0  0
    1.1042   51.0007   24.0319 C   0  0  0  0  0  0
    1.3871   52.3356   24.3292 C   0  0  0  0  0  0
    1.1063   52.8333   25.6026 C   0  0  0  0  0  0
    0.6200   52.0074   26.6217 C   0  0  0  0  0  0
    0.4638   52.4865   27.9379 N   0  0  0  0  0  0
   -0.0702   51.6970   29.0400 C   0  0  0  0  0  0
   -0.3253   52.6313   30.2007 C   0  0  0  0  0  0
    0.7838   53.6411   30.0820 C   0  0  0  0  0  0
    1.0875   53.6707   28.5686 C   0  0  1  0  0  0
    0.6223   54.5625   28.1455 H   0  0  0  0  0  0
    2.6061   53.8402   28.2840 C   0  0  0  0  0  0
    3.3449   54.9622   29.0195 C   0  0  0  0  0  0
    4.8358   54.6214   28.8787 C   0  0  0  0  0  0
    4.9011   53.1174   28.5682 C   0  0  0  0  0  0
    3.4605   52.6154   28.6076 C   0  0  0  0  0  0
    2.1336   53.4394   23.1355 S   0  0  0  0  0  0
    1.5044   54.7400   23.3494 O   0  0  0  0  0  0
    3.5875   53.2968   23.2291 O   0  0  0  0  0  0
    1.6548   52.8966   21.5552 N   0  0  0  0  0  0
    0.3037   48.8356   24.7509 N   0  0  0  0  0  0
   -0.0951   50.0117   27.0416 H   0  0  0  0  0  0
    1.3222   50.6032   23.0514 H   0  0  0  0  0  0
    1.2997   53.8753   25.7958 H   0  0  0  0  0  0
    0.6254   50.8966   29.2819 H   0  0  0  0  0  0
   -1.0000   51.2182   28.7275 H   0  0  0  0  0  0
   -0.3272   52.1105   31.1599 H   0  0  0  0  0  0
   -1.2956   53.0916   30.0813 H   0  0  0  0  0  0
    1.6288   53.3386   30.6984 H   0  0  0  0  0  0
    0.4121   54.6038   30.4360 H   0  0  0  0  0  0
    2.7770   54.0514   27.2308 H   0  0  0  0  0  0
    3.1012   54.9470   30.0802 H   0  0  0  0  0  0
    3.0585   55.9551   28.6754 H   0  0  0  0  0  0
    5.3960   54.8967   29.7736 H   0  0  0  0  0  0
    5.2727   55.1893   28.0550 H   0  0  0  0  0  0
    5.5043   52.5667   29.2816 H   0  0  0  0  0  0
    5.3315   52.9490   27.5795 H   0  0  0  0  0  0
    3.2350   51.7713   27.9599 H   0  0  0  0  0  0
    3.2447   52.2594   29.6147 H   0  0  0  0  0  0
    1.5044   53.7112   20.9398 H   0  0  0  0  0  0
    2.3432   52.2702   21.1322 H   0  0  0  0  0  0
    0.9326   48.4201   24.0795 H   0  0  0  0  0  0
    0.0584   48.2807   25.5630 H   0  0  0  0  0  0
  1  6  2  0  0  0
  1  2  1  0  0  0
  1 23  1  0  0  0
  2  3  2  0  0  0
  2 22  1  0  0  0
  3  4  1  0  0  0
  3 24  1  0  0  0
  4  5  2  0  0  0
  4 18  1  0  0  0
  5  6  1  0  0  0
  5 25  1  0  0  0
  6  7  1  0  0  0
  7 11  1  0  0  0
  7  8  1  0  0  0
  8  9  1  0  0  0
  8 26  1  0  0  0
  8 27  1  0  0  0
  9 10  1  0  0  0
  9 28  1  0  0  0
  9 29  1  0  0  0
 10 11  1  0  0  0
 10 30  1  0  0  0
 10 31  1  0  0  0
 11 12  1  0  0  0
 11 13  1  0  0  0
 13 17  1  0  0  0
 13 14  1  0  0  0
 13 32  1  0  0  0
 14 15  1  0  0  0
 14 33  1  0  0  0
 14 34  1  0  0  0
 15 16  1  0  0  0
 15 35  1  0  0  0
 15 36  1  0  0  0
 16 17  1  0  0  0
 16 37  1  0  0  0
 16 38  1  0  0  0
 17 39  1  0  0  0
 17 40  1  0  0  0
 18 19  2  0  0  0
 18 20  2  0  0  0
 18 21  1  0  0  0
 21 41  1  0  0  0
 21 42  1  0  0  0
 22 43  1  0  0  0
 22 44  1  0  0  0
M  END
> <i_i_glide_confnum>
2

> <i_i_glide_lignum>
4739

> <i_i_glide_posenum>
119

> <i_i_glide_rotatable_bonds>
3

> <i_m_Source_File_Index>
913

> <b_m_subgroup_collapsed>
0

> <r_i_docking_score>
-5.60891

> <r_i_glide_ecoul>
-6.7893

> <r_i_glide_eff_state_penalty>
0

> <r_i_glide_einternal>
2.71452

> <r_i_glide_emodel>
-45.1366

> <r_i_glide_energy>
-35.1711

> <r_i_glide_erotb>
0.386775

> <r_i_glide_esite>
-0.0620181

> <r_i_glide_evdw>
-28.3818

> <r_i_glide_gscore>
-5.60891

> <r_i_glide_hbond>
-0.401995

> <r_i_glide_ligand_efficiency>
-0.267091

> <r_i_glide_ligand_efficiency_ln>
-1.38679

> <r_i_glide_ligand_efficiency_sa>
-0.736884

> <r_i_glide_lipo>
-1.90438

> <r_i_glide_metal>
0

> <r_i_glide_rewards>
-1.18981

> <s_i_glide_gridfile>
wee1_glide-grid

> <s_m_Source_File>
wee1_decoys_glide_SP.sdf

> <s_m_Source_Path>
/Users/zhangxujun/Desktop

> <s_m_entry_id>
1188

> <s_m_entry_name>
wee1_decoys_glide_SP.913

> <s_m_subgroup_title>
wee1_decoys_glide_SP

> <s_m_subgroupid>
wee1_decoys_glide_SP


$$$$
