ZINC39691017_2162
                    3D
 Schrodinger Suite 2024-2.
 66 68  0  0  1  0            999 V2000
    2.0365   56.0575   29.6033 C   0  0  0  0  0  0
    1.7009   54.5539   29.7100 C   0  0  0  0  0  0
    0.2626   54.3709   30.2538 C   0  0  0  0  0  0
    2.0574   53.8071   28.3745 C   0  0  2  0  0  0
    1.8088   54.5127   27.5897 H   0  0  0  0  0  0
    1.2797   52.4808   28.1335 C   0  0  0  0  0  0
    1.1400   51.6965   29.0749 O   0  0  0  0  0  0
    0.7133   52.2379   26.9227 N   0  0  0  0  0  0
    1.0717   52.8941   25.6729 C   0  0  0  0  0  0
    0.0203   52.4018   24.6519 C   0  0  2  0  0  0
   -0.7799   53.1415   24.6950 H   0  0  0  0  0  0
   -0.4175   50.9944   25.1785 C   0  0  0  0  0  0
   -0.2769   51.1857   26.7175 C   0  0  0  0  0  0
    0.4649   49.8245   24.6625 C   0  0  0  0  0  0
    0.1733   48.4970   25.3844 C   0  0  0  0  0  0
   -1.3358   48.1668   25.2817 N   0  3  0  0  0  0
   -2.3215   49.3377   25.5246 C   0  0  0  0  0  0
   -1.8469   50.5830   24.7450 C   0  0  0  0  0  0
    0.6761   52.5332   23.2436 C   0  0  0  0  0  0
    1.7098   53.1870   23.0787 O   0  0  0  0  0  0
    0.0880   51.8854   22.2231 N   0  0  0  0  0  0
    0.5878   51.8759   20.8406 C   0  0  0  0  0  0
    1.7989   50.9890   20.5254 C   0  0  0  0  0  0
    2.5086   50.3028   21.4411 C   0  0  0  0  0  0
    2.1753   50.9375   19.0535 C   0  0  0  0  0  0
    3.4553   53.5015   28.4755 O   0  0  0  0  0  0
    4.3787   53.9143   27.5346 C   0  0  0  0  0  0
    5.7134   53.7179   27.8854 C   0  0  0  0  0  0
    6.7361   54.0906   27.0211 C   0  0  0  0  0  0
    6.4293   54.6516   25.7851 C   0  0  0  0  0  0
    5.1035   54.8562   25.4188 C   0  0  0  0  0  0
    4.0810   54.4966   26.2923 C   0  0  0  0  0  0
    1.3938   56.5607   28.8792 H   0  0  0  0  0  0
    1.9076   56.5687   30.5587 H   0  0  0  0  0  0
    3.0700   56.2100   29.2876 H   0  0  0  0  0  0
    2.3548   54.1489   30.4818 H   0  0  0  0  0  0
   -0.4864   54.4961   29.4752 H   0  0  0  0  0  0
    0.1131   53.3783   30.6799 H   0  0  0  0  0  0
    0.0404   55.0775   31.0534 H   0  0  0  0  0  0
    2.0611   52.4970   25.4295 H   0  0  0  0  0  0
    1.1048   53.9810   25.7060 H   0  0  0  0  0  0
   -1.2194   51.6124   27.0649 H   0  0  0  0  0  0
   -0.1293   50.2687   27.2840 H   0  0  0  0  0  0
    1.5040   50.0544   24.8574 H   0  0  0  0  0  0
    0.3945   49.6817   23.5850 H   0  0  0  0  0  0
    0.4205   48.4973   26.4470 H   0  0  0  0  0  0
    0.7033   47.6676   24.9154 H   0  0  0  0  0  0
   -1.5340   47.4461   25.9668 H   0  0  0  0  0  0
   -2.3574   49.4979   26.6029 H   0  0  0  0  0  0
   -3.3015   48.9864   25.2000 H   0  0  0  0  0  0
   -1.9412   50.4549   23.6663 H   0  0  0  0  0  0
   -2.5354   51.3899   25.0047 H   0  0  0  0  0  0
   -0.7161   51.3098   22.4170 H   0  0  0  0  0  0
   -0.2322   51.5173   20.2166 H   0  0  0  0  0  0
    0.7817   52.8966   20.5034 H   0  0  0  0  0  0
    3.3501   49.6964   21.1452 H   0  0  0  0  0  0
    2.2819   50.3327   22.4941 H   0  0  0  0  0  0
    2.4160   51.9341   18.6818 H   0  0  0  0  0  0
    3.0495   50.3082   18.8778 H   0  0  0  0  0  0
    1.3564   50.5330   18.4584 H   0  0  0  0  0  0
    5.9554   53.2790   28.8420 H   0  0  0  0  0  0
    7.7628   53.9345   27.3112 H   0  0  0  0  0  0
    7.2195   54.9229   25.0997 H   0  0  0  0  0  0
    4.8682   55.2895   24.4590 H   0  0  0  0  0  0
    3.0772   54.6772   25.9615 H   0  0  0  0  0  0
   -1.5194   47.7727   24.3710 H   0  0  0  0  0  0
  1  2  1  0  0  0
  1 33  1  0  0  0
  1 34  1  0  0  0
  1 35  1  0  0  0
  2  3  1  0  0  0
  2  4  1  0  0  0
  2 36  1  0  0  0
  3 37  1  0  0  0
  3 38  1  0  0  0
  3 39  1  0  0  0
  4  5  1  0  0  0
  4  6  1  0  0  0
  4 26  1  0  0  0
  6  7  2  0  0  0
  6  8  1  0  0  0
  8 13  1  0  0  0
  8  9  1  0  0  0
  9 10  1  0  0  0
  9 40  1  0  0  0
  9 41  1  0  0  0
 10 11  1  0  0  0
 10 12  1  0  0  0
 10 19  1  0  0  0
 12 18  1  0  0  0
 12 13  1  0  0  0
 12 14  1  0  0  0
 13 42  1  0  0  0
 13 43  1  0  0  0
 14 15  1  0  0  0
 14 44  1  0  0  0
 14 45  1  0  0  0
 15 16  1  0  0  0
 15 46  1  0  0  0
 15 47  1  0  0  0
 16 17  1  0  0  0
 16 48  1  0  0  0
 16 66  1  0  0  0
 17 18  1  0  0  0
 17 49  1  0  0  0
 17 50  1  0  0  0
 18 51  1  0  0  0
 18 52  1  0  0  0
 19 20  2  0  0  0
 19 21  1  0  0  0
 21 22  1  0  0  0
 21 53  1  0  0  0
 22 23  1  0  0  0
 22 54  1  0  0  0
 22 55  1  0  0  0
 23 24  2  0  0  0
 23 25  1  0  0  0
 24 56  1  0  0  0
 24 57  1  0  0  0
 25 58  1  0  0  0
 25 59  1  0  0  0
 25 60  1  0  0  0
 26 27  1  0  0  0
 27 32  2  0  0  0
 27 28  1  0  0  0
 28 29  2  0  0  0
 28 61  1  0  0  0
 29 30  1  0  0  0
 29 62  1  0  0  0
 30 31  2  0  0  0
 30 63  1  0  0  0
 31 32  1  0  0  0
 31 64  1  0  0  0
 32 65  1  0  0  0
M  CHG  1  16   1
M  END
> <i_i_glide_confnum>
191

> <i_i_glide_lignum>
2163

> <i_i_glide_posenum>
82

> <i_i_glide_rotatable_bonds>
9

> <i_m_Source_File_Index>
104

> <b_m_subgroup_collapsed>
0

> <r_i_docking_score>
-6.04592

> <r_i_glide_ecoul>
-2.91287

> <r_i_glide_eff_state_penalty>
0

> <r_i_glide_einternal>
11.5318

> <r_i_glide_emodel>
-57.1292

> <r_i_glide_energy>
-44.9378

> <r_i_glide_erotb>
0.803968

> <r_i_glide_esite>
-0.0993475

> <r_i_glide_evdw>
-42.0249

> <r_i_glide_gscore>
-6.04592

> <r_i_glide_hbond>
0

> <r_i_glide_ligand_efficiency>
-0.201531

> <r_i_glide_ligand_efficiency_ln>
-1.3737

> <r_i_glide_ligand_efficiency_sa>
-0.626203

> <r_i_glide_lipo>
-3.06305

> <r_i_glide_metal>
0

> <r_i_glide_rewards>
-1.14932

> <s_i_glide_gridfile>
wee1_glide-grid

> <s_m_Source_File>
wee1_decoys_glide_SP.sdf

> <s_m_Source_Path>
/Users/zhangxujun/Desktop

> <s_m_entry_id>
379

> <s_m_entry_name>
wee1_decoys_glide_SP.104

> <s_m_subgroup_title>
wee1_decoys_glide_SP

> <s_m_subgroupid>
wee1_decoys_glide_SP


$$$$
