ZINC41415040_1683
                    3D
 Schrodinger Suite 2024-2.
 33 34  0  0  1  0            999 V2000
    6.6293   54.7246   25.5937 C   0  0  0  0  0  0
    5.6519   54.3623   24.4617 C   0  0  0  0  0  0
    4.1853   54.7461   24.6939 C   0  0  0  0  0  0
    3.3517   53.7368   25.4885 C   0  0  0  0  0  0
    3.6642   53.6792   26.9915 C   0  0  0  0  0  0
    5.1529   53.4637   27.3759 C   0  0  0  0  0  0
    6.1399   54.6042   27.0525 C   0  0  0  0  0  0
    3.1007   54.8965   27.6102 N   0  0  0  0  0  0
    2.6019   54.8992   29.2817 S   0  0  0  0  0  0
    2.0209   56.2074   29.5959 O   0  0  0  0  0  0
    3.6729   54.3036   30.0817 O   0  0  0  0  0  0
    1.2430   53.7235   29.3086 C   0  0  0  0  0  0
    0.7481   53.1286   28.2505 N   0  0  0  0  0  0
   -0.2149   52.1845   28.5759 N   0  0  0  0  0  0
   -0.4367   52.1396   29.8625 C   0  0  0  0  0  0
    0.5047   53.2501   30.8032 S   0  0  0  0  0  0
   -1.2956   51.2967   30.4817 N   0  0  0  0  0  0
    7.5044   54.0941   25.4662 H   0  0  0  0  0  0
    6.9850   55.7443   25.4375 H   0  0  0  0  0  0
    5.7146   53.2967   24.2495 H   0  0  0  0  0  0
    6.0031   54.8465   23.5489 H   0  0  0  0  0  0
    3.7050   54.8967   23.7259 H   0  0  0  0  0  0
    4.1552   55.6967   25.2218 H   0  0  0  0  0  0
    3.5044   52.7608   25.0437 H   0  0  0  0  0  0
    2.2888   53.9387   25.3427 H   0  0  0  0  0  0
    3.1253   52.8197   27.3895 H   0  0  0  0  0  0
    5.2171   53.1979   28.4306 H   0  0  0  0  0  0
    5.5044   52.5583   26.8817 H   0  0  0  0  0  0
    7.0175   54.4932   27.6917 H   0  0  0  0  0  0
    5.7002   55.5497   27.3645 H   0  0  0  0  0  0
    2.4735   55.4274   27.0036 H   0  0  0  0  0  0
   -1.6958   50.4818   30.0219 H   0  0  0  0  0  0
   -1.4363   51.3381   31.4995 H   0  0  0  0  0  0
  1  7  1  0  0  0
  1  2  1  0  0  0
  1 18  1  0  0  0
  1 19  1  0  0  0
  2  3  1  0  0  0
  2 20  1  0  0  0
  2 21  1  0  0  0
  3  4  1  0  0  0
  3 22  1  0  0  0
  3 23  1  0  0  0
  4  5  1  0  0  0
  4 24  1  0  0  0
  4 25  1  0  0  0
  5  6  1  0  0  0
  5  8  1  0  0  0
  5 26  1  0  0  0
  6  7  1  0  0  0
  6 27  1  0  0  0
  6 28  1  0  0  0
  7 29  1  0  0  0
  7 30  1  0  0  0
  8  9  1  0  0  0
  8 31  1  0  0  0
  9 10  2  0  0  0
  9 11  2  0  0  0
  9 12  1  0  0  0
 12 16  1  0  0  0
 12 13  2  0  0  0
 13 14  1  0  0  0
 14 15  2  0  0  0
 15 16  1  0  0  0
 15 17  1  0  0  0
 17 32  1  0  0  0
 17 33  1  0  0  0
M  END
> <i_i_glide_confnum>
210

> <i_i_glide_lignum>
1684

> <i_i_glide_posenum>
28

> <i_i_glide_rotatable_bonds>
3

> <i_m_Source_File_Index>
4607

> <b_m_subgroup_collapsed>
0

> <r_i_docking_score>
-3.51019

> <r_i_glide_ecoul>
-7.63178

> <r_i_glide_eff_state_penalty>
0

> <r_i_glide_einternal>
5.25906

> <r_i_glide_emodel>
-33.5999

> <r_i_glide_energy>
-35.3331

> <r_i_glide_erotb>
0.706564

> <r_i_glide_esite>
-0.163103

> <r_i_glide_evdw>
-27.7013

> <r_i_glide_gscore>
-3.51019

> <r_i_glide_hbond>
-0.243134

> <r_i_glide_ligand_efficiency>
-0.206482

> <r_i_glide_ligand_efficiency_ln>
-0.91573

> <r_i_glide_ligand_efficiency_sa>
-0.530922

> <r_i_glide_lipo>
-1.85196

> <r_i_glide_metal>
0

> <r_i_glide_rewards>
0.571278

> <s_i_glide_gridfile>
wee1_glide-grid

> <s_m_Source_File>
wee1_decoys_glide_SP.sdf

> <s_m_Source_Path>
/Users/zhangxujun/Desktop

> <s_m_entry_id>
4882

> <s_m_entry_name>
wee1_decoys_glide_SP.4607

> <s_m_subgroup_title>
wee1_decoys_glide_SP

> <s_m_subgroupid>
wee1_decoys_glide_SP


$$$$
