ZINC39404340_330
                    3D
 Schrodinger Suite 2024-2.
 60 63  0  0  1  0            999 V2000
    3.4434   54.3848   17.9055 C   0  0  0  0  0  0
    4.5325   53.3845   18.3258 C   0  0  0  0  0  0
    4.3684   52.9734   19.6794 O   0  0  0  0  0  0
    4.7517   53.7561   20.7115 C   0  0  0  0  0  0
    5.2839   54.8648   20.6190 O   0  0  0  0  0  0
    4.4403   53.0932   22.0689 C   0  0  2  0  0  0
    4.9147   52.1138   22.0054 H   0  0  0  0  0  0
    2.9149   52.9311   22.2804 C   0  0  2  0  0  0
    2.3539   53.5797   21.5979 H   0  0  0  0  0  0
    2.4837   53.6104   23.8971 S   0  0  0  0  0  0
    4.1455   54.1032   24.2496 C   0  0  0  0  0  0
    5.0419   53.7672   23.2959 C   0  0  0  0  0  0
    6.5296   54.1002   23.4213 C   0  0  0  0  0  0
    6.9212   54.4291   24.8767 C   0  0  0  0  0  0
    5.9174   55.3835   25.5369 C   0  0  0  0  0  0
    4.5007   54.7783   25.5693 C   0  0  0  0  0  0
    2.5364   51.5309   22.0814 N   0  0  0  0  0  0
    1.2791   51.0880   21.9315 C   0  0  0  0  0  0
    0.2980   51.8365   21.9382 O   0  0  0  0  0  0
    1.1171   49.5682   21.7779 C   0  0  0  0  0  0
   -0.5618   49.0366   21.2917 S   0  0  0  0  0  0
   -1.5436   49.0112   22.8325 C   0  0  2  0  0  0
   -2.5812   49.2256   22.5721 H   0  0  0  0  0  0
   -1.0782   49.9809   23.7991 N   0  0  0  0  0  0
   -0.9825   49.2823   24.9216 C   0  0  0  0  0  0
   -1.1890   47.9884   24.7406 N   0  0  0  0  0  0
   -1.5042   47.7681   23.5329 N   0  0  0  0  0  0
   -0.6966   49.7261   26.1459 N   0  3  0  0  0  0
   -0.2418   50.9957   26.3968 N   0  0  0  0  0  0
   -0.2450   51.2965   27.6374 C   0  0  0  0  0  0
    0.3111   52.5170   28.2277 C   0  0  0  0  0  0
    1.2015   53.3359   27.5235 C   0  0  0  0  0  0
    1.7016   54.4968   28.1075 C   0  0  0  0  0  0
    1.3218   54.8453   29.3992 C   0  0  0  0  0  0
    0.4677   54.0212   30.1274 C   0  0  0  0  0  0
   -0.0303   52.8579   29.5447 C   0  0  0  0  0  0
    1.9033   56.3182   30.0865 Cl  0  0  0  0  0  0
    3.5477   54.6501   16.8530 H   0  0  0  0  0  0
    2.4485   53.9622   18.0474 H   0  0  0  0  0  0
    3.5014   55.3074   18.4844 H   0  0  0  0  0  0
    5.5271   53.8024   18.1655 H   0  0  0  0  0  0
    4.4673   52.4973   17.6961 H   0  0  0  0  0  0
    6.7747   54.9557   22.7924 H   0  0  0  0  0  0
    7.1574   53.2989   23.0322 H   0  0  0  0  0  0
    6.9959   53.5099   25.4613 H   0  0  0  0  0  0
    7.9044   54.8860   24.8859 H   0  0  0  0  0  0
    6.2410   55.6317   26.5492 H   0  0  0  0  0  0
    5.9038   56.3223   24.9821 H   0  0  0  0  0  0
    4.4301   54.0542   26.3827 H   0  0  0  0  0  0
    3.7876   55.5639   25.8154 H   0  0  0  0  0  0
    3.2743   50.8490   22.1718 H   0  0  0  0  0  0
    1.8034   49.2242   21.0037 H   0  0  0  0  0  0
    1.4037   49.0697   22.7050 H   0  0  0  0  0  0
   -0.6545   50.6169   28.3847 H   0  0  0  0  0  0
    1.4997   53.0834   26.5164 H   0  0  0  0  0  0
    2.3740   55.1346   27.5565 H   0  0  0  0  0  0
    0.1839   54.2835   31.1369 H   0  0  0  0  0  0
   -0.6954   52.2332   30.1288 H   0  0  0  0  0  0
   -0.8695   50.9584   23.6421 H   0  0  0  0  0  0
   -0.8398   49.1035   26.9448 H   0  0  0  0  0  0
  1  2  1  0  0  0
  1 38  1  0  0  0
  1 39  1  0  0  0
  1 40  1  0  0  0
  2  3  1  0  0  0
  2 41  1  0  0  0
  2 42  1  0  0  0
  3  4  1  0  0  0
  4  5  2  0  0  0
  4  6  1  0  0  0
  6  7  1  0  0  0
  6 12  1  0  0  0
  6  8  1  0  0  0
  8  9  1  0  0  0
  8 10  1  0  0  0
  8 17  1  0  0  0
 10 11  1  0  0  0
 11 16  1  0  0  0
 11 12  2  0  0  0
 12 13  1  0  0  0
 13 14  1  0  0  0
 13 43  1  0  0  0
 13 44  1  0  0  0
 14 15  1  0  0  0
 14 45  1  0  0  0
 14 46  1  0  0  0
 15 16  1  0  0  0
 15 47  1  0  0  0
 15 48  1  0  0  0
 16 49  1  0  0  0
 16 50  1  0  0  0
 17 18  1  0  0  0
 17 51  1  0  0  0
 18 19  2  0  0  0
 18 20  1  0  0  0
 20 21  1  0  0  0
 20 52  1  0  0  0
 20 53  1  0  0  0
 21 22  1  0  0  0
 22 23  1  0  0  0
 22 27  1  0  0  0
 22 24  1  0  0  0
 24 25  1  0  0  0
 24 59  1  0  0  0
 25 26  1  0  0  0
 25 28  2  0  0  0
 26 27  2  0  0  0
 28 29  1  0  0  0
 28 60  1  0  0  0
 29 30  2  0  0  0
 30 31  1  0  0  0
 30 54  1  0  0  0
 31 36  2  0  0  0
 31 32  1  0  0  0
 32 33  2  0  0  0
 32 55  1  0  0  0
 33 34  1  0  0  0
 33 56  1  0  0  0
 34 35  2  0  0  0
 34 37  1  0  0  0
 35 36  1  0  0  0
 35 57  1  0  0  0
 36 58  1  0  0  0
M  CHG  1  28   1
M  END
> <i_i_glide_confnum>
30

> <i_i_glide_lignum>
331

> <i_i_glide_posenum>
399

> <i_i_glide_rotatable_bonds>
10

> <i_m_Source_File_Index>
3097

> <b_m_subgroup_collapsed>
0

> <r_i_docking_score>
-6.12125

> <r_i_glide_ecoul>
-1.97166

> <r_i_glide_eff_state_penalty>
0

> <r_i_glide_einternal>
10.413

> <r_i_glide_emodel>
-63.5324

> <r_i_glide_energy>
-47.0849

> <r_i_glide_erotb>
0.603526

> <r_i_glide_esite>
-0.286747

> <r_i_glide_evdw>
-45.1132

> <r_i_glide_gscore>
-6.12125

> <r_i_glide_hbond>
-0.2

> <r_i_glide_ligand_efficiency>
-0.180037

> <r_i_glide_ligand_efficiency_ln>
-1.35236

> <r_i_glide_ligand_efficiency_sa>
-0.583249

> <r_i_glide_lipo>
-3.51842

> <r_i_glide_metal>
0

> <r_i_glide_rewards>
-0.168195

> <s_i_glide_gridfile>
wee1_glide-grid

> <s_m_Source_File>
wee1_decoys_glide_SP.sdf

> <s_m_Source_Path>
/Users/zhangxujun/Desktop

> <s_m_entry_id>
3372

> <s_m_entry_name>
wee1_decoys_glide_SP.3097

> <s_m_subgroup_title>
wee1_decoys_glide_SP

> <s_m_subgroupid>
wee1_decoys_glide_SP


$$$$
