ZINC08833006_5126
                    3D
 Schrodinger Suite 2024-2.
 50 52  0  0  1  0            999 V2000
    2.6352   53.6061   22.7971 C   0  0  0  0  0  0
    2.6144   53.7563   24.1841 C   0  0  0  0  0  0
    3.7722   54.0725   24.9215 C   0  0  0  0  0  0
    4.9610   54.2853   24.1810 C   0  0  0  0  0  0
    4.9779   54.0964   22.7946 C   0  0  0  0  0  0
    3.8285   53.7613   22.0815 C   0  0  0  0  0  0
    3.9039   53.6287   20.5749 C   0  0  0  0  0  0
    4.8384   54.1531   19.9601 O   0  0  0  0  0  0
    2.9223   52.8948   19.9970 N   0  0  0  0  0  0
    2.5491   52.7704   18.6856 C   0  0  0  0  0  0
    1.1366   51.9302   18.3955 S   0  0  0  0  0  0
    3.3337   53.3685   17.7316 N   0  0  0  0  0  0
    3.1993   53.4356   16.3339 C   0  0  0  0  0  0
    3.1093   52.2569   15.5828 C   0  0  0  0  0  0
    3.0353   52.3070   14.1936 C   0  0  0  0  0  0
    3.0590   53.5389   13.5417 C   0  0  0  0  0  0
    3.1548   54.7185   14.2811 C   0  0  0  0  0  0
    3.2280   54.6862   15.6823 C   0  0  0  0  0  0
    3.3177   55.9986   16.4738 C   0  0  0  0  0  0
    3.3299   57.0744   15.6858 F   0  0  0  0  0  0
    2.2616   56.0952   17.2805 F   0  0  0  0  0  0
    4.4281   56.0164   17.2130 F   0  0  0  0  0  0
    2.9717   53.6046   11.8195 Cl  0  0  0  0  0  0
    6.2221   54.7289   24.7925 N   0  3  0  0  0  0
    6.2193   55.6963   25.5465 O   0  0  0  0  0  0
    7.2250   54.1012   24.4834 O   0  5  0  0  0  0
    3.7245   54.1432   26.3255 N   0  0  0  0  0  0
    4.7808   53.5136   27.1493 C   0  0  0  0  0  0
    5.0029   54.2659   28.4694 C   0  0  0  0  0  0
    3.7290   54.2266   29.3181 C   0  0  0  0  0  0
    2.5247   54.6837   28.4831 C   0  0  0  0  0  0
    2.4640   54.0102   27.0920 C   0  0  0  0  0  0
    1.7087   53.3703   22.2937 H   0  0  0  0  0  0
    1.6696   53.5849   24.6742 H   0  0  0  0  0  0
    5.9068   54.2539   22.2607 H   0  0  0  0  0  0
    2.2854   52.4611   20.6444 H   0  0  0  0  0  0
    4.0908   53.9320   18.0974 H   0  0  0  0  0  0
    3.1022   51.2977   16.0800 H   0  0  0  0  0  0
    2.9673   51.3887   13.6274 H   0  0  0  0  0  0
    3.1733   55.6607   13.7509 H   0  0  0  0  0  0
    5.7368   53.3782   26.6543 H   0  0  0  0  0  0
    4.4578   52.4984   27.3694 H   0  0  0  0  0  0
    5.2999   55.2959   28.2635 H   0  0  0  0  0  0
    5.8361   53.8188   29.0108 H   0  0  0  0  0  0
    3.5627   53.2108   29.6816 H   0  0  0  0  0  0
    3.8435   54.8610   30.1943 H   0  0  0  0  0  0
    1.6060   54.4600   29.0265 H   0  0  0  0  0  0
    2.5205   55.7653   28.3630 H   0  0  0  0  0  0
    1.6520   54.4963   26.5562 H   0  0  0  0  0  0
    2.1916   52.9561   27.1755 H   0  0  0  0  0  0
  1  6  2  0  0  0
  1  2  1  0  0  0
  1 33  1  0  0  0
  2  3  2  0  0  0
  2 34  1  0  0  0
  3  4  1  0  0  0
  3 27  1  0  0  0
  4  5  2  0  0  0
  4 24  1  0  0  0
  5  6  1  0  0  0
  5 35  1  0  0  0
  6  7  1  0  0  0
  7  8  2  0  0  0
  7  9  1  0  0  0
  9 10  1  0  0  0
  9 36  1  0  0  0
 10 11  2  0  0  0
 10 12  1  0  0  0
 12 13  1  0  0  0
 12 37  1  0  0  0
 13 18  2  0  0  0
 13 14  1  0  0  0
 14 15  2  0  0  0
 14 38  1  0  0  0
 15 16  1  0  0  0
 15 39  1  0  0  0
 16 17  2  0  0  0
 16 23  1  0  0  0
 17 18  1  0  0  0
 17 40  1  0  0  0
 18 19  1  0  0  0
 19 20  1  0  0  0
 19 21  1  0  0  0
 19 22  1  0  0  0
 24 25  2  0  0  0
 24 26  1  0  0  0
 27 32  1  0  0  0
 27 28  1  0  0  0
 28 29  1  0  0  0
 28 41  1  0  0  0
 28 42  1  0  0  0
 29 30  1  0  0  0
 29 43  1  0  0  0
 29 44  1  0  0  0
 30 31  1  0  0  0
 30 45  1  0  0  0
 30 46  1  0  0  0
 31 32  1  0  0  0
 31 47  1  0  0  0
 31 48  1  0  0  0
 32 49  1  0  0  0
 32 50  1  0  0  0
M  CHG  2  24   1  26  -1
M  END
> <i_i_glide_confnum>
68

> <i_i_glide_lignum>
5127

> <i_i_glide_posenum>
328

> <i_i_glide_rotatable_bonds>
8

> <i_m_Source_File_Index>
5920

> <b_m_subgroup_collapsed>
0

> <r_i_docking_score>
-5.11798

> <r_i_glide_ecoul>
-2.27861

> <r_i_glide_eff_state_penalty>
0

> <r_i_glide_einternal>
8.99759

> <r_i_glide_emodel>
-39.3973

> <r_i_glide_energy>
-40.1506

> <r_i_glide_erotb>
0.514423

> <r_i_glide_esite>
-0.0839139

> <r_i_glide_evdw>
-37.872

> <r_i_glide_gscore>
-5.11798

> <r_i_glide_hbond>
0

> <r_i_glide_ligand_efficiency>
-0.159937

> <r_i_glide_ligand_efficiency_ln>
-1.14606

> <r_i_glide_ligand_efficiency_sa>
-0.507768

> <r_i_glide_lipo>
-2.28662

> <r_i_glide_metal>
0

> <r_i_glide_rewards>
-1.02647

> <s_i_glide_gridfile>
wee1_glide-grid

> <s_m_Source_File>
wee1_decoys_glide_SP.sdf

> <s_m_Source_Path>
/Users/zhangxujun/Desktop

> <s_m_entry_id>
6195

> <s_m_entry_name>
wee1_decoys_glide_SP.5920

> <s_m_subgroup_title>
wee1_decoys_glide_SP

> <s_m_subgroupid>
wee1_decoys_glide_SP


$$$$
