ZINC39592228_4956
                    3D
 Schrodinger Suite 2024-2.
 53 56  0  0  1  0            999 V2000
    2.3040   47.7769   18.1191 C   0  0  0  0  0  0
    1.1008   47.6144   19.0281 C   0  0  0  0  0  0
    0.3175   46.4608   18.9715 C   0  0  0  0  0  0
   -0.7713   46.3220   19.8309 C   0  0  0  0  0  0
   -1.0856   47.3334   20.7485 C   0  0  0  0  0  0
   -0.3161   48.5030   20.7616 C   0  0  0  0  0  0
    0.7758   48.6403   19.9125 C   0  0  0  0  0  0
   -2.2133   47.1903   21.6951 C   0  0  0  0  0  0
   -2.9570   48.1795   22.1947 C   0  0  0  0  0  0
   -3.8515   47.4936   23.1824 C   0  0  1  0  0  0
   -4.8898   47.5412   22.8496 H   0  0  0  0  0  0
   -3.4291   46.1160   23.1069 N   0  0  0  0  0  0
   -2.4957   45.9894   22.2499 N   0  0  0  0  0  0
   -3.7575   48.0695   24.6272 C   0  0  2  0  0  0
   -4.4708   47.5444   25.2679 H   0  0  0  0  0  0
   -4.1570   49.4563   24.6153 N   0  0  0  0  0  0
   -3.3380   50.1683   25.2606 N   0  0  0  0  0  0
   -2.3007   49.3464   25.8119 C   0  0  1  0  0  0
   -2.4956   49.2997   26.8817 H   0  0  0  0  0  0
   -2.4406   48.0258   25.2390 N   0  0  0  0  0  0
   -2.0955   46.8968   26.0816 N   0  0  0  0  0  0
   -0.6527   50.0815   25.5947 S   0  0  0  0  0  0
   -0.6235   51.2458   26.9935 C   0  0  0  0  0  0
    0.7827   51.7618   27.2949 C   0  0  0  0  0  0
    1.4020   51.3017   28.2542 O   0  0  0  0  0  0
    1.2669   52.6979   26.4495 N   0  0  0  0  0  0
    2.5371   53.3136   26.4617 C   0  0  0  0  0  0
    3.2520   53.5173   27.6549 C   0  0  0  0  0  0
    4.5197   54.0972   27.6382 C   0  0  0  0  0  0
    5.0840   54.4974   26.4319 C   0  0  0  0  0  0
    4.3761   54.3285   25.2442 C   0  0  0  0  0  0
    3.1002   53.7397   25.2377 C   0  0  0  0  0  0
    2.3632   53.5584   23.9005 C   0  0  0  0  0  0
    1.2083   54.2272   23.9279 F   0  0  0  0  0  0
    3.0730   54.0060   22.8597 F   0  0  0  0  0  0
    2.0905   52.2681   23.6886 F   0  0  0  0  0  0
    6.6577   55.2094   26.4053 Cl  0  0  0  0  0  0
    3.2317   47.6965   18.6857 H   0  0  0  0  0  0
    2.3157   47.0601   17.2978 H   0  0  0  0  0  0
    2.3040   48.7745   17.6786 H   0  0  0  0  0  0
    0.5577   45.6709   18.2761 H   0  0  0  0  0  0
   -1.3656   45.4211   19.7901 H   0  0  0  0  0  0
   -0.5420   49.2988   21.4549 H   0  0  0  0  0  0
    1.3761   49.5397   19.9513 H   0  0  0  0  0  0
   -2.9336   49.2407   21.9935 H   0  0  0  0  0  0
   -1.0814   46.8586   26.1054 H   0  0  0  0  0  0
   -2.3721   47.1511   27.0284 H   0  0  0  0  0  0
   -1.3064   52.0719   26.8040 H   0  0  0  0  0  0
   -0.9962   50.7303   27.8784 H   0  0  0  0  0  0
    0.7095   52.8825   25.6300 H   0  0  0  0  0  0
    2.8374   53.2300   28.6094 H   0  0  0  0  0  0
    5.0612   54.2365   28.5608 H   0  0  0  0  0  0
    4.8351   54.6500   24.3199 H   0  0  0  0  0  0
  1  2  1  0  0  0
  1 38  1  0  0  0
  1 39  1  0  0  0
  1 40  1  0  0  0
  2  7  2  0  0  0
  2  3  1  0  0  0
  3  4  2  0  0  0
  3 41  1  0  0  0
  4  5  1  0  0  0
  4 42  1  0  0  0
  5  6  2  0  0  0
  5  8  1  0  0  0
  6  7  1  0  0  0
  6 43  1  0  0  0
  7 44  1  0  0  0
  8 13  1  0  0  0
  8  9  2  0  0  0
  9 10  1  0  0  0
  9 45  1  0  0  0
 10 11  1  0  0  0
 10 12  1  0  0  0
 10 14  1  0  0  0
 12 13  2  0  0  0
 14 15  1  0  0  0
 14 20  1  0  0  0
 14 16  1  0  0  0
 16 17  2  0  0  0
 17 18  1  0  0  0
 18 19  1  0  0  0
 18 20  1  0  0  0
 18 22  1  0  0  0
 20 21  1  0  0  0
 21 46  1  0  0  0
 21 47  1  0  0  0
 22 23  1  0  0  0
 23 24  1  0  0  0
 23 48  1  0  0  0
 23 49  1  0  0  0
 24 25  2  0  0  0
 24 26  1  0  0  0
 26 27  1  0  0  0
 26 50  1  0  0  0
 27 32  2  0  0  0
 27 28  1  0  0  0
 28 29  2  0  0  0
 28 51  1  0  0  0
 29 30  1  0  0  0
 29 52  1  0  0  0
 30 31  2  0  0  0
 30 37  1  0  0  0
 31 32  1  0  0  0
 31 53  1  0  0  0
 32 33  1  0  0  0
 33 34  1  0  0  0
 33 35  1  0  0  0
 33 36  1  0  0  0
M  END
> <i_i_glide_confnum>
157

> <i_i_glide_lignum>
4957

> <i_i_glide_posenum>
166

> <i_i_glide_rotatable_bonds>
8

> <i_m_Source_File_Index>
3272

> <b_m_subgroup_collapsed>
0

> <r_i_docking_score>
-5.78306

> <r_i_glide_ecoul>
-8.14881

> <r_i_glide_eff_state_penalty>
0

> <r_i_glide_einternal>
5.40482

> <r_i_glide_emodel>
-58.2872

> <r_i_glide_energy>
-44.3325

> <r_i_glide_erotb>
0.551397

> <r_i_glide_esite>
-0.378284

> <r_i_glide_evdw>
-36.1837

> <r_i_glide_gscore>
-5.78306

> <r_i_glide_hbond>
-0.39288

> <r_i_glide_ligand_efficiency>
-0.17009

> <r_i_glide_ligand_efficiency_ln>
-1.27764

> <r_i_glide_ligand_efficiency_sa>
-0.551026

> <r_i_glide_lipo>
-1.79935

> <r_i_glide_metal>
0

> <r_i_glide_rewards>
-0.732434

> <s_i_glide_gridfile>
wee1_glide-grid

> <s_m_Source_File>
wee1_decoys_glide_SP.sdf

> <s_m_Source_Path>
/Users/zhangxujun/Desktop

> <s_m_entry_id>
3547

> <s_m_entry_name>
wee1_decoys_glide_SP.3272

> <s_m_subgroup_title>
wee1_decoys_glide_SP

> <s_m_subgroupid>
wee1_decoys_glide_SP


$$$$
