ZINC59006649_1390
                    3D
 Schrodinger Suite 2024-2.
 49 52  0  0  1  0            999 V2000
    5.4900   54.2501   28.7233 C   0  0  0  0  0  0
    5.5154   54.4727   27.2155 C   0  0  0  0  0  0
    6.6978   54.9485   26.6586 C   0  0  0  0  0  0
    6.8335   55.0936   25.2819 C   0  0  0  0  0  0
    5.7970   54.7426   24.4201 C   0  0  0  0  0  0
    4.5924   54.2874   24.9721 C   0  0  0  0  0  0
    4.4374   54.1687   26.3600 C   0  0  0  0  0  0
    3.2156   53.6656   26.8176 N   0  0  0  0  0  0
    2.4133   54.2033   27.7595 C   0  0  0  0  0  0
    2.6134   55.2869   28.3133 O   0  0  0  0  0  0
    1.2371   53.3472   28.1551 C   0  0  0  0  0  0
    0.6982   53.4553   29.4441 C   0  0  0  0  0  0
   -0.3320   52.6107   29.8515 C   0  0  0  0  0  0
   -0.8518   51.6714   28.9648 C   0  0  0  0  0  0
   -0.3409   51.5520   27.6700 C   0  0  0  0  0  0
    0.6959   52.4019   27.2682 C   0  0  0  0  0  0
   -0.8348   50.4967   26.8821 N   0  0  0  0  0  0
   -0.6983   50.2638   25.5612 C   0  0  0  0  0  0
   -0.2342   51.0768   24.7574 O   0  0  0  0  0  0
   -1.2135   48.8862   25.0730 C   0  0  1  0  0  0
   -1.1366   48.1798   25.9034 H   0  0  0  0  0  0
   -2.6728   48.9857   24.5948 C   0  0  0  0  0  0
   -2.5345   49.2951   23.1190 C   0  0  0  0  0  0
   -1.3064   48.4734   22.7315 C   0  0  0  0  0  0
   -0.4931   48.4442   23.9081 O   0  0  0  0  0  0
    5.9929   54.8718   22.9424 C   0  0  0  0  0  0
    7.0309   55.3445   22.2903 N   0  0  0  0  0  0
    6.7031   55.2971   20.9397 N   0  0  0  0  0  0
    5.5034   54.7769   20.8807 C   0  0  0  0  0  0
    4.9931   54.4905   22.1044 O   0  0  0  0  0  0
    6.4960   54.0889   29.1058 H   0  0  0  0  0  0
    5.0626   55.1073   29.2459 H   0  0  0  0  0  0
    4.9178   53.3576   28.9786 H   0  0  0  0  0  0
    7.5051   55.2105   27.3190 H   0  0  0  0  0  0
    7.7638   55.4642   24.8812 H   0  0  0  0  0  0
    3.7760   54.0218   24.3165 H   0  0  0  0  0  0
    2.8931   52.8250   26.3631 H   0  0  0  0  0  0
    1.0933   54.1717   30.1522 H   0  0  0  0  0  0
   -0.7194   52.6691   30.8598 H   0  0  0  0  0  0
   -1.6314   51.0035   29.3085 H   0  0  0  0  0  0
    1.1130   52.2999   26.2795 H   0  0  0  0  0  0
   -1.2928   49.7595   27.4232 H   0  0  0  0  0  0
   -3.2643   49.7342   25.1292 H   0  0  0  0  0  0
   -3.1796   48.0351   24.7652 H   0  0  0  0  0  0
   -2.3436   50.3583   22.9652 H   0  0  0  0  0  0
   -3.4225   49.0278   22.5440 H   0  0  0  0  0  0
   -0.7780   48.9259   21.8915 H   0  0  0  0  0  0
   -1.6072   47.4566   22.4765 H   0  0  0  0  0  0
    4.8797   54.5637   20.0235 H   0  0  0  0  0  0
  1  2  1  0  0  0
  1 31  1  0  0  0
  1 32  1  0  0  0
  1 33  1  0  0  0
  2  7  2  0  0  0
  2  3  1  0  0  0
  3  4  2  0  0  0
  3 34  1  0  0  0
  4  5  1  0  0  0
  4 35  1  0  0  0
  5  6  2  0  0  0
  5 26  1  0  0  0
  6  7  1  0  0  0
  6 36  1  0  0  0
  7  8  1  0  0  0
  8  9  1  0  0  0
  8 37  1  0  0  0
  9 10  2  0  0  0
  9 11  1  0  0  0
 11 16  2  0  0  0
 11 12  1  0  0  0
 12 13  2  0  0  0
 12 38  1  0  0  0
 13 14  1  0  0  0
 13 39  1  0  0  0
 14 15  2  0  0  0
 14 40  1  0  0  0
 15 16  1  0  0  0
 15 17  1  0  0  0
 16 41  1  0  0  0
 17 18  1  0  0  0
 17 42  1  0  0  0
 18 19  2  0  0  0
 18 20  1  0  0  0
 20 21  1  0  0  0
 20 25  1  0  0  0
 20 22  1  0  0  0
 22 23  1  0  0  0
 22 43  1  0  0  0
 22 44  1  0  0  0
 23 24  1  0  0  0
 23 45  1  0  0  0
 23 46  1  0  0  0
 24 25  1  0  0  0
 24 47  1  0  0  0
 24 48  1  0  0  0
 26 30  1  0  0  0
 26 27  2  0  0  0
 27 28  1  0  0  0
 28 29  2  0  0  0
 29 30  1  0  0  0
 29 49  1  0  0  0
M  END
> <i_i_glide_confnum>
268

> <i_i_glide_lignum>
1391

> <i_i_glide_posenum>
166

> <i_i_glide_rotatable_bonds>
7

> <i_m_Source_File_Index>
766

> <b_m_subgroup_collapsed>
0

> <r_i_docking_score>
-5.92867

> <r_i_glide_ecoul>
-5.96769

> <r_i_glide_eff_state_penalty>
0

> <r_i_glide_einternal>
4.51267

> <r_i_glide_emodel>
-63.6861

> <r_i_glide_energy>
-46.7367

> <r_i_glide_erotb>
0.887567

> <r_i_glide_esite>
-0.148359

> <r_i_glide_evdw>
-40.769

> <r_i_glide_gscore>
-5.92867

> <r_i_glide_hbond>
-0.16

> <r_i_glide_ligand_efficiency>
-0.204437

> <r_i_glide_ligand_efficiency_ln>
-1.35752

> <r_i_glide_ligand_efficiency_sa>
-0.628095

> <r_i_glide_lipo>
-2.46775

> <r_i_glide_metal>
0

> <r_i_glide_rewards>
-1.10653

> <s_i_glide_gridfile>
wee1_glide-grid

> <s_m_Source_File>
wee1_decoys_glide_SP.sdf

> <s_m_Source_Path>
/Users/zhangxujun/Desktop

> <s_m_entry_id>
1041

> <s_m_entry_name>
wee1_decoys_glide_SP.766

> <s_m_subgroup_title>
wee1_decoys_glide_SP

> <s_m_subgroupid>
wee1_decoys_glide_SP


$$$$
