ZINC03113462_2962
                    3D
 Schrodinger Suite 2024-2.
 40 41  0  0  1  0            999 V2000
    6.9583   53.7249   23.9073 C   0  0  0  0  0  0
    6.1144   54.7876   24.3363 O   0  0  0  0  0  0
    5.1040   54.4135   25.1947 C   0  0  0  0  0  0
    3.8229   54.0261   24.7245 C   0  0  0  0  0  0
    2.8383   53.7027   25.6712 C   0  0  0  0  0  0
    3.1036   53.7551   27.0379 C   0  0  0  0  0  0
    4.3694   54.1141   27.4868 C   0  0  0  0  0  0
    5.3662   54.4409   26.5723 C   0  0  0  0  0  0
    7.0957   54.8965   27.2297 Br  0  0  0  0  0  0
    1.7376   53.3248   28.2909 Br  0  0  0  0  0  0
    3.4653   53.8715   23.2999 C   0  0  0  0  0  0
    4.2814   54.0972   22.3447 N   0  0  0  0  0  0
    4.0361   53.7731   21.0326 N   0  0  0  0  0  0
    3.1064   52.9866   20.4272 C   0  0  0  0  0  0
    2.1290   52.4923   20.9924 O   0  0  0  0  0  0
    3.2638   52.7461   18.9054 C   0  0  0  0  0  0
    4.6420   52.8967   18.4063 N   0  0  0  0  0  0
    5.3153   54.0497   18.2279 C   0  0  0  0  0  0
    4.8126   55.1524   18.4496 O   0  0  0  0  0  0
    6.7748   53.9282   17.8600 C   0  0  0  0  0  0
    7.6829   54.8964   18.3133 C   0  0  0  0  0  0
    9.0414   54.7776   18.0309 C   0  0  0  0  0  0
    9.4989   53.6967   17.2817 C   0  0  0  0  0  0
    8.6068   52.7381   16.8069 C   0  0  0  0  0  0
    7.2483   52.8548   17.0915 C   0  0  0  0  0  0
   11.1852   53.5394   16.9512 Cl  0  0  0  0  0  0
    7.6815   54.1009   23.1859 H   0  0  0  0  0  0
    7.5041   53.2968   24.7456 H   0  0  0  0  0  0
    6.4018   52.9293   23.4098 H   0  0  0  0  0  0
    1.8493   53.3974   25.3572 H   0  0  0  0  0  0
    4.5805   54.1401   28.5456 H   0  0  0  0  0  0
    2.4486   53.5319   23.1266 H   0  0  0  0  0  0
    4.7627   54.1150   20.4204 H   0  0  0  0  0  0
    2.6125   53.4464   18.3800 H   0  0  0  0  0  0
    2.9090   51.7448   18.6572 H   0  0  0  0  0  0
    5.1043   52.0008   18.2068 H   0  0  0  0  0  0
    7.3449   55.7373   18.9032 H   0  0  0  0  0  0
    9.7396   55.5153   18.4005 H   0  0  0  0  0  0
    8.9672   51.9009   16.2270 H   0  0  0  0  0  0
    6.5739   52.0966   16.7183 H   0  0  0  0  0  0
  1  2  1  0  0  0
  1 27  1  0  0  0
  1 28  1  0  0  0
  1 29  1  0  0  0
  2  3  1  0  0  0
  3  8  2  0  0  0
  3  4  1  0  0  0
  4  5  2  0  0  0
  4 11  1  0  0  0
  5  6  1  0  0  0
  5 30  1  0  0  0
  6  7  2  0  0  0
  6 10  1  0  0  0
  7  8  1  0  0  0
  7 31  1  0  0  0
  8  9  1  0  0  0
 11 12  2  0  0  0
 11 32  1  0  0  0
 12 13  1  0  0  0
 13 14  1  0  0  0
 13 33  1  0  0  0
 14 15  2  0  0  0
 14 16  1  0  0  0
 16 17  1  0  0  0
 16 34  1  0  0  0
 16 35  1  0  0  0
 17 18  1  0  0  0
 17 36  1  0  0  0
 18 19  2  0  0  0
 18 20  1  0  0  0
 20 25  2  0  0  0
 20 21  1  0  0  0
 21 22  2  0  0  0
 21 37  1  0  0  0
 22 23  1  0  0  0
 22 38  1  0  0  0
 23 24  2  0  0  0
 23 26  1  0  0  0
 24 25  1  0  0  0
 24 39  1  0  0  0
 25 40  1  0  0  0
M  END
> <i_i_glide_confnum>
3

> <i_i_glide_lignum>
2963

> <i_i_glide_posenum>
324

> <i_i_glide_rotatable_bonds>
8

> <i_m_Source_File_Index>
3820

> <b_m_subgroup_collapsed>
0

> <r_i_docking_score>
-4.96867

> <r_i_glide_ecoul>
-5.72145

> <r_i_glide_eff_state_penalty>
0

> <r_i_glide_einternal>
5.2598

> <r_i_glide_emodel>
-52.6441

> <r_i_glide_energy>
-41.3807

> <r_i_glide_erotb>
0.483645

> <r_i_glide_esite>
-0.126486

> <r_i_glide_evdw>
-35.6592

> <r_i_glide_gscore>
-4.96867

> <r_i_glide_hbond>
-0.16

> <r_i_glide_ligand_efficiency>
-0.191103

> <r_i_glide_ligand_efficiency_ln>
-1.16688

> <r_i_glide_ligand_efficiency_sa>
-0.566141

> <r_i_glide_lipo>
-2.20354

> <r_i_glide_metal>
0

> <r_i_glide_rewards>
-0.321108

> <s_i_glide_gridfile>
wee1_glide-grid

> <s_m_Source_File>
wee1_decoys_glide_SP.sdf

> <s_m_Source_Path>
/Users/zhangxujun/Desktop

> <s_m_entry_id>
4095

> <s_m_entry_name>
wee1_decoys_glide_SP.3820

> <s_m_subgroup_title>
wee1_decoys_glide_SP

> <s_m_subgroupid>
wee1_decoys_glide_SP


$$$$
