ZINC15932036_3413
                    3D
 Schrodinger Suite 2024-2.
 64 69  0  0  1  0            999 V2000
   -1.3628   45.5256   20.1297 C   0  0  0  0  0  0
   -0.4791   46.6177   19.5547 C   0  0  0  0  0  0
    0.6564   46.2724   18.8155 C   0  0  0  0  0  0
    1.5084   47.2351   18.2635 C   0  0  0  0  0  0
    1.1689   48.5686   18.4871 C   0  0  0  0  0  0
    0.0162   48.9478   19.2176 C   0  0  0  0  0  0
   -0.8196   47.9590   19.7577 C   0  0  0  0  0  0
   -0.1032   50.3095   19.2716 N   0  0  0  0  0  0
    0.9485   50.7719   18.6403 C   0  0  0  0  0  0
    1.7416   49.7632   18.1308 N   0  0  0  0  0  0
    2.5947   49.9062   17.5980 H   0  0  0  0  0  0
    1.2294   52.4936   18.4161 S   0  0  0  0  0  0
    3.0430   52.5550   18.5921 C   0  0  0  0  0  0
    3.5060   52.7102   20.0474 C   0  0  0  0  0  0
    3.1601   51.8779   20.8902 O   0  0  0  0  0  0
    4.3021   53.7693   20.3037 N   0  0  0  0  0  0
    4.8473   54.1566   21.5387 C   0  0  0  0  0  0
    6.0605   54.8428   21.4985 C   0  0  0  0  0  0
    6.7048   55.1903   22.6806 C   0  0  0  0  0  0
    6.1264   54.8968   23.9129 C   0  0  0  0  0  0
    4.8516   54.3120   23.9731 C   0  0  0  0  0  0
    4.2283   53.9257   22.7793 C   0  0  0  0  0  0
    4.1237   54.0969   25.1588 N   0  0  0  0  0  0
    4.4410   54.3760   26.4453 C   0  0  0  0  0  0
    5.5006   54.8990   26.7885 O   0  0  0  0  0  0
    3.4409   53.9244   27.5571 C   0  0  0  0  0  0
    4.2039   52.8658   28.4011 C   0  0  0  0  0  0
    3.2925   52.2771   29.5013 C   0  0  2  0  0  0
    1.9977   51.6776   28.8915 C   0  0  0  0  0  0
    1.2270   52.7686   28.1092 C   0  0  2  0  0  0
    2.1263   53.2996   26.9681 C   0  0  0  0  0  0
    0.8597   53.9324   29.0660 C   0  0  0  0  0  0
    2.1528   54.5388   29.6720 C   0  0  1  0  0  0
    2.9174   53.4289   30.4527 C   0  0  0  0  0  0
    3.0393   55.0905   28.5169 C   0  0  0  0  0  0
   -1.2933   44.6120   19.5378 H   0  0  0  0  0  0
   -2.4098   45.8306   20.1169 H   0  0  0  0  0  0
   -1.0754   45.3063   21.1584 H   0  0  0  0  0  0
    0.8947   45.2280   18.6667 H   0  0  0  0  0  0
    2.3916   46.9622   17.7003 H   0  0  0  0  0  0
   -1.7011   48.2331   20.3188 H   0  0  0  0  0  0
    3.5068   51.6771   18.1529 H   0  0  0  0  0  0
    3.3883   53.4032   17.9998 H   0  0  0  0  0  0
    4.6123   54.3029   19.5070 H   0  0  0  0  0  0
    6.5396   55.0608   20.5532 H   0  0  0  0  0  0
    7.6644   55.6844   22.6399 H   0  0  0  0  0  0
    6.6693   55.1932   24.7942 H   0  0  0  0  0  0
    3.2553   53.4574   22.8127 H   0  0  0  0  0  0
    3.2352   53.6398   25.0219 H   0  0  0  0  0  0
    4.5952   52.0967   27.7509 H   0  0  0  0  0  0
    5.0887   53.3029   28.8706 H   0  0  0  0  0  0
    3.8385   51.5085   30.0493 H   0  0  0  0  0  0
    1.3614   51.2828   29.6818 H   0  0  0  0  0  0
    2.2363   50.8383   28.2388 H   0  0  0  0  0  0
    0.3159   52.3380   27.6897 H   0  0  0  0  0  0
    1.5737   54.0411   26.3869 H   0  0  0  0  0  0
    2.3481   52.4825   26.2816 H   0  0  0  0  0  0
    0.3049   54.6990   28.5235 H   0  0  0  0  0  0
    0.1982   53.5801   29.8585 H   0  0  0  0  0  0
    1.8899   55.3543   30.3477 H   0  0  0  0  0  0
    2.3084   53.0407   31.2722 H   0  0  0  0  0  0
    3.8386   53.8262   30.8816 H   0  0  0  0  0  0
    3.9160   55.5740   28.9434 H   0  0  0  0  0  0
    2.4889   55.8643   27.9815 H   0  0  0  0  0  0
  1  2  1  0  0  0
  1 36  1  0  0  0
  1 37  1  0  0  0
  1 38  1  0  0  0
  2  7  2  0  0  0
  2  3  1  0  0  0
  3  4  2  0  0  0
  3 39  1  0  0  0
  4  5  1  0  0  0
  4 40  1  0  0  0
  5 10  1  0  0  0
  5  6  2  0  0  0
  6  7  1  0  0  0
  6  8  1  0  0  0
  7 41  1  0  0  0
  8  9  2  0  0  0
  9 10  1  0  0  0
  9 12  1  0  0  0
 10 11  1  0  0  0
 12 13  1  0  0  0
 13 14  1  0  0  0
 13 42  1  0  0  0
 13 43  1  0  0  0
 14 15  2  0  0  0
 14 16  1  0  0  0
 16 17  1  0  0  0
 16 44  1  0  0  0
 17 22  2  0  0  0
 17 18  1  0  0  0
 18 19  2  0  0  0
 18 45  1  0  0  0
 19 20  1  0  0  0
 19 46  1  0  0  0
 20 21  2  0  0  0
 20 47  1  0  0  0
 21 22  1  0  0  0
 21 23  1  0  0  0
 22 48  1  0  0  0
 23 24  1  0  0  0
 23 49  1  0  0  0
 24 25  2  0  0  0
 24 26  1  0  0  0
 26 31  1  0  0  0
 26 35  1  0  0  0
 26 27  1  0  0  0
 27 28  1  0  0  0
 27 50  1  0  0  0
 27 51  1  0  0  0
 28 34  1  0  0  0
 28 29  1  0  0  0
 28 52  1  0  0  0
 29 30  1  0  0  0
 29 53  1  0  0  0
 29 54  1  0  0  0
 30 31  1  0  0  0
 30 32  1  0  0  0
 30 55  1  0  0  0
 31 56  1  0  0  0
 31 57  1  0  0  0
 32 33  1  0  0  0
 32 58  1  0  0  0
 32 59  1  0  0  0
 33 34  1  0  0  0
 33 35  1  0  0  0
 33 60  1  0  0  0
 34 61  1  0  0  0
 34 62  1  0  0  0
 35 63  1  0  0  0
 35 64  1  0  0  0
M  END
> <i_i_glide_confnum>
1

> <i_i_glide_lignum>
3414

> <i_i_glide_posenum>
80

> <i_i_glide_rotatable_bonds>
8

> <i_m_Source_File_Index>
4654

> <b_m_subgroup_collapsed>
0

> <r_i_docking_score>
-5.75646

> <r_i_glide_ecoul>
-4.91104

> <r_i_glide_eff_state_penalty>
0

> <r_i_glide_einternal>
1.93673

> <r_i_glide_emodel>
-59.944

> <r_i_glide_energy>
-44.9932

> <r_i_glide_erotb>
0.718673

> <r_i_glide_esite>
-0.121822

> <r_i_glide_evdw>
-40.0821

> <r_i_glide_gscore>
-5.75646

> <r_i_glide_hbond>
-0.16

> <r_i_glide_ligand_efficiency>
-0.169308

> <r_i_glide_ligand_efficiency_ln>
-1.27176

> <r_i_glide_ligand_efficiency_sa>
-0.548491

> <r_i_glide_lipo>
-2.92183

> <r_i_glide_metal>
0

> <r_i_glide_rewards>
-0.530716

> <s_i_glide_gridfile>
wee1_glide-grid

> <s_m_Source_File>
wee1_decoys_glide_SP.sdf

> <s_m_Source_Path>
/Users/zhangxujun/Desktop

> <s_m_entry_id>
4929

> <s_m_entry_name>
wee1_decoys_glide_SP.4654

> <s_m_subgroup_title>
wee1_decoys_glide_SP

> <s_m_subgroupid>
wee1_decoys_glide_SP


$$$$
