ZINC39652862_3065
                    3D
 Schrodinger Suite 2024-2.
 67 70  0  0  1  0            999 V2000
   -6.1295   51.6268   24.0834 C   0  0  0  0  0  0
   -4.9686   52.2912   24.5668 O   0  0  0  0  0  0
   -3.7284   51.7388   24.3200 C   0  0  0  0  0  0
   -3.4951   50.6375   23.4813 C   0  0  0  0  0  0
   -2.2039   50.1431   23.3070 C   0  0  0  0  0  0
   -1.1204   50.7402   23.9611 C   0  0  0  0  0  0
   -1.3449   51.8563   24.7870 C   0  0  0  0  0  0
   -2.6428   52.3348   24.9604 C   0  0  0  0  0  0
   -0.3407   52.4967   25.4726 O   0  0  0  0  0  0
    0.5439   53.2765   24.6745 C   0  0  0  0  0  0
    0.2524   50.1413   23.8257 C   0  0  0  0  0  0
    0.7043   49.4721   24.7515 O   0  0  0  0  0  0
    0.9457   50.3973   22.6907 N   0  0  0  0  0  0
    2.2965   49.8733   22.4814 C   0  0  0  0  0  0
    2.7266   50.4915   21.1453 C   0  0  1  0  0  0
    3.3117   49.7411   20.6217 H   0  0  0  0  0  0
    1.4004   50.7906   20.3784 C   0  0  0  0  0  0
    0.4440   51.1563   21.5363 C   0  0  0  0  0  0
    1.3863   51.8642   19.2548 C   0  0  0  0  0  0
    2.3497   51.4803   18.1135 C   0  0  0  0  0  0
    1.9044   50.1255   17.5173 N   0  3  0  0  0  0
    1.7067   48.9972   18.5507 C   0  0  0  0  0  0
    0.8121   49.5168   19.6957 C   0  0  0  0  0  0
    3.6847   51.7049   21.2816 C   0  0  0  0  0  0
    4.7397   51.6985   20.6535 O   0  0  0  0  0  0
    3.3100   52.7632   22.0272 N   0  0  0  0  0  0
    4.0463   54.0358   22.0409 C   0  0  0  0  0  0
    5.3684   54.0446   22.8558 C   0  0  0  0  0  0
    5.2735   54.1354   24.3800 C   0  0  0  0  0  0
    4.0479   54.0973   25.0512 C   0  0  0  0  0  0
    3.9997   54.1978   26.4376 C   0  0  0  0  0  0
    5.1797   54.3450   27.1595 C   0  0  0  0  0  0
    6.4078   54.3895   26.5052 C   0  0  0  0  0  0
    6.4536   54.2905   25.1149 C   0  0  0  0  0  0
    5.1039   54.4975   29.0539 Br  0  0  0  0  0  0
   -7.0143   52.1923   24.3724 H   0  0  0  0  0  0
   -6.1318   51.5451   22.9963 H   0  0  0  0  0  0
   -6.2201   50.6279   24.5115 H   0  0  0  0  0  0
   -4.3074   50.1452   22.9679 H   0  0  0  0  0  0
   -2.0532   49.2771   22.6765 H   0  0  0  0  0  0
   -2.8119   53.1812   25.6096 H   0  0  0  0  0  0
    1.1045   53.9554   25.3146 H   0  0  0  0  0  0
    1.2737   52.6603   24.1555 H   0  0  0  0  0  0
    0.0104   53.8837   23.9419 H   0  0  0  0  0  0
    2.2491   48.7894   22.3644 H   0  0  0  0  0  0
    3.0062   50.0680   23.2845 H   0  0  0  0  0  0
    0.5634   52.2198   21.7499 H   0  0  0  0  0  0
   -0.6011   50.9985   21.2642 H   0  0  0  0  0  0
    0.3784   52.0264   18.8720 H   0  0  0  0  0  0
    1.6929   52.8327   19.6527 H   0  0  0  0  0  0
    2.3465   52.1968   17.2903 H   0  0  0  0  0  0
    3.3802   51.3341   18.4396 H   0  0  0  0  0  0
    1.0663   50.2525   16.9695 H   0  0  0  0  0  0
    1.2546   48.1660   18.0071 H   0  0  0  0  0  0
    2.7101   48.6978   18.8548 H   0  0  0  0  0  0
    0.7026   48.7151   20.4284 H   0  0  0  0  0  0
   -0.2011   49.6949   19.3304 H   0  0  0  0  0  0
    2.4496   52.7109   22.5488 H   0  0  0  0  0  0
    3.3733   54.7941   22.4471 H   0  0  0  0  0  0
    4.2298   54.3950   21.0245 H   0  0  0  0  0  0
    5.9563   54.9009   22.5232 H   0  0  0  0  0  0
    5.9711   53.1763   22.5873 H   0  0  0  0  0  0
    3.1311   53.9863   24.5028 H   0  0  0  0  0  0
    3.0504   54.1623   26.9524 H   0  0  0  0  0  0
    7.3159   54.4981   27.0782 H   0  0  0  0  0  0
    7.4069   54.3293   24.6051 H   0  0  0  0  0  0
    2.6427   49.8083   16.8822 H   0  0  0  0  0  0
  1  2  1  0  0  0
  1 36  1  0  0  0
  1 37  1  0  0  0
  1 38  1  0  0  0
  2  3  1  0  0  0
  3  8  2  0  0  0
  3  4  1  0  0  0
  4  5  2  0  0  0
  4 39  1  0  0  0
  5  6  1  0  0  0
  5 40  1  0  0  0
  6  7  2  0  0  0
  6 11  1  0  0  0
  7  8  1  0  0  0
  7  9  1  0  0  0
  8 41  1  0  0  0
  9 10  1  0  0  0
 10 42  1  0  0  0
 10 43  1  0  0  0
 10 44  1  0  0  0
 11 12  2  0  0  0
 11 13  1  0  0  0
 13 18  1  0  0  0
 13 14  1  0  0  0
 14 15  1  0  0  0
 14 45  1  0  0  0
 14 46  1  0  0  0
 15 16  1  0  0  0
 15 17  1  0  0  0
 15 24  1  0  0  0
 17 23  1  0  0  0
 17 18  1  0  0  0
 17 19  1  0  0  0
 18 47  1  0  0  0
 18 48  1  0  0  0
 19 20  1  0  0  0
 19 49  1  0  0  0
 19 50  1  0  0  0
 20 21  1  0  0  0
 20 51  1  0  0  0
 20 52  1  0  0  0
 21 22  1  0  0  0
 21 53  1  0  0  0
 21 67  1  0  0  0
 22 23  1  0  0  0
 22 54  1  0  0  0
 22 55  1  0  0  0
 23 56  1  0  0  0
 23 57  1  0  0  0
 24 25  2  0  0  0
 24 26  1  0  0  0
 26 27  1  0  0  0
 26 58  1  0  0  0
 27 28  1  0  0  0
 27 59  1  0  0  0
 27 60  1  0  0  0
 28 29  1  0  0  0
 28 61  1  0  0  0
 28 62  1  0  0  0
 29 34  2  0  0  0
 29 30  1  0  0  0
 30 31  2  0  0  0
 30 63  1  0  0  0
 31 32  1  0  0  0
 31 64  1  0  0  0
 32 33  2  0  0  0
 32 35  1  0  0  0
 33 34  1  0  0  0
 33 65  1  0  0  0
 34 66  1  0  0  0
M  CHG  1  21   1
M  END
> <i_i_glide_confnum>
21

> <i_i_glide_lignum>
3066

> <i_i_glide_posenum>
359

> <i_i_glide_rotatable_bonds>
9

> <i_m_Source_File_Index>
642

> <b_m_subgroup_collapsed>
0

> <r_i_docking_score>
-5.2667

> <r_i_glide_ecoul>
-3.52594

> <r_i_glide_eff_state_penalty>
0

> <r_i_glide_einternal>
16.837

> <r_i_glide_emodel>
-55.7775

> <r_i_glide_energy>
-44.5839

> <r_i_glide_erotb>
0.438024

> <r_i_glide_esite>
-0.0976442

> <r_i_glide_evdw>
-41.0579

> <r_i_glide_gscore>
-5.2667

> <r_i_glide_hbond>
-0.2

> <r_i_glide_ligand_efficiency>
-0.154903

> <r_i_glide_ligand_efficiency_ln>
-1.16356

> <r_i_glide_ligand_efficiency_sa>
-0.501825

> <r_i_glide_lipo>
-2.57092

> <r_i_glide_metal>
0

> <r_i_glide_rewards>
-0.254366

> <s_i_glide_gridfile>
wee1_glide-grid

> <s_m_Source_File>
wee1_decoys_glide_SP.sdf

> <s_m_Source_Path>
/Users/zhangxujun/Desktop

> <s_m_entry_id>
917

> <s_m_entry_name>
wee1_decoys_glide_SP.642

> <s_m_subgroup_title>
wee1_decoys_glide_SP

> <s_m_subgroupid>
wee1_decoys_glide_SP


$$$$
