ZINC62954207_4816
                    3D
 Schrodinger Suite 2024-2.
 43 45  0  0  1  0            999 V2000
    3.3357   54.1022   22.5991 C   0  0  0  0  0  0
    2.9474   54.1103   23.9368 C   0  0  0  0  0  0
    3.8902   54.0933   24.9776 C   0  0  0  0  0  0
    5.2580   54.0971   24.6199 C   0  0  0  0  0  0
    5.6375   54.1016   23.2750 C   0  0  0  0  0  0
    4.6888   54.0962   22.2435 C   0  0  0  0  0  0
    5.1048   54.0532   20.8194 C   0  0  0  0  0  0
    5.8811   54.8961   20.2508 N   0  0  0  0  0  0
    6.3043   55.9897   21.0418 O   0  0  0  0  0  0
    4.5738   52.9435   20.2037 N   0  0  0  0  0  0
    6.5399   54.0140   25.7860 Cl  0  0  0  0  0  0
    3.4639   53.9096   26.2962 N   0  0  0  0  0  0
    2.1768   53.2536   26.6088 C   0  0  0  0  0  0
    2.2090   52.5330   27.9728 C   0  0  0  0  0  0
    2.5966   53.4599   29.1454 C   0  0  0  0  0  0
    2.6868   52.6299   30.4371 C   0  0  0  0  0  0
    1.2577   52.5783   30.9932 C   0  0  0  0  0  0
    0.5544   53.8471   30.4836 C   0  0  0  0  0  0
    1.5145   54.5105   29.4824 C   0  0  0  0  0  0
    3.9616   54.0518   28.7320 C   0  0  0  0  0  0
    3.8533   54.8139   27.3917 C   0  0  0  0  0  0
    2.5714   54.0981   21.8335 H   0  0  0  0  0  0
    1.8898   54.1014   24.1548 H   0  0  0  0  0  0
    6.6927   54.0738   23.0355 H   0  0  0  0  0  0
    5.8591   55.8294   21.8779 H   0  0  0  0  0  0
    4.8195   52.7252   19.2468 H   0  0  0  0  0  0
    3.9553   52.3189   20.6963 H   0  0  0  0  0  0
    1.3748   53.9892   26.5609 H   0  0  0  0  0  0
    1.9636   52.4963   25.8523 H   0  0  0  0  0  0
    1.2361   52.0758   28.1600 H   0  0  0  0  0  0
    2.8968   51.6949   27.9076 H   0  0  0  0  0  0
    3.1382   51.6518   30.2775 H   0  0  0  0  0  0
    3.3564   53.1129   31.1471 H   0  0  0  0  0  0
    0.7430   51.6971   30.6084 H   0  0  0  0  0  0
    1.2427   52.5051   32.0814 H   0  0  0  0  0  0
   -0.3882   53.5871   29.9994 H   0  0  0  0  0  0
    0.3118   54.5246   31.3044 H   0  0  0  0  0  0
    1.9833   55.3708   29.9633 H   0  0  0  0  0  0
    1.0128   54.9174   28.6046 H   0  0  0  0  0  0
    4.7271   53.2759   28.6603 H   0  0  0  0  0  0
    4.3228   54.7304   29.5059 H   0  0  0  0  0  0
    4.8053   55.2978   27.1884 H   0  0  0  0  0  0
    3.1036   55.6021   27.4608 H   0  0  0  0  0  0
  1  6  2  0  0  0
  1  2  1  0  0  0
  1 22  1  0  0  0
  2  3  2  0  0  0
  2 23  1  0  0  0
  3  4  1  0  0  0
  3 12  1  0  0  0
  4  5  2  0  0  0
  4 11  1  0  0  0
  5  6  1  0  0  0
  5 24  1  0  0  0
  6  7  1  0  0  0
  7  8  2  0  0  0
  7 10  1  0  0  0
  8  9  1  0  0  0
  9 25  1  0  0  0
 10 26  1  0  0  0
 10 27  1  0  0  0
 12 21  1  0  0  0
 12 13  1  0  0  0
 13 14  1  0  0  0
 13 28  1  0  0  0
 13 29  1  0  0  0
 14 15  1  0  0  0
 14 30  1  0  0  0
 14 31  1  0  0  0
 15 19  1  0  0  0
 15 16  1  0  0  0
 15 20  1  0  0  0
 16 17  1  0  0  0
 16 32  1  0  0  0
 16 33  1  0  0  0
 17 18  1  0  0  0
 17 34  1  0  0  0
 17 35  1  0  0  0
 18 19  1  0  0  0
 18 36  1  0  0  0
 18 37  1  0  0  0
 19 38  1  0  0  0
 19 39  1  0  0  0
 20 21  1  0  0  0
 20 40  1  0  0  0
 20 41  1  0  0  0
 21 42  1  0  0  0
 21 43  1  0  0  0
M  END
> <i_i_glide_confnum>
23

> <i_i_glide_lignum>
4817

> <i_i_glide_posenum>
276

> <i_i_glide_rotatable_bonds>
3

> <i_m_Source_File_Index>
1696

> <b_m_subgroup_collapsed>
0

> <r_i_docking_score>
-6.30986

> <r_i_glide_ecoul>
-1.14887

> <r_i_glide_eff_state_penalty>
0

> <r_i_glide_einternal>
2.18424

> <r_i_glide_emodel>
-52.0036

> <r_i_glide_energy>
-38.2711

> <r_i_glide_erotb>
0.5855

> <r_i_glide_esite>
-0.0284686

> <r_i_glide_evdw>
-37.1222

> <r_i_glide_gscore>
-6.30986

> <r_i_glide_hbond>
0

> <r_i_glide_ligand_efficiency>
-0.30047

> <r_i_glide_ligand_efficiency_ln>
-1.5601

> <r_i_glide_ligand_efficiency_sa>
-0.828973

> <r_i_glide_lipo>
-3.08644

> <r_i_glide_metal>
0

> <r_i_glide_rewards>
-1.75201

> <s_i_glide_gridfile>
wee1_glide-grid

> <s_m_Source_File>
wee1_decoys_glide_SP.sdf

> <s_m_Source_Path>
/Users/zhangxujun/Desktop

> <s_m_entry_id>
1971

> <s_m_entry_name>
wee1_decoys_glide_SP.1696

> <s_m_subgroup_title>
wee1_decoys_glide_SP

> <s_m_subgroupid>
wee1_decoys_glide_SP


$$$$
