ZINC35268121_3433
                    3D
 Schrodinger Suite 2024-2.
 58 60  0  0  1  0            999 V2000
    4.0261   56.8026   17.1035 C   0  0  0  0  0  0
    3.3667   55.4504   17.4287 C   0  0  0  0  0  0
    4.2144   54.1965   17.0844 C   0  0  1  0  0  0
    3.5762   53.3386   17.3082 H   0  0  0  0  0  0
    4.4657   54.1182   15.5619 C   0  0  0  0  0  0
    5.5298   54.0544   17.9267 C   0  0  1  0  0  0
    6.1173   54.9631   17.7815 H   0  0  0  0  0  0
    5.1991   53.8988   19.4316 C   0  0  0  0  0  0
    4.3684   53.0602   19.7889 O   0  0  0  0  0  0
    5.9003   54.7030   20.2564 N   0  0  0  0  0  0
    5.9048   54.6886   21.6444 C   0  0  0  0  0  0
    6.8505   55.2964   22.3129 N   0  0  0  0  0  0
    6.7042   55.1747   23.6890 N   0  0  0  0  0  0
    5.6328   54.5020   24.0410 C   0  0  0  0  0  0
    4.7115   53.9215   22.6724 S   0  0  0  0  0  0
    5.2027   54.3078   25.4631 C   0  0  0  0  0  0
    3.8532   54.1159   25.7825 C   0  0  0  0  0  0
    3.4545   53.9918   27.1108 C   0  0  0  0  0  0
    4.4026   54.0605   28.1289 C   0  0  0  0  0  0
    5.7499   54.2391   27.8250 C   0  0  0  0  0  0
    6.1468   54.3604   26.4964 C   0  0  0  0  0  0
    3.9037   53.9328   29.7751 Cl  0  0  0  0  0  0
    6.3238   52.8968   17.4967 N   0  0  0  0  0  0
    7.5780   52.9507   17.0194 C   0  0  0  0  0  0
    8.2678   53.9725   17.0150 O   0  0  0  0  0  0
    7.9669   51.7805   16.4861 N   0  0  0  0  0  0
    9.1932   51.5589   15.7096 C   0  0  0  0  0  0
   10.4968   51.5226   16.5471 C   0  0  0  0  0  0
   11.7661   51.2614   15.7098 C   0  0  0  0  0  0
   11.6265   50.0266   14.8025 C   0  0  0  0  0  0
   10.3848   50.1368   13.9057 C   0  0  0  0  0  0
    9.1028   50.3652   14.7279 C   0  0  0  0  0  0
    3.3306   57.6238   17.2817 H   0  0  0  0  0  0
    4.9062   56.9825   17.7234 H   0  0  0  0  0  0
    4.3321   56.8682   16.0567 H   0  0  0  0  0  0
    2.4117   55.3914   16.9037 H   0  0  0  0  0  0
    3.1044   55.4435   18.4846 H   0  0  0  0  0  0
    5.1892   54.8665   15.2343 H   0  0  0  0  0  0
    4.8541   53.1423   15.2731 H   0  0  0  0  0  0
    3.5435   54.2736   14.9979 H   0  0  0  0  0  0
    6.5881   55.3024   19.8235 H   0  0  0  0  0  0
    3.1038   54.0758   25.0057 H   0  0  0  0  0  0
    2.4104   53.8509   27.3488 H   0  0  0  0  0  0
    6.4836   54.2958   28.6170 H   0  0  0  0  0  0
    7.1925   54.5009   26.2729 H   0  0  0  0  0  0
    5.9048   51.9834   17.6818 H   0  0  0  0  0  0
    7.4208   50.9601   16.7079 H   0  0  0  0  0  0
    9.2927   52.4302   15.0577 H   0  0  0  0  0  0
   10.4128   50.7206   17.2819 H   0  0  0  0  0  0
   10.6197   52.4506   17.1073 H   0  0  0  0  0  0
   12.6256   51.1424   16.3692 H   0  0  0  0  0  0
   11.9787   52.1368   15.0956 H   0  0  0  0  0  0
   11.5586   49.1255   15.4144 H   0  0  0  0  0  0
   12.5186   49.9076   14.1850 H   0  0  0  0  0  0
   10.2850   49.2374   13.2949 H   0  0  0  0  0  0
   10.5164   50.9600   13.2007 H   0  0  0  0  0  0
    8.2558   50.4962   14.0511 H   0  0  0  0  0  0
    8.9167   49.4513   15.2952 H   0  0  0  0  0  0
  1  2  1  0  0  0
  1 33  1  0  0  0
  1 34  1  0  0  0
  1 35  1  0  0  0
  2  3  1  0  0  0
  2 36  1  0  0  0
  2 37  1  0  0  0
  3  4  1  0  0  0
  3  5  1  0  0  0
  3  6  1  0  0  0
  5 38  1  0  0  0
  5 39  1  0  0  0
  5 40  1  0  0  0
  6  7  1  0  0  0
  6  8  1  0  0  0
  6 23  1  0  0  0
  8  9  2  0  0  0
  8 10  1  0  0  0
 10 11  1  0  0  0
 10 41  1  0  0  0
 11 15  1  0  0  0
 11 12  2  0  0  0
 12 13  1  0  0  0
 13 14  2  0  0  0
 14 15  1  0  0  0
 14 16  1  0  0  0
 16 21  2  0  0  0
 16 17  1  0  0  0
 17 18  2  0  0  0
 17 42  1  0  0  0
 18 19  1  0  0  0
 18 43  1  0  0  0
 19 20  2  0  0  0
 19 22  1  0  0  0
 20 21  1  0  0  0
 20 44  1  0  0  0
 21 45  1  0  0  0
 23 24  1  0  0  0
 23 46  1  0  0  0
 24 25  2  0  0  0
 24 26  1  0  0  0
 26 27  1  0  0  0
 26 47  1  0  0  0
 27 32  1  0  0  0
 27 28  1  0  0  0
 27 48  1  0  0  0
 28 29  1  0  0  0
 28 49  1  0  0  0
 28 50  1  0  0  0
 29 30  1  0  0  0
 29 51  1  0  0  0
 29 52  1  0  0  0
 30 31  1  0  0  0
 30 53  1  0  0  0
 30 54  1  0  0  0
 31 32  1  0  0  0
 31 55  1  0  0  0
 31 56  1  0  0  0
 32 57  1  0  0  0
 32 58  1  0  0  0
M  END
> <i_i_glide_confnum>
118

> <i_i_glide_lignum>
3434

> <i_i_glide_posenum>
376

> <i_i_glide_rotatable_bonds>
10

> <i_m_Source_File_Index>
3306

> <b_m_subgroup_collapsed>
0

> <r_i_docking_score>
-4.98828

> <r_i_glide_ecoul>
-1.88043

> <r_i_glide_eff_state_penalty>
0

> <r_i_glide_einternal>
4.20929

> <r_i_glide_emodel>
-55.2851

> <r_i_glide_energy>
-43.3854

> <r_i_glide_erotb>
0.791926

> <r_i_glide_esite>
-0.119686

> <r_i_glide_evdw>
-41.505

> <r_i_glide_gscore>
-4.98828

> <r_i_glide_hbond>
-0.16

> <r_i_glide_ligand_efficiency>
-0.166276

> <r_i_glide_ligand_efficiency_ln>
-1.13339

> <r_i_glide_ligand_efficiency_sa>
-0.516658

> <r_i_glide_lipo>
-2.69592

> <r_i_glide_metal>
0

> <r_i_glide_rewards>
-0.44728

> <s_i_glide_gridfile>
wee1_glide-grid

> <s_m_Source_File>
wee1_decoys_glide_SP.sdf

> <s_m_Source_Path>
/Users/zhangxujun/Desktop

> <s_m_entry_id>
3581

> <s_m_entry_name>
wee1_decoys_glide_SP.3306

> <s_m_subgroup_title>
wee1_decoys_glide_SP

> <s_m_subgroupid>
wee1_decoys_glide_SP


$$$$
