ZINC12605404_2294
                    3D
 Schrodinger Suite 2024-2.
 44 47  0  0  1  0            999 V2000
   -1.5228   48.0634   24.8746 C   0  0  0  0  0  0
   -0.5506   48.4526   23.9576 C   0  0  0  0  0  0
   -0.1623   49.7949   23.8395 C   0  0  0  0  0  0
   -0.7892   50.7490   24.6630 C   0  0  0  0  0  0
   -1.7649   50.3590   25.5830 C   0  0  0  0  0  0
   -2.1322   49.0171   25.6817 C   0  0  0  0  0  0
   -2.5347   51.5442   26.6753 S   0  0  0  0  0  0
   -2.2025   52.8966   26.2110 O   0  0  0  0  0  0
   -3.9309   51.1273   26.8412 O   0  0  0  0  0  0
   -1.7645   51.2967   28.2531 N   0  0  0  0  0  0
   -0.6230   51.9646   28.7169 C   0  0  0  0  0  0
   -0.4782   52.0967   30.1097 C   0  0  0  0  0  0
    0.6221   52.7571   30.6699 C   0  0  0  0  0  0
    1.5628   53.2851   29.7946 C   0  0  0  0  0  0
    1.4353   53.1583   28.4392 C   0  0  0  0  0  0
    0.3584   52.4929   27.8598 C   0  0  0  0  0  0
    2.5059   53.7389   27.8356 O   0  0  0  0  0  0
    3.1755   54.4368   28.8525 C   0  0  0  0  0  0
    2.7191   53.9382   30.0816 O   0  0  0  0  0  0
    0.9005   50.1743   22.8319 C   0  0  0  0  0  0
    1.1707   49.4094   21.9044 O   0  0  0  0  0  0
    1.4967   51.3663   23.0460 N   0  0  0  0  0  0
    2.4739   52.0371   22.2945 C   0  0  0  0  0  0
    2.7577   53.3376   22.7147 C   0  0  0  0  0  0
    3.7049   54.0968   22.0386 C   0  0  0  0  0  0
    4.3708   53.5601   20.9415 C   0  0  0  0  0  0
    4.1140   52.2552   20.5272 C   0  0  0  0  0  0
    3.1642   51.4901   21.1997 C   0  0  0  0  0  0
    5.6245   54.6342   19.9961 Br  0  0  0  0  0  0
   -1.7956   47.0240   24.9728 H   0  0  0  0  0  0
   -0.0957   47.6967   23.3390 H   0  0  0  0  0  0
   -0.5354   51.7971   24.5975 H   0  0  0  0  0  0
   -2.8639   48.7048   26.4146 H   0  0  0  0  0  0
   -2.1238   50.5359   28.8147 H   0  0  0  0  0  0
   -1.2192   51.6725   30.7761 H   0  0  0  0  0  0
    0.7182   52.8399   31.7428 H   0  0  0  0  0  0
    0.2822   52.3919   26.7897 H   0  0  0  0  0  0
    2.9252   55.4974   28.7877 H   0  0  0  0  0  0
    4.2562   54.3219   28.7609 H   0  0  0  0  0  0
    1.1814   51.8703   23.8579 H   0  0  0  0  0  0
    2.2423   53.7766   23.5568 H   0  0  0  0  0  0
    3.9045   55.1090   22.3489 H   0  0  0  0  0  0
    4.6412   51.8385   19.6814 H   0  0  0  0  0  0
    2.9897   50.4858   20.8483 H   0  0  0  0  0  0
  1  6  2  0  0  0
  1  2  1  0  0  0
  1 30  1  0  0  0
  2  3  2  0  0  0
  2 31  1  0  0  0
  3  4  1  0  0  0
  3 20  1  0  0  0
  4  5  2  0  0  0
  4 32  1  0  0  0
  5  6  1  0  0  0
  5  7  1  0  0  0
  6 33  1  0  0  0
  7  8  2  0  0  0
  7  9  2  0  0  0
  7 10  1  0  0  0
 10 11  1  0  0  0
 10 34  1  0  0  0
 11 16  2  0  0  0
 11 12  1  0  0  0
 12 13  2  0  0  0
 12 35  1  0  0  0
 13 14  1  0  0  0
 13 36  1  0  0  0
 14 19  1  0  0  0
 14 15  2  0  0  0
 15 16  1  0  0  0
 15 17  1  0  0  0
 16 37  1  0  0  0
 17 18  1  0  0  0
 18 19  1  0  0  0
 18 38  1  0  0  0
 18 39  1  0  0  0
 20 21  2  0  0  0
 20 22  1  0  0  0
 22 23  1  0  0  0
 22 40  1  0  0  0
 23 28  2  0  0  0
 23 24  1  0  0  0
 24 25  2  0  0  0
 24 41  1  0  0  0
 25 26  1  0  0  0
 25 42  1  0  0  0
 26 27  2  0  0  0
 26 29  1  0  0  0
 27 28  1  0  0  0
 27 43  1  0  0  0
 28 44  1  0  0  0
M  END
> <i_i_glide_confnum>
12

> <i_i_glide_lignum>
2295

> <i_i_glide_posenum>
166

> <i_i_glide_rotatable_bonds>
6

> <i_m_Source_File_Index>
532

> <b_m_subgroup_collapsed>
0

> <r_i_docking_score>
-4.08753

> <r_i_glide_ecoul>
-5.31771

> <r_i_glide_eff_state_penalty>
0

> <r_i_glide_einternal>
5.07062

> <r_i_glide_emodel>
-53.4333

> <r_i_glide_energy>
-44.5067

> <r_i_glide_erotb>
0.537567

> <r_i_glide_esite>
-0.169909

> <r_i_glide_evdw>
-39.189

> <r_i_glide_gscore>
-4.08753

> <r_i_glide_hbond>
-0.346291

> <r_i_glide_ligand_efficiency>
-0.140949

> <r_i_glide_ligand_efficiency_ln>
-0.935941

> <r_i_glide_ligand_efficiency_sa>
-0.433041

> <r_i_glide_lipo>
-0.853842

> <r_i_glide_metal>
0

> <r_i_glide_rewards>
-0.497948

> <s_i_glide_gridfile>
wee1_glide-grid

> <s_m_Source_File>
wee1_decoys_glide_SP.sdf

> <s_m_Source_Path>
/Users/zhangxujun/Desktop

> <s_m_entry_id>
807

> <s_m_entry_name>
wee1_decoys_glide_SP.532

> <s_m_subgroup_title>
wee1_decoys_glide_SP

> <s_m_subgroupid>
wee1_decoys_glide_SP


$$$$
