ZINC43260507_3183
                    3D
 Schrodinger Suite 2024-2.
 63 66  0  0  1  0            999 V2000
   10.0716   54.0756   16.9854 C   0  0  0  0  0  0
    9.3267   54.5037   18.0821 C   0  0  0  0  0  0
    7.9271   54.4348   18.0692 C   0  0  0  0  0  0
    7.2894   53.9860   16.9012 C   0  0  0  0  0  0
    8.0289   53.5416   15.7971 C   0  0  0  0  0  0
    9.4259   53.5871   15.8515 C   0  0  0  0  0  0
    7.3379   53.0037   14.5446 C   0  0  0  0  0  0
    7.8389   51.8084   14.2254 F   0  0  0  0  0  0
    6.0196   52.8699   14.7093 F   0  0  0  0  0  0
    7.5484   53.8434   13.5291 F   0  0  0  0  0  0
    7.1410   54.8979   19.2783 C   0  0  0  0  0  0
    7.5154   55.9265   19.8538 O   0  0  0  0  0  0
    6.0477   54.1912   19.7011 N   0  0  0  0  0  0
    5.7354   52.7988   19.2788 C   0  0  0  0  0  0
    4.2399   52.7057   18.8761 C   0  0  0  0  0  0
    3.4564   53.1007   20.0443 N   0  0  0  0  0  0
    3.7307   54.4967   20.4464 C   0  0  0  0  0  0
    5.2106   54.7515   20.7991 C   0  0  1  0  0  0
    5.3565   55.8280   20.8947 H   0  0  0  0  0  0
    5.5433   54.1993   22.2077 C   0  0  0  0  0  0
    4.8769   53.2966   22.7045 O   0  0  0  0  0  0
    6.5383   54.7761   22.8951 N   0  0  0  0  0  0
    6.8672   54.3734   24.2645 C   0  0  0  0  0  0
    6.0635   55.0634   25.3791 C   0  0  1  0  0  0
    6.0031   56.1440   25.2376 H   0  0  0  0  0  0
    4.7919   54.3555   25.8559 C   0  0  0  0  0  0
    4.7796   54.5136   27.3621 C   0  0  0  0  0  0
    6.2148   54.8967   27.7134 C   0  0  0  0  0  0
    6.9289   54.8393   26.4921 O   0  0  0  0  0  0
    2.7960   52.1797   20.8067 C   0  0  0  0  0  0
    2.8842   50.9649   20.6120 O   0  0  0  0  0  0
    2.0451   52.7239   21.7911 N   0  0  0  0  0  0
    1.4628   52.1138   22.9128 C   0  0  0  0  0  0
    1.1010   50.7588   22.9779 C   0  0  0  0  0  0
    0.5203   50.2540   24.1394 C   0  0  0  0  0  0
    0.3040   51.0945   25.2286 C   0  0  0  0  0  0
    0.6660   52.4382   25.1703 C   0  0  0  0  0  0
    1.2360   52.9505   24.0092 C   0  0  0  0  0  0
   -0.2478   50.6009   26.3587 F   0  0  0  0  0  0
   11.1502   54.1175   17.0199 H   0  0  0  0  0  0
    9.8516   54.8735   18.9531 H   0  0  0  0  0  0
    6.2093   53.9714   16.8539 H   0  0  0  0  0  0
   10.0147   53.2484   15.0107 H   0  0  0  0  0  0
    5.8954   52.1369   20.1306 H   0  0  0  0  0  0
    6.3766   52.4041   18.4949 H   0  0  0  0  0  0
    3.9053   51.7334   18.5021 H   0  0  0  0  0  0
    4.0415   53.4056   18.0651 H   0  0  0  0  0  0
    3.1045   54.8594   21.2615 H   0  0  0  0  0  0
    3.5056   55.1378   19.5944 H   0  0  0  0  0  0
    7.1360   55.4546   22.4436 H   0  0  0  0  0  0
    7.9043   54.5730   24.4393 H   0  0  0  0  0  0
    6.7863   53.2963   24.3660 H   0  0  0  0  0  0
    4.8272   53.2970   25.5976 H   0  0  0  0  0  0
    3.9013   54.7465   25.3630 H   0  0  0  0  0  0
    4.4788   53.5875   27.8543 H   0  0  0  0  0  0
    4.0856   55.2952   27.6727 H   0  0  0  0  0  0
    6.6646   54.2324   28.4523 H   0  0  0  0  0  0
    6.3020   55.9147   28.0816 H   0  0  0  0  0  0
    2.0507   53.7316   21.8163 H   0  0  0  0  0  0
    1.2524   50.0916   22.1434 H   0  0  0  0  0  0
    0.2415   49.2125   24.2023 H   0  0  0  0  0  0
    0.5093   53.0698   26.0300 H   0  0  0  0  0  0
    1.5155   53.9937   23.9768 H   0  0  0  0  0  0
  1  6  2  0  0  0
  1  2  1  0  0  0
  1 40  1  0  0  0
  2  3  2  0  0  0
  2 41  1  0  0  0
  3  4  1  0  0  0
  3 11  1  0  0  0
  4  5  2  0  0  0
  4 42  1  0  0  0
  5  6  1  0  0  0
  5  7  1  0  0  0
  6 43  1  0  0  0
  7  8  1  0  0  0
  7  9  1  0  0  0
  7 10  1  0  0  0
 11 12  2  0  0  0
 11 13  1  0  0  0
 13 18  1  0  0  0
 13 14  1  0  0  0
 14 15  1  0  0  0
 14 44  1  0  0  0
 14 45  1  0  0  0
 15 16  1  0  0  0
 15 46  1  0  0  0
 15 47  1  0  0  0
 16 17  1  0  0  0
 16 30  1  0  0  0
 17 18  1  0  0  0
 17 48  1  0  0  0
 17 49  1  0  0  0
 18 19  1  0  0  0
 18 20  1  0  0  0
 20 21  2  0  0  0
 20 22  1  0  0  0
 22 23  1  0  0  0
 22 50  1  0  0  0
 23 24  1  0  0  0
 23 51  1  0  0  0
 23 52  1  0  0  0
 24 25  1  0  0  0
 24 29  1  0  0  0
 24 26  1  0  0  0
 26 27  1  0  0  0
 26 53  1  0  0  0
 26 54  1  0  0  0
 27 28  1  0  0  0
 27 55  1  0  0  0
 27 56  1  0  0  0
 28 29  1  0  0  0
 28 57  1  0  0  0
 28 58  1  0  0  0
 30 31  2  0  0  0
 30 32  1  0  0  0
 32 33  1  0  0  0
 32 59  1  0  0  0
 33 38  2  0  0  0
 33 34  1  0  0  0
 34 35  2  0  0  0
 34 60  1  0  0  0
 35 36  1  0  0  0
 35 61  1  0  0  0
 36 37  2  0  0  0
 36 39  1  0  0  0
 37 38  1  0  0  0
 37 62  1  0  0  0
 38 63  1  0  0  0
M  END
> <i_i_glide_confnum>
944

> <i_i_glide_lignum>
3184

> <i_i_glide_posenum>
327

> <i_i_glide_rotatable_bonds>
10

> <i_m_Source_File_Index>
4405

> <b_m_subgroup_collapsed>
0

> <r_i_docking_score>
-5.43081

> <r_i_glide_ecoul>
-6.26232

> <r_i_glide_eff_state_penalty>
0

> <r_i_glide_einternal>
12.803

> <r_i_glide_emodel>
-52.9743

> <r_i_glide_energy>
-41.9759

> <r_i_glide_erotb>
0.602619

> <r_i_glide_esite>
-0.0755958

> <r_i_glide_evdw>
-35.7136

> <r_i_glide_gscore>
-5.43081

> <r_i_glide_hbond>
-0.354683

> <r_i_glide_ligand_efficiency>
-0.146779

> <r_i_glide_ligand_efficiency_ln>
-1.17781

> <r_i_glide_ligand_efficiency_sa>
-0.489099

> <r_i_glide_lipo>
-2.11715

> <r_i_glide_metal>
0

> <r_i_glide_rewards>
-0.76097

> <s_i_glide_gridfile>
wee1_glide-grid

> <s_m_Source_File>
wee1_decoys_glide_SP.sdf

> <s_m_Source_Path>
/Users/zhangxujun/Desktop

> <s_m_entry_id>
4680

> <s_m_entry_name>
wee1_decoys_glide_SP.4405

> <s_m_subgroup_title>
wee1_decoys_glide_SP

> <s_m_subgroupid>
wee1_decoys_glide_SP


$$$$
