ZINC35692948_4628
                    3D
 Schrodinger Suite 2024-2.
 67 71  0  0  1  0            999 V2000
   -2.6978   49.8711   21.7425 C   0  0  0  0  0  0
   -3.4148   50.4158   22.9878 C   0  0  0  0  0  0
   -2.4906   50.9116   23.9495 O   0  0  0  0  0  0
   -1.8995   52.1244   23.8185 C   0  0  0  0  0  0
   -2.0971   52.8966   22.8818 O   0  0  0  0  0  0
   -0.9287   52.4116   24.8828 C   0  0  0  0  0  0
   -1.1995   52.2440   26.2183 C   0  0  0  0  0  0
   -0.2564   52.4895   27.1809 N   0  0  0  0  0  0
    0.9168   52.8724   26.8450 C   0  0  0  0  0  0
    1.4103   53.0743   25.5534 N   0  0  0  0  0  0
    0.4964   52.8150   24.3929 C   0  0  1  0  0  0
    0.3868   53.7918   23.9188 H   0  0  0  0  0  0
    1.0814   51.8649   23.3232 C   0  0  0  0  0  0
    1.4204   52.4108   22.0759 C   0  0  0  0  0  0
    1.9520   51.6197   21.0617 C   0  0  0  0  0  0
    2.1438   50.2590   21.2735 C   0  0  0  0  0  0
    1.7715   49.6938   22.4900 C   0  0  0  0  0  0
    1.2213   50.4708   23.5123 C   0  0  0  0  0  0
    0.7522   49.7593   24.7801 C   0  0  0  0  0  0
    2.6795   53.6623   25.4969 C   0  0  0  0  0  0
    3.1938   53.8492   26.7284 C   0  0  0  0  0  0
    2.1503   53.3149   28.0347 S   0  0  0  0  0  0
    3.4170   53.9741   24.2699 C   0  0  0  0  0  0
    4.7561   54.0963   24.1060 C   0  0  0  0  0  0
    5.7125   54.0970   24.9642 O   0  5  0  0  0  0
    5.3655   54.2147   22.8829 N   0  0  0  0  0  0
    4.7586   54.5684   21.6064 C   0  0  0  0  0  0
    5.6570   54.3018   20.3876 C   0  0  1  0  0  0
    6.7015   54.5007   20.6362 H   0  0  0  0  0  0
    5.4056   52.9938   19.6440 C   0  0  0  0  0  0
    5.8007   53.2962   18.2137 C   0  0  0  0  0  0
    5.7242   54.8188   18.1113 C   0  0  0  0  0  0
    5.2940   55.2609   19.3971 O   0  0  0  0  0  0
   -2.5398   51.9016   26.8004 C   0  0  0  0  0  0
   -3.7247   52.4973   26.3354 C   0  0  0  0  0  0
   -4.9629   52.1338   26.8600 C   0  0  0  0  0  0
   -5.0311   51.1888   27.8786 C   0  0  0  0  0  0
   -3.8699   50.6055   28.3737 C   0  0  0  0  0  0
   -2.6386   50.9613   27.8326 C   0  0  0  0  0  0
   -3.4103   49.4277   21.0469 H   0  0  0  0  0  0
   -2.1620   50.6588   21.2136 H   0  0  0  0  0  0
   -1.9718   49.1029   22.0117 H   0  0  0  0  0  0
   -3.9800   49.6088   23.4551 H   0  0  0  0  0  0
   -4.1412   51.1842   22.7207 H   0  0  0  0  0  0
    1.2773   53.4641   21.8802 H   0  0  0  0  0  0
    2.2067   52.0606   20.1093 H   0  0  0  0  0  0
    2.5663   49.6444   20.4933 H   0  0  0  0  0  0
    1.9041   48.6313   22.6266 H   0  0  0  0  0  0
    1.1044   48.7318   24.8421 H   0  0  0  0  0  0
    1.0953   50.2711   25.6750 H   0  0  0  0  0  0
   -0.3340   49.7170   24.8220 H   0  0  0  0  0  0
    4.1640   54.2634   26.9563 H   0  0  0  0  0  0
    2.8156   54.0921   23.3898 H   0  0  0  0  0  0
    6.3391   54.4714   22.9436 H   0  0  0  0  0  0
    4.5822   55.6302   21.6696 H   0  0  0  0  0  0
    3.7876   54.0930   21.4725 H   0  0  0  0  0  0
    4.3476   52.7402   19.6925 H   0  0  0  0  0  0
    5.9053   52.1346   20.0884 H   0  0  0  0  0  0
    5.1337   52.8023   17.5051 H   0  0  0  0  0  0
    6.8152   52.9462   18.0122 H   0  0  0  0  0  0
    5.0173   55.1436   17.3471 H   0  0  0  0  0  0
    6.6976   55.2508   17.8789 H   0  0  0  0  0  0
   -3.6914   53.2484   25.5612 H   0  0  0  0  0  0
   -5.8656   52.5914   26.4833 H   0  0  0  0  0  0
   -5.9901   50.9078   28.2893 H   0  0  0  0  0  0
   -3.9107   49.8701   29.1636 H   0  0  0  0  0  0
   -1.7426   50.4971   28.2177 H   0  0  0  0  0  0
  1  2  1  0  0  0
  1 40  1  0  0  0
  1 41  1  0  0  0
  1 42  1  0  0  0
  2  3  1  0  0  0
  2 43  1  0  0  0
  2 44  1  0  0  0
  3  4  1  0  0  0
  4  5  2  0  0  0
  4  6  1  0  0  0
  6 11  1  0  0  0
  6  7  2  0  0  0
  7  8  1  0  0  0
  7 34  1  0  0  0
  8  9  2  0  0  0
  9 22  1  0  0  0
  9 10  1  0  0  0
 10 11  1  0  0  0
 10 20  1  0  0  0
 11 12  1  0  0  0
 11 13  1  0  0  0
 13 18  2  0  0  0
 13 14  1  0  0  0
 14 15  2  0  0  0
 14 45  1  0  0  0
 15 16  1  0  0  0
 15 46  1  0  0  0
 16 17  2  0  0  0
 16 47  1  0  0  0
 17 18  1  0  0  0
 17 48  1  0  0  0
 18 19  1  0  0  0
 19 49  1  0  0  0
 19 50  1  0  0  0
 19 51  1  0  0  0
 20 21  2  0  0  0
 20 23  1  0  0  0
 21 22  1  0  0  0
 21 52  1  0  0  0
 23 24  2  0  0  0
 23 53  1  0  0  0
 24 25  1  0  0  0
 24 26  1  0  0  0
 26 27  1  0  0  0
 26 54  1  0  0  0
 27 28  1  0  0  0
 27 55  1  0  0  0
 27 56  1  0  0  0
 28 29  1  0  0  0
 28 33  1  0  0  0
 28 30  1  0  0  0
 30 31  1  0  0  0
 30 57  1  0  0  0
 30 58  1  0  0  0
 31 32  1  0  0  0
 31 59  1  0  0  0
 31 60  1  0  0  0
 32 33  1  0  0  0
 32 61  1  0  0  0
 32 62  1  0  0  0
 34 39  2  0  0  0
 34 35  1  0  0  0
 35 36  2  0  0  0
 35 63  1  0  0  0
 36 37  1  0  0  0
 36 64  1  0  0  0
 37 38  2  0  0  0
 37 65  1  0  0  0
 38 39  1  0  0  0
 38 66  1  0  0  0
 39 67  1  0  0  0
M  CHG  1  25  -1
M  END
> <i_i_glide_confnum>
190

> <i_i_glide_lignum>
4629

> <i_i_glide_posenum>
382

> <i_i_glide_rotatable_bonds>
9

> <i_m_Source_File_Index>
3942

> <b_m_subgroup_collapsed>
0

> <r_i_docking_score>
-4.21621

> <r_i_glide_ecoul>
-3.73822

> <r_i_glide_eff_state_penalty>
0

> <r_i_glide_einternal>
7.00597

> <r_i_glide_emodel>
-50.0841

> <r_i_glide_energy>
-41.6068

> <r_i_glide_erotb>
0.53834

> <r_i_glide_esite>
0

> <r_i_glide_evdw>
-37.8686

> <r_i_glide_gscore>
-4.21621

> <r_i_glide_hbond>
0

> <r_i_glide_ligand_efficiency>
-0.113952

> <r_i_glide_ligand_efficiency_ln>
-0.914397

> <r_i_glide_ligand_efficiency_sa>
-0.379712

> <r_i_glide_lipo>
-1.86845

> <r_i_glide_metal>
0

> <r_i_glide_rewards>
-0.431934

> <s_i_glide_gridfile>
wee1_glide-grid

> <s_m_Source_File>
wee1_decoys_glide_SP.sdf

> <s_m_Source_Path>
/Users/zhangxujun/Desktop

> <s_m_entry_id>
4217

> <s_m_entry_name>
wee1_decoys_glide_SP.3942

> <s_m_subgroup_title>
wee1_decoys_glide_SP

> <s_m_subgroupid>
wee1_decoys_glide_SP


$$$$
