ZINC14535699_3714
                    3D
 Schrodinger Suite 2024-2.
 58 61  0  0  1  0            999 V2000
    9.5105   56.2138   18.2613 C   0  0  0  0  0  0
    8.5211   55.3144   18.8803 N   0  0  0  0  0  0
    6.9139   55.9818   19.0927 S   0  0  0  0  0  0
    6.2068   55.8394   17.8169 O   0  0  0  0  0  0
    7.0542   57.2960   19.7322 O   0  0  0  0  0  0
    6.1414   54.8969   20.2818 C   0  0  0  0  0  0
    6.3813   55.0873   21.6467 C   0  0  0  0  0  0
    5.7878   54.2439   22.5921 C   0  0  0  0  0  0
    4.9921   53.1868   22.1324 C   0  0  0  0  0  0
    4.7042   53.0078   20.7774 C   0  0  0  0  0  0
    5.3039   53.8625   19.8505 C   0  0  0  0  0  0
    3.7809   52.0471   20.3188 N   0  0  0  0  0  0
    2.9815   51.1711   21.1930 C   0  0  0  0  0  0
    2.0228   51.8569   22.1966 C   0  0  0  0  0  0
    1.9171   53.2479   22.3093 C   0  0  0  0  0  0
    1.1347   53.8467   23.2816 C   0  0  0  0  0  0
    0.3759   53.0804   24.1498 C   0  0  0  0  0  0
    0.4051   51.6769   24.0631 C   0  0  0  0  0  0
    1.2299   51.0442   23.0755 C   0  0  0  0  0  0
    1.2600   49.6845   22.9665 N   0  0  0  0  0  0
    0.5000   48.9438   23.8127 C   0  0  0  0  0  0
   -0.3021   49.4847   24.8095 C   0  0  0  0  0  0
   -0.3581   50.8665   24.9381 C   0  0  0  0  0  0
    5.9643   54.4974   24.0720 C   0  0  0  0  0  0
    6.9581   55.0830   24.5035 O   0  0  0  0  0  0
    4.9228   54.1091   24.8390 N   0  0  0  0  0  0
    4.7937   54.2172   26.2294 C   0  0  0  0  0  0
    5.8833   54.1613   27.1103 C   0  0  0  0  0  0
    5.6742   54.2792   28.4812 C   0  0  0  0  0  0
    4.3859   54.4601   28.9859 C   0  0  0  0  0  0
    3.2981   54.4967   28.1140 C   0  0  0  0  0  0
    3.5007   54.3560   26.7407 C   0  0  0  0  0  0
    1.6616   54.7327   28.7343 S   0  0  0  0  0  0
    1.7085   56.2887   29.6656 C   0  0  0  0  0  0
   10.4361   55.6649   18.0820 H   0  0  0  0  0  0
    9.1372   56.5921   17.3084 H   0  0  0  0  0  0
    9.7366   57.0373   18.9408 H   0  0  0  0  0  0
    8.4726   54.4433   18.3451 H   0  0  0  0  0  0
    7.0215   55.8983   21.9684 H   0  0  0  0  0  0
    4.5326   52.5258   22.8425 H   0  0  0  0  0  0
    5.1031   53.7360   18.7961 H   0  0  0  0  0  0
    3.9193   51.7198   19.3674 H   0  0  0  0  0  0
    2.3884   50.5186   20.5508 H   0  0  0  0  0  0
    3.6505   50.5106   21.7459 H   0  0  0  0  0  0
    2.4597   53.9052   21.6520 H   0  0  0  0  0  0
    1.1029   54.9213   23.3434 H   0  0  0  0  0  0
   -0.2549   53.5536   24.8820 H   0  0  0  0  0  0
    0.5652   47.8739   23.7036 H   0  0  0  0  0  0
   -0.8658   48.8465   25.4766 H   0  0  0  0  0  0
   -0.9734   51.3218   25.7005 H   0  0  0  0  0  0
    4.1106   53.7614   24.3537 H   0  0  0  0  0  0
    6.8902   54.0158   26.7487 H   0  0  0  0  0  0
    6.5176   54.2458   29.1531 H   0  0  0  0  0  0
    4.2405   54.5624   30.0503 H   0  0  0  0  0  0
    2.6513   54.3817   26.0740 H   0  0  0  0  0  0
    0.7045   56.5798   29.9674 H   0  0  0  0  0  0
    2.3040   56.1765   30.5697 H   0  0  0  0  0  0
    2.1334   57.0869   29.0567 H   0  0  0  0  0  0
  1  2  1  0  0  0
  1 35  1  0  0  0
  1 36  1  0  0  0
  1 37  1  0  0  0
  2  3  1  0  0  0
  2 38  1  0  0  0
  3  4  2  0  0  0
  3  5  2  0  0  0
  3  6  1  0  0  0
  6 11  2  0  0  0
  6  7  1  0  0  0
  7  8  2  0  0  0
  7 39  1  0  0  0
  8  9  1  0  0  0
  8 24  1  0  0  0
  9 10  2  0  0  0
  9 40  1  0  0  0
 10 11  1  0  0  0
 10 12  1  0  0  0
 11 41  1  0  0  0
 12 13  1  0  0  0
 12 42  1  0  0  0
 13 14  1  0  0  0
 13 43  1  0  0  0
 13 44  1  0  0  0
 14 19  2  0  0  0
 14 15  1  0  0  0
 15 16  2  0  0  0
 15 45  1  0  0  0
 16 17  1  0  0  0
 16 46  1  0  0  0
 17 18  2  0  0  0
 17 47  1  0  0  0
 18 23  1  0  0  0
 18 19  1  0  0  0
 19 20  1  0  0  0
 20 21  2  0  0  0
 21 22  1  0  0  0
 21 48  1  0  0  0
 22 23  2  0  0  0
 22 49  1  0  0  0
 23 50  1  0  0  0
 24 25  2  0  0  0
 24 26  1  0  0  0
 26 27  1  0  0  0
 26 51  1  0  0  0
 27 32  2  0  0  0
 27 28  1  0  0  0
 28 29  2  0  0  0
 28 52  1  0  0  0
 29 30  1  0  0  0
 29 53  1  0  0  0
 30 31  2  0  0  0
 30 54  1  0  0  0
 31 32  1  0  0  0
 31 33  1  0  0  0
 32 55  1  0  0  0
 33 34  1  0  0  0
 34 56  1  0  0  0
 34 57  1  0  0  0
 34 58  1  0  0  0
M  END
> <i_i_glide_confnum>
212

> <i_i_glide_lignum>
3715

> <i_i_glide_posenum>
374

> <i_i_glide_rotatable_bonds>
9

> <i_m_Source_File_Index>
659

> <b_m_subgroup_collapsed>
0

> <r_i_docking_score>
-4.83865

> <r_i_glide_ecoul>
-5.06

> <r_i_glide_eff_state_penalty>
0

> <r_i_glide_einternal>
11.1786

> <r_i_glide_emodel>
-61.4532

> <r_i_glide_energy>
-56.535

> <r_i_glide_erotb>
0.587467

> <r_i_glide_esite>
-0.0918012

> <r_i_glide_evdw>
-51.475

> <r_i_glide_gscore>
-4.83865

> <r_i_glide_hbond>
-0.0281824

> <r_i_glide_ligand_efficiency>
-0.142313

> <r_i_glide_ligand_efficiency_ln>
-1.06899

> <r_i_glide_ligand_efficiency_sa>
-0.46104

> <r_i_glide_lipo>
-3.6936

> <r_i_glide_metal>
0

> <r_i_glide_rewards>
1.72021

> <s_i_glide_gridfile>
wee1_glide-grid

> <s_m_Source_File>
wee1_decoys_glide_SP.sdf

> <s_m_Source_Path>
/Users/zhangxujun/Desktop

> <s_m_entry_id>
934

> <s_m_entry_name>
wee1_decoys_glide_SP.659

> <s_m_subgroup_title>
wee1_decoys_glide_SP

> <s_m_subgroupid>
wee1_decoys_glide_SP


$$$$
