ZINC02441272_5129
                    3D
 Schrodinger Suite 2024-2.
 70 75  0  0  1  0            999 V2000
    1.5454   52.2364   29.4983 C   0  0  0  0  0  0
    0.1443   51.9699   28.9404 C   0  0  0  0  0  0
    0.1987   51.9853   27.5204 O   0  0  0  0  0  0
   -0.9158   51.7547   26.7775 C   0  0  0  0  0  0
   -2.0128   51.5424   27.2961 O   0  0  0  0  0  0
   -0.7147   51.7348   25.2859 C   0  0  0  0  0  0
    0.4110   52.2706   24.7297 C   0  0  0  0  0  0
    0.6749   52.2902   23.4076 O   0  0  0  0  0  0
   -0.1678   51.7389   22.5088 C   0  0  0  0  0  0
   -1.3284   51.1185   22.8459 C   0  0  0  0  0  0
   -1.7835   51.0645   24.3465 C   0  0  1  0  0  0
   -2.1104   49.6599   24.7780 C   0  0  0  0  0  0
   -1.3239   48.5108   24.8601 C   0  0  0  0  0  0
   -1.9023   47.3234   25.3058 C   0  0  0  0  0  0
   -3.2489   47.2924   25.6795 C   0  0  0  0  0  0
   -4.0587   48.4408   25.6083 C   0  0  0  0  0  0
   -3.4394   49.6119   25.1462 C   0  0  0  0  0  0
   -4.0503   50.8619   24.9852 N   0  0  0  0  0  0
   -3.1567   51.7857   24.5160 C   0  0  0  0  0  0
   -3.3516   52.9792   24.2696 O   0  0  0  0  0  0
   -5.4574   51.0923   25.4339 C   0  0  0  0  0  0
   -6.2088   49.7193   25.3366 C   0  0  0  0  0  0
   -5.5543   48.4575   25.9990 C   0  0  1  0  0  0
   -6.2452   47.2034   25.3899 C   0  0  0  0  0  0
   -5.7848   48.4419   27.5372 C   0  0  0  0  0  0
   -4.7174   48.4594   28.4488 C   0  0  0  0  0  0
   -4.9412   48.4330   29.8211 C   0  0  0  0  0  0
   -6.2437   48.3845   30.3054 C   0  0  0  0  0  0
   -7.3218   48.3666   29.4232 C   0  0  0  0  0  0
   -7.0908   48.3972   28.0494 C   0  0  0  0  0  0
   -6.1935   52.0674   24.4818 C   0  0  0  0  0  0
   -5.3845   51.6148   26.8871 C   0  0  0  0  0  0
   -2.1665   50.5092   21.7710 C   0  0  0  0  0  0
   -3.3272   50.1414   21.9458 O   0  0  0  0  0  0
   -1.5443   50.4057   20.3706 C   0  0  0  0  0  0
   -0.6725   51.6232   20.0338 C   0  0  0  0  0  0
    0.4039   51.8846   21.1016 C   0  0  0  0  0  0
    1.4793   52.8987   25.3182 N   0  0  0  0  0  0
    1.5345   52.2204   30.5878 H   0  0  0  0  0  0
    1.9171   53.2108   29.1819 H   0  0  0  0  0  0
    2.2515   51.4784   29.1596 H   0  0  0  0  0  0
   -0.2192   51.0001   29.2849 H   0  0  0  0  0  0
   -0.5528   52.7291   29.2991 H   0  0  0  0  0  0
   -0.2759   48.5315   24.5965 H   0  0  0  0  0  0
   -1.2965   46.4361   25.4026 H   0  0  0  0  0  0
   -3.6597   46.3688   26.0578 H   0  0  0  0  0  0
   -6.3256   49.4997   24.2723 H   0  0  0  0  0  0
   -7.2302   49.8442   25.6965 H   0  0  0  0  0  0
   -5.9332   46.2840   25.8863 H   0  0  0  0  0  0
   -7.3308   47.2513   25.4718 H   0  0  0  0  0  0
   -6.0158   47.0938   24.3287 H   0  0  0  0  0  0
   -3.6958   48.5104   28.1132 H   0  0  0  0  0  0
   -4.0959   48.4570   30.4956 H   0  0  0  0  0  0
   -6.4171   48.3609   31.3718 H   0  0  0  0  0  0
   -8.3319   48.3294   29.8028 H   0  0  0  0  0  0
   -7.9399   48.3833   27.3822 H   0  0  0  0  0  0
   -7.2578   52.1154   24.7144 H   0  0  0  0  0  0
   -5.8210   53.0885   24.5572 H   0  0  0  0  0  0
   -6.1050   51.7497   23.4415 H   0  0  0  0  0  0
   -6.3745   51.6585   27.3412 H   0  0  0  0  0  0
   -4.7531   50.9945   27.5228 H   0  0  0  0  0  0
   -4.9619   52.6205   26.9192 H   0  0  0  0  0  0
   -2.3307   50.2384   19.6344 H   0  0  0  0  0  0
   -0.9236   49.5088   20.3763 H   0  0  0  0  0  0
   -1.3157   52.4968   19.9375 H   0  0  0  0  0  0
   -0.2014   51.4917   19.0588 H   0  0  0  0  0  0
    0.7908   52.8953   20.9602 H   0  0  0  0  0  0
    1.2762   51.2387   20.9912 H   0  0  0  0  0  0
    1.5206   52.9912   26.3235 H   0  0  0  0  0  0
    2.2510   53.2422   24.7679 H   0  0  0  0  0  0
  1  2  1  0  0  0
  1 39  1  0  0  0
  1 40  1  0  0  0
  1 41  1  0  0  0
  2  3  1  0  0  0
  2 42  1  0  0  0
  2 43  1  0  0  0
  3  4  1  0  0  0
  4  5  2  0  0  0
  4  6  1  0  0  0
  6 11  1  0  0  0
  6  7  2  0  0  0
  7  8  1  0  0  0
  7 38  1  0  0  0
  8  9  1  0  0  0
  9 37  1  0  0  0
  9 10  2  0  0  0
 10 11  1  0  0  0
 10 33  1  0  0  0
 11 19  1  0  0  0
 11 12  1  0  0  0
 12 17  2  0  0  0
 12 13  1  0  0  0
 13 14  2  0  0  0
 13 44  1  0  0  0
 14 15  1  0  0  0
 14 45  1  0  0  0
 15 16  2  0  0  0
 15 46  1  0  0  0
 16 23  1  0  0  0
 16 17  1  0  0  0
 17 18  1  0  0  0
 18 19  1  0  0  0
 18 21  1  0  0  0
 19 20  2  0  0  0
 21 22  1  0  0  0
 21 31  1  0  0  0
 21 32  1  0  0  0
 22 23  1  0  0  0
 22 47  1  0  0  0
 22 48  1  0  0  0
 23 24  1  0  0  0
 23 25  1  0  0  0
 24 49  1  0  0  0
 24 50  1  0  0  0
 24 51  1  0  0  0
 25 30  2  0  0  0
 25 26  1  0  0  0
 26 27  2  0  0  0
 26 52  1  0  0  0
 27 28  1  0  0  0
 27 53  1  0  0  0
 28 29  2  0  0  0
 28 54  1  0  0  0
 29 30  1  0  0  0
 29 55  1  0  0  0
 30 56  1  0  0  0
 31 57  1  0  0  0
 31 58  1  0  0  0
 31 59  1  0  0  0
 32 60  1  0  0  0
 32 61  1  0  0  0
 32 62  1  0  0  0
 33 34  2  0  0  0
 33 35  1  0  0  0
 35 36  1  0  0  0
 35 63  1  0  0  0
 35 64  1  0  0  0
 36 37  1  0  0  0
 36 65  1  0  0  0
 36 66  1  0  0  0
 37 67  1  0  0  0
 37 68  1  0  0  0
 38 69  1  0  0  0
 38 70  1  0  0  0
M  END
> <i_i_glide_confnum>
38

> <i_i_glide_lignum>
5130

> <i_i_glide_posenum>
376

> <i_i_glide_rotatable_bonds>
4

> <i_m_Source_File_Index>
3957

> <b_m_subgroup_collapsed>
0

> <r_i_docking_score>
-1.979

> <r_i_glide_ecoul>
-0.886172

> <r_i_glide_eff_state_penalty>
0

> <r_i_glide_einternal>
5.48592

> <r_i_glide_emodel>
-37.7284

> <r_i_glide_energy>
-36.1455

> <r_i_glide_erotb>
0.234066

> <r_i_glide_esite>
-0.0378732

> <r_i_glide_evdw>
-35.2594

> <r_i_glide_gscore>
-1.979

> <r_i_glide_hbond>
0

> <r_i_glide_ligand_efficiency>
-0.0520791

> <r_i_glide_ligand_efficiency_ln>
-0.426732

> <r_i_glide_ligand_efficiency_sa>
-0.175089

> <r_i_glide_lipo>
-0.279303

> <r_i_glide_metal>
0

> <r_i_glide_rewards>
3.72611e-07

> <s_i_glide_gridfile>
wee1_glide-grid

> <s_m_Source_File>
wee1_decoys_glide_SP.sdf

> <s_m_Source_Path>
/Users/zhangxujun/Desktop

> <s_m_entry_id>
4232

> <s_m_entry_name>
wee1_decoys_glide_SP.3957

> <s_m_subgroup_title>
wee1_decoys_glide_SP

> <s_m_subgroupid>
wee1_decoys_glide_SP


$$$$
