ZINC08856240_2886
                    3D
 Schrodinger Suite 2024-2.
 45 47  0  0  1  0            999 V2000
    4.4372   53.6287   28.6953 C   0  0  0  0  0  0
    5.6606   54.2559   28.4818 C   0  0  0  0  0  0
    6.0520   54.5991   27.1940 C   0  0  0  0  0  0
    5.2183   54.3234   26.1048 C   0  0  0  0  0  0
    3.9831   53.6969   26.3336 C   0  0  0  0  0  0
    3.5953   53.3483   27.6245 C   0  0  0  0  0  0
    5.6397   54.7549   24.7218 C   0  0  0  0  0  0
    6.3044   55.7838   24.5910 O   0  0  0  0  0  0
    5.2785   53.9275   23.7082 N   0  0  0  0  0  0
    5.2237   54.1761   22.3480 C   0  0  0  0  0  0
    4.2215   53.6368   21.5990 C   0  0  0  0  0  0
    3.1073   52.7909   22.0778 C   0  0  0  0  0  0
    3.0128   51.4929   21.5615 C   0  0  0  0  0  0
    2.0161   50.6235   22.0036 C   0  0  0  0  0  0
    1.0903   51.0494   22.9546 C   0  0  0  0  0  0
    1.1549   52.3505   23.4512 C   0  0  0  0  0  0
    2.1510   53.2223   23.0117 C   0  0  0  0  0  0
    2.1663   54.4967   23.5102 O   0  0  0  0  0  0
    6.2887   54.9362   21.6827 C   0  0  0  0  0  0
    7.4538   54.8976   22.0818 O   0  0  0  0  0  0
    5.9054   55.7021   20.6362 N   0  0  0  0  0  0
    6.7700   56.4975   19.9789 N   0  0  0  0  0  0
    6.2409   57.1402   19.0202 C   0  0  0  0  0  0
    7.0359   58.0497   18.2084 C   0  0  0  0  0  0
    6.7279   58.8968   17.1533 C   0  0  0  0  0  0
    7.9057   59.5513   16.7868 C   0  0  0  0  0  0
    8.8941   59.0762   17.6279 C   0  0  0  0  0  0
    8.3662   58.1640   18.4806 O   0  0  0  0  0  0
   10.9769   59.5263   17.8155 I   0  0  0  0  0  0
    4.1383   53.3612   29.6978 H   0  0  0  0  0  0
    6.3083   54.4966   29.3091 H   0  0  0  0  0  0
    7.0022   55.0959   27.0563 H   0  0  0  0  0  0
    3.3055   53.4730   25.5257 H   0  0  0  0  0  0
    2.6450   52.8627   27.7905 H   0  0  0  0  0  0
    4.7125   53.1484   24.0093 H   0  0  0  0  0  0
    4.1918   53.7976   20.5286 H   0  0  0  0  0  0
    3.7252   51.1415   20.8265 H   0  0  0  0  0  0
    1.9648   49.6186   21.6105 H   0  0  0  0  0  0
    0.3206   50.3749   23.3009 H   0  0  0  0  0  0
    0.4290   52.6839   24.1781 H   0  0  0  0  0  0
    2.8490   55.0360   23.1047 H   0  0  0  0  0  0
    4.9526   55.7159   20.3053 H   0  0  0  0  0  0
    5.1949   57.0895   18.7218 H   0  0  0  0  0  0
    5.7535   59.0608   16.7155 H   0  0  0  0  0  0
    8.0100   60.2999   16.0161 H   0  0  0  0  0  0
  1  6  2  0  0  0
  1  2  1  0  0  0
  1 30  1  0  0  0
  2  3  2  0  0  0
  2 31  1  0  0  0
  3  4  1  0  0  0
  3 32  1  0  0  0
  4  5  2  0  0  0
  4  7  1  0  0  0
  5  6  1  0  0  0
  5 33  1  0  0  0
  6 34  1  0  0  0
  7  8  2  0  0  0
  7  9  1  0  0  0
  9 10  1  0  0  0
  9 35  1  0  0  0
 10 11  2  0  0  0
 10 19  1  0  0  0
 11 12  1  0  0  0
 11 36  1  0  0  0
 12 17  2  0  0  0
 12 13  1  0  0  0
 13 14  2  0  0  0
 13 37  1  0  0  0
 14 15  1  0  0  0
 14 38  1  0  0  0
 15 16  2  0  0  0
 15 39  1  0  0  0
 16 17  1  0  0  0
 16 40  1  0  0  0
 17 18  1  0  0  0
 18 41  1  0  0  0
 19 20  2  0  0  0
 19 21  1  0  0  0
 21 22  1  0  0  0
 21 42  1  0  0  0
 22 23  2  0  0  0
 23 24  1  0  0  0
 23 43  1  0  0  0
 24 28  1  0  0  0
 24 25  2  0  0  0
 25 26  1  0  0  0
 25 44  1  0  0  0
 26 27  2  0  0  0
 26 45  1  0  0  0
 27 28  1  0  0  0
 27 29  1  0  0  0
M  END
> <i_i_glide_confnum>
127

> <i_i_glide_lignum>
2887

> <i_i_glide_posenum>
114

> <i_i_glide_rotatable_bonds>
9

> <i_m_Source_File_Index>
3546

> <b_m_subgroup_collapsed>
0

> <r_i_docking_score>
-5.12229

> <r_i_glide_ecoul>
-2.13741

> <r_i_glide_eff_state_penalty>
0

> <r_i_glide_einternal>
9.8161

> <r_i_glide_emodel>
-52.7328

> <r_i_glide_energy>
-43.2607

> <r_i_glide_erotb>
0.487719

> <r_i_glide_esite>
0

> <r_i_glide_evdw>
-41.1233

> <r_i_glide_gscore>
-5.12229

> <r_i_glide_hbond>
-0.0499885

> <r_i_glide_ligand_efficiency>
-0.176631

> <r_i_glide_ligand_efficiency_ln>
-1.17288

> <r_i_glide_ligand_efficiency_sa>
-0.542666

> <r_i_glide_lipo>
-2.39581

> <r_i_glide_metal>
0

> <r_i_glide_rewards>
-0.787436

> <s_i_glide_gridfile>
wee1_glide-grid

> <s_m_Source_File>
wee1_decoys_glide_SP.sdf

> <s_m_Source_Path>
/Users/zhangxujun/Desktop

> <s_m_entry_id>
3821

> <s_m_entry_name>
wee1_decoys_glide_SP.3546

> <s_m_subgroup_title>
wee1_decoys_glide_SP

> <s_m_subgroupid>
wee1_decoys_glide_SP


$$$$
