ZINC24093865_2816
                    3D
 Schrodinger Suite 2024-2.
 58 61  0  0  1  0            999 V2000
    1.5932   50.8098   21.0301 C   0  0  0  0  0  0
    0.9340   50.7304   22.3956 C   0  0  0  0  0  0
    1.2882   49.7098   23.2751 C   0  0  0  0  0  0
    0.7031   49.6394   24.5380 C   0  0  0  0  0  0
   -0.2357   50.5921   24.9339 C   0  0  0  0  0  0
   -0.6109   51.5970   24.0324 C   0  0  0  0  0  0
   -0.0192   51.6744   22.7743 C   0  0  0  0  0  0
   -0.7923   50.4761   26.2193 N   0  0  0  0  0  0
   -1.1350   51.8503   27.2921 S   0  0  0  0  0  0
   -1.8789   51.2967   28.4238 O   0  0  0  0  0  0
   -1.7576   52.8966   26.4812 O   0  0  0  0  0  0
    0.4689   52.4871   27.8665 C   0  0  0  0  0  0
    1.3515   52.9483   26.8771 C   0  0  0  0  0  0
    2.6025   53.5034   27.2002 C   0  0  0  0  0  0
    2.9820   53.5348   28.5461 C   0  0  0  0  0  0
    2.1200   53.0842   29.5386 C   0  0  0  0  0  0
    0.8506   52.5964   29.2227 C   0  0  0  0  0  0
   -0.0719   52.2913   30.3931 C   0  0  0  0  0  0
    3.5304   54.0969   26.1587 C   0  0  0  0  0  0
    4.4042   54.8923   26.5074 O   0  0  0  0  0  0
    3.3428   53.6968   24.8812 N   0  0  0  0  0  0
    4.1210   53.9889   23.7421 C   0  0  0  0  0  0
    5.4332   54.4967   23.7852 C   0  0  0  0  0  0
    6.1310   54.7577   22.6061 C   0  0  0  0  0  0
    5.5069   54.5488   21.3699 C   0  0  0  0  0  0
    4.2591   53.9307   21.3222 C   0  0  0  0  0  0
    3.5610   53.6661   22.5011 C   0  0  0  0  0  0
    3.9568   53.5062   19.9129 C   0  0  0  0  0  0
    5.0014   54.2542   19.0986 C   0  0  0  0  0  0
    6.0091   54.7091   20.0636 N   0  0  0  0  0  0
    7.0365   55.5140   19.6820 C   0  0  0  0  0  0
    7.7704   56.0964   20.4810 O   0  0  0  0  0  0
    7.3096   55.7232   18.1895 C   0  0  0  0  0  0
    1.2299   50.0112   20.3820 H   0  0  0  0  0  0
    1.4160   51.7714   20.5454 H   0  0  0  0  0  0
    2.6738   50.6898   21.1250 H   0  0  0  0  0  0
    2.0167   48.9705   22.9773 H   0  0  0  0  0  0
    0.9936   48.8435   25.2101 H   0  0  0  0  0  0
   -1.3701   52.3209   24.2751 H   0  0  0  0  0  0
   -0.3105   52.4608   22.0937 H   0  0  0  0  0  0
   -0.7044   49.5907   26.7046 H   0  0  0  0  0  0
    1.0241   52.9129   25.8492 H   0  0  0  0  0  0
    3.9424   53.9377   28.8385 H   0  0  0  0  0  0
    2.4321   53.1550   30.5691 H   0  0  0  0  0  0
    0.4239   52.3761   31.3622 H   0  0  0  0  0  0
   -0.8960   52.9982   30.3826 H   0  0  0  0  0  0
   -0.4951   51.2941   30.3494 H   0  0  0  0  0  0
    2.5577   53.0895   24.7109 H   0  0  0  0  0  0
    5.9407   54.6873   24.7170 H   0  0  0  0  0  0
    7.1381   55.1420   22.6764 H   0  0  0  0  0  0
    2.5906   53.1951   22.4521 H   0  0  0  0  0  0
    2.9454   53.6925   19.5550 H   0  0  0  0  0  0
    4.1253   52.4332   19.8033 H   0  0  0  0  0  0
    4.5109   55.1646   18.7472 H   0  0  0  0  0  0
    5.3513   53.7474   18.1979 H   0  0  0  0  0  0
    7.3878   54.7687   17.6699 H   0  0  0  0  0  0
    8.2503   56.2551   18.0472 H   0  0  0  0  0  0
    6.5161   56.3136   17.7320 H   0  0  0  0  0  0
  1  2  1  0  0  0
  1 34  1  0  0  0
  1 35  1  0  0  0
  1 36  1  0  0  0
  2  7  2  0  0  0
  2  3  1  0  0  0
  3  4  2  0  0  0
  3 37  1  0  0  0
  4  5  1  0  0  0
  4 38  1  0  0  0
  5  6  2  0  0  0
  5  8  1  0  0  0
  6  7  1  0  0  0
  6 39  1  0  0  0
  7 40  1  0  0  0
  8  9  1  0  0  0
  8 41  1  0  0  0
  9 10  2  0  0  0
  9 11  2  0  0  0
  9 12  1  0  0  0
 12 17  2  0  0  0
 12 13  1  0  0  0
 13 14  2  0  0  0
 13 42  1  0  0  0
 14 15  1  0  0  0
 14 19  1  0  0  0
 15 16  2  0  0  0
 15 43  1  0  0  0
 16 17  1  0  0  0
 16 44  1  0  0  0
 17 18  1  0  0  0
 18 45  1  0  0  0
 18 46  1  0  0  0
 18 47  1  0  0  0
 19 20  2  0  0  0
 19 21  1  0  0  0
 21 22  1  0  0  0
 21 48  1  0  0  0
 22 27  2  0  0  0
 22 23  1  0  0  0
 23 24  2  0  0  0
 23 49  1  0  0  0
 24 25  1  0  0  0
 24 50  1  0  0  0
 25 30  1  0  0  0
 25 26  2  0  0  0
 26 27  1  0  0  0
 26 28  1  0  0  0
 27 51  1  0  0  0
 28 29  1  0  0  0
 28 52  1  0  0  0
 28 53  1  0  0  0
 29 30  1  0  0  0
 29 54  1  0  0  0
 29 55  1  0  0  0
 30 31  1  0  0  0
 31 32  2  0  0  0
 31 33  1  0  0  0
 33 56  1  0  0  0
 33 57  1  0  0  0
 33 58  1  0  0  0
M  END
> <i_i_glide_confnum>
117

> <i_i_glide_lignum>
2817

> <i_i_glide_posenum>
82

> <i_i_glide_rotatable_bonds>
7

> <i_m_Source_File_Index>
1557

> <b_m_subgroup_collapsed>
0

> <r_i_docking_score>
-4.97859

> <r_i_glide_ecoul>
-4.8239

> <r_i_glide_eff_state_penalty>
0

> <r_i_glide_einternal>
4.04095

> <r_i_glide_emodel>
-59.6455

> <r_i_glide_energy>
-48.682

> <r_i_glide_erotb>
0.562715

> <r_i_glide_esite>
-0.214028

> <r_i_glide_evdw>
-43.8581

> <r_i_glide_gscore>
-4.97859

> <r_i_glide_hbond>
-0.161145

> <r_i_glide_ligand_efficiency>
-0.150866

> <r_i_glide_ligand_efficiency_ln>
-1.10721

> <r_i_glide_ligand_efficiency_sa>
-0.483909

> <r_i_glide_lipo>
-2.22663

> <r_i_glide_metal>
0

> <r_i_glide_rewards>
-0.023012

> <s_i_glide_gridfile>
wee1_glide-grid

> <s_m_Source_File>
wee1_decoys_glide_SP.sdf

> <s_m_Source_Path>
/Users/zhangxujun/Desktop

> <s_m_entry_id>
1832

> <s_m_entry_name>
wee1_decoys_glide_SP.1557

> <s_m_subgroup_title>
wee1_decoys_glide_SP

> <s_m_subgroupid>
wee1_decoys_glide_SP


$$$$
