ZINC13412629_965
                    3D
 Schrodinger Suite 2024-2.
 60 63  0  0  1  0            999 V2000
    1.4309   50.6084   20.1675 C   0  0  0  0  0  0
    1.4251   50.4727   21.7118 C   0  0  0  0  0  0
    2.5618   49.5406   22.1568 C   0  0  0  0  0  0
    1.5200   51.8454   22.3956 C   0  0  0  0  0  0
    2.6698   52.6081   22.1282 C   0  0  0  0  0  0
    2.8761   53.8445   22.7269 C   0  0  0  0  0  0
    1.9129   54.3625   23.5791 C   0  0  0  0  0  0
    0.7436   53.6533   23.8193 C   0  0  0  0  0  0
    0.5505   52.3725   23.2894 C   0  0  0  0  0  0
   -0.5997   51.6764   23.7563 N   0  0  0  0  0  0
   -0.9751   51.4178   25.0826 C   0  0  0  0  0  0
   -2.1456   50.8274   25.1023 N   0  0  0  0  0  0
   -2.5836   50.6842   23.8030 N   0  0  0  0  0  0
   -1.6697   51.1815   23.0137 C   0  0  0  0  0  0
   -1.8542   51.2447   21.2513 S   0  0  0  0  0  0
   -3.1984   50.0290   20.9302 C   0  0  0  0  0  0
   -2.9798   48.5874   21.4477 C   0  0  0  0  0  0
   -3.7373   48.2020   22.3402 O   0  0  0  0  0  0
   -2.0508   47.7636   20.8875 N   0  0  0  0  0  0
   -1.0910   48.2280   19.8670 C   0  0  0  0  0  0
   -1.0502   47.1920   18.7227 C   0  0  0  0  0  0
   -0.6868   45.7984   19.2471 C   0  0  0  0  0  0
   -1.7293   45.3802   20.3091 C   0  0  2  0  0  0
   -2.7136   45.2954   19.8480 H   0  0  0  0  0  0
   -1.8196   46.4154   21.4683 C   0  0  0  0  0  0
   -1.4309   43.9609   20.8618 C   0  0  0  0  0  0
   -1.7752   43.6972   22.0359 O   0  0  0  0  0  0
   -0.2512   51.7442   26.3825 C   0  0  0  0  0  0
    1.1045   52.0949   26.4505 C   0  0  0  0  0  0
    1.7187   52.3719   27.6701 C   0  0  0  0  0  0
    0.9911   52.2788   28.8502 C   0  0  0  0  0  0
   -0.3524   51.9220   28.8160 C   0  0  0  0  0  0
   -0.9650   51.6615   27.5924 C   0  0  0  0  0  0
    1.7673   52.5763   30.3634 Cl  0  0  0  0  0  0
    0.5925   51.2002   19.8040 H   0  0  0  0  0  0
    2.3389   51.0921   19.8042 H   0  0  0  0  0  0
    1.3971   49.6404   19.6725 H   0  0  0  0  0  0
    0.5064   49.9765   22.0155 H   0  0  0  0  0  0
    2.6912   49.5498   23.2402 H   0  0  0  0  0  0
    2.3750   48.5096   21.8553 H   0  0  0  0  0  0
    3.5023   49.8475   21.6947 H   0  0  0  0  0  0
    3.4341   52.2308   21.4645 H   0  0  0  0  0  0
    3.7799   54.3979   22.5244 H   0  0  0  0  0  0
    2.0759   55.3073   24.0682 H   0  0  0  0  0  0
    0.0059   54.0829   24.4804 H   0  0  0  0  0  0
   -4.1195   50.4229   21.3625 H   0  0  0  0  0  0
   -3.3833   49.9853   19.8574 H   0  0  0  0  0  0
   -1.3363   49.1961   19.4361 H   0  0  0  0  0  0
   -0.1136   48.2766   20.3436 H   0  0  0  0  0  0
   -2.0072   47.1718   18.1989 H   0  0  0  0  0  0
   -0.3125   47.5026   17.9823 H   0  0  0  0  0  0
   -0.6645   45.1016   18.4079 H   0  0  0  0  0  0
    0.3108   45.8500   19.6824 H   0  0  0  0  0  0
   -0.8968   46.4223   22.0485 H   0  0  0  0  0  0
   -2.6414   46.1035   22.1172 H   0  0  0  0  0  0
    1.7260   52.1106   25.5716 H   0  0  0  0  0  0
    2.7684   52.6270   27.6968 H   0  0  0  0  0  0
   -0.9151   51.8293   29.7346 H   0  0  0  0  0  0
   -2.0058   51.3708   27.6006 H   0  0  0  0  0  0
   -0.8936   43.1164   20.1055 O   0  5  0  0  0  0
  1  2  1  0  0  0
  1 35  1  0  0  0
  1 36  1  0  0  0
  1 37  1  0  0  0
  2  3  1  0  0  0
  2  4  1  0  0  0
  2 38  1  0  0  0
  3 39  1  0  0  0
  3 40  1  0  0  0
  3 41  1  0  0  0
  4  9  2  0  0  0
  4  5  1  0  0  0
  5  6  2  0  0  0
  5 42  1  0  0  0
  6  7  1  0  0  0
  6 43  1  0  0  0
  7  8  2  0  0  0
  7 44  1  0  0  0
  8  9  1  0  0  0
  8 45  1  0  0  0
  9 10  1  0  0  0
 10 14  1  0  0  0
 10 11  1  0  0  0
 11 12  2  0  0  0
 11 28  1  0  0  0
 12 13  1  0  0  0
 13 14  2  0  0  0
 14 15  1  0  0  0
 15 16  1  0  0  0
 16 17  1  0  0  0
 16 46  1  0  0  0
 16 47  1  0  0  0
 17 18  2  0  0  0
 17 19  1  0  0  0
 19 25  1  0  0  0
 19 20  1  0  0  0
 20 21  1  0  0  0
 20 48  1  0  0  0
 20 49  1  0  0  0
 21 22  1  0  0  0
 21 50  1  0  0  0
 21 51  1  0  0  0
 22 23  1  0  0  0
 22 52  1  0  0  0
 22 53  1  0  0  0
 23 24  1  0  0  0
 23 25  1  0  0  0
 23 26  1  0  0  0
 25 54  1  0  0  0
 25 55  1  0  0  0
 26 27  2  0  0  0
 26 60  1  0  0  0
 28 33  2  0  0  0
 28 29  1  0  0  0
 29 30  2  0  0  0
 29 56  1  0  0  0
 30 31  1  0  0  0
 30 57  1  0  0  0
 31 32  2  0  0  0
 31 34  1  0  0  0
 32 33  1  0  0  0
 32 58  1  0  0  0
 33 59  1  0  0  0
M  CHG  1  60  -1
M  END
> <i_i_glide_confnum>
87

> <i_i_glide_lignum>
966

> <i_i_glide_posenum>
337

> <i_i_glide_rotatable_bonds>
8

> <i_m_Source_File_Index>
1627

> <b_m_subgroup_collapsed>
0

> <r_i_docking_score>
-4.03208

> <r_i_glide_ecoul>
-6.50242

> <r_i_glide_eff_state_penalty>
0

> <r_i_glide_einternal>
3.83218

> <r_i_glide_emodel>
-50.4422

> <r_i_glide_energy>
-37.8593

> <r_i_glide_erotb>
0.493581

> <r_i_glide_esite>
-0.0822283

> <r_i_glide_evdw>
-31.3568

> <r_i_glide_gscore>
-4.03208

> <r_i_glide_hbond>
-0.391988

> <r_i_glide_ligand_efficiency>
-0.118591

> <r_i_glide_ligand_efficiency_ln>
-0.890799

> <r_i_glide_ligand_efficiency_sa>
-0.384187

> <r_i_glide_lipo>
-1.45873

> <r_i_glide_metal>
0

> <r_i_glide_rewards>
-0.049513

> <s_i_glide_gridfile>
wee1_glide-grid

> <s_m_Source_File>
wee1_decoys_glide_SP.sdf

> <s_m_Source_Path>
/Users/zhangxujun/Desktop

> <s_m_entry_id>
1902

> <s_m_entry_name>
wee1_decoys_glide_SP.1627

> <s_m_subgroup_title>
wee1_decoys_glide_SP

> <s_m_subgroupid>
wee1_decoys_glide_SP


$$$$
