ZINC19853131_614
                    3D
 Schrodinger Suite 2024-2.
 64 68  0  0  1  0            999 V2000
    1.5096   47.6375   14.7468 C   0  0  0  0  0  0
    1.4379   46.4851   15.6719 N   0  0  0  0  0  0
    2.6373   45.6241   15.6814 C   0  0  0  0  0  0
    0.7163   46.8182   17.2519 S   0  0  0  0  0  0
   -0.4938   47.6277   17.0727 O   0  0  0  0  0  0
    0.6578   45.5744   18.0288 O   0  0  0  0  0  0
    1.9053   47.8435   18.0479 N   0  0  0  0  0  0
    1.5830   48.6765   19.1181 C   0  0  0  0  0  0
    2.2640   49.8844   19.2143 C   0  0  0  0  0  0
    2.0023   50.7402   20.2722 C   0  0  0  0  0  0
    1.0855   50.3893   21.2704 C   0  0  0  0  0  0
    0.3864   49.1806   21.1543 C   0  0  0  0  0  0
    0.6349   48.3258   20.0814 C   0  0  0  0  0  0
    0.9307   51.2424   22.3567 N   0  0  0  0  0  0
    2.1508   51.5987   23.0839 C   0  0  0  0  0  0
    2.0633   53.0258   23.6277 C   0  0  0  0  0  0
    0.8693   53.2324   24.5784 C   0  0  0  0  0  0
   -0.3958   52.4995   24.0598 C   0  0  0  0  0  0
   -0.1488   51.1407   23.3513 C   0  0  0  0  0  0
    1.2432   52.6112   25.9523 N   0  3  0  0  0  0
    1.7256   53.6138   27.0277 C   0  0  0  0  0  0
    1.5093   53.0543   28.4159 C   0  0  0  0  0  0
    0.3183   52.7804   29.0935 C   0  0  0  0  0  0
    0.3555   52.3957   30.4339 C   0  0  0  0  0  0
    1.5797   52.2555   31.0898 C   0  0  0  0  0  0
    2.7738   52.4968   30.4077 C   0  0  0  0  0  0
    2.7306   52.9216   29.0780 C   0  0  0  0  0  0
    3.8038   53.3690   28.1761 C   0  0  0  0  0  0
    3.2287   53.8416   26.9945 C   0  0  0  0  0  0
    4.0366   54.4973   26.0584 C   0  0  0  0  0  0
    5.4173   54.5733   26.2536 C   0  0  0  0  0  0
    5.9931   54.0322   27.4050 C   0  0  0  0  0  0
    5.1833   53.4374   28.3730 C   0  0  0  0  0  0
    1.7176   47.2922   13.7352 H   0  0  0  0  0  0
    2.2898   48.3272   15.0732 H   0  0  0  0  0  0
    0.5595   48.1720   14.7444 H   0  0  0  0  0  0
    2.8445   45.2749   14.6714 H   0  0  0  0  0  0
    3.4922   46.1752   16.0762 H   0  0  0  0  0  0
    2.4677   44.7561   16.3180 H   0  0  0  0  0  0
    2.6516   48.1889   17.4522 H   0  0  0  0  0  0
    3.0099   50.1603   18.4810 H   0  0  0  0  0  0
    2.5383   51.6769   20.3175 H   0  0  0  0  0  0
   -0.3251   48.8797   21.9077 H   0  0  0  0  0  0
    0.1044   47.3871   20.0141 H   0  0  0  0  0  0
    2.3043   50.8733   23.8847 H   0  0  0  0  0  0
    3.0407   51.5372   22.4554 H   0  0  0  0  0  0
    3.0156   53.2202   24.1078 H   0  0  0  0  0  0
    1.9956   53.7096   22.7807 H   0  0  0  0  0  0
    0.7049   54.3019   24.7077 H   0  0  0  0  0  0
   -0.9209   53.1381   23.3474 H   0  0  0  0  0  0
   -1.1100   52.3428   24.8717 H   0  0  0  0  0  0
   -1.0682   50.8741   22.8289 H   0  0  0  0  0  0
    0.0537   50.3369   24.0615 H   0  0  0  0  0  0
    0.4107   52.1807   26.3279 H   0  0  0  0  0  0
    1.1151   54.4984   26.8871 H   0  0  0  0  0  0
   -0.6400   52.8921   28.6071 H   0  0  0  0  0  0
   -0.5606   52.1951   30.9732 H   0  0  0  0  0  0
    1.5963   51.9617   32.1298 H   0  0  0  0  0  0
    3.7140   52.4051   30.9331 H   0  0  0  0  0  0
    3.6117   54.9585   25.1793 H   0  0  0  0  0  0
    6.0390   55.0601   25.5168 H   0  0  0  0  0  0
    7.0599   54.0986   27.5627 H   0  0  0  0  0  0
    5.6275   53.0628   29.2814 H   0  0  0  0  0  0
    1.9221   51.8743   25.8310 H   0  0  0  0  0  0
  1  2  1  0  0  0
  1 34  1  0  0  0
  1 35  1  0  0  0
  1 36  1  0  0  0
  2  3  1  0  0  0
  2  4  1  0  0  0
  3 37  1  0  0  0
  3 38  1  0  0  0
  3 39  1  0  0  0
  4  5  2  0  0  0
  4  6  2  0  0  0
  4  7  1  0  0  0
  7  8  1  0  0  0
  7 40  1  0  0  0
  8 13  2  0  0  0
  8  9  1  0  0  0
  9 10  2  0  0  0
  9 41  1  0  0  0
 10 11  1  0  0  0
 10 42  1  0  0  0
 11 12  2  0  0  0
 11 14  1  0  0  0
 12 13  1  0  0  0
 12 43  1  0  0  0
 13 44  1  0  0  0
 14 19  1  0  0  0
 14 15  1  0  0  0
 15 16  1  0  0  0
 15 45  1  0  0  0
 15 46  1  0  0  0
 16 17  1  0  0  0
 16 47  1  0  0  0
 16 48  1  0  0  0
 17 18  1  0  0  0
 17 20  1  0  0  0
 17 49  1  0  0  0
 18 19  1  0  0  0
 18 50  1  0  0  0
 18 51  1  0  0  0
 19 52  1  0  0  0
 19 53  1  0  0  0
 20 21  1  0  0  0
 20 54  1  0  0  0
 20 64  1  0  0  0
 21 29  1  0  0  0
 21 22  1  0  0  0
 21 55  1  0  0  0
 22 27  2  0  0  0
 22 23  1  0  0  0
 23 24  2  0  0  0
 23 56  1  0  0  0
 24 25  1  0  0  0
 24 57  1  0  0  0
 25 26  2  0  0  0
 25 58  1  0  0  0
 26 27  1  0  0  0
 26 59  1  0  0  0
 27 28  1  0  0  0
 28 33  2  0  0  0
 28 29  1  0  0  0
 29 30  2  0  0  0
 30 31  1  0  0  0
 30 60  1  0  0  0
 31 32  2  0  0  0
 31 61  1  0  0  0
 32 33  1  0  0  0
 32 62  1  0  0  0
 33 63  1  0  0  0
M  CHG  1  20   1
M  END
> <i_i_glide_confnum>
270

> <i_i_glide_lignum>
615

> <i_i_glide_posenum>
365

> <i_i_glide_rotatable_bonds>
6

> <i_m_Source_File_Index>
4110

> <b_m_subgroup_collapsed>
0

> <r_i_docking_score>
-5.39211

> <r_i_glide_ecoul>
-2.13219

> <r_i_glide_eff_state_penalty>
0

> <r_i_glide_einternal>
5.09368

> <r_i_glide_emodel>
-55.2746

> <r_i_glide_energy>
-43.1265

> <r_i_glide_erotb>
0.468807

> <r_i_glide_esite>
-0.135041

> <r_i_glide_evdw>
-40.9943

> <r_i_glide_gscore>
-5.39211

> <r_i_glide_hbond>
-0.16

> <r_i_glide_ligand_efficiency>
-0.163397

> <r_i_glide_ligand_efficiency_ln>
-1.19918

> <r_i_glide_ligand_efficiency_sa>
-0.524102

> <r_i_glide_lipo>
-2.77002

> <r_i_glide_metal>
0

> <r_i_glide_rewards>
-0.426315

> <s_i_glide_gridfile>
wee1_glide-grid

> <s_m_Source_File>
wee1_decoys_glide_SP.sdf

> <s_m_Source_Path>
/Users/zhangxujun/Desktop

> <s_m_entry_id>
4385

> <s_m_entry_name>
wee1_decoys_glide_SP.4110

> <s_m_subgroup_title>
wee1_decoys_glide_SP

> <s_m_subgroupid>
wee1_decoys_glide_SP


$$$$
