ZINC50305444_4745
                    3D
 Schrodinger Suite 2024-2.
 33 35  0  0  1  0            999 V2000
    2.6368   53.5007   29.1151 C   0  0  0  0  0  0
    3.6968   53.8452   28.0840 C   0  0  0  0  0  0
    4.9828   54.1970   28.5003 C   0  0  0  0  0  0
    5.9939   54.4969   27.5849 C   0  0  0  0  0  0
    5.6898   54.4603   26.2168 C   0  0  0  0  0  0
    4.3818   54.0963   25.7994 C   0  0  0  0  0  0
    3.3788   53.7811   26.7257 C   0  0  0  0  0  0
    4.3187   54.0987   24.0479 S   0  0  0  0  0  0
    5.9938   54.6598   24.0444 C   0  0  0  0  0  0
    6.5607   54.7669   25.2149 N   0  0  0  0  0  0
    6.7059   55.0021   22.9001 N   0  0  0  0  0  0
    6.2546   55.0535   21.6213 C   0  0  0  0  0  0
    5.1038   54.7797   21.2812 O   0  0  0  0  0  0
    7.2365   55.4647   20.6245 C   0  0  0  0  0  0
    6.9799   55.6358   19.2333 C   0  0  0  0  0  0
    8.2046   55.9611   18.6643 C   0  0  0  0  0  0
    9.0813   55.9597   19.7090 N   0  0  0  0  0  0
   10.0821   56.1104   19.6285 H   0  0  0  0  0  0
    8.5105   55.6966   20.8830 N   0  0  0  0  0  0
    8.6387   56.2489   17.2470 C   0  0  0  0  0  0
    5.7977   55.5023   18.5590 N   0  0  0  0  0  0
    3.0854   53.0566   30.0046 H   0  0  0  0  0  0
    2.0788   54.3913   29.4070 H   0  0  0  0  0  0
    1.9361   52.7629   28.7213 H   0  0  0  0  0  0
    5.1984   54.2517   29.5562 H   0  0  0  0  0  0
    6.9774   54.7769   27.9318 H   0  0  0  0  0  0
    2.3900   53.4965   26.3948 H   0  0  0  0  0  0
    8.5773   55.3537   16.6228 H   0  0  0  0  0  0
    7.9995   57.0054   16.7850 H   0  0  0  0  0  0
    9.6672   56.6180   17.1854 H   0  0  0  0  0  0
    4.9584   55.2117   19.0448 H   0  0  0  0  0  0
    5.7312   55.6137   17.5572 H   0  0  0  0  0  0
    7.6713   55.2647   23.0559 H   0  0  0  0  0  0
  1  2  1  0  0  0
  1 22  1  0  0  0
  1 23  1  0  0  0
  1 24  1  0  0  0
  2  7  2  0  0  0
  2  3  1  0  0  0
  3  4  2  0  0  0
  3 25  1  0  0  0
  4  5  1  0  0  0
  4 26  1  0  0  0
  5 10  1  0  0  0
  5  6  2  0  0  0
  6  7  1  0  0  0
  6  8  1  0  0  0
  7 27  1  0  0  0
  8  9  1  0  0  0
  9 10  2  0  0  0
  9 11  1  0  0  0
 11 12  1  0  0  0
 11 33  1  0  0  0
 12 13  2  0  0  0
 12 14  1  0  0  0
 14 15  1  0  0  0
 14 19  2  0  0  0
 15 21  1  0  0  0
 15 16  2  0  0  0
 16 20  1  0  0  0
 16 17  1  0  0  0
 17 18  1  0  0  0
 17 19  1  0  0  0
 20 28  1  0  0  0
 20 29  1  0  0  0
 20 30  1  0  0  0
 21 31  1  0  0  0
 21 32  1  0  0  0
M  END
> <i_i_glide_confnum>
1

> <i_i_glide_lignum>
4746

> <i_i_glide_posenum>
39

> <i_i_glide_rotatable_bonds>
3

> <i_m_Source_File_Index>
4744

> <b_m_subgroup_collapsed>
0

> <r_i_docking_score>
-7.51312

> <r_i_glide_ecoul>
-5.29651

> <r_i_glide_eff_state_penalty>
0

> <r_i_glide_einternal>
0.167328

> <r_i_glide_emodel>
-55.6555

> <r_i_glide_energy>
-38.6392

> <r_i_glide_erotb>
0.660383

> <r_i_glide_esite>
-0.0134795

> <r_i_glide_evdw>
-33.3427

> <r_i_glide_gscore>
-7.51312

> <r_i_glide_hbond>
-0.551936

> <r_i_glide_ligand_efficiency>
-0.375656

> <r_i_glide_ligand_efficiency_ln>
-1.88029

> <r_i_glide_ligand_efficiency_sa>
-1.01969

> <r_i_glide_lipo>
-2.50619

> <r_i_glide_metal>
0

> <r_i_glide_rewards>
-2.64029

> <s_i_glide_gridfile>
wee1_glide-grid

> <s_m_Source_File>
wee1_decoys_glide_SP.sdf

> <s_m_Source_Path>
/Users/zhangxujun/Desktop

> <s_m_entry_id>
5019

> <s_m_entry_name>
wee1_decoys_glide_SP.4744

> <s_m_subgroup_title>
wee1_decoys_glide_SP

> <s_m_subgroupid>
wee1_decoys_glide_SP


$$$$
