ZINC09113433_2109
                    3D
 Schrodinger Suite 2024-2.
 53 55  0  0  1  0            999 V2000
    2.4859   55.2964   28.9087 C   0  0  0  0  0  0
    3.2538   54.0071   28.5491 C   0  0  0  0  0  0
    4.3749   54.2753   27.5100 C   0  0  0  0  0  0
    3.8988   53.4170   29.8132 C   0  0  0  0  0  0
    2.3052   53.0097   28.1442 O   0  0  0  0  0  0
    1.5957   53.0164   26.9723 C   0  0  0  0  0  0
    1.9052   53.6962   25.9922 O   0  0  0  0  0  0
    0.4775   52.1683   27.0417 N   0  0  0  0  0  0
    0.0862   51.4984   28.2959 C   0  0  0  0  0  0
   -1.4255   51.2991   28.3030 C   0  0  0  0  0  0
   -2.2687   51.5178   27.2694 C   0  0  0  0  0  0
   -1.6993   52.0219   25.9333 C   0  0  1  0  0  0
   -1.8324   53.1035   25.9541 H   0  0  0  0  0  0
   -0.1768   51.7563   25.7926 C   0  0  0  0  0  0
   -2.5307   51.4581   24.7478 C   0  0  2  0  0  0
   -2.2231   52.0529   23.8831 H   0  0  0  0  0  0
   -4.0609   51.7412   24.9212 C   0  0  0  0  0  0
   -4.5506   51.3661   26.3304 C   0  0  0  0  0  0
   -3.7144   51.2921   27.3946 C   0  0  0  0  0  0
   -4.2819   51.0303   28.6841 C   0  0  0  0  0  0
   -4.8035   50.8796   29.7061 N   0  0  0  0  0  0
   -5.9167   51.2149   26.4490 N   0  0  0  0  0  0
   -4.8331   51.0382   23.8764 C   0  0  0  0  0  0
   -5.4412   50.4897   23.0598 N   0  0  0  0  0  0
   -4.3051   53.1890   24.7733 C   0  0  0  0  0  0
   -4.4960   54.3246   24.6601 N   0  0  0  0  0  0
   -2.1841   50.0000   24.3605 C   0  0  0  0  0  0
   -2.4083   48.9292   25.2444 C   0  0  0  0  0  0
   -2.1020   47.6205   24.8719 C   0  0  0  0  0  0
   -1.5472   47.3652   23.6198 C   0  0  0  0  0  0
   -1.3103   48.4147   22.7345 C   0  0  0  0  0  0
   -1.6296   49.7211   23.0975 C   0  0  0  0  0  0
   -1.3965   50.7139   22.2045 F   0  0  0  0  0  0
   -2.4492   46.1756   26.0608 Br  0  0  0  0  0  0
    3.1508   56.0745   29.2821 H   0  0  0  0  0  0
    1.7360   55.1070   29.6768 H   0  0  0  0  0  0
    1.9608   55.7093   28.0491 H   0  0  0  0  0  0
    4.7925   53.3410   27.1268 H   0  0  0  0  0  0
    4.0158   54.8437   26.6535 H   0  0  0  0  0  0
    5.1930   54.8459   27.9498 H   0  0  0  0  0  0
    4.4725   52.5167   29.5896 H   0  0  0  0  0  0
    4.5708   54.1356   30.2766 H   0  0  0  0  0  0
    3.1475   53.1396   30.5539 H   0  0  0  0  0  0
    0.5877   50.5370   28.3777 H   0  0  0  0  0  0
    0.3597   52.0799   29.1775 H   0  0  0  0  0  0
   -1.8396   50.9097   29.2224 H   0  0  0  0  0  0
    0.2159   52.2834   24.9208 H   0  0  0  0  0  0
    0.0441   50.6985   25.6290 H   0  0  0  0  0  0
   -6.5346   51.2857   25.6520 H   0  0  0  0  0  0
   -6.3365   50.9861   27.3392 H   0  0  0  0  0  0
   -2.8148   49.0854   26.2337 H   0  0  0  0  0  0
   -1.2977   46.3565   23.3290 H   0  0  0  0  0  0
   -0.8848   48.2174   21.7615 H   0  0  0  0  0  0
  1  2  1  0  0  0
  1 35  1  0  0  0
  1 36  1  0  0  0
  1 37  1  0  0  0
  2  3  1  0  0  0
  2  4  1  0  0  0
  2  5  1  0  0  0
  3 38  1  0  0  0
  3 39  1  0  0  0
  3 40  1  0  0  0
  4 41  1  0  0  0
  4 42  1  0  0  0
  4 43  1  0  0  0
  5  6  1  0  0  0
  6  7  2  0  0  0
  6  8  1  0  0  0
  8 14  1  0  0  0
  8  9  1  0  0  0
  9 10  1  0  0  0
  9 44  1  0  0  0
  9 45  1  0  0  0
 10 11  2  0  0  0
 10 46  1  0  0  0
 11 19  1  0  0  0
 11 12  1  0  0  0
 12 13  1  0  0  0
 12 14  1  0  0  0
 12 15  1  0  0  0
 14 47  1  0  0  0
 14 48  1  0  0  0
 15 16  1  0  0  0
 15 17  1  0  0  0
 15 27  1  0  0  0
 17 18  1  0  0  0
 17 23  1  0  0  0
 17 25  1  0  0  0
 18 19  2  0  0  0
 18 22  1  0  0  0
 19 20  1  0  0  0
 20 21  3  0  0  0
 22 49  1  0  0  0
 22 50  1  0  0  0
 23 24  3  0  0  0
 25 26  3  0  0  0
 27 32  2  0  0  0
 27 28  1  0  0  0
 28 29  2  0  0  0
 28 51  1  0  0  0
 29 30  1  0  0  0
 29 34  1  0  0  0
 30 31  2  0  0  0
 30 52  1  0  0  0
 31 32  1  0  0  0
 31 53  1  0  0  0
 32 33  1  0  0  0
M  END
> <i_i_glide_confnum>
2

> <i_i_glide_lignum>
2110

> <i_i_glide_posenum>
386

> <i_i_glide_rotatable_bonds>
7

> <i_m_Source_File_Index>
1558

> <b_m_subgroup_collapsed>
0

> <r_i_docking_score>
-3.1662

> <r_i_glide_ecoul>
-1.35038

> <r_i_glide_eff_state_penalty>
0

> <r_i_glide_einternal>
6.73769

> <r_i_glide_emodel>
-42.0056

> <r_i_glide_energy>
-38.3697

> <r_i_glide_erotb>
0.246491

> <r_i_glide_esite>
-0.0537315

> <r_i_glide_evdw>
-37.0193

> <r_i_glide_gscore>
-3.1662

> <r_i_glide_hbond>
-0.0102928

> <r_i_glide_ligand_efficiency>
-0.0989439

> <r_i_glide_ligand_efficiency_ln>
-0.709

> <r_i_glide_ligand_efficiency_sa>
-0.314127

> <r_i_glide_lipo>
-0.831135

> <r_i_glide_metal>
0

> <r_i_glide_rewards>
-0.464015

> <s_i_glide_gridfile>
wee1_glide-grid

> <s_m_Source_File>
wee1_decoys_glide_SP.sdf

> <s_m_Source_Path>
/Users/zhangxujun/Desktop

> <s_m_entry_id>
1833

> <s_m_entry_name>
wee1_decoys_glide_SP.1558

> <s_m_subgroup_title>
wee1_decoys_glide_SP

> <s_m_subgroupid>
wee1_decoys_glide_SP


$$$$
