ZINC08822591_463
                    3D
 Schrodinger Suite 2024-2.
 46 48  0  0  1  0            999 V2000
   -5.5318   49.8209   30.8666 C   0  0  0  0  0  0
   -4.9590   50.7556   29.8082 C   0  0  0  0  0  0
   -5.6413   51.6960   29.3982 O   0  0  0  0  0  0
   -3.6955   50.4967   29.4255 N   0  0  0  0  0  0
   -2.9241   51.1867   28.4816 C   0  0  0  0  0  0
   -3.4276   51.6963   27.2765 C   0  0  0  0  0  0
   -2.5621   52.3166   26.3702 C   0  0  0  0  0  0
   -1.1975   52.4217   26.6570 C   0  0  0  0  0  0
   -0.6970   51.9078   27.8584 C   0  0  0  0  0  0
   -1.5627   51.2967   28.7618 C   0  0  0  0  0  0
    0.6650   51.9019   28.1662 N   0  0  0  0  0  0
    1.4645   52.9803   28.2683 C   0  0  0  0  0  0
    1.0936   54.1397   28.0823 O   0  0  0  0  0  0
    2.9093   52.6645   28.6769 C   0  0  0  0  0  0
    3.9350   54.0976   29.1496 S   0  0  0  0  0  0
    4.9028   54.2632   27.6862 C   0  0  0  0  0  0
    6.1938   54.4837   27.6961 N   0  0  0  0  0  0
    6.7389   54.6286   26.4294 N   0  0  0  0  0  0
    5.8518   54.5247   25.4771 C   0  0  0  0  0  0
    4.2273   54.2548   26.0783 S   0  0  0  0  0  0
    6.2172   54.6841   24.1462 N   0  0  0  0  0  0
    5.4425   54.4963   23.0547 C   0  0  0  0  0  0
    4.2858   54.0730   23.0954 O   0  0  0  0  0  0
    6.0734   54.8259   21.7156 C   0  0  0  0  0  0
    7.3341   55.4430   21.6100 C   0  0  0  0  0  0
    7.9034   55.6967   20.3617 C   0  0  0  0  0  0
    7.2131   55.3667   19.1981 C   0  0  0  0  0  0
    5.9548   54.7758   19.2823 C   0  0  0  0  0  0
    5.3926   54.5030   20.5291 C   0  0  0  0  0  0
    5.0033   54.3352   17.6952 Br  0  0  0  0  0  0
   -5.0419   48.8452   30.8418 H   0  0  0  0  0  0
   -6.5998   49.6701   30.7012 H   0  0  0  0  0  0
   -5.3920   50.2510   31.8604 H   0  0  0  0  0  0
   -3.1890   49.7672   29.9200 H   0  0  0  0  0  0
   -4.4764   51.6000   27.0360 H   0  0  0  0  0  0
   -2.9465   52.7057   25.4395 H   0  0  0  0  0  0
   -0.5311   52.8828   25.9422 H   0  0  0  0  0  0
   -1.1756   50.8966   29.6888 H   0  0  0  0  0  0
    1.0282   51.0107   28.4674 H   0  0  0  0  0  0
    2.8765   52.0135   29.5497 H   0  0  0  0  0  0
    3.3930   52.0969   27.8836 H   0  0  0  0  0  0
    7.1902   54.8967   23.9846 H   0  0  0  0  0  0
    7.9037   55.7267   22.4823 H   0  0  0  0  0  0
    8.8829   56.1492   20.2952 H   0  0  0  0  0  0
    7.6516   55.5666   18.2315 H   0  0  0  0  0  0
    4.4169   54.0364   20.5593 H   0  0  0  0  0  0
  1  2  1  0  0  0
  1 31  1  0  0  0
  1 32  1  0  0  0
  1 33  1  0  0  0
  2  3  2  0  0  0
  2  4  1  0  0  0
  4  5  1  0  0  0
  4 34  1  0  0  0
  5 10  2  0  0  0
  5  6  1  0  0  0
  6  7  2  0  0  0
  6 35  1  0  0  0
  7  8  1  0  0  0
  7 36  1  0  0  0
  8  9  2  0  0  0
  8 37  1  0  0  0
  9 10  1  0  0  0
  9 11  1  0  0  0
 10 38  1  0  0  0
 11 12  1  0  0  0
 11 39  1  0  0  0
 12 13  2  0  0  0
 12 14  1  0  0  0
 14 15  1  0  0  0
 14 40  1  0  0  0
 14 41  1  0  0  0
 15 16  1  0  0  0
 16 20  1  0  0  0
 16 17  2  0  0  0
 17 18  1  0  0  0
 18 19  2  0  0  0
 19 20  1  0  0  0
 19 21  1  0  0  0
 21 22  1  0  0  0
 21 42  1  0  0  0
 22 23  2  0  0  0
 22 24  1  0  0  0
 24 29  2  0  0  0
 24 25  1  0  0  0
 25 26  2  0  0  0
 25 43  1  0  0  0
 26 27  1  0  0  0
 26 44  1  0  0  0
 27 28  2  0  0  0
 27 45  1  0  0  0
 28 29  1  0  0  0
 28 30  1  0  0  0
 29 46  1  0  0  0
M  END
> <i_i_glide_confnum>
183

> <i_i_glide_lignum>
464

> <i_i_glide_posenum>
265

> <i_i_glide_rotatable_bonds>
10

> <i_m_Source_File_Index>
5272

> <b_m_subgroup_collapsed>
0

> <r_i_docking_score>
-4.20717

> <r_i_glide_ecoul>
-5.07472

> <r_i_glide_eff_state_penalty>
0

> <r_i_glide_einternal>
8.73871

> <r_i_glide_emodel>
-60.5788

> <r_i_glide_energy>
-52.5069

> <r_i_glide_erotb>
0.718057

> <r_i_glide_esite>
-0.153125

> <r_i_glide_evdw>
-47.4322

> <r_i_glide_gscore>
-4.20717

> <r_i_glide_hbond>
-0.149748

> <r_i_glide_ligand_efficiency>
-0.140239

> <r_i_glide_ligand_efficiency_ln>
-0.955915

> <r_i_glide_ligand_efficiency_sa>
-0.435755

> <r_i_glide_lipo>
-2.00053

> <r_i_glide_metal>
0

> <r_i_glide_rewards>
0.510995

> <s_i_glide_gridfile>
wee1_glide-grid

> <s_m_Source_File>
wee1_decoys_glide_SP.sdf

> <s_m_Source_Path>
/Users/zhangxujun/Desktop

> <s_m_entry_id>
5547

> <s_m_entry_name>
wee1_decoys_glide_SP.5272

> <s_m_subgroup_title>
wee1_decoys_glide_SP

> <s_m_subgroupid>
wee1_decoys_glide_SP


$$$$
