ZINC39638958_375
                    3D
 Schrodinger Suite 2024-2.
 65 68  0  0  1  0            999 V2000
    5.1310   53.2961   27.5901 C   0  0  0  0  0  0
    3.8051   53.6268   26.8803 C   0  0  0  0  0  0
    2.7975   54.0758   27.8388 N   0  0  0  0  0  0
    1.7410   53.4009   28.4062 C   0  0  0  0  0  0
    1.2622   54.2566   29.3895 C   0  0  0  0  0  0
    1.9838   55.4344   29.2512 C   0  0  0  0  0  0
    2.9378   55.2966   28.3642 N   0  0  0  0  0  0
    1.7839   56.7362   29.9774 C   0  0  0  0  0  0
   -0.0955   53.9177   30.6760 Br  0  0  0  0  0  0
    1.2439   52.0921   28.1182 C   0  0  0  0  0  0
    1.2005   51.2967   29.0495 O   0  0  0  0  0  0
    0.6964   51.8395   26.9006 N   0  0  0  0  0  0
    0.8404   52.6091   25.6606 C   0  0  0  0  0  0
   -0.4652   52.2693   24.9038 C   0  0  2  0  0  0
   -1.1996   53.0035   25.2384 H   0  0  0  0  0  0
   -0.8443   50.8304   25.3367 C   0  0  0  0  0  0
   -0.3977   50.8680   26.8150 C   0  0  0  0  0  0
   -2.3439   50.5261   25.1035 C   0  0  0  0  0  0
   -2.7592   49.2291   25.8091 C   0  0  0  0  0  0
   -1.8918   48.0587   25.2818 N   0  3  0  0  0  0
   -0.3657   48.3126   25.2089 C   0  0  0  0  0  0
   -0.0931   49.6949   24.5747 C   0  0  0  0  0  0
   -0.3550   52.4396   23.3688 C   0  0  0  0  0  0
   -1.4036   52.4967   22.7258 O   0  0  0  0  0  0
    0.8510   52.4982   22.7736 N   0  0  0  0  0  0
    1.0464   52.5894   21.3248 C   0  0  0  0  0  0
    0.8676   51.2506   20.5845 C   0  0  0  0  0  0
    0.7974   51.4312   19.0745 C   0  0  0  0  0  0
    1.9043   51.1164   18.2785 C   0  0  0  0  0  0
    1.8483   51.2963   16.8967 C   0  0  0  0  0  0
    0.6881   51.7892   16.3001 C   0  0  0  0  0  0
   -0.4191   52.1024   17.0881 C   0  0  0  0  0  0
   -0.3688   51.9220   18.4702 C   0  0  0  0  0  0
   -1.4562   52.2270   19.2175 F   0  0  0  0  0  0
    5.8778   52.9502   26.8748 H   0  0  0  0  0  0
    5.5464   54.1657   28.1022 H   0  0  0  0  0  0
    4.9988   52.5033   28.3277 H   0  0  0  0  0  0
    3.4332   52.7543   26.3534 H   0  0  0  0  0  0
    3.9455   54.4083   26.1309 H   0  0  0  0  0  0
    1.3572   56.6023   30.9721 H   0  0  0  0  0  0
    2.7043   57.2942   30.0962 H   0  0  0  0  0  0
    1.1046   57.3699   29.4159 H   0  0  0  0  0  0
    1.6742   52.1517   25.1292 H   0  0  0  0  0  0
    0.9515   53.6864   25.7882 H   0  0  0  0  0  0
   -1.2211   51.3024   27.3855 H   0  0  0  0  0  0
   -0.2173   49.9091   27.2908 H   0  0  0  0  0  0
   -2.9401   51.3238   25.5491 H   0  0  0  0  0  0
   -2.6090   50.5222   24.0450 H   0  0  0  0  0  0
   -2.6047   49.2950   26.8818 H   0  0  0  0  0  0
   -3.7993   48.9573   25.6225 H   0  0  0  0  0  0
   -2.0466   47.2638   25.8887 H   0  0  0  0  0  0
   -0.0061   48.2165   26.2306 H   0  0  0  0  0  0
    0.0655   47.4958   24.6294 H   0  0  0  0  0  0
   -0.3267   49.6868   23.5088 H   0  0  0  0  0  0
    0.9836   49.8636   24.6330 H   0  0  0  0  0  0
    1.6849   52.4656   23.3383 H   0  0  0  0  0  0
    2.0052   53.0430   21.0695 H   0  0  0  0  0  0
    0.3236   53.2966   20.9135 H   0  0  0  0  0  0
   -0.0490   50.7540   20.9064 H   0  0  0  0  0  0
    1.6764   50.5685   20.8518 H   0  0  0  0  0  0
    2.8162   50.7333   18.7164 H   0  0  0  0  0  0
    2.7059   51.0387   16.2913 H   0  0  0  0  0  0
    0.6482   51.9242   15.2288 H   0  0  0  0  0  0
   -1.3201   52.4818   16.6298 H   0  0  0  0  0  0
   -2.2204   47.8080   24.3601 H   0  0  0  0  0  0
  1  2  1  0  0  0
  1 35  1  0  0  0
  1 36  1  0  0  0
  1 37  1  0  0  0
  2  3  1  0  0  0
  2 38  1  0  0  0
  2 39  1  0  0  0
  3  7  1  0  0  0
  3  4  1  0  0  0
  4  5  2  0  0  0
  4 10  1  0  0  0
  5  6  1  0  0  0
  5  9  1  0  0  0
  6  7  2  0  0  0
  6  8  1  0  0  0
  8 40  1  0  0  0
  8 41  1  0  0  0
  8 42  1  0  0  0
 10 11  2  0  0  0
 10 12  1  0  0  0
 12 17  1  0  0  0
 12 13  1  0  0  0
 13 14  1  0  0  0
 13 43  1  0  0  0
 13 44  1  0  0  0
 14 15  1  0  0  0
 14 16  1  0  0  0
 14 23  1  0  0  0
 16 22  1  0  0  0
 16 17  1  0  0  0
 16 18  1  0  0  0
 17 45  1  0  0  0
 17 46  1  0  0  0
 18 19  1  0  0  0
 18 47  1  0  0  0
 18 48  1  0  0  0
 19 20  1  0  0  0
 19 49  1  0  0  0
 19 50  1  0  0  0
 20 21  1  0  0  0
 20 51  1  0  0  0
 20 65  1  0  0  0
 21 22  1  0  0  0
 21 52  1  0  0  0
 21 53  1  0  0  0
 22 54  1  0  0  0
 22 55  1  0  0  0
 23 24  2  0  0  0
 23 25  1  0  0  0
 25 26  1  0  0  0
 25 56  1  0  0  0
 26 27  1  0  0  0
 26 57  1  0  0  0
 26 58  1  0  0  0
 27 28  1  0  0  0
 27 59  1  0  0  0
 27 60  1  0  0  0
 28 33  2  0  0  0
 28 29  1  0  0  0
 29 30  2  0  0  0
 29 61  1  0  0  0
 30 31  1  0  0  0
 30 62  1  0  0  0
 31 32  2  0  0  0
 31 63  1  0  0  0
 32 33  1  0  0  0
 32 64  1  0  0  0
 33 34  1  0  0  0
M  CHG  1  20   1
M  END
> <i_i_glide_confnum>
285

> <i_i_glide_lignum>
376

> <i_i_glide_posenum>
220

> <i_i_glide_rotatable_bonds>
8

> <i_m_Source_File_Index>
3718

> <b_m_subgroup_collapsed>
0

> <r_i_docking_score>
-5.01262

> <r_i_glide_ecoul>
-10.005

> <r_i_glide_eff_state_penalty>
0

> <r_i_glide_einternal>
13.5212

> <r_i_glide_emodel>
-52.4846

> <r_i_glide_energy>
-44.9439

> <r_i_glide_erotb>
0.453634

> <r_i_glide_esite>
-0.122356

> <r_i_glide_evdw>
-34.9389

> <r_i_glide_gscore>
-5.01262

> <r_i_glide_hbond>
0

> <r_i_glide_ligand_efficiency>
-0.151898

> <r_i_glide_ligand_efficiency_ln>
-1.11478

> <r_i_glide_ligand_efficiency_sa>
-0.487217

> <r_i_glide_lipo>
-1.54265

> <r_i_glide_metal>
0

> <r_i_glide_rewards>
-0.55356

> <s_i_glide_gridfile>
wee1_glide-grid

> <s_m_Source_File>
wee1_decoys_glide_SP.sdf

> <s_m_Source_Path>
/Users/zhangxujun/Desktop

> <s_m_entry_id>
3993

> <s_m_entry_name>
wee1_decoys_glide_SP.3718

> <s_m_subgroup_title>
wee1_decoys_glide_SP

> <s_m_subgroupid>
wee1_decoys_glide_SP


$$$$
