ZINC24141440_3974
                    3D
 Schrodinger Suite 2024-2.
 64 67  0  0  1  0            999 V2000
    7.0321   53.5672   28.2848 C   0  0  0  0  0  0
    6.3323   54.8372   27.8008 C   0  0  0  0  0  0
    5.2503   54.5175   26.8082 C   0  0  0  0  0  0
    5.3192   54.4932   25.4072 C   0  0  0  0  0  0
    4.0843   54.0936   24.8455 C   0  0  0  0  0  0
    3.1095   53.8552   25.8009 C   0  0  0  0  0  0
    3.6707   54.0953   27.4006 S   0  0  0  0  0  0
    1.8359   53.4704   25.5528 N   0  0  0  0  0  0
    1.4772   53.3349   24.3253 C   0  0  0  0  0  0
    2.4069   53.4923   23.2911 N   0  0  0  0  0  0
    3.7432   53.8747   23.4393 C   0  0  0  0  0  0
    4.5257   54.0046   22.4933 O   0  0  0  0  0  0
    1.9784   53.2971   21.8901 C   0  0  0  0  0  0
    2.1387   51.9162   21.2614 C   0  0  0  0  0  0
    2.1373   51.8415   19.8674 C   0  0  0  0  0  0
    2.2084   50.6073   19.2337 C   0  0  0  0  0  0
    2.2767   49.4415   19.9927 C   0  0  0  0  0  0
    2.3042   49.5104   21.3877 C   0  0  0  0  0  0
    2.2496   50.7487   22.0239 C   0  0  0  0  0  0
    2.3099   48.1002   19.2869 C   0  0  0  0  0  0
   -0.2632   52.8961   24.0190 S   0  0  0  0  0  0
   -0.7302   52.1048   25.6010 C   0  0  0  0  0  0
   -1.9217   51.1343   25.5137 C   0  0  0  0  0  0
   -2.9627   51.4755   26.0782 O   0  0  0  0  0  0
   -1.7455   49.8907   24.9848 N   0  0  0  0  0  0
   -0.6680   49.6092   24.0057 C   0  0  0  0  0  0
    0.0232   48.2936   24.4008 C   0  0  0  0  0  0
   -0.9699   47.1289   24.5358 C   0  0  0  0  0  0
   -1.9816   47.5650   25.6026 C   0  0  1  0  0  0
   -1.3859   47.7842   26.4817 H   0  0  0  0  0  0
   -2.7703   48.8320   25.1855 C   0  0  0  0  0  0
   -2.8895   46.3996   26.0403 C   0  0  0  0  0  0
   -3.5131   45.7221   25.2259 O   0  0  0  0  0  0
   -2.8946   46.0967   27.3375 N   0  0  0  0  0  0
    6.5983   54.7540   24.6258 C   0  0  0  0  0  0
    7.7951   53.7940   29.0298 H   0  0  0  0  0  0
    6.3047   52.8969   28.7404 H   0  0  0  0  0  0
    7.5047   53.0306   27.4610 H   0  0  0  0  0  0
    7.0653   55.5189   27.3732 H   0  0  0  0  0  0
    5.9043   55.3498   28.6622 H   0  0  0  0  0  0
    0.9490   53.6214   21.7466 H   0  0  0  0  0  0
    2.5538   53.9835   21.2718 H   0  0  0  0  0  0
    2.0684   52.7401   19.2720 H   0  0  0  0  0  0
    2.2139   50.5558   18.1537 H   0  0  0  0  0  0
    2.3820   48.6106   21.9805 H   0  0  0  0  0  0
    2.2808   50.7851   23.1028 H   0  0  0  0  0  0
    3.3041   47.9087   18.8799 H   0  0  0  0  0  0
    2.0228   47.2941   19.9596 H   0  0  0  0  0  0
    1.6067   48.0941   18.4543 H   0  0  0  0  0  0
   -0.9409   52.8862   26.3333 H   0  0  0  0  0  0
    0.1096   51.5438   26.0131 H   0  0  0  0  0  0
    0.1219   50.3535   23.9852 H   0  0  0  0  0  0
   -1.1134   49.5137   23.0134 H   0  0  0  0  0  0
    0.5772   48.4343   25.3314 H   0  0  0  0  0  0
    0.7836   48.0786   23.6614 H   0  0  0  0  0  0
   -0.3959   46.2708   24.8817 H   0  0  0  0  0  0
   -1.4305   46.9500   23.5619 H   0  0  0  0  0  0
   -3.3416   48.6559   24.2727 H   0  0  0  0  0  0
   -3.4464   49.0838   26.0053 H   0  0  0  0  0  0
   -3.3113   45.2411   27.6829 H   0  0  0  0  0  0
   -2.4169   46.7299   27.9793 H   0  0  0  0  0  0
    7.5008   54.6542   25.2280 H   0  0  0  0  0  0
    6.7273   54.0376   23.8140 H   0  0  0  0  0  0
    6.5978   55.7420   24.1661 H   0  0  0  0  0  0
  1  2  1  0  0  0
  1 36  1  0  0  0
  1 37  1  0  0  0
  1 38  1  0  0  0
  2  3  1  0  0  0
  2 39  1  0  0  0
  2 40  1  0  0  0
  3  7  1  0  0  0
  3  4  2  0  0  0
  4  5  1  0  0  0
  4 35  1  0  0  0
  5 11  1  0  0  0
  5  6  2  0  0  0
  6  7  1  0  0  0
  6  8  1  0  0  0
  8  9  2  0  0  0
  9 10  1  0  0  0
  9 21  1  0  0  0
 10 11  1  0  0  0
 10 13  1  0  0  0
 11 12  2  0  0  0
 13 14  1  0  0  0
 13 41  1  0  0  0
 13 42  1  0  0  0
 14 19  2  0  0  0
 14 15  1  0  0  0
 15 16  2  0  0  0
 15 43  1  0  0  0
 16 17  1  0  0  0
 16 44  1  0  0  0
 17 18  2  0  0  0
 17 20  1  0  0  0
 18 19  1  0  0  0
 18 45  1  0  0  0
 19 46  1  0  0  0
 20 47  1  0  0  0
 20 48  1  0  0  0
 20 49  1  0  0  0
 21 22  1  0  0  0
 22 23  1  0  0  0
 22 50  1  0  0  0
 22 51  1  0  0  0
 23 24  2  0  0  0
 23 25  1  0  0  0
 25 31  1  0  0  0
 25 26  1  0  0  0
 26 27  1  0  0  0
 26 52  1  0  0  0
 26 53  1  0  0  0
 27 28  1  0  0  0
 27 54  1  0  0  0
 27 55  1  0  0  0
 28 29  1  0  0  0
 28 56  1  0  0  0
 28 57  1  0  0  0
 29 30  1  0  0  0
 29 31  1  0  0  0
 29 32  1  0  0  0
 31 58  1  0  0  0
 31 59  1  0  0  0
 32 33  2  0  0  0
 32 34  1  0  0  0
 34 60  1  0  0  0
 34 61  1  0  0  0
 35 62  1  0  0  0
 35 63  1  0  0  0
 35 64  1  0  0  0
M  END
> <i_i_glide_confnum>
123

> <i_i_glide_lignum>
3975

> <i_i_glide_posenum>
287

> <i_i_glide_rotatable_bonds>
8

> <i_m_Source_File_Index>
4507

> <b_m_subgroup_collapsed>
0

> <r_i_docking_score>
-7.2524

> <r_i_glide_ecoul>
-10.4263

> <r_i_glide_eff_state_penalty>
0

> <r_i_glide_einternal>
4.22139

> <r_i_glide_emodel>
-80.2908

> <r_i_glide_energy>
-56.9979

> <r_i_glide_erotb>
0.492412

> <r_i_glide_esite>
-0.256655

> <r_i_glide_evdw>
-46.5716

> <r_i_glide_gscore>
-7.2524

> <r_i_glide_hbond>
-0.394479

> <r_i_glide_ligand_efficiency>
-0.213306

> <r_i_glide_ligand_efficiency_ln>
-1.60226

> <r_i_glide_ligand_efficiency_sa>
-0.691028

> <r_i_glide_lipo>
-2.49883

> <r_i_glide_metal>
0

> <r_i_glide_rewards>
-0.702327

> <s_i_glide_gridfile>
wee1_glide-grid

> <s_m_Source_File>
wee1_decoys_glide_SP.sdf

> <s_m_Source_Path>
/Users/zhangxujun/Desktop

> <s_m_entry_id>
4782

> <s_m_entry_name>
wee1_decoys_glide_SP.4507

> <s_m_subgroup_title>
wee1_decoys_glide_SP

> <s_m_subgroupid>
wee1_decoys_glide_SP


$$$$
