ZINC11332716_3295
                    3D
 Schrodinger Suite 2024-2.
 44 47  0  0  1  0            999 V2000
   -0.9672   51.3437   27.9086 C   0  0  0  0  0  0
    0.1731   51.8987   28.4910 C   0  0  0  0  0  0
    1.2155   52.3669   27.6859 C   0  0  0  0  0  0
    1.1002   52.2746   26.2970 C   0  0  0  0  0  0
   -0.0513   51.7529   25.7034 C   0  0  0  0  0  0
   -1.0870   51.2781   26.5207 C   0  0  0  0  0  0
   -0.0696   51.6825   24.3006 N   0  0  0  0  0  0
   -1.1379   51.7418   23.4746 C   0  0  0  0  0  0
   -2.2998   51.9170   23.8549 O   0  0  0  0  0  0
   -0.8449   51.5420   21.9745 C   0  0  0  0  0  0
    0.3312   52.0860   21.6496 F   0  0  0  0  0  0
   -1.8060   52.0950   21.2304 F   0  0  0  0  0  0
   -0.8033   50.2367   21.7104 F   0  0  0  0  0  0
    2.4652   52.8995   28.2537 C   0  0  0  0  0  0
    2.6477   54.0139   29.0006 C   0  0  0  0  0  0
    1.5051   54.9699   29.3927 C   0  0  0  0  0  0
    0.6746   54.4970   30.2005 O   0  0  0  0  0  0
    4.2685   54.4951   29.5788 S   0  0  0  0  0  0
    5.2464   54.3167   28.1243 C   0  0  0  0  0  0
    6.5327   54.0928   28.0499 N   0  0  0  0  0  0
    6.8464   54.1375   26.6966 N   0  0  0  0  0  0
    5.7214   54.3608   26.0614 C   0  0  0  0  0  0
    4.6679   54.4934   26.9080 O   0  0  0  0  0  0
    5.5031   54.4518   24.5899 C   0  0  0  0  0  0
    4.2567   54.0955   24.0368 C   0  0  0  0  0  0
    4.0515   54.0953   22.6491 C   0  0  0  0  0  0
    5.1114   54.4965   21.8453 C   0  0  0  0  0  0
    6.3061   54.8964   22.3739 C   0  0  0  0  0  0
    6.5469   54.8663   23.7433 C   0  0  0  0  0  0
    7.1331   55.2974   21.3725 O   0  0  0  0  0  0
    6.3481   55.3001   20.2082 C   0  0  0  0  0  0
    5.1623   54.6034   20.4917 O   0  0  0  0  0  0
   -1.7564   50.9527   28.5344 H   0  0  0  0  0  0
    0.2521   51.9447   29.5677 H   0  0  0  0  0  0
    1.9158   52.6187   25.6806 H   0  0  0  0  0  0
   -1.9731   50.8274   26.1002 H   0  0  0  0  0  0
    0.8373   51.6346   23.8598 H   0  0  0  0  0  0
    3.3364   52.2998   28.0327 H   0  0  0  0  0  0
    3.4509   53.7925   24.6846 H   0  0  0  0  0  0
    3.1009   53.8064   22.2259 H   0  0  0  0  0  0
    7.5036   55.1633   24.1445 H   0  0  0  0  0  0
    6.8815   54.8214   19.3857 H   0  0  0  0  0  0
    6.1007   56.3292   19.9382 H   0  0  0  0  0  0
    1.5846   56.1085   28.8815 O   0  5  0  0  0  0
  1  6  2  0  0  0
  1  2  1  0  0  0
  1 33  1  0  0  0
  2  3  2  0  0  0
  2 34  1  0  0  0
  3  4  1  0  0  0
  3 14  1  0  0  0
  4  5  2  0  0  0
  4 35  1  0  0  0
  5  6  1  0  0  0
  5  7  1  0  0  0
  6 36  1  0  0  0
  7  8  1  0  0  0
  7 37  1  0  0  0
  8  9  2  0  0  0
  8 10  1  0  0  0
 10 11  1  0  0  0
 10 12  1  0  0  0
 10 13  1  0  0  0
 14 15  2  0  0  0
 14 38  1  0  0  0
 15 16  1  0  0  0
 15 18  1  0  0  0
 16 17  2  0  0  0
 16 44  1  0  0  0
 18 19  1  0  0  0
 19 23  1  0  0  0
 19 20  2  0  0  0
 20 21  1  0  0  0
 21 22  2  0  0  0
 22 23  1  0  0  0
 22 24  1  0  0  0
 24 29  2  0  0  0
 24 25  1  0  0  0
 25 26  2  0  0  0
 25 39  1  0  0  0
 26 27  1  0  0  0
 26 40  1  0  0  0
 27 32  1  0  0  0
 27 28  2  0  0  0
 28 29  1  0  0  0
 28 30  1  0  0  0
 29 41  1  0  0  0
 30 31  1  0  0  0
 31 32  1  0  0  0
 31 42  1  0  0  0
 31 43  1  0  0  0
M  CHG  1  44  -1
M  END
> <i_i_glide_confnum>
22

> <i_i_glide_lignum>
3296

> <i_i_glide_posenum>
224

> <i_i_glide_rotatable_bonds>
8

> <i_m_Source_File_Index>
1208

> <b_m_subgroup_collapsed>
0

> <r_i_docking_score>
-5.80443

> <r_i_glide_ecoul>
-2.47728

> <r_i_glide_eff_state_penalty>
0

> <r_i_glide_einternal>
5.77488

> <r_i_glide_emodel>
-68.4581

> <r_i_glide_energy>
-50.5957

> <r_i_glide_erotb>
0.61984

> <r_i_glide_esite>
-0.0229193

> <r_i_glide_evdw>
-48.1184

> <r_i_glide_gscore>
-5.80443

> <r_i_glide_hbond>
0

> <r_i_glide_ligand_efficiency>
-0.175892

> <r_i_glide_ligand_efficiency_ln>
-1.29087

> <r_i_glide_ligand_efficiency_sa>
-0.564179

> <r_i_glide_lipo>
-2.76847

> <r_i_glide_metal>
0

> <r_i_glide_rewards>
-0.855371

> <s_i_glide_gridfile>
wee1_glide-grid

> <s_m_Source_File>
wee1_decoys_glide_SP.sdf

> <s_m_Source_Path>
/Users/zhangxujun/Desktop

> <s_m_entry_id>
1483

> <s_m_entry_name>
wee1_decoys_glide_SP.1208

> <s_m_subgroup_title>
wee1_decoys_glide_SP

> <s_m_subgroupid>
wee1_decoys_glide_SP


$$$$
