ZINC36821455_3738
                    3D
 Schrodinger Suite 2024-2.
 60 63  0  0  1  0            999 V2000
    2.5789   53.1184   30.0435 C   0  0  0  0  0  0
    3.2671   53.2119   28.6695 C   0  0  2  0  0  0
    3.7233   52.2369   28.4821 H   0  0  0  0  0  0
    4.3402   54.3202   28.6472 C   0  0  0  0  0  0
    5.1995   54.2686   27.3649 C   0  0  0  0  0  0
    4.2934   54.0971   26.1414 C   0  0  0  0  0  0
    2.9475   53.7299   26.2476 C   0  0  0  0  0  0
    2.1177   53.6261   24.7112 S   0  0  0  0  0  0
    3.6100   53.9710   23.8732 C   0  0  0  0  0  0
    4.6961   54.2065   24.7680 C   0  0  0  0  0  0
    5.9339   54.4819   24.1354 C   0  0  0  0  0  0
    6.0524   54.4968   22.7846 N   0  0  0  0  0  0
    4.9410   54.2294   22.0566 C   0  0  0  0  0  0
    3.6981   53.9805   22.5420 N   0  0  0  0  0  0
    5.1585   54.1837   20.3023 S   0  0  0  0  0  0
    3.8153   53.1841   19.5703 C   0  0  0  0  0  0
    3.6757   51.7619   20.1187 C   0  0  0  0  0  0
    4.5063   51.2967   20.8993 O   0  0  0  0  0  0
    2.6126   51.0689   19.6809 N   0  0  0  0  0  0
    2.2982   49.6945   20.0701 C   0  0  0  0  0  0
    1.8459   49.5443   21.5440 C   0  0  0  0  0  0
    0.6315   50.3608   21.9917 C   0  0  0  0  0  0
    0.4483   50.6028   23.3524 C   0  0  0  0  0  0
   -0.6478   51.3365   23.7977 C   0  0  0  0  0  0
   -1.5907   51.8454   22.8880 C   0  0  0  0  0  0
   -1.4235   51.5954   21.5158 C   0  0  0  0  0  0
   -0.3134   50.8519   21.0845 C   0  0  0  0  0  0
   -2.3817   52.0962   20.6489 O   0  0  0  0  0  0
   -2.2699   51.8495   19.2505 C   0  0  0  0  0  0
   -2.6936   52.5906   23.2694 O   0  0  0  0  0  0
   -2.9589   52.7892   24.6533 C   0  0  0  0  0  0
    7.1043   54.7203   24.8560 N   0  0  0  0  0  0
    2.2186   53.4912   27.5653 C   0  0  0  0  0  0
    2.0726   54.0492   30.3022 H   0  0  0  0  0  0
    1.8300   52.3251   30.0556 H   0  0  0  0  0  0
    3.2991   52.8944   30.8310 H   0  0  0  0  0  0
    3.8754   55.2967   28.7905 H   0  0  0  0  0  0
    5.0010   54.2121   29.5078 H   0  0  0  0  0  0
    5.9054   53.4380   27.4226 H   0  0  0  0  0  0
    5.7920   55.1819   27.2986 H   0  0  0  0  0  0
    3.9947   53.1175   18.4975 H   0  0  0  0  0  0
    2.8686   53.6967   19.7079 H   0  0  0  0  0  0
    2.0167   51.4943   18.9887 H   0  0  0  0  0  0
    3.1043   49.0068   19.8200 H   0  0  0  0  0  0
    1.4749   49.4083   19.4163 H   0  0  0  0  0  0
    2.6906   49.8028   22.1855 H   0  0  0  0  0  0
    1.6466   48.4968   21.7520 H   0  0  0  0  0  0
    1.1593   50.2227   24.0723 H   0  0  0  0  0  0
   -0.7452   51.5001   24.8597 H   0  0  0  0  0  0
   -0.1837   50.6533   20.0350 H   0  0  0  0  0  0
   -3.1137   52.3090   18.7354 H   0  0  0  0  0  0
   -1.3575   52.2840   18.8391 H   0  0  0  0  0  0
   -2.2926   50.7814   19.0288 H   0  0  0  0  0  0
   -3.8463   53.4121   24.7632 H   0  0  0  0  0  0
   -2.1345   53.2963   25.1543 H   0  0  0  0  0  0
   -3.1530   51.8423   25.1593 H   0  0  0  0  0  0
    7.0879   54.6035   25.8581 H   0  0  0  0  0  0
    7.9727   54.8690   24.3433 H   0  0  0  0  0  0
    1.6276   54.3731   27.8165 H   0  0  0  0  0  0
    1.5215   52.6565   27.4789 H   0  0  0  0  0  0
  1  2  1  0  0  0
  1 34  1  0  0  0
  1 35  1  0  0  0
  1 36  1  0  0  0
  2  3  1  0  0  0
  2 33  1  0  0  0
  2  4  1  0  0  0
  4  5  1  0  0  0
  4 37  1  0  0  0
  4 38  1  0  0  0
  5  6  1  0  0  0
  5 39  1  0  0  0
  5 40  1  0  0  0
  6 10  1  0  0  0
  6  7  2  0  0  0
  7  8  1  0  0  0
  7 33  1  0  0  0
  8  9  1  0  0  0
  9 14  2  0  0  0
  9 10  1  0  0  0
 10 11  2  0  0  0
 11 12  1  0  0  0
 11 32  1  0  0  0
 12 13  2  0  0  0
 13 14  1  0  0  0
 13 15  1  0  0  0
 15 16  1  0  0  0
 16 17  1  0  0  0
 16 41  1  0  0  0
 16 42  1  0  0  0
 17 18  2  0  0  0
 17 19  1  0  0  0
 19 20  1  0  0  0
 19 43  1  0  0  0
 20 21  1  0  0  0
 20 44  1  0  0  0
 20 45  1  0  0  0
 21 22  1  0  0  0
 21 46  1  0  0  0
 21 47  1  0  0  0
 22 27  2  0  0  0
 22 23  1  0  0  0
 23 24  2  0  0  0
 23 48  1  0  0  0
 24 25  1  0  0  0
 24 49  1  0  0  0
 25 26  2  0  0  0
 25 30  1  0  0  0
 26 27  1  0  0  0
 26 28  1  0  0  0
 27 50  1  0  0  0
 28 29  1  0  0  0
 29 51  1  0  0  0
 29 52  1  0  0  0
 29 53  1  0  0  0
 30 31  1  0  0  0
 31 54  1  0  0  0
 31 55  1  0  0  0
 31 56  1  0  0  0
 32 57  1  0  0  0
 32 58  1  0  0  0
 33 59  1  0  0  0
 33 60  1  0  0  0
M  END
> <i_i_glide_confnum>
2

> <i_i_glide_lignum>
3739

> <i_i_glide_posenum>
231

> <i_i_glide_rotatable_bonds>
9

> <i_m_Source_File_Index>
521

> <b_m_subgroup_collapsed>
0

> <r_i_docking_score>
-6.75776

> <r_i_glide_ecoul>
-7.77483

> <r_i_glide_eff_state_penalty>
0

> <r_i_glide_einternal>
3.01704

> <r_i_glide_emodel>
-72.2415

> <r_i_glide_energy>
-52.1684

> <r_i_glide_erotb>
0.633689

> <r_i_glide_esite>
-0.119751

> <r_i_glide_evdw>
-44.3936

> <r_i_glide_gscore>
-6.75776

> <r_i_glide_hbond>
-0.559267

> <r_i_glide_ligand_efficiency>
-0.21118

> <r_i_glide_ligand_efficiency_ln>
-1.51325

> <r_i_glide_ligand_efficiency_sa>
-0.670455

> <r_i_glide_lipo>
-2.86906

> <r_i_glide_metal>
0

> <r_i_glide_rewards>
-0.457473

> <s_i_glide_gridfile>
wee1_glide-grid

> <s_m_Source_File>
wee1_decoys_glide_SP.sdf

> <s_m_Source_Path>
/Users/zhangxujun/Desktop

> <s_m_entry_id>
796

> <s_m_entry_name>
wee1_decoys_glide_SP.521

> <s_m_subgroup_title>
wee1_decoys_glide_SP

> <s_m_subgroupid>
wee1_decoys_glide_SP


$$$$
