ZINC17958529_3721
                    3D
 Schrodinger Suite 2024-2.
 57 59  0  0  1  0            999 V2000
    1.0562   49.3825   22.7066 C   0  0  0  0  0  0
   -0.1086   49.7634   21.7719 C   0  0  0  0  0  0
    0.2050   50.7635   20.6225 C   0  0  2  0  0  0
    1.2652   50.1366   19.6593 C   0  0  0  0  0  0
    2.7355   50.5703   19.8429 C   0  0  0  0  0  0
    2.8883   52.0949   20.0303 C   0  0  1  0  0  0
    2.1239   52.4389   21.3333 C   0  0  0  0  0  0
    0.6143   52.1460   21.2262 C   0  0  0  0  0  0
    4.3400   52.4956   20.2225 C   0  0  0  0  0  0
    5.1044   52.0095   21.0582 O   0  0  0  0  0  0
    4.5379   53.5715   19.4185 N   0  0  0  0  0  0
    3.5298   53.7404   18.5202 C   0  0  0  0  0  0
    3.5582   54.3775   17.4688 O   0  0  0  0  0  0
    2.5593   52.8968   18.8877 N   0  0  0  0  0  0
    5.7248   54.4842   19.3991 C   0  0  0  0  0  0
    6.1054   55.1684   20.7410 C   0  0  0  0  0  0
    6.6356   56.2797   20.7230 O   0  0  0  0  0  0
    5.9042   54.4965   21.8808 N   0  0  0  0  0  0
    6.2477   54.9117   23.2368 C   0  0  0  0  0  0
    5.1173   54.4835   24.1909 C   0  0  0  0  0  0
    4.0279   54.0967   23.7562 O   0  0  0  0  0  0
    5.4260   54.5491   25.5008 N   0  0  0  0  0  0
    4.6545   54.1160   26.5960 C   0  0  0  0  0  0
    3.2486   54.0971   26.5764 C   0  0  0  0  0  0
    2.5270   53.6276   27.6720 C   0  0  0  0  0  0
    3.2008   53.1598   28.7956 C   0  0  0  0  0  0
    4.5920   53.1777   28.8247 C   0  0  0  0  0  0
    5.3297   53.6735   27.7476 C   0  0  0  0  0  0
    6.8513   53.6970   27.8553 C   0  0  0  0  0  0
    2.2276   52.4968   30.2899 Br  0  0  0  0  0  0
    0.7193   48.6832   23.4731 H   0  0  0  0  0  0
    1.8706   48.8980   22.1677 H   0  0  0  0  0  0
    1.4609   50.2499   23.2269 H   0  0  0  0  0  0
   -0.9204   50.1663   22.3803 H   0  0  0  0  0  0
   -0.5169   48.8477   21.3403 H   0  0  0  0  0  0
   -0.7073   50.9193   20.0430 H   0  0  0  0  0  0
    0.9886   50.4753   18.6588 H   0  0  0  0  0  0
    1.1547   49.0543   19.5724 H   0  0  0  0  0  0
    3.2444   50.2730   18.9244 H   0  0  0  0  0  0
    3.2480   50.0116   20.6270 H   0  0  0  0  0  0
    2.5826   51.9752   22.2085 H   0  0  0  0  0  0
    2.2087   53.5095   21.5364 H   0  0  0  0  0  0
    0.2233   52.8966   20.5385 H   0  0  0  0  0  0
    0.0762   52.3678   22.1488 H   0  0  0  0  0  0
    1.5964   53.0376   18.6242 H   0  0  0  0  0  0
    5.5101   55.3069   18.7144 H   0  0  0  0  0  0
    6.5927   53.9652   18.9922 H   0  0  0  0  0  0
    5.4810   53.5745   21.8109 H   0  0  0  0  0  0
    6.4007   55.9885   23.3020 H   0  0  0  0  0  0
    7.1794   54.4165   23.5130 H   0  0  0  0  0  0
    6.3706   54.8108   25.7288 H   0  0  0  0  0  0
    2.6969   54.4524   25.7204 H   0  0  0  0  0  0
    1.4474   53.6162   27.6445 H   0  0  0  0  0  0
    5.1043   52.7812   29.6814 H   0  0  0  0  0  0
    7.2930   52.9573   27.1866 H   0  0  0  0  0  0
    7.2379   54.6780   27.5776 H   0  0  0  0  0  0
    7.1953   53.5047   28.8725 H   0  0  0  0  0  0
  1  2  1  0  0  0
  1 31  1  0  0  0
  1 32  1  0  0  0
  1 33  1  0  0  0
  2  3  1  0  0  0
  2 34  1  0  0  0
  2 35  1  0  0  0
  3  8  1  0  0  0
  3  4  1  0  0  0
  3 36  1  0  0  0
  4  5  1  0  0  0
  4 37  1  0  0  0
  4 38  1  0  0  0
  5  6  1  0  0  0
  5 39  1  0  0  0
  5 40  1  0  0  0
  6 14  1  0  0  0
  6  7  1  0  0  0
  6  9  1  0  0  0
  7  8  1  0  0  0
  7 41  1  0  0  0
  7 42  1  0  0  0
  8 43  1  0  0  0
  8 44  1  0  0  0
  9 10  2  0  0  0
  9 11  1  0  0  0
 11 12  1  0  0  0
 11 15  1  0  0  0
 12 13  2  0  0  0
 12 14  1  0  0  0
 14 45  1  0  0  0
 15 16  1  0  0  0
 15 46  1  0  0  0
 15 47  1  0  0  0
 16 17  2  0  0  0
 16 18  1  0  0  0
 18 19  1  0  0  0
 18 48  1  0  0  0
 19 20  1  0  0  0
 19 49  1  0  0  0
 19 50  1  0  0  0
 20 21  2  0  0  0
 20 22  1  0  0  0
 22 23  1  0  0  0
 22 51  1  0  0  0
 23 28  2  0  0  0
 23 24  1  0  0  0
 24 25  2  0  0  0
 24 52  1  0  0  0
 25 26  1  0  0  0
 25 53  1  0  0  0
 26 27  2  0  0  0
 26 30  1  0  0  0
 27 28  1  0  0  0
 27 54  1  0  0  0
 28 29  1  0  0  0
 29 55  1  0  0  0
 29 56  1  0  0  0
 29 57  1  0  0  0
M  END
> <i_i_glide_confnum>
177

> <i_i_glide_lignum>
3722

> <i_i_glide_posenum>
64

> <i_i_glide_rotatable_bonds>
8

> <i_m_Source_File_Index>
32

> <b_m_subgroup_collapsed>
0

> <r_i_docking_score>
-5.09963

> <r_i_glide_ecoul>
-3.79486

> <r_i_glide_eff_state_penalty>
0

> <r_i_glide_einternal>
32.4749

> <r_i_glide_emodel>
-47.1602

> <r_i_glide_energy>
-48.7404

> <r_i_glide_erotb>
0.617506

> <r_i_glide_esite>
-0.0936456

> <r_i_glide_evdw>
-44.9455

> <r_i_glide_gscore>
-5.09963

> <r_i_glide_hbond>
-0.0381873

> <r_i_glide_ligand_efficiency>
-0.169988

> <r_i_glide_ligand_efficiency_ln>
-1.15869

> <r_i_glide_ligand_efficiency_sa>
-0.528191

> <r_i_glide_lipo>
-2.07565

> <r_i_glide_metal>
0

> <r_i_glide_rewards>
-0.693147

> <s_i_glide_gridfile>
wee1_glide-grid

> <s_m_Source_File>
wee1_decoys_glide_SP.sdf

> <s_m_Source_Path>
/Users/zhangxujun/Desktop

> <s_m_entry_id>
307

> <s_m_entry_name>
wee1_decoys_glide_SP.32

> <s_m_subgroup_title>
wee1_decoys_glide_SP

> <s_m_subgroupid>
wee1_decoys_glide_SP


$$$$
