ZINC09155191_1215
                    3D
 Schrodinger Suite 2024-2.
 58 62  0  0  1  0            999 V2000
   -0.2557   50.0720   17.9613 C   0  0  0  0  0  0
    1.1420   50.0353   18.6084 C   0  0  0  0  0  0
    1.7627   51.4153   18.9854 C   0  0  1  0  0  0
    1.1390   51.9691   20.2742 C   0  0  0  0  0  0
   -0.0644   52.0895   20.5242 O   0  0  0  0  0  0
    2.1836   52.2826   21.0675 N   0  0  0  0  0  0
    3.3695   51.7641   20.6627 C   0  0  0  0  0  0
    4.4330   51.7096   21.2789 O   0  0  0  0  0  0
    3.1043   51.2155   19.4760 N   0  0  0  0  0  0
    2.0855   53.2332   22.0966 N   0  0  0  0  0  0
    2.0648   52.8189   23.3820 C   0  0  0  0  0  0
    1.9047   51.6411   23.7067 O   0  0  0  0  0  0
    2.2594   53.9131   24.4477 C   0  0  0  0  0  0
    3.8708   54.1306   26.3994 C   0  0  0  0  0  0
    4.5037   53.3866   27.5916 C   0  0  0  0  0  0
    3.4091   52.9950   28.5629 C   0  0  0  0  0  0
    2.0583   52.8736   28.2255 C   0  0  0  0  0  0
    1.2804   52.5183   29.3416 C   0  0  0  0  0  0
    2.0212   52.3339   30.4967 C   0  0  0  0  0  0
    3.7141   52.5346   30.2089 S   0  0  0  0  0  0
    1.5061   53.1562   26.8227 C   0  0  2  0  0  0
    1.1045   54.1627   26.8698 H   0  0  0  0  0  0
    0.4905   52.1110   26.3476 C   0  0  0  0  0  0
    0.4351   50.7461   26.6470 C   0  0  0  0  0  0
   -0.6218   50.0509   26.0614 C   0  0  0  0  0  0
   -1.4233   50.8630   25.2875 C   0  0  0  0  0  0
   -0.8616   52.4945   25.3032 S   0  0  0  0  0  0
    1.7774   52.3936   17.7788 C   0  0  0  0  0  0
    2.6451   52.1380   16.7062 C   0  0  0  0  0  0
    2.6677   52.9680   15.5905 C   0  0  0  0  0  0
    1.8018   54.0559   15.5235 C   0  0  0  0  0  0
    0.9172   54.3196   16.5649 C   0  0  0  0  0  0
    0.8977   53.4864   17.6800 C   0  0  0  0  0  0
   -0.6098   49.0587   17.7573 H   0  0  0  0  0  0
   -0.9875   50.5550   18.6108 H   0  0  0  0  0  0
   -0.2437   50.6109   17.0122 H   0  0  0  0  0  0
    1.8175   49.5204   17.9204 H   0  0  0  0  0  0
    1.1081   49.3840   19.4830 H   0  0  0  0  0  0
    3.8432   50.8983   18.8499 H   0  0  0  0  0  0
    2.3042   54.1700   21.7852 H   0  0  0  0  0  0
    1.3480   54.4931   24.6031 H   0  0  0  0  0  0
    3.0381   54.5973   24.1072 H   0  0  0  0  0  0
    4.6215   54.2371   25.6133 H   0  0  0  0  0  0
    3.4684   55.1099   26.6657 H   0  0  0  0  0  0
    5.0243   52.4971   27.2409 H   0  0  0  0  0  0
    5.2587   54.0109   28.0721 H   0  0  0  0  0  0
    0.2060   52.4029   29.3039 H   0  0  0  0  0  0
    1.6534   52.0688   31.4794 H   0  0  0  0  0  0
    1.1593   50.2577   27.2819 H   0  0  0  0  0  0
   -0.7935   48.9932   26.2140 H   0  0  0  0  0  0
   -2.3047   50.5881   24.7281 H   0  0  0  0  0  0
    3.3204   51.2964   16.7367 H   0  0  0  0  0  0
    3.3501   52.7608   14.7770 H   0  0  0  0  0  0
    1.8187   54.7013   14.6576 H   0  0  0  0  0  0
    0.2501   55.1666   16.5103 H   0  0  0  0  0  0
    0.1946   53.7131   18.4684 H   0  0  0  0  0  0
    2.6965   53.2968   25.8177 N   0  3  1  0  0  0
    3.0612   52.3730   25.6155 H   0  0  0  0  0  0
  1  2  1  0  0  0
  1 34  1  0  0  0
  1 35  1  0  0  0
  1 36  1  0  0  0
  2  3  1  0  0  0
  2 37  1  0  0  0
  2 38  1  0  0  0
  3  9  1  0  0  0
  3  4  1  0  0  0
  3 28  1  0  0  0
  4  5  2  0  0  0
  4  6  1  0  0  0
  6  7  1  0  0  0
  6 10  1  0  0  0
  7  8  2  0  0  0
  7  9  1  0  0  0
  9 39  1  0  0  0
 10 11  1  0  0  0
 10 40  1  0  0  0
 11 12  2  0  0  0
 11 13  1  0  0  0
 13 41  1  0  0  0
 13 42  1  0  0  0
 13 57  1  0  0  0
 14 15  1  0  0  0
 14 43  1  0  0  0
 14 44  1  0  0  0
 14 57  1  0  0  0
 15 16  1  0  0  0
 15 45  1  0  0  0
 15 46  1  0  0  0
 16 20  1  0  0  0
 16 17  2  0  0  0
 17 18  1  0  0  0
 17 21  1  0  0  0
 18 19  2  0  0  0
 18 47  1  0  0  0
 19 20  1  0  0  0
 19 48  1  0  0  0
 21 22  1  0  0  0
 21 23  1  0  0  0
 21 57  1  0  0  0
 23 27  1  0  0  0
 23 24  2  0  0  0
 24 25  1  0  0  0
 24 49  1  0  0  0
 25 26  2  0  0  0
 25 50  1  0  0  0
 26 27  1  0  0  0
 26 51  1  0  0  0
 28 33  2  0  0  0
 28 29  1  0  0  0
 29 30  2  0  0  0
 29 52  1  0  0  0
 30 31  1  0  0  0
 30 53  1  0  0  0
 31 32  2  0  0  0
 31 54  1  0  0  0
 32 33  1  0  0  0
 32 55  1  0  0  0
 33 56  1  0  0  0
 57 58  1  0  0  0
M  CHG  1  57   1
M  END
> <i_i_glide_confnum>
48

> <i_i_glide_lignum>
1216

> <i_i_glide_posenum>
235

> <i_i_glide_rotatable_bonds>
7

> <i_m_Source_File_Index>
1015

> <b_m_subgroup_collapsed>
0

> <r_i_docking_score>
-5.00687

> <r_i_glide_ecoul>
-8.4754

> <r_i_glide_eff_state_penalty>
0

> <r_i_glide_einternal>
3.97401

> <r_i_glide_emodel>
-58.6904

> <r_i_glide_energy>
-45.6004

> <r_i_glide_erotb>
0.524791

> <r_i_glide_esite>
-0.147908

> <r_i_glide_evdw>
-37.125

> <r_i_glide_gscore>
-5.00687

> <r_i_glide_hbond>
-0.27409

> <r_i_glide_ligand_efficiency>
-0.151723

> <r_i_glide_ligand_efficiency_ln>
-1.1135

> <r_i_glide_ligand_efficiency_sa>
-0.486658

> <r_i_glide_lipo>
-1.58045

> <r_i_glide_metal>
0

> <r_i_glide_rewards>
-0.401658

> <s_i_glide_gridfile>
wee1_glide-grid

> <s_m_Source_File>
wee1_decoys_glide_SP.sdf

> <s_m_Source_Path>
/Users/zhangxujun/Desktop

> <s_m_entry_id>
1290

> <s_m_entry_name>
wee1_decoys_glide_SP.1015

> <s_m_subgroup_title>
wee1_decoys_glide_SP

> <s_m_subgroupid>
wee1_decoys_glide_SP


$$$$
