ZINC02076778_2712
                    3D
 Schrodinger Suite 2024-2.
 39 41  0  0  1  0            999 V2000
    4.0937   54.4584   29.8103 C   0  0  0  0  0  0
    3.0837   53.6133   29.0507 C   0  0  0  0  0  0
    2.0899   52.9451   29.7789 C   0  0  0  0  0  0
    1.0689   52.2573   29.1255 C   0  0  0  0  0  0
    1.0205   52.2452   27.7343 C   0  0  0  0  0  0
    2.0084   52.8957   26.9974 C   0  0  0  0  0  0
    3.0660   53.5462   27.6406 C   0  0  0  0  0  0
    4.0237   54.1306   26.7962 N   0  0  0  0  0  0
    5.3630   53.9033   26.8029 C   0  0  0  0  0  0
    5.9857   53.2966   27.6730 O   0  0  0  0  0  0
    6.0721   54.4514   25.6325 C   0  0  0  0  0  0
    7.1041   55.1197   25.7535 O   0  0  0  0  0  0
    5.5022   54.0997   24.4601 N   0  0  0  0  0  0
    5.9816   54.4989   23.2740 N   0  0  0  0  0  0
    5.2362   54.1564   22.3030 C   0  0  0  0  0  0
    5.5046   54.5532   20.9173 C   0  0  0  0  0  0
    6.1955   55.7564   20.6621 C   0  0  0  0  0  0
    6.3977   56.1415   19.3457 C   0  0  0  0  0  0
    5.9784   55.3718   18.3016 C   0  0  0  0  0  0
    5.3313   54.1585   18.5025 C   0  0  0  0  0  0
    5.0850   53.7540   19.8235 C   0  0  0  0  0  0
    4.1644   52.0984   20.0823 Br  0  0  0  0  0  0
    6.3280   55.9752   17.1350 O   0  0  0  0  0  0
    6.7607   57.2619   17.4941 C   0  0  0  0  0  0
    7.0214   57.2517   18.8730 O   0  0  0  0  0  0
   -0.2584   51.4214   26.9213 Cl  0  0  0  0  0  0
    4.0633   55.4847   29.4481 H   0  0  0  0  0  0
    3.9151   54.4578   30.8796 H   0  0  0  0  0  0
    5.1046   54.0986   29.6817 H   0  0  0  0  0  0
    2.0852   52.9682   30.8588 H   0  0  0  0  0  0
    0.3047   51.7488   29.6971 H   0  0  0  0  0  0
    1.9617   52.8575   25.9186 H   0  0  0  0  0  0
    3.6428   54.6343   26.0103 H   0  0  0  0  0  0
    4.6757   53.5214   24.4269 H   0  0  0  0  0  0
    4.3316   53.5630   22.4309 H   0  0  0  0  0  0
    6.5425   56.3830   21.4707 H   0  0  0  0  0  0
    5.0169   53.5397   17.6744 H   0  0  0  0  0  0
    7.6526   57.5415   16.9314 H   0  0  0  0  0  0
    5.9678   57.9841   17.2828 H   0  0  0  0  0  0
  1  2  1  0  0  0
  1 27  1  0  0  0
  1 28  1  0  0  0
  1 29  1  0  0  0
  2  7  2  0  0  0
  2  3  1  0  0  0
  3  4  2  0  0  0
  3 30  1  0  0  0
  4  5  1  0  0  0
  4 31  1  0  0  0
  5  6  2  0  0  0
  5 26  1  0  0  0
  6  7  1  0  0  0
  6 32  1  0  0  0
  7  8  1  0  0  0
  8  9  1  0  0  0
  8 33  1  0  0  0
  9 10  2  0  0  0
  9 11  1  0  0  0
 11 12  2  0  0  0
 11 13  1  0  0  0
 13 14  1  0  0  0
 13 34  1  0  0  0
 14 15  2  0  0  0
 15 16  1  0  0  0
 15 35  1  0  0  0
 16 21  2  0  0  0
 16 17  1  0  0  0
 17 18  2  0  0  0
 17 36  1  0  0  0
 18 25  1  0  0  0
 18 19  1  0  0  0
 19 20  2  0  0  0
 19 23  1  0  0  0
 20 21  1  0  0  0
 20 37  1  0  0  0
 21 22  1  0  0  0
 23 24  1  0  0  0
 24 25  1  0  0  0
 24 38  1  0  0  0
 24 39  1  0  0  0
M  END
> <i_i_glide_confnum>
43

> <i_i_glide_lignum>
2713

> <i_i_glide_posenum>
269

> <i_i_glide_rotatable_bonds>
6

> <i_m_Source_File_Index>
1483

> <b_m_subgroup_collapsed>
0

> <r_i_docking_score>
-4.81573

> <r_i_glide_ecoul>
-1.33428

> <r_i_glide_eff_state_penalty>
0

> <r_i_glide_einternal>
6.12896

> <r_i_glide_emodel>
-48.3927

> <r_i_glide_energy>
-39.6143

> <r_i_glide_erotb>
0.518435

> <r_i_glide_esite>
-0.00738369

> <r_i_glide_evdw>
-38.2801

> <r_i_glide_gscore>
-4.81573

> <r_i_glide_hbond>
-0.32

> <r_i_glide_ligand_efficiency>
-0.185221

> <r_i_glide_ligand_efficiency_ln>
-1.13096

> <r_i_glide_ligand_efficiency_sa>
-0.548715

> <r_i_glide_lipo>
-1.34625

> <r_i_glide_metal>
0

> <r_i_glide_rewards>
-1.54639

> <s_i_glide_gridfile>
wee1_glide-grid

> <s_m_Source_File>
wee1_decoys_glide_SP.sdf

> <s_m_Source_Path>
/Users/zhangxujun/Desktop

> <s_m_entry_id>
1758

> <s_m_entry_name>
wee1_decoys_glide_SP.1483

> <s_m_subgroup_title>
wee1_decoys_glide_SP

> <s_m_subgroupid>
wee1_decoys_glide_SP


$$$$
