ZINC59331437_1060
                    3D
 Schrodinger Suite 2024-2.
 59 63  0  0  1  0            999 V2000
   -0.1074   51.7211   28.7103 C   0  0  0  0  0  0
   -0.0678   52.0971   30.0521 C   0  0  0  0  0  0
    0.9551   52.9295   30.5064 C   0  0  0  0  0  0
    1.9318   53.3945   29.6217 C   0  0  0  0  0  0
    1.8925   53.0302   28.2696 C   0  0  0  0  0  0
    0.8629   52.1904   27.8231 C   0  0  0  0  0  0
    2.9235   53.5121   27.3004 C   0  0  0  0  0  0
    2.7149   53.8007   26.0312 N   0  0  0  0  0  0
    3.9611   54.0968   25.5584 C   0  0  0  0  0  0
    4.3891   54.4487   24.2742 C   0  0  0  0  0  0
    5.7702   54.5840   24.0393 C   0  0  0  0  0  0
    6.6820   54.4791   25.0997 C   0  0  0  0  0  0
    6.2725   54.1806   26.4070 C   0  0  0  0  0  0
    4.8997   53.9761   26.5920 C   0  0  0  0  0  0
    4.2255   53.6121   27.7190 O   0  0  0  0  0  0
    6.3056   54.8969   22.7687 N   0  0  0  0  0  0
    5.9329   54.5760   21.4877 C   0  0  0  0  0  0
    4.7042   53.4750   21.1144 S   0  0  0  0  0  0
    6.6871   55.2761   20.5678 N   0  0  0  0  0  0
    6.8432   55.1089   19.2253 C   0  0  0  0  0  0
    6.5897   54.0769   18.6028 O   0  0  0  0  0  0
    7.3571   56.2974   18.4584 C   0  0  0  0  0  0
    6.6719   56.7055   17.3135 C   0  0  0  0  0  0
    7.1434   57.7663   16.5497 C   0  0  0  0  0  0
    8.3191   58.4497   16.8865 C   0  0  0  0  0  0
    8.9873   58.0805   18.0780 C   0  0  0  0  0  0
    8.5200   56.9847   18.8290 C   0  0  0  0  0  0
   10.1041   58.8763   18.6292 N   0  3  0  0  0  0
   11.0704   58.2844   19.0970 O   0  0  0  0  0  0
    9.9749   60.0967   18.6884 O   0  5  0  0  0  0
    8.7789   59.3956   15.9659 N   0  0  0  0  0  0
   10.1942   59.7505   15.7493 C   0  0  0  0  0  0
   10.4829   60.0851   14.2709 C   0  0  0  0  0  0
    9.5781   61.2096   13.7476 C   0  0  0  0  0  0
    8.1134   60.8765   14.0551 C   0  0  0  0  0  0
    7.9040   60.5048   15.5385 C   0  0  0  0  0  0
    2.9087   54.2094   30.0816 F   0  0  0  0  0  0
   -0.8850   51.0544   28.3618 H   0  0  0  0  0  0
   -0.8172   51.7308   30.7433 H   0  0  0  0  0  0
    0.9855   53.2140   31.5489 H   0  0  0  0  0  0
    0.8168   51.8859   26.7864 H   0  0  0  0  0  0
    3.6563   54.5750   23.4916 H   0  0  0  0  0  0
    7.7359   54.6037   24.8923 H   0  0  0  0  0  0
    6.9693   54.0704   27.2261 H   0  0  0  0  0  0
    7.1881   55.3819   22.8374 H   0  0  0  0  0  0
    7.0387   56.1554   20.9020 H   0  0  0  0  0  0
    5.7741   56.1924   16.9920 H   0  0  0  0  0  0
    6.6093   58.0210   15.6457 H   0  0  0  0  0  0
    9.0646   56.6870   19.7164 H   0  0  0  0  0  0
   10.8278   58.9065   16.0306 H   0  0  0  0  0  0
   10.4708   60.5969   16.3793 H   0  0  0  0  0  0
   10.3806   59.1829   13.6630 H   0  0  0  0  0  0
   11.5261   60.3856   14.1669 H   0  0  0  0  0  0
    9.8473   62.1544   14.2244 H   0  0  0  0  0  0
    9.7202   61.3489   12.6750 H   0  0  0  0  0  0
    7.4846   61.7352   13.8119 H   0  0  0  0  0  0
    7.7518   60.0625   13.4225 H   0  0  0  0  0  0
    6.8520   60.2512   15.6792 H   0  0  0  0  0  0
    8.0854   61.3679   16.1817 H   0  0  0  0  0  0
  1  6  2  0  0  0
  1  2  1  0  0  0
  1 38  1  0  0  0
  2  3  2  0  0  0
  2 39  1  0  0  0
  3  4  1  0  0  0
  3 40  1  0  0  0
  4  5  2  0  0  0
  4 37  1  0  0  0
  5  6  1  0  0  0
  5  7  1  0  0  0
  6 41  1  0  0  0
  7 15  1  0  0  0
  7  8  2  0  0  0
  8  9  1  0  0  0
  9 14  2  0  0  0
  9 10  1  0  0  0
 10 11  2  0  0  0
 10 42  1  0  0  0
 11 12  1  0  0  0
 11 16  1  0  0  0
 12 13  2  0  0  0
 12 43  1  0  0  0
 13 14  1  0  0  0
 13 44  1  0  0  0
 14 15  1  0  0  0
 16 17  1  0  0  0
 16 45  1  0  0  0
 17 18  2  0  0  0
 17 19  1  0  0  0
 19 20  1  0  0  0
 19 46  1  0  0  0
 20 21  2  0  0  0
 20 22  1  0  0  0
 22 27  2  0  0  0
 22 23  1  0  0  0
 23 24  2  0  0  0
 23 47  1  0  0  0
 24 25  1  0  0  0
 24 48  1  0  0  0
 25 26  2  0  0  0
 25 31  1  0  0  0
 26 27  1  0  0  0
 26 28  1  0  0  0
 27 49  1  0  0  0
 28 29  2  0  0  0
 28 30  1  0  0  0
 31 36  1  0  0  0
 31 32  1  0  0  0
 32 33  1  0  0  0
 32 50  1  0  0  0
 32 51  1  0  0  0
 33 34  1  0  0  0
 33 52  1  0  0  0
 33 53  1  0  0  0
 34 35  1  0  0  0
 34 54  1  0  0  0
 34 55  1  0  0  0
 35 36  1  0  0  0
 35 56  1  0  0  0
 35 57  1  0  0  0
 36 58  1  0  0  0
 36 59  1  0  0  0
M  CHG  2  28   1  30  -1
M  END
> <i_i_glide_confnum>
13

> <i_i_glide_lignum>
1061

> <i_i_glide_posenum>
367

> <i_i_glide_rotatable_bonds>
8

> <i_m_Source_File_Index>
2474

> <b_m_subgroup_collapsed>
0

> <r_i_docking_score>
-5.0671

> <r_i_glide_ecoul>
-3.27063

> <r_i_glide_eff_state_penalty>
0

> <r_i_glide_einternal>
8.34596

> <r_i_glide_emodel>
-58.2362

> <r_i_glide_energy>
-48.5121

> <r_i_glide_erotb>
0.532798

> <r_i_glide_esite>
-0.225248

> <r_i_glide_evdw>
-45.2415

> <r_i_glide_gscore>
-5.0671

> <r_i_glide_hbond>
0

> <r_i_glide_ligand_efficiency>
-0.136949

> <r_i_glide_ligand_efficiency_ln>
-1.09894

> <r_i_glide_ligand_efficiency_sa>
-0.456344

> <r_i_glide_lipo>
-2.18016

> <r_i_glide_metal>
0

> <r_i_glide_rewards>
-0.44183

> <s_i_glide_gridfile>
wee1_glide-grid

> <s_m_Source_File>
wee1_decoys_glide_SP.sdf

> <s_m_Source_Path>
/Users/zhangxujun/Desktop

> <s_m_entry_id>
2749

> <s_m_entry_name>
wee1_decoys_glide_SP.2474

> <s_m_subgroup_title>
wee1_decoys_glide_SP

> <s_m_subgroupid>
wee1_decoys_glide_SP


$$$$
