ZINC12494332_4476
                    3D
 Schrodinger Suite 2024-2.
 61 64  0  0  1  0            999 V2000
    9.9706   49.8062   16.4443 C   0  0  0  0  0  0
    9.2643   51.0341   15.9006 C   0  0  0  0  0  0
    9.1416   52.1784   16.6891 C   0  0  0  0  0  0
    8.4699   53.2971   16.2013 C   0  0  0  0  0  0
    7.8906   53.2767   14.9295 C   0  0  0  0  0  0
    8.0121   52.1261   14.1272 C   0  0  0  0  0  0
    8.7048   51.0153   14.6209 C   0  0  0  0  0  0
    7.4453   52.0566   12.7150 C   0  0  0  0  0  0
    7.2163   54.4252   14.4973 N   0  0  0  0  0  0
    5.4580   54.5179   14.6618 S   0  0  0  0  0  0
    4.8848   53.2874   14.1047 O   0  0  0  0  0  0
    5.0673   55.8379   14.1558 O   0  0  0  0  0  0
    5.1822   54.5171   16.4293 C   0  0  0  0  0  0
    5.2267   55.7183   17.1417 C   0  0  0  0  0  0
    5.1014   55.7031   18.5285 C   0  0  0  0  0  0
    4.9463   54.4841   19.1994 C   0  0  0  0  0  0
    4.8498   53.2967   18.4783 C   0  0  0  0  0  0
    4.9789   53.3064   17.0939 C   0  0  0  0  0  0
    4.8484   54.3953   20.5985 N   0  0  0  0  0  0
    5.6800   54.8480   21.5880 C   0  0  0  0  0  0
    7.1042   55.6967   21.2817 S   0  0  0  0  0  0
    5.1826   54.4967   22.8198 N   0  0  0  0  0  0
    5.5925   54.7295   24.0976 C   0  0  0  0  0  0
    6.7018   55.1686   24.4157 O   0  0  0  0  0  0
    4.5777   54.3995   25.1815 C   0  0  0  0  0  0
    3.2637   54.0018   24.8785 C   0  0  0  0  0  0
    2.3606   53.6965   25.8933 C   0  0  0  0  0  0
    2.7269   53.8057   27.2384 C   0  0  0  0  0  0
    4.0305   54.2108   27.5440 C   0  0  0  0  0  0
    4.9450   54.4961   26.5319 C   0  0  0  0  0  0
    1.7463   53.4968   28.3208 C   0  0  0  0  0  0
    1.6473   54.3160   29.4545 C   0  0  0  0  0  0
    0.7369   54.0209   30.4683 C   0  0  0  0  0  0
   -0.0767   52.8966   30.3590 C   0  0  0  0  0  0
   -0.0009   52.0782   29.2365 C   0  0  0  0  0  0
    0.9050   52.3794   28.2220 C   0  0  0  0  0  0
    9.5312   48.8972   16.0309 H   0  0  0  0  0  0
   11.0316   49.8300   16.1941 H   0  0  0  0  0  0
    9.8660   49.7401   17.5293 H   0  0  0  0  0  0
    9.5661   52.2029   17.6814 H   0  0  0  0  0  0
    8.3827   54.1731   16.8284 H   0  0  0  0  0  0
    8.8033   50.1286   14.0102 H   0  0  0  0  0  0
    8.0927   51.4620   12.0695 H   0  0  0  0  0  0
    6.4546   51.5996   12.7234 H   0  0  0  0  0  0
    7.3789   53.0435   12.2553 H   0  0  0  0  0  0
    7.6483   55.3027   14.7414 H   0  0  0  0  0  0
    5.3758   56.6583   16.6290 H   0  0  0  0  0  0
    5.1449   56.6336   19.0753 H   0  0  0  0  0  0
    4.7063   52.3522   18.9833 H   0  0  0  0  0  0
    4.9455   52.3708   16.5518 H   0  0  0  0  0  0
    4.0969   53.7920   20.8977 H   0  0  0  0  0  0
    4.2707   54.0721   22.7808 H   0  0  0  0  0  0
    2.9125   53.9162   23.8612 H   0  0  0  0  0  0
    1.3585   53.3924   25.6272 H   0  0  0  0  0  0
    4.3482   54.2941   28.5732 H   0  0  0  0  0  0
    5.9438   54.7983   26.8147 H   0  0  0  0  0  0
    2.2706   55.1937   29.5481 H   0  0  0  0  0  0
    0.6671   54.6560   31.3396 H   0  0  0  0  0  0
   -0.7671   52.6513   31.1547 H   0  0  0  0  0  0
   -0.6343   51.2047   29.1587 H   0  0  0  0  0  0
    0.9620   51.7247   27.3644 H   0  0  0  0  0  0
  1  2  1  0  0  0
  1 37  1  0  0  0
  1 38  1  0  0  0
  1 39  1  0  0  0
  2  7  2  0  0  0
  2  3  1  0  0  0
  3  4  2  0  0  0
  3 40  1  0  0  0
  4  5  1  0  0  0
  4 41  1  0  0  0
  5  6  2  0  0  0
  5  9  1  0  0  0
  6  7  1  0  0  0
  6  8  1  0  0  0
  7 42  1  0  0  0
  8 43  1  0  0  0
  8 44  1  0  0  0
  8 45  1  0  0  0
  9 10  1  0  0  0
  9 46  1  0  0  0
 10 11  2  0  0  0
 10 12  2  0  0  0
 10 13  1  0  0  0
 13 18  2  0  0  0
 13 14  1  0  0  0
 14 15  2  0  0  0
 14 47  1  0  0  0
 15 16  1  0  0  0
 15 48  1  0  0  0
 16 17  2  0  0  0
 16 19  1  0  0  0
 17 18  1  0  0  0
 17 49  1  0  0  0
 18 50  1  0  0  0
 19 20  1  0  0  0
 19 51  1  0  0  0
 20 21  2  0  0  0
 20 22  1  0  0  0
 22 23  1  0  0  0
 22 52  1  0  0  0
 23 24  2  0  0  0
 23 25  1  0  0  0
 25 30  2  0  0  0
 25 26  1  0  0  0
 26 27  2  0  0  0
 26 53  1  0  0  0
 27 28  1  0  0  0
 27 54  1  0  0  0
 28 29  2  0  0  0
 28 31  1  0  0  0
 29 30  1  0  0  0
 29 55  1  0  0  0
 30 56  1  0  0  0
 31 36  2  0  0  0
 31 32  1  0  0  0
 32 33  2  0  0  0
 32 57  1  0  0  0
 33 34  1  0  0  0
 33 58  1  0  0  0
 34 35  2  0  0  0
 34 59  1  0  0  0
 35 36  1  0  0  0
 35 60  1  0  0  0
 36 61  1  0  0  0
M  END
> <i_i_glide_confnum>
220

> <i_i_glide_lignum>
4477

> <i_i_glide_posenum>
152

> <i_i_glide_rotatable_bonds>
9

> <i_m_Source_File_Index>
2158

> <b_m_subgroup_collapsed>
0

> <r_i_docking_score>
-5.13442

> <r_i_glide_ecoul>
-3.56198

> <r_i_glide_eff_state_penalty>
0

> <r_i_glide_einternal>
5.89166

> <r_i_glide_emodel>
-61.8769

> <r_i_glide_energy>
-50.0027

> <r_i_glide_erotb>
0.69458

> <r_i_glide_esite>
-0.000484884

> <r_i_glide_evdw>
-46.4407

> <r_i_glide_gscore>
-5.13442

> <r_i_glide_hbond>
0

> <r_i_glide_ligand_efficiency>
-0.142623

> <r_i_glide_ligand_efficiency_ln>
-1.12019

> <r_i_glide_ligand_efficiency_sa>
-0.47093

> <r_i_glide_lipo>
-2.70572

> <r_i_glide_metal>
0

> <r_i_glide_rewards>
-0.266466

> <s_i_glide_gridfile>
wee1_glide-grid

> <s_m_Source_File>
wee1_decoys_glide_SP.sdf

> <s_m_Source_Path>
/Users/zhangxujun/Desktop

> <s_m_entry_id>
2433

> <s_m_entry_name>
wee1_decoys_glide_SP.2158

> <s_m_subgroup_title>
wee1_decoys_glide_SP

> <s_m_subgroupid>
wee1_decoys_glide_SP


$$$$
