ZINC39656886_893
                    3D
 Schrodinger Suite 2024-2.
 67 70  0  0  1  0            999 V2000
    2.0000   54.4971   23.5989 C   0  0  0  0  0  0
    2.1613   53.1478   24.3143 C   0  0  1  0  0  0
    3.0808   52.7221   23.9125 H   0  0  0  0  0  0
    2.4206   53.2990   25.8257 C   0  0  0  0  0  0
    3.6955   53.6972   26.2518 C   0  0  0  0  0  0
    4.0176   53.7181   27.6074 C   0  0  0  0  0  0
    3.0597   53.3512   28.5495 C   0  0  0  0  0  0
    1.7738   53.0053   28.1475 C   0  0  0  0  0  0
    1.4561   52.9827   26.7922 C   0  0  0  0  0  0
    3.5141   53.2967   30.3979 Br  0  0  0  0  0  0
    1.1508   52.1542   23.9250 N   0  0  0  0  0  0
   -0.1922   52.2625   23.8951 C   0  0  0  0  0  0
   -0.7948   53.2965   24.1609 O   0  0  0  0  0  0
   -1.0132   51.0027   23.5229 C   0  0  1  0  0  0
   -2.0608   51.2912   23.5894 H   0  0  0  0  0  0
   -0.7210   50.5592   22.0844 C   0  0  0  0  0  0
    0.4009   49.6328   22.2688 N   0  0  0  0  0  0
    0.4803   49.1147   23.6442 C   0  0  0  0  0  0
   -0.7115   49.7434   24.3958 C   0  0  0  0  0  0
   -1.8767   48.7071   24.3684 C   0  0  0  0  0  0
   -3.1637   49.2402   25.0419 C   0  0  0  0  0  0
   -2.8278   49.6964   26.4817 N   0  3  0  0  0  0
   -1.5968   50.6193   26.6041 C   0  0  0  0  0  0
   -0.4171   49.9128   25.9088 C   0  0  0  0  0  0
    1.4002   49.4002   21.3835 C   0  0  0  0  0  0
    2.3144   48.6206   21.6294 O   0  0  0  0  0  0
    1.4104   50.1328   20.0677 C   0  0  0  0  0  0
    1.5157   51.5300   20.0538 C   0  0  0  0  0  0
    1.5979   52.2199   18.8492 C   0  0  0  0  0  0
    1.6058   51.5368   17.6374 C   0  0  0  0  0  0
    1.5044   50.1387   17.6498 C   0  0  0  0  0  0
    1.4194   49.4208   18.8553 C   0  0  0  0  0  0
    1.3401   48.0358   18.9044 O   0  0  0  0  0  0
    1.6193   47.2768   17.7333 C   0  0  0  0  0  0
    1.7274   52.3048   16.4959 O   0  0  0  0  0  0
    1.9472   51.6540   15.2503 C   0  0  0  0  0  0
    2.8506   55.1544   23.7830 H   0  0  0  0  0  0
    1.9091   54.3707   22.5189 H   0  0  0  0  0  0
    1.1046   55.0011   23.9440 H   0  0  0  0  0  0
    4.4596   53.9412   25.5285 H   0  0  0  0  0  0
    5.0148   53.9874   27.9238 H   0  0  0  0  0  0
    1.0294   52.7356   28.8834 H   0  0  0  0  0  0
    0.4531   52.7108   26.5101 H   0  0  0  0  0  0
    1.5212   51.2398   23.7108 H   0  0  0  0  0  0
   -1.5967   50.0175   21.7223 H   0  0  0  0  0  0
   -0.5535   51.4231   21.4434 H   0  0  0  0  0  0
    1.3957   49.5121   24.0860 H   0  0  0  0  0  0
    0.5425   48.0403   23.7621 H   0  0  0  0  0  0
   -2.1189   48.4357   23.3405 H   0  0  0  0  0  0
   -1.5745   47.7655   24.8339 H   0  0  0  0  0  0
   -3.6079   50.0985   24.5384 H   0  0  0  0  0  0
   -3.9275   48.4677   25.1399 H   0  0  0  0  0  0
   -3.6312   50.1254   26.9201 H   0  0  0  0  0  0
   -1.8658   51.5804   26.1648 H   0  0  0  0  0  0
   -1.4270   50.7413   27.6768 H   0  0  0  0  0  0
   -0.1876   48.9591   26.3914 H   0  0  0  0  0  0
    0.4831   50.5055   26.0552 H   0  0  0  0  0  0
    1.5568   52.0963   20.9744 H   0  0  0  0  0  0
    1.6890   53.2957   18.8553 H   0  0  0  0  0  0
    1.5386   49.6049   16.7171 H   0  0  0  0  0  0
    1.5669   46.2167   17.9763 H   0  0  0  0  0  0
    0.8872   47.4627   16.9468 H   0  0  0  0  0  0
    2.6216   47.4789   17.3527 H   0  0  0  0  0  0
    2.0993   52.4045   14.4730 H   0  0  0  0  0  0
    2.8390   51.0246   15.2794 H   0  0  0  0  0  0
    1.0899   51.0482   14.9562 H   0  0  0  0  0  0
   -2.5901   48.8938   27.0667 H   0  0  0  0  0  0
  1  2  1  0  0  0
  1 37  1  0  0  0
  1 38  1  0  0  0
  1 39  1  0  0  0
  2  3  1  0  0  0
  2  4  1  0  0  0
  2 11  1  0  0  0
  4  9  2  0  0  0
  4  5  1  0  0  0
  5  6  2  0  0  0
  5 40  1  0  0  0
  6  7  1  0  0  0
  6 41  1  0  0  0
  7  8  2  0  0  0
  7 10  1  0  0  0
  8  9  1  0  0  0
  8 42  1  0  0  0
  9 43  1  0  0  0
 11 12  1  0  0  0
 11 44  1  0  0  0
 12 13  2  0  0  0
 12 14  1  0  0  0
 14 15  1  0  0  0
 14 19  1  0  0  0
 14 16  1  0  0  0
 16 17  1  0  0  0
 16 45  1  0  0  0
 16 46  1  0  0  0
 17 18  1  0  0  0
 17 25  1  0  0  0
 18 19  1  0  0  0
 18 47  1  0  0  0
 18 48  1  0  0  0
 19 24  1  0  0  0
 19 20  1  0  0  0
 20 21  1  0  0  0
 20 49  1  0  0  0
 20 50  1  0  0  0
 21 22  1  0  0  0
 21 51  1  0  0  0
 21 52  1  0  0  0
 22 23  1  0  0  0
 22 53  1  0  0  0
 22 67  1  0  0  0
 23 24  1  0  0  0
 23 54  1  0  0  0
 23 55  1  0  0  0
 24 56  1  0  0  0
 24 57  1  0  0  0
 25 26  2  0  0  0
 25 27  1  0  0  0
 27 32  2  0  0  0
 27 28  1  0  0  0
 28 29  2  0  0  0
 28 58  1  0  0  0
 29 30  1  0  0  0
 29 59  1  0  0  0
 30 31  2  0  0  0
 30 35  1  0  0  0
 31 32  1  0  0  0
 31 60  1  0  0  0
 32 33  1  0  0  0
 33 34  1  0  0  0
 34 61  1  0  0  0
 34 62  1  0  0  0
 34 63  1  0  0  0
 35 36  1  0  0  0
 36 64  1  0  0  0
 36 65  1  0  0  0
 36 66  1  0  0  0
M  CHG  1  22   1
M  END
> <i_i_glide_confnum>
141

> <i_i_glide_lignum>
894

> <i_i_glide_posenum>
80

> <i_i_glide_rotatable_bonds>
8

> <i_m_Source_File_Index>
1346

> <b_m_subgroup_collapsed>
0

> <r_i_docking_score>
-4.26042

> <r_i_glide_ecoul>
-6.82525

> <r_i_glide_eff_state_penalty>
0

> <r_i_glide_einternal>
6.59378

> <r_i_glide_emodel>
-49.029

> <r_i_glide_energy>
-39.8649

> <r_i_glide_erotb>
0.36502

> <r_i_glide_esite>
-0.1

> <r_i_glide_evdw>
-33.0397

> <r_i_glide_gscore>
-4.26042

> <r_i_glide_hbond>
-0.174173

> <r_i_glide_ligand_efficiency>
-0.125306

> <r_i_glide_ligand_efficiency_ln>
-0.941245

> <r_i_glide_ligand_efficiency_sa>
-0.405944

> <r_i_glide_lipo>
-1.4357

> <r_i_glide_metal>
0

> <r_i_glide_rewards>
-0.239787

> <s_i_glide_gridfile>
wee1_glide-grid

> <s_m_Source_File>
wee1_decoys_glide_SP.sdf

> <s_m_Source_Path>
/Users/zhangxujun/Desktop

> <s_m_entry_id>
1621

> <s_m_entry_name>
wee1_decoys_glide_SP.1346

> <s_m_subgroup_title>
wee1_decoys_glide_SP

> <s_m_subgroupid>
wee1_decoys_glide_SP


$$$$
