ZINC65074669_151
                    3D
 Schrodinger Suite 2024-2.
 61 64  0  0  1  0            999 V2000
   -0.1506   51.7141   27.9651 C   0  0  0  0  0  0
   -0.3795   51.1272   26.5846 C   0  0  0  0  0  0
    0.3042   49.9713   26.2039 C   0  0  0  0  0  0
    0.0664   49.3946   24.9618 C   0  0  0  0  0  0
   -0.8584   49.9811   24.0960 C   0  0  0  0  0  0
   -1.5180   51.1586   24.4581 C   0  0  0  0  0  0
   -1.2765   51.7322   25.7031 C   0  0  0  0  0  0
   -1.2135   49.2024   22.5229 S   0  0  0  0  0  0
   -2.5544   49.6464   22.1254 O   0  0  0  0  0  0
   -0.8978   47.7788   22.6779 O   0  0  0  0  0  0
   -0.0475   49.9130   21.3887 N   0  0  0  0  0  0
    1.3750   49.4745   21.4097 C   0  0  0  0  0  0
    2.3142   50.5339   22.0360 C   0  0  0  0  0  0
    2.1094   51.9642   21.4687 C   0  0  0  0  0  0
    0.5986   52.3117   21.5666 C   0  0  0  0  0  0
   -0.3073   51.2758   20.8743 C   0  0  0  0  0  0
    2.9712   53.0106   22.2162 C   0  0  0  0  0  0
    4.0620   53.5809   21.6865 N   0  3  0  0  0  0
    4.5220   53.3997   20.3204 C   0  0  0  0  0  0
    3.9041   52.1219   19.7678 C   0  0  0  0  0  0
    2.4769   52.0962   20.0479 N   0  0  0  0  0  0
    2.5914   53.3430   23.4601 N   0  0  0  0  0  0
    3.0574   54.5119   24.2197 C   0  0  0  0  0  0
    4.2951   54.3017   25.0855 C   0  0  0  0  0  0
    5.5556   54.5802   24.5422 C   0  0  0  0  0  0
    6.7043   54.4797   25.3233 C   0  0  0  0  0  0
    6.6098   54.0969   26.6600 C   0  0  0  0  0  0
    5.3611   53.8105   27.2106 C   0  0  0  0  0  0
    4.1995   53.9123   26.4345 C   0  0  0  0  0  0
    2.8585   53.5830   27.0757 C   0  0  0  0  0  0
    0.9059   51.6631   28.2359 H   0  0  0  0  0  0
   -0.4494   52.7640   28.0161 H   0  0  0  0  0  0
   -0.7135   51.1442   28.7085 H   0  0  0  0  0  0
    0.9964   49.4932   26.8814 H   0  0  0  0  0  0
    0.5822   48.4828   24.6946 H   0  0  0  0  0  0
   -2.2333   51.6157   23.7905 H   0  0  0  0  0  0
   -1.8062   52.6277   25.9912 H   0  0  0  0  0  0
    1.6678   49.2296   20.3890 H   0  0  0  0  0  0
    1.4492   48.5458   21.9734 H   0  0  0  0  0  0
    3.3506   50.2236   21.9078 H   0  0  0  0  0  0
    2.1523   50.5483   23.1137 H   0  0  0  0  0  0
    0.2909   52.4001   22.6070 H   0  0  0  0  0  0
    0.4312   53.2920   21.1260 H   0  0  0  0  0  0
   -0.1635   51.2679   19.7924 H   0  0  0  0  0  0
   -1.3555   51.5269   21.0383 H   0  0  0  0  0  0
    4.1907   54.2685   19.7496 H   0  0  0  0  0  0
    5.6090   53.3622   20.3005 H   0  0  0  0  0  0
    4.0484   52.0943   18.6862 H   0  0  0  0  0  0
    4.3941   51.2297   20.1555 H   0  0  0  0  0  0
    2.0412   51.3534   19.5169 H   0  0  0  0  0  0
    1.8018   52.8413   23.8422 H   0  0  0  0  0  0
    2.2273   54.8513   24.8380 H   0  0  0  0  0  0
    3.2264   55.2968   23.4886 H   0  0  0  0  0  0
    5.6604   54.8979   23.5158 H   0  0  0  0  0  0
    7.6650   54.6960   24.8823 H   0  0  0  0  0  0
    7.4986   54.0150   27.2692 H   0  0  0  0  0  0
    5.2972   53.5077   28.2454 H   0  0  0  0  0  0
    2.2802   54.4899   27.2505 H   0  0  0  0  0  0
    2.2771   52.9294   26.4267 H   0  0  0  0  0  0
    2.9809   53.0562   28.0213 H   0  0  0  0  0  0
    4.5385   54.2513   22.2711 H   0  0  0  0  0  0
  1  2  1  0  0  0
  1 31  1  0  0  0
  1 32  1  0  0  0
  1 33  1  0  0  0
  2  7  2  0  0  0
  2  3  1  0  0  0
  3  4  2  0  0  0
  3 34  1  0  0  0
  4  5  1  0  0  0
  4 35  1  0  0  0
  5  6  2  0  0  0
  5  8  1  0  0  0
  6  7  1  0  0  0
  6 36  1  0  0  0
  7 37  1  0  0  0
  8  9  2  0  0  0
  8 10  2  0  0  0
  8 11  1  0  0  0
 11 16  1  0  0  0
 11 12  1  0  0  0
 12 13  1  0  0  0
 12 38  1  0  0  0
 12 39  1  0  0  0
 13 14  1  0  0  0
 13 40  1  0  0  0
 13 41  1  0  0  0
 14 21  1  0  0  0
 14 15  1  0  0  0
 14 17  1  0  0  0
 15 16  1  0  0  0
 15 42  1  0  0  0
 15 43  1  0  0  0
 16 44  1  0  0  0
 16 45  1  0  0  0
 17 18  2  0  0  0
 17 22  1  0  0  0
 18 19  1  0  0  0
 18 61  1  0  0  0
 19 20  1  0  0  0
 19 46  1  0  0  0
 19 47  1  0  0  0
 20 21  1  0  0  0
 20 48  1  0  0  0
 20 49  1  0  0  0
 21 50  1  0  0  0
 22 23  1  0  0  0
 22 51  1  0  0  0
 23 24  1  0  0  0
 23 52  1  0  0  0
 23 53  1  0  0  0
 24 29  2  0  0  0
 24 25  1  0  0  0
 25 26  2  0  0  0
 25 54  1  0  0  0
 26 27  1  0  0  0
 26 55  1  0  0  0
 27 28  2  0  0  0
 27 56  1  0  0  0
 28 29  1  0  0  0
 28 57  1  0  0  0
 29 30  1  0  0  0
 30 58  1  0  0  0
 30 59  1  0  0  0
 30 60  1  0  0  0
M  CHG  1  18   1
M  END
> <i_i_glide_confnum>
93

> <i_i_glide_lignum>
152

> <i_i_glide_posenum>
331

> <i_i_glide_rotatable_bonds>
5

> <i_m_Source_File_Index>
3593

> <b_m_subgroup_collapsed>
0

> <r_i_docking_score>
-3.97824

> <r_i_glide_ecoul>
1.20749

> <r_i_glide_eff_state_penalty>
0

> <r_i_glide_einternal>
1.44196

> <r_i_glide_emodel>
-41.1426

> <r_i_glide_energy>
-32.6364

> <r_i_glide_erotb>
0.543029

> <r_i_glide_esite>
-0.00210608

> <r_i_glide_evdw>
-33.8439

> <r_i_glide_gscore>
-3.97824

> <r_i_glide_hbond>
0

> <r_i_glide_ligand_efficiency>
-0.132608

> <r_i_glide_ligand_efficiency_ln>
-0.9039

> <r_i_glide_ligand_efficiency_sa>
-0.412044

> <r_i_glide_lipo>
-2.32684

> <r_i_glide_metal>
0

> <r_i_glide_rewards>
-0.681255

> <s_i_glide_gridfile>
wee1_glide-grid

> <s_m_Source_File>
wee1_decoys_glide_SP.sdf

> <s_m_Source_Path>
/Users/zhangxujun/Desktop

> <s_m_entry_id>
3868

> <s_m_entry_name>
wee1_decoys_glide_SP.3593

> <s_m_subgroup_title>
wee1_decoys_glide_SP

> <s_m_subgroupid>
wee1_decoys_glide_SP


$$$$
