ZINC37306742_1892
                    3D
 Schrodinger Suite 2024-2.
 39 40  0  0  1  0            999 V2000
    3.5094   53.7586   22.9234 C   0  0  0  0  0  0
    2.0072   53.6776   22.5872 C   0  0  1  0  0  0
    1.6971   54.5852   22.0817 H   0  0  0  0  0  0
    1.7064   52.4967   21.6407 C   0  0  0  0  0  0
    1.7846   51.1476   22.3712 C   0  0  0  0  0  0
    0.9937   51.1431   23.6983 C   0  0  0  0  0  0
    1.3382   52.2764   24.5780 N   0  0  0  0  0  0
    1.1244   53.5379   23.8455 C   0  0  0  0  0  0
    1.1044   52.2571   25.9503 C   0  0  0  0  0  0
    0.3280   51.2776   26.5643 C   0  0  0  0  0  0
    0.1260   51.2967   27.9372 C   0  0  0  0  0  0
    0.6703   52.2920   28.7789 C   0  0  0  0  0  0
    1.5025   53.2684   28.1573 C   0  0  0  0  0  0
    1.6974   53.2209   26.7672 C   0  0  0  0  0  0
    2.1853   54.4282   28.9118 C   0  0  0  0  0  0
    1.3048   55.1158   29.6409 F   0  0  0  0  0  0
    3.1581   53.9705   29.7008 F   0  0  0  0  0  0
    2.7516   55.2967   28.0817 F   0  0  0  0  0  0
    0.3407   52.2572   30.2441 C   0  0  0  0  0  0
    1.1602   52.7110   31.1044 N   0  0  0  0  0  0
    0.7044   52.7166   32.4460 O   0  0  0  0  0  0
   -0.8956   51.6967   30.4817 N   0  0  0  0  0  0
    3.8525   52.8967   23.4874 H   0  0  0  0  0  0
    4.1142   53.8306   22.0189 H   0  0  0  0  0  0
    3.7223   54.6422   23.5257 H   0  0  0  0  0  0
    2.3849   52.5035   20.7861 H   0  0  0  0  0  0
    0.7044   52.6197   21.2263 H   0  0  0  0  0  0
    2.8173   50.8485   22.5474 H   0  0  0  0  0  0
    1.3857   50.3684   21.7209 H   0  0  0  0  0  0
    1.2470   50.2162   24.2156 H   0  0  0  0  0  0
   -0.0825   51.1251   23.5180 H   0  0  0  0  0  0
    0.0670   53.6457   23.5997 H   0  0  0  0  0  0
    1.3456   54.3975   24.4771 H   0  0  0  0  0  0
   -0.1373   50.4904   25.9896 H   0  0  0  0  0  0
   -0.4859   50.4967   28.3287 H   0  0  0  0  0  0
    2.3446   53.9439   26.2943 H   0  0  0  0  0  0
   -0.1921   52.3402   32.4234 H   0  0  0  0  0  0
   -1.2763   51.6092   31.4288 H   0  0  0  0  0  0
   -1.3645   51.1716   29.7585 H   0  0  0  0  0  0
  1  2  1  0  0  0
  1 23  1  0  0  0
  1 24  1  0  0  0
  1 25  1  0  0  0
  2  3  1  0  0  0
  2  8  1  0  0  0
  2  4  1  0  0  0
  4  5  1  0  0  0
  4 26  1  0  0  0
  4 27  1  0  0  0
  5  6  1  0  0  0
  5 28  1  0  0  0
  5 29  1  0  0  0
  6  7  1  0  0  0
  6 30  1  0  0  0
  6 31  1  0  0  0
  7  8  1  0  0  0
  7  9  1  0  0  0
  8 32  1  0  0  0
  8 33  1  0  0  0
  9 14  2  0  0  0
  9 10  1  0  0  0
 10 11  2  0  0  0
 10 34  1  0  0  0
 11 12  1  0  0  0
 11 35  1  0  0  0
 12 13  2  0  0  0
 12 19  1  0  0  0
 13 14  1  0  0  0
 13 15  1  0  0  0
 14 36  1  0  0  0
 15 16  1  0  0  0
 15 17  1  0  0  0
 15 18  1  0  0  0
 19 20  2  0  0  0
 19 22  1  0  0  0
 20 21  1  0  0  0
 21 37  1  0  0  0
 22 38  1  0  0  0
 22 39  1  0  0  0
M  END
> <i_i_glide_confnum>
52

> <i_i_glide_lignum>
1893

> <i_i_glide_posenum>
226

> <i_i_glide_rotatable_bonds>
4

> <i_m_Source_File_Index>
4792

> <b_m_subgroup_collapsed>
0

> <r_i_docking_score>
-6.60158

> <r_i_glide_ecoul>
-11.5933

> <r_i_glide_eff_state_penalty>
0

> <r_i_glide_einternal>
1.58202

> <r_i_glide_emodel>
-53.2356

> <r_i_glide_energy>
-36.022

> <r_i_glide_erotb>
0.607855

> <r_i_glide_esite>
-0.306309

> <r_i_glide_evdw>
-24.4287

> <r_i_glide_gscore>
-6.60158

> <r_i_glide_hbond>
-0.304

> <r_i_glide_ligand_efficiency>
-0.314361

> <r_i_glide_ligand_efficiency_ln>
-1.63223

> <r_i_glide_ligand_efficiency_sa>
-0.867298

> <r_i_glide_lipo>
-1.43646

> <r_i_glide_metal>
0

> <r_i_glide_rewards>
-2.20223

> <s_i_glide_gridfile>
wee1_glide-grid

> <s_m_Source_File>
wee1_decoys_glide_SP.sdf

> <s_m_Source_Path>
/Users/zhangxujun/Desktop

> <s_m_entry_id>
5067

> <s_m_entry_name>
wee1_decoys_glide_SP.4792

> <s_m_subgroup_title>
wee1_decoys_glide_SP

> <s_m_subgroupid>
wee1_decoys_glide_SP


$$$$
