ZINC34863248_4237
                    3D
 Schrodinger Suite 2024-2.
 68 71  0  0  1  0            999 V2000
    5.3254   54.1755   22.5094 C   0  0  0  0  0  0
    4.5729   53.6072   21.3200 C   0  0  0  0  0  0
    4.7343   54.1546   20.0478 C   0  0  0  0  0  0
    4.0323   53.6223   18.9664 C   0  0  0  0  0  0
    3.1710   52.5298   19.1390 C   0  0  0  0  0  0
    3.0193   52.0000   20.4291 C   0  0  0  0  0  0
    3.7049   52.5341   21.5071 C   0  0  0  0  0  0
    2.3812   51.9277   17.9506 C   0  0  2  0  0  0
    0.8962   52.2612   18.0442 C   0  0  0  0  0  0
    0.3808   53.3663   17.8831 O   0  0  0  0  0  0
    0.2706   51.0910   18.3008 N   0  0  0  0  0  0
    1.0977   50.0162   18.3612 C   0  0  0  0  0  0
    0.8668   48.9176   18.8549 O   0  0  0  0  0  0
    2.3042   50.4949   18.0391 N   0  0  0  0  0  0
   -1.1809   51.0077   18.5913 C   0  0  0  0  0  0
   -1.4893   51.2754   20.0835 C   0  0  0  0  0  0
   -2.6019   51.6976   20.3868 O   0  0  0  0  0  0
   -0.5223   50.9885   20.9765 N   0  0  0  0  0  0
   -0.4568   51.2111   22.3575 C   0  0  0  0  0  0
    0.5484   50.5084   23.0172 C   0  0  0  0  0  0
    0.7347   50.6780   24.3811 C   0  0  0  0  0  0
   -0.0595   51.5787   25.0934 C   0  0  0  0  0  0
   -1.0704   52.2877   24.4397 C   0  0  0  0  0  0
   -1.2756   52.1003   23.0707 C   0  0  0  0  0  0
    0.2138   51.7809   26.8539 S   0  0  0  0  0  0
   -1.1056   51.9421   27.4754 O   0  0  0  0  0  0
    1.1044   50.7009   27.2819 O   0  0  0  0  0  0
    1.1050   53.2968   27.0836 N   0  0  0  0  0  0
    0.7931   54.1607   28.2558 C   0  0  0  0  0  0
    1.8898   54.0539   29.3431 C   0  0  2  0  0  0
    1.6823   54.8348   30.0746 H   0  0  0  0  0  0
    3.2552   54.3869   28.6920 C   0  0  0  0  0  0
    3.5817   53.4710   27.4824 C   0  0  1  0  0  0
    3.6413   52.4427   27.8405 H   0  0  0  0  0  0
    2.4291   53.5220   26.4459 C   0  0  0  0  0  0
    4.9297   53.8566   26.8452 C   0  0  0  0  0  0
    1.8769   52.7031   30.0935 C   0  0  0  0  0  0
    2.8877   52.3271   16.5390 C   0  0  0  0  0  0
    5.9514   53.4052   22.9598 H   0  0  0  0  0  0
    4.6193   54.5079   23.2732 H   0  0  0  0  0  0
    5.9578   55.0179   22.2325 H   0  0  0  0  0  0
    5.3982   54.9914   19.8863 H   0  0  0  0  0  0
    4.1756   54.0703   17.9952 H   0  0  0  0  0  0
    2.3640   51.1633   20.6101 H   0  0  0  0  0  0
    3.5512   52.1074   22.4824 H   0  0  0  0  0  0
    3.0448   49.9175   17.6344 H   0  0  0  0  0  0
   -1.6845   51.7840   18.0119 H   0  0  0  0  0  0
   -1.6058   50.0507   18.2810 H   0  0  0  0  0  0
    0.2516   50.4572   20.6073 H   0  0  0  0  0  0
    1.1869   49.8183   22.4840 H   0  0  0  0  0  0
    1.5038   50.1012   24.8711 H   0  0  0  0  0  0
   -1.6985   52.9749   24.9919 H   0  0  0  0  0  0
   -2.0551   52.6661   22.5798 H   0  0  0  0  0  0
    0.7045   55.1877   27.8960 H   0  0  0  0  0  0
   -0.1754   53.8720   28.6664 H   0  0  0  0  0  0
    3.2505   55.4260   28.3558 H   0  0  0  0  0  0
    4.0626   54.3259   29.4243 H   0  0  0  0  0  0
    2.5775   52.7711   25.6689 H   0  0  0  0  0  0
    2.3868   54.4942   25.9521 H   0  0  0  0  0  0
    4.9590   54.9138   26.5790 H   0  0  0  0  0  0
    5.7569   53.6653   27.5323 H   0  0  0  0  0  0
    5.1234   53.2964   25.9339 H   0  0  0  0  0  0
    2.0645   51.8609   29.4308 H   0  0  0  0  0  0
    2.6336   52.6742   30.8758 H   0  0  0  0  0  0
    0.9112   52.5302   30.5690 H   0  0  0  0  0  0
    2.7724   53.3941   16.3397 H   0  0  0  0  0  0
    3.9441   52.0787   16.4285 H   0  0  0  0  0  0
    2.3602   51.7965   15.7441 H   0  0  0  0  0  0
  1  2  1  0  0  0
  1 39  1  0  0  0
  1 40  1  0  0  0
  1 41  1  0  0  0
  2  7  2  0  0  0
  2  3  1  0  0  0
  3  4  2  0  0  0
  3 42  1  0  0  0
  4  5  1  0  0  0
  4 43  1  0  0  0
  5  6  2  0  0  0
  5  8  1  0  0  0
  6  7  1  0  0  0
  6 44  1  0  0  0
  7 45  1  0  0  0
  8 14  1  0  0  0
  8  9  1  0  0  0
  8 38  1  0  0  0
  9 10  2  0  0  0
  9 11  1  0  0  0
 11 12  1  0  0  0
 11 15  1  0  0  0
 12 13  2  0  0  0
 12 14  1  0  0  0
 14 46  1  0  0  0
 15 16  1  0  0  0
 15 47  1  0  0  0
 15 48  1  0  0  0
 16 17  2  0  0  0
 16 18  1  0  0  0
 18 19  1  0  0  0
 18 49  1  0  0  0
 19 24  2  0  0  0
 19 20  1  0  0  0
 20 21  2  0  0  0
 20 50  1  0  0  0
 21 22  1  0  0  0
 21 51  1  0  0  0
 22 23  2  0  0  0
 22 25  1  0  0  0
 23 24  1  0  0  0
 23 52  1  0  0  0
 24 53  1  0  0  0
 25 26  2  0  0  0
 25 27  2  0  0  0
 25 28  1  0  0  0
 28 35  1  0  0  0
 28 29  1  0  0  0
 29 30  1  0  0  0
 29 54  1  0  0  0
 29 55  1  0  0  0
 30 31  1  0  0  0
 30 32  1  0  0  0
 30 37  1  0  0  0
 32 33  1  0  0  0
 32 56  1  0  0  0
 32 57  1  0  0  0
 33 34  1  0  0  0
 33 35  1  0  0  0
 33 36  1  0  0  0
 35 58  1  0  0  0
 35 59  1  0  0  0
 36 60  1  0  0  0
 36 61  1  0  0  0
 36 62  1  0  0  0
 37 63  1  0  0  0
 37 64  1  0  0  0
 37 65  1  0  0  0
 38 66  1  0  0  0
 38 67  1  0  0  0
 38 68  1  0  0  0
M  END
> <i_i_glide_confnum>
97

> <i_i_glide_lignum>
4238

> <i_i_glide_posenum>
197

> <i_i_glide_rotatable_bonds>
7

> <i_m_Source_File_Index>
6048

> <b_m_subgroup_collapsed>
0

> <r_i_docking_score>
-3.81787

> <r_i_glide_ecoul>
-4.50434

> <r_i_glide_eff_state_penalty>
0

> <r_i_glide_einternal>
7.14677

> <r_i_glide_emodel>
-47.3025

> <r_i_glide_energy>
-41.0647

> <r_i_glide_erotb>
0.546103

> <r_i_glide_esite>
-0.24346

> <r_i_glide_evdw>
-36.5603

> <r_i_glide_gscore>
-3.81787

> <r_i_glide_hbond>
-0.327917

> <r_i_glide_ligand_efficiency>
-0.106052

> <r_i_glide_ligand_efficiency_ln>
-0.832956

> <r_i_glide_ligand_efficiency_sa>
-0.350176

> <r_i_glide_lipo>
-1.8059

> <r_i_glide_metal>
0

> <r_i_glide_rewards>
0.516977

> <s_i_glide_gridfile>
wee1_glide-grid

> <s_m_Source_File>
wee1_decoys_glide_SP.sdf

> <s_m_Source_Path>
/Users/zhangxujun/Desktop

> <s_m_entry_id>
6323

> <s_m_entry_name>
wee1_decoys_glide_SP.6048

> <s_m_subgroup_title>
wee1_decoys_glide_SP

> <s_m_subgroupid>
wee1_decoys_glide_SP


$$$$
