ZINC00739418_4388
                    3D
 Schrodinger Suite 2024-2.
 60 64  0  0  1  0            999 V2000
    1.4276   52.4200   28.5937 C   0  0  0  0  0  0
    0.9033   52.7079   27.3378 C   0  0  0  0  0  0
    1.6971   53.2970   26.3550 C   0  0  0  0  0  0
    3.0554   53.6081   26.6161 C   0  0  0  0  0  0
    3.8928   54.1949   25.6334 C   0  0  0  0  0  0
    5.2594   54.3896   25.8711 C   0  0  0  0  0  0
    5.7620   54.0967   27.1491 C   0  0  0  0  0  0
    4.9564   53.5712   28.1529 C   0  0  0  0  0  0
    3.5951   53.2979   27.9018 C   0  0  0  0  0  0
    2.7586   52.7084   28.8852 C   0  0  0  0  0  0
    6.2107   54.9688   24.8360 C   0  0  0  0  0  0
    7.1042   55.6970   25.2740 O   0  0  0  0  0  0
    6.1088   54.6910   23.4953 N   0  0  0  0  0  0
    5.3061   53.6089   22.9069 C   0  0  0  0  0  0
    4.6252   54.1211   21.6180 C   0  0  0  0  0  0
    5.5556   54.6966   20.6328 N   0  0  0  0  0  0
    6.4594   55.6914   21.2308 C   0  0  0  0  0  0
    7.1043   55.2667   22.5691 C   0  0  0  0  0  0
    5.6140   54.2830   19.3009 C   0  0  0  0  0  0
    4.4698   53.7977   18.6492 C   0  0  0  0  0  0
    4.5463   53.2987   17.3523 C   0  0  0  0  0  0
    5.7658   53.2944   16.6759 C   0  0  0  0  0  0
    6.9077   53.8090   17.2974 C   0  0  0  0  0  0
    6.8269   54.3004   18.5967 C   0  0  0  0  0  0
    5.8002   52.6580   15.4250 N   0  0  0  0  0  0
    6.6669   52.8729   14.4169 C   0  0  0  0  0  0
    7.4534   53.8183   14.3573 O   0  0  0  0  0  0
    6.5775   51.9089   13.4830 N   0  0  0  0  0  0
    7.3484   51.8873   12.3134 C   0  0  0  0  0  0
    8.3241   50.8958   12.1732 C   0  0  0  0  0  0
    9.1019   50.8455   11.0168 C   0  0  0  0  0  0
    8.8950   51.7661    9.9897 C   0  0  0  0  0  0
    7.9099   52.7455   10.1164 C   0  0  0  0  0  0
    7.1367   52.8125   11.2747 C   0  0  0  0  0  0
    6.1780   53.7640   11.3736 F   0  0  0  0  0  0
    9.6426   51.7026    8.8658 F   0  0  0  0  0  0
    0.7982   51.9603   29.3436 H   0  0  0  0  0  0
   -0.1284   52.4673   27.1251 H   0  0  0  0  0  0
    1.2814   53.5081   25.3802 H   0  0  0  0  0  0
    3.4478   54.4694   24.6854 H   0  0  0  0  0  0
    6.8051   54.2705   27.3802 H   0  0  0  0  0  0
    5.3814   53.3462   29.1226 H   0  0  0  0  0  0
    3.1679   52.4710   29.8577 H   0  0  0  0  0  0
    5.9782   52.7983   22.6261 H   0  0  0  0  0  0
    4.5744   53.1709   23.5725 H   0  0  0  0  0  0
    3.8867   54.8886   21.8576 H   0  0  0  0  0  0
    4.0687   53.2906   21.1847 H   0  0  0  0  0  0
    5.8685   56.5924   21.3766 H   0  0  0  0  0  0
    7.2449   55.9886   20.5418 H   0  0  0  0  0  0
    7.6547   56.0992   22.9971 H   0  0  0  0  0  0
    7.8332   54.4881   22.3463 H   0  0  0  0  0  0
    3.5127   53.7840   19.1489 H   0  0  0  0  0  0
    3.6621   52.8840   16.8914 H   0  0  0  0  0  0
    7.8731   53.7878   16.8099 H   0  0  0  0  0  0
    7.7422   54.6371   19.0604 H   0  0  0  0  0  0
    5.0783   51.9671   15.2788 H   0  0  0  0  0  0
    6.0046   51.1028   13.6737 H   0  0  0  0  0  0
    8.4945   50.1773   12.9640 H   0  0  0  0  0  0
    9.8734   50.0967   10.9166 H   0  0  0  0  0  0
    7.7494   53.4543    9.3180 H   0  0  0  0  0  0
  1 10  2  0  0  0
  1  2  1  0  0  0
  1 37  1  0  0  0
  2  3  2  0  0  0
  2 38  1  0  0  0
  3  4  1  0  0  0
  3 39  1  0  0  0
  4  9  2  0  0  0
  4  5  1  0  0  0
  5  6  2  0  0  0
  5 40  1  0  0  0
  6  7  1  0  0  0
  6 11  1  0  0  0
  7  8  2  0  0  0
  7 41  1  0  0  0
  8  9  1  0  0  0
  8 42  1  0  0  0
  9 10  1  0  0  0
 10 43  1  0  0  0
 11 12  2  0  0  0
 11 13  1  0  0  0
 13 18  1  0  0  0
 13 14  1  0  0  0
 14 15  1  0  0  0
 14 44  1  0  0  0
 14 45  1  0  0  0
 15 16  1  0  0  0
 15 46  1  0  0  0
 15 47  1  0  0  0
 16 17  1  0  0  0
 16 19  1  0  0  0
 17 18  1  0  0  0
 17 48  1  0  0  0
 17 49  1  0  0  0
 18 50  1  0  0  0
 18 51  1  0  0  0
 19 24  2  0  0  0
 19 20  1  0  0  0
 20 21  2  0  0  0
 20 52  1  0  0  0
 21 22  1  0  0  0
 21 53  1  0  0  0
 22 23  2  0  0  0
 22 25  1  0  0  0
 23 24  1  0  0  0
 23 54  1  0  0  0
 24 55  1  0  0  0
 25 26  1  0  0  0
 25 56  1  0  0  0
 26 27  2  0  0  0
 26 28  1  0  0  0
 28 29  1  0  0  0
 28 57  1  0  0  0
 29 34  2  0  0  0
 29 30  1  0  0  0
 30 31  2  0  0  0
 30 58  1  0  0  0
 31 32  1  0  0  0
 31 59  1  0  0  0
 32 33  2  0  0  0
 32 36  1  0  0  0
 33 34  1  0  0  0
 33 60  1  0  0  0
 34 35  1  0  0  0
M  END
> <i_i_glide_confnum>
346

> <i_i_glide_lignum>
4389

> <i_i_glide_posenum>
155

> <i_i_glide_rotatable_bonds>
7

> <i_m_Source_File_Index>
2186

> <b_m_subgroup_collapsed>
0

> <r_i_docking_score>
-6.49698

> <r_i_glide_ecoul>
-4.57703

> <r_i_glide_eff_state_penalty>
0

> <r_i_glide_einternal>
7.22349

> <r_i_glide_emodel>
-64.0738

> <r_i_glide_energy>
-47.1803

> <r_i_glide_erotb>
0.515165

> <r_i_glide_esite>
-0.0367904

> <r_i_glide_evdw>
-42.6033

> <r_i_glide_gscore>
-6.49698

> <r_i_glide_hbond>
-0.32

> <r_i_glide_ligand_efficiency>
-0.180472

> <r_i_glide_ligand_efficiency_ln>
-1.41747

> <r_i_glide_ligand_efficiency_sa>
-0.595905

> <r_i_glide_lipo>
-2.69094

> <r_i_glide_metal>
0

> <r_i_glide_rewards>
-1.1477

> <s_i_glide_gridfile>
wee1_glide-grid

> <s_m_Source_File>
wee1_decoys_glide_SP.sdf

> <s_m_Source_Path>
/Users/zhangxujun/Desktop

> <s_m_entry_id>
2461

> <s_m_entry_name>
wee1_decoys_glide_SP.2186

> <s_m_subgroup_title>
wee1_decoys_glide_SP

> <s_m_subgroupid>
wee1_decoys_glide_SP


$$$$
