ZINC53735984_4807
                    3D
 Schrodinger Suite 2024-2.
 37 39  0  0  1  0            999 V2000
    7.0948   53.6947   23.6414 C   0  0  0  0  0  0
    5.7414   54.0270   24.2401 C   0  0  0  0  0  0
    5.6652   54.1181   25.6344 C   0  0  0  0  0  0
    4.4387   54.2739   26.2692 C   0  0  0  0  0  0
    3.2776   54.3664   25.5092 C   0  0  0  0  0  0
    3.3384   54.3057   24.1181 C   0  0  0  0  0  0
    4.5620   54.1036   23.4636 C   0  0  0  0  0  0
    4.5697   53.9732   22.0452 N   0  0  0  0  0  0
    5.3696   54.6523   21.1272 C   0  0  0  0  0  0
    6.3184   55.6813   21.2245 C   0  0  0  0  0  0
    6.9757   56.0534   20.0476 C   0  0  0  0  0  0
    6.6851   55.4638   18.8189 C   0  0  0  0  0  0
    5.7072   54.4811   18.7081 C   0  0  0  0  0  0
    5.0428   54.0796   19.8728 C   0  0  0  0  0  0
    4.0520   53.1596   19.9968 N   0  0  0  0  0  0
    3.7869   53.1094   21.2788 C   0  0  0  0  0  0
    2.6768   52.2104   21.8185 C   0  0  2  0  0  0
    2.8203   51.9946   22.8758 H   0  0  0  0  0  0
    2.5628   50.8616   21.0889 C   0  0  0  0  0  0
    1.4477   52.8952   21.6873 O   0  0  0  0  0  0
    7.3816   55.8608   17.6824 N   0  0  0  0  0  0
    4.3506   54.3233   28.1710 Br  0  0  0  0  0  0
    6.9893   52.9239   22.8817 H   0  0  0  0  0  0
    7.5418   54.5736   23.1971 H   0  0  0  0  0  0
    7.7864   53.2971   24.3814 H   0  0  0  0  0  0
    6.5552   54.0202   26.2391 H   0  0  0  0  0  0
    2.3236   54.4818   26.0010 H   0  0  0  0  0  0
    2.4201   54.3968   23.5569 H   0  0  0  0  0  0
    6.5527   56.1549   22.1638 H   0  0  0  0  0  0
    7.7392   56.8148   20.0853 H   0  0  0  0  0  0
    5.4667   54.0291   17.7573 H   0  0  0  0  0  0
    3.5076   50.3223   21.1383 H   0  0  0  0  0  0
    1.7942   50.2308   21.5357 H   0  0  0  0  0  0
    2.3147   50.9880   20.0341 H   0  0  0  0  0  0
    1.4947   53.4310   20.8862 H   0  0  0  0  0  0
    7.2357   55.3322   16.8352 H   0  0  0  0  0  0
    8.2334   56.3861   17.8004 H   0  0  0  0  0  0
  1  2  1  0  0  0
  1 23  1  0  0  0
  1 24  1  0  0  0
  1 25  1  0  0  0
  2  7  2  0  0  0
  2  3  1  0  0  0
  3  4  2  0  0  0
  3 26  1  0  0  0
  4  5  1  0  0  0
  4 22  1  0  0  0
  5  6  2  0  0  0
  5 27  1  0  0  0
  6  7  1  0  0  0
  6 28  1  0  0  0
  7  8  1  0  0  0
  8 16  1  0  0  0
  8  9  1  0  0  0
  9 14  2  0  0  0
  9 10  1  0  0  0
 10 11  2  0  0  0
 10 29  1  0  0  0
 11 12  1  0  0  0
 11 30  1  0  0  0
 12 13  2  0  0  0
 12 21  1  0  0  0
 13 14  1  0  0  0
 13 31  1  0  0  0
 14 15  1  0  0  0
 15 16  2  0  0  0
 16 17  1  0  0  0
 17 18  1  0  0  0
 17 19  1  0  0  0
 17 20  1  0  0  0
 19 32  1  0  0  0
 19 33  1  0  0  0
 19 34  1  0  0  0
 20 35  1  0  0  0
 21 36  1  0  0  0
 21 37  1  0  0  0
M  END
> <i_i_glide_confnum>
1

> <i_i_glide_lignum>
4808

> <i_i_glide_posenum>
306

> <i_i_glide_rotatable_bonds>
3

> <i_m_Source_File_Index>
891

> <b_m_subgroup_collapsed>
0

> <r_i_docking_score>
-5.52165

> <r_i_glide_ecoul>
-1.0866

> <r_i_glide_eff_state_penalty>
0

> <r_i_glide_einternal>
3.00066

> <r_i_glide_emodel>
-42.2018

> <r_i_glide_energy>
-31.9244

> <r_i_glide_erotb>
0.317169

> <r_i_glide_esite>
0

> <r_i_glide_evdw>
-30.8378

> <r_i_glide_gscore>
-5.52165

> <r_i_glide_hbond>
-0.294737

> <r_i_glide_ligand_efficiency>
-0.262936

> <r_i_glide_ligand_efficiency_ln>
-1.36522

> <r_i_glide_ligand_efficiency_sa>
-0.72542

> <r_i_glide_lipo>
-2.38692

> <r_i_glide_metal>
0

> <r_i_glide_rewards>
-1.45228

> <s_i_glide_gridfile>
wee1_glide-grid

> <s_m_Source_File>
wee1_decoys_glide_SP.sdf

> <s_m_Source_Path>
/Users/zhangxujun/Desktop

> <s_m_entry_id>
1166

> <s_m_entry_name>
wee1_decoys_glide_SP.891

> <s_m_subgroup_title>
wee1_decoys_glide_SP

> <s_m_subgroupid>
wee1_decoys_glide_SP


$$$$
