ZINC40902616_6016
                    3D
 Schrodinger Suite 2024-2.
 56 60  0  0  1  0            999 V2000
    6.0233   52.8969   18.6051 C   0  0  0  0  0  0
    5.1045   53.2034   19.7899 C   0  0  0  0  0  0
    5.0548   54.3288   20.5687 C   0  0  0  0  0  0
    4.1270   54.3692   21.8323 C   0  0  1  0  0  0
    3.5588   55.2961   21.8677 H   0  0  0  0  0  0
    3.1504   53.2734   21.7062 N   0  0  0  0  0  0
    3.3289   52.1246   20.9902 C   0  0  0  0  0  0
    2.3738   51.2686   21.2308 N   0  0  0  0  0  0
    1.6179   51.9271   22.1024 C   0  0  0  0  0  0
    2.0079   53.1527   22.3969 N   0  0  0  0  0  0
    0.1546   51.2482   22.8147 S   0  0  0  0  0  0
    0.6478   49.4970   22.9430 C   0  0  0  0  0  0
   -0.5025   48.6406   23.4536 C   0  0  0  0  0  0
   -0.5885   48.3096   24.8109 C   0  0  0  0  0  0
   -1.6523   47.5388   25.2813 C   0  0  0  0  0  0
   -2.6359   47.0913   24.4006 C   0  0  0  0  0  0
   -2.5522   47.4107   23.0458 C   0  0  0  0  0  0
   -1.4908   48.1821   22.5720 C   0  0  0  0  0  0
   -1.4289   48.4811   21.2541 F   0  0  0  0  0  0
    4.3163   52.0962   20.0379 N   0  0  0  0  0  0
    4.7971   54.2954   23.2154 C   0  0  0  0  0  0
    6.1684   54.0674   23.3530 C   0  0  0  0  0  0
    6.7571   54.0967   24.6060 C   0  0  0  0  0  0
    5.9747   54.2995   25.7377 C   0  0  0  0  0  0
    4.6038   54.4945   25.6257 C   0  0  0  0  0  0
    4.0184   54.4970   24.3656 C   0  0  0  0  0  0
    6.7044   54.3015   27.2911 Cl  0  0  0  0  0  0
    5.9032   55.5010   20.3362 C   0  0  0  0  0  0
    6.4653   56.0976   21.2545 O   0  0  0  0  0  0
    6.0095   55.9162   19.0573 N   0  0  0  0  0  0
    6.9485   56.8505   18.5984 C   0  0  0  0  0  0
    6.5147   57.9233   17.8192 C   0  0  0  0  0  0
    7.4414   58.8546   17.3544 C   0  0  0  0  0  0
    8.7932   58.7016   17.6579 C   0  0  0  0  0  0
    9.2334   57.6202   18.4188 C   0  0  0  0  0  0
    8.3112   56.6875   18.8811 C   0  0  0  0  0  0
    6.7025   52.0957   18.8829 H   0  0  0  0  0  0
    5.4545   52.5051   17.7562 H   0  0  0  0  0  0
    6.6477   53.7096   18.2501 H   0  0  0  0  0  0
    0.9717   49.1208   21.9713 H   0  0  0  0  0  0
    1.5109   49.4070   23.6055 H   0  0  0  0  0  0
    0.1628   48.6468   25.5113 H   0  0  0  0  0  0
   -1.7109   47.2969   26.3351 H   0  0  0  0  0  0
   -3.4644   46.5075   24.7719 H   0  0  0  0  0  0
   -3.3130   47.0716   22.3593 H   0  0  0  0  0  0
    4.3638   51.3423   19.3545 H   0  0  0  0  0  0
    6.7962   53.8983   22.4914 H   0  0  0  0  0  0
    7.8229   53.9683   24.6747 H   0  0  0  0  0  0
    3.9999   54.6544   26.5066 H   0  0  0  0  0  0
    2.9578   54.6848   24.2873 H   0  0  0  0  0  0
    5.3335   55.5734   18.3907 H   0  0  0  0  0  0
    5.4677   58.0519   17.5849 H   0  0  0  0  0  0
    7.1064   59.6954   16.7650 H   0  0  0  0  0  0
    9.5060   59.4271   17.2945 H   0  0  0  0  0  0
   10.2826   57.5007   18.6464 H   0  0  0  0  0  0
    8.6582   55.8479   19.4667 H   0  0  0  0  0  0
  1  2  1  0  0  0
  1 37  1  0  0  0
  1 38  1  0  0  0
  1 39  1  0  0  0
  2 20  1  0  0  0
  2  3  2  0  0  0
  3  4  1  0  0  0
  3 28  1  0  0  0
  4  5  1  0  0  0
  4  6  1  0  0  0
  4 21  1  0  0  0
  6 10  1  0  0  0
  6  7  1  0  0  0
  7  8  2  0  0  0
  7 20  1  0  0  0
  8  9  1  0  0  0
  9 10  2  0  0  0
  9 11  1  0  0  0
 11 12  1  0  0  0
 12 13  1  0  0  0
 12 40  1  0  0  0
 12 41  1  0  0  0
 13 18  2  0  0  0
 13 14  1  0  0  0
 14 15  2  0  0  0
 14 42  1  0  0  0
 15 16  1  0  0  0
 15 43  1  0  0  0
 16 17  2  0  0  0
 16 44  1  0  0  0
 17 18  1  0  0  0
 17 45  1  0  0  0
 18 19  1  0  0  0
 20 46  1  0  0  0
 21 26  2  0  0  0
 21 22  1  0  0  0
 22 23  2  0  0  0
 22 47  1  0  0  0
 23 24  1  0  0  0
 23 48  1  0  0  0
 24 25  2  0  0  0
 24 27  1  0  0  0
 25 26  1  0  0  0
 25 49  1  0  0  0
 26 50  1  0  0  0
 28 29  2  0  0  0
 28 30  1  0  0  0
 30 31  1  0  0  0
 30 51  1  0  0  0
 31 36  2  0  0  0
 31 32  1  0  0  0
 32 33  2  0  0  0
 32 52  1  0  0  0
 33 34  1  0  0  0
 33 53  1  0  0  0
 34 35  2  0  0  0
 34 54  1  0  0  0
 35 36  1  0  0  0
 35 55  1  0  0  0
 36 56  1  0  0  0
M  END
> <i_i_glide_confnum>
109

> <i_i_glide_lignum>
6017

> <i_i_glide_posenum>
231

> <i_i_glide_rotatable_bonds>
7

> <i_m_Source_File_Index>
791

> <b_m_subgroup_collapsed>
0

> <r_i_docking_score>
-4.9269

> <r_i_glide_ecoul>
-8.05712

> <r_i_glide_eff_state_penalty>
0

> <r_i_glide_einternal>
16.9181

> <r_i_glide_emodel>
-59.9341

> <r_i_glide_energy>
-52.5244

> <r_i_glide_erotb>
0.559305

> <r_i_glide_esite>
-0.0942487

> <r_i_glide_evdw>
-44.4673

> <r_i_glide_gscore>
-4.9269

> <r_i_glide_hbond>
-0.154655

> <r_i_glide_ligand_efficiency>
-0.140769

> <r_i_glide_ligand_efficiency_ln>
-1.08156

> <r_i_glide_ligand_efficiency_sa>
-0.460463

> <r_i_glide_lipo>
-2.00447

> <r_i_glide_metal>
0

> <r_i_glide_rewards>
0.199095

> <s_i_glide_gridfile>
wee1_glide-grid

> <s_m_Source_File>
wee1_decoys_glide_SP.sdf

> <s_m_Source_Path>
/Users/zhangxujun/Desktop

> <s_m_entry_id>
1066

> <s_m_entry_name>
wee1_decoys_glide_SP.791

> <s_m_subgroup_title>
wee1_decoys_glide_SP

> <s_m_subgroupid>
wee1_decoys_glide_SP


$$$$
