ZINC36311730_5247
                    3D
 Schrodinger Suite 2024-2.
 80 83  0  0  1  0            999 V2000
    0.2788   52.0857   10.8687 C   0  0  0  0  0  0
   -0.7026   51.8662   12.0363 C   0  0  0  0  0  0
   -1.5988   50.6354   11.8014 C   0  0  0  0  0  0
    0.0156   51.7982   13.3864 C   0  0  0  0  0  0
   -0.2594   52.7503   14.3721 C   0  0  0  0  0  0
    0.3886   52.6943   15.6040 C   0  0  0  0  0  0
    1.3157   51.6745   15.8619 C   0  0  0  0  0  0
    1.5972   50.7313   14.8728 C   0  0  0  0  0  0
    0.9494   50.7903   13.6421 C   0  0  0  0  0  0
    2.0202   51.5207   17.0686 N   0  0  0  0  0  0
    1.8110   52.0999   18.2718 C   0  0  0  0  0  0
    0.9060   52.8965   18.5242 O   0  0  0  0  0  0
    2.7774   51.6395   19.3863 C   0  0  2  0  0  0
    3.7175   51.4261   18.8844 H   0  0  0  0  0  0
    2.3468   50.3477   20.1533 C   0  0  0  0  0  0
    0.8878   50.2481   20.6658 C   0  0  0  0  0  0
    0.5776   48.7541   20.8129 C   0  0  0  0  0  0
    1.7310   48.0056   20.1290 C   0  0  0  0  0  0
    2.4740   49.0622   19.3189 C   0  0  0  0  0  0
    3.1473   52.8317   20.3358 N   0  3  0  0  0  0
    4.6482   52.7564   20.7258 C   0  0  0  0  0  0
    5.0557   53.9789   21.5785 C   0  0  0  0  0  0
    4.1757   54.0359   22.7646 N   0  0  0  0  0  0
    2.7621   54.2414   22.4039 C   0  0  0  0  0  0
    2.2945   52.9909   21.6213 C   0  0  0  0  0  0
    4.7178   54.0967   24.0197 C   0  0  0  0  0  0
    5.9384   54.2062   24.1717 O   0  0  0  0  0  0
    3.8593   54.0290   25.2769 C   0  0  0  0  0  0
    2.6353   53.3459   25.3394 C   0  0  0  0  0  0
    1.9054   53.2866   26.5250 C   0  0  0  0  0  0
    2.3915   53.8757   27.7009 C   0  0  0  0  0  0
    3.6444   54.4968   27.6542 C   0  0  0  0  0  0
    4.3609   54.5785   26.4652 C   0  0  0  0  0  0
    1.6093   53.8321   29.0389 C   0  0  0  0  0  0
    2.3294   52.8786   30.0209 C   0  0  0  0  0  0
    0.1490   53.3320   28.8763 C   0  0  0  0  0  0
    1.5317   55.2501   29.6655 C   0  0  0  0  0  0
    0.8969   52.9696   11.0345 H   0  0  0  0  0  0
    0.9474   51.2339   10.7359 H   0  0  0  0  0  0
   -0.2547   52.2328    9.9279 H   0  0  0  0  0  0
   -1.3644   52.7345   12.0517 H   0  0  0  0  0  0
   -2.3020   50.4974   12.6241 H   0  0  0  0  0  0
   -2.1860   50.7410   10.8878 H   0  0  0  0  0  0
   -1.0135   49.7196   11.7111 H   0  0  0  0  0  0
   -0.9720   53.5404   14.1878 H   0  0  0  0  0  0
    0.1610   53.4564   16.3324 H   0  0  0  0  0  0
    2.3155   49.9428   15.0542 H   0  0  0  0  0  0
    1.1761   50.0490   12.8895 H   0  0  0  0  0  0
    2.7682   50.8348   17.0215 H   0  0  0  0  0  0
    3.0066   50.1948   21.0098 H   0  0  0  0  0  0
    0.6881   50.8108   21.5767 H   0  0  0  0  0  0
    0.1964   50.6354   19.9159 H   0  0  0  0  0  0
    0.5054   48.4974   21.8705 H   0  0  0  0  0  0
   -0.3808   48.5068   20.3524 H   0  0  0  0  0  0
    2.4133   47.6079   20.8806 H   0  0  0  0  0  0
    1.3908   47.1725   19.5121 H   0  0  0  0  0  0
    1.9668   49.1749   18.3592 H   0  0  0  0  0  0
    3.5044   48.8110   19.0667 H   0  0  0  0  0  0
    4.8416   51.8031   21.2218 H   0  0  0  0  0  0
    5.2075   52.7858   19.7871 H   0  0  0  0  0  0
    4.9495   54.8951   20.9961 H   0  0  0  0  0  0
    6.1135   53.9266   21.8396 H   0  0  0  0  0  0
    2.1121   54.5108   23.2341 H   0  0  0  0  0  0
    2.7049   55.1169   21.7583 H   0  0  0  0  0  0
    2.3779   52.0842   22.2200 H   0  0  0  0  0  0
    1.2666   53.1295   21.2820 H   0  0  0  0  0  0
    2.2409   52.8142   24.4884 H   0  0  0  0  0  0
    0.9676   52.7538   26.5100 H   0  0  0  0  0  0
    4.0772   54.9319   28.5423 H   0  0  0  0  0  0
    5.3202   55.0762   26.4814 H   0  0  0  0  0  0
    1.8093   52.8179   30.9789 H   0  0  0  0  0  0
    3.3511   53.1988   30.2270 H   0  0  0  0  0  0
    2.3834   51.8661   29.6184 H   0  0  0  0  0  0
   -0.4097   53.9408   28.1653 H   0  0  0  0  0  0
    0.1064   52.2960   28.5366 H   0  0  0  0  0  0
   -0.3958   53.3674   29.8220 H   0  0  0  0  0  0
    1.1052   55.9706   28.9681 H   0  0  0  0  0  0
    0.9130   55.2644   30.5640 H   0  0  0  0  0  0
    2.5078   55.6295   29.9628 H   0  0  0  0  0  0
    3.0131   53.6774   19.7928 H   0  0  0  0  0  0
  1  2  1  0  0  0
  1 38  1  0  0  0
  1 39  1  0  0  0
  1 40  1  0  0  0
  2  3  1  0  0  0
  2  4  1  0  0  0
  2 41  1  0  0  0
  3 42  1  0  0  0
  3 43  1  0  0  0
  3 44  1  0  0  0
  4  9  2  0  0  0
  4  5  1  0  0  0
  5  6  2  0  0  0
  5 45  1  0  0  0
  6  7  1  0  0  0
  6 46  1  0  0  0
  7  8  2  0  0  0
  7 10  1  0  0  0
  8  9  1  0  0  0
  8 47  1  0  0  0
  9 48  1  0  0  0
 10 11  1  0  0  0
 10 49  1  0  0  0
 11 12  2  0  0  0
 11 13  1  0  0  0
 13 14  1  0  0  0
 13 15  1  0  0  0
 13 20  1  0  0  0
 15 19  1  0  0  0
 15 16  1  0  0  0
 15 50  1  0  0  0
 16 17  1  0  0  0
 16 51  1  0  0  0
 16 52  1  0  0  0
 17 18  1  0  0  0
 17 53  1  0  0  0
 17 54  1  0  0  0
 18 19  1  0  0  0
 18 55  1  0  0  0
 18 56  1  0  0  0
 19 57  1  0  0  0
 19 58  1  0  0  0
 20 25  1  0  0  0
 20 21  1  0  0  0
 20 80  1  0  0  0
 21 22  1  0  0  0
 21 59  1  0  0  0
 21 60  1  0  0  0
 22 23  1  0  0  0
 22 61  1  0  0  0
 22 62  1  0  0  0
 23 24  1  0  0  0
 23 26  1  0  0  0
 24 25  1  0  0  0
 24 63  1  0  0  0
 24 64  1  0  0  0
 25 65  1  0  0  0
 25 66  1  0  0  0
 26 27  2  0  0  0
 26 28  1  0  0  0
 28 33  2  0  0  0
 28 29  1  0  0  0
 29 30  2  0  0  0
 29 67  1  0  0  0
 30 31  1  0  0  0
 30 68  1  0  0  0
 31 32  2  0  0  0
 31 34  1  0  0  0
 32 33  1  0  0  0
 32 69  1  0  0  0
 33 70  1  0  0  0
 34 35  1  0  0  0
 34 36  1  0  0  0
 34 37  1  0  0  0
 35 71  1  0  0  0
 35 72  1  0  0  0
 35 73  1  0  0  0
 36 74  1  0  0  0
 36 75  1  0  0  0
 36 76  1  0  0  0
 37 77  1  0  0  0
 37 78  1  0  0  0
 37 79  1  0  0  0
M  CHG  1  20   1
M  END
> <i_i_glide_confnum>
139

> <i_i_glide_lignum>
5248

> <i_i_glide_posenum>
127

> <i_i_glide_rotatable_bonds>
9

> <i_m_Source_File_Index>
1743

> <b_m_subgroup_collapsed>
0

> <r_i_docking_score>
-4.55148

> <r_i_glide_ecoul>
-2.24542

> <r_i_glide_eff_state_penalty>
0

> <r_i_glide_einternal>
6.74677

> <r_i_glide_emodel>
-46.798

> <r_i_glide_energy>
-36.4675

> <r_i_glide_erotb>
0.591672

> <r_i_glide_esite>
-0.103994

> <r_i_glide_evdw>
-34.2221

> <r_i_glide_gscore>
-4.55148

> <r_i_glide_hbond>
-0.0961392

> <r_i_glide_ligand_efficiency>
-0.12643

> <r_i_glide_ligand_efficiency_ln>
-0.993011

> <r_i_glide_ligand_efficiency_sa>
-0.417463

> <r_i_glide_lipo>
-2.19719

> <r_i_glide_metal>
0

> <r_i_glide_rewards>
-0.697918

> <s_i_glide_gridfile>
wee1_glide-grid

> <s_m_Source_File>
wee1_decoys_glide_SP.sdf

> <s_m_Source_Path>
/Users/zhangxujun/Desktop

> <s_m_entry_id>
2018

> <s_m_entry_name>
wee1_decoys_glide_SP.1743

> <s_m_subgroup_title>
wee1_decoys_glide_SP

> <s_m_subgroupid>
wee1_decoys_glide_SP


$$$$
