ZINC35752828_2120
                    3D
 Schrodinger Suite 2024-2.
 67 70  0  0  1  0            999 V2000
    8.9083   56.1878   18.2328 C   0  0  0  0  0  0
    7.8570   55.7532   19.2384 C   0  0  0  0  0  0
    8.1757   55.6971   20.5947 C   0  0  0  0  0  0
    7.2200   55.3015   21.5239 C   0  0  0  0  0  0
    5.9439   54.8962   21.1066 C   0  0  0  0  0  0
    5.6303   54.9609   19.7361 C   0  0  0  0  0  0
    6.5808   55.3915   18.8112 C   0  0  0  0  0  0
    4.9649   54.3573   22.1321 C   0  0  0  0  0  0
    5.2805   54.3049   23.3243 O   0  0  0  0  0  0
    3.7770   53.9340   21.6545 N   0  0  0  0  0  0
    2.6889   53.4136   22.3706 C   0  0  0  0  0  0
    2.3752   53.7989   23.6793 C   0  0  0  0  0  0
    1.2943   53.2152   24.3289 C   0  0  0  0  0  0
    0.5174   52.2435   23.6849 C   0  0  0  0  0  0
    0.8055   51.9058   22.3584 C   0  0  0  0  0  0
    1.8808   52.4935   21.7002 C   0  0  0  0  0  0
   -0.6006   51.4698   24.4010 C   0  0  2  0  0  0
   -1.4701   51.4963   23.7410 H   0  0  0  0  0  0
   -0.9577   51.8873   25.8301 C   0  0  2  0  0  0
   -0.7794   52.9394   26.0157 H   0  0  0  0  0  0
   -0.0579   51.0410   26.6016 N   0  0  0  0  0  0
    0.3042   49.9175   25.8488 C   0  0  0  0  0  0
    0.9350   48.9060   26.1384 O   0  0  0  0  0  0
   -0.2154   50.1214   24.6166 O   0  0  0  0  0  0
    0.3345   51.2829   27.9932 C   0  0  0  0  0  0
    1.0856   52.5832   28.2492 C   0  0  0  0  0  0
    2.3065   52.8265   27.6167 C   0  0  0  0  0  0
    3.0296   53.9880   27.8821 C   0  0  0  0  0  0
    2.5404   54.9131   28.8031 C   0  0  0  0  0  0
    1.3265   54.6792   29.4509 C   0  0  0  0  0  0
    0.5981   53.5183   29.1689 C   0  0  0  0  0  0
    0.8100   55.6866   30.4590 C   0  0  0  0  0  0
   -2.4691   51.6967   26.1134 C   0  0  0  0  0  0
   -3.2569   52.4971   25.6081 O   0  0  0  0  0  0
   -2.8709   50.6796   26.9008 N   0  0  0  0  0  0
   -4.2563   50.3610   27.2558 C   0  0  0  0  0  0
   -4.3156   49.0067   27.9750 C   0  0  0  0  0  0
   -4.9444   51.4648   28.0832 C   0  0  0  0  0  0
    8.9699   57.2757   18.1897 H   0  0  0  0  0  0
    9.8888   55.7983   18.5119 H   0  0  0  0  0  0
    8.6946   55.8053   17.2372 H   0  0  0  0  0  0
    9.1611   55.9791   20.9356 H   0  0  0  0  0  0
    7.5016   55.2697   22.5679 H   0  0  0  0  0  0
    4.6598   54.6742   19.3565 H   0  0  0  0  0  0
    6.3234   55.4315   17.7620 H   0  0  0  0  0  0
    3.6602   53.9434   20.6528 H   0  0  0  0  0  0
    2.9613   54.5411   24.2005 H   0  0  0  0  0  0
    1.0935   53.5147   25.3418 H   0  0  0  0  0  0
    0.2195   51.1560   21.8484 H   0  0  0  0  0  0
    2.1021   52.2029   20.6831 H   0  0  0  0  0  0
    1.0001   50.4986   28.3334 H   0  0  0  0  0  0
   -0.5550   51.2257   28.6234 H   0  0  0  0  0  0
    2.7030   52.1066   26.9209 H   0  0  0  0  0  0
    3.9703   54.1653   27.3816 H   0  0  0  0  0  0
    3.1067   55.8073   29.0161 H   0  0  0  0  0  0
   -0.3366   53.3275   29.6781 H   0  0  0  0  0  0
   -0.1383   55.3659   30.8818 H   0  0  0  0  0  0
    1.5044   55.8243   31.2815 H   0  0  0  0  0  0
    0.6940   56.6618   29.9878 H   0  0  0  0  0  0
   -2.1793   50.0299   27.2614 H   0  0  0  0  0  0
   -4.8139   50.2466   26.3224 H   0  0  0  0  0  0
   -5.3387   48.7553   28.2593 H   0  0  0  0  0  0
   -3.9509   48.1970   27.3430 H   0  0  0  0  0  0
   -3.7295   49.0201   28.8953 H   0  0  0  0  0  0
   -5.9404   51.1468   28.4007 H   0  0  0  0  0  0
   -4.3797   51.6968   28.9875 H   0  0  0  0  0  0
   -5.0855   52.3784   27.5031 H   0  0  0  0  0  0
  1  2  1  0  0  0
  1 39  1  0  0  0
  1 40  1  0  0  0
  1 41  1  0  0  0
  2  7  2  0  0  0
  2  3  1  0  0  0
  3  4  2  0  0  0
  3 42  1  0  0  0
  4  5  1  0  0  0
  4 43  1  0  0  0
  5  6  2  0  0  0
  5  8  1  0  0  0
  6  7  1  0  0  0
  6 44  1  0  0  0
  7 45  1  0  0  0
  8  9  2  0  0  0
  8 10  1  0  0  0
 10 11  1  0  0  0
 10 46  1  0  0  0
 11 16  2  0  0  0
 11 12  1  0  0  0
 12 13  2  0  0  0
 12 47  1  0  0  0
 13 14  1  0  0  0
 13 48  1  0  0  0
 14 15  2  0  0  0
 14 17  1  0  0  0
 15 16  1  0  0  0
 15 49  1  0  0  0
 16 50  1  0  0  0
 17 18  1  0  0  0
 17 24  1  0  0  0
 17 19  1  0  0  0
 19 20  1  0  0  0
 19 21  1  0  0  0
 19 33  1  0  0  0
 21 22  1  0  0  0
 21 25  1  0  0  0
 22 23  2  0  0  0
 22 24  1  0  0  0
 25 26  1  0  0  0
 25 51  1  0  0  0
 25 52  1  0  0  0
 26 31  2  0  0  0
 26 27  1  0  0  0
 27 28  2  0  0  0
 27 53  1  0  0  0
 28 29  1  0  0  0
 28 54  1  0  0  0
 29 30  2  0  0  0
 29 55  1  0  0  0
 30 31  1  0  0  0
 30 32  1  0  0  0
 31 56  1  0  0  0
 32 57  1  0  0  0
 32 58  1  0  0  0
 32 59  1  0  0  0
 33 34  2  0  0  0
 33 35  1  0  0  0
 35 36  1  0  0  0
 35 60  1  0  0  0
 36 37  1  0  0  0
 36 38  1  0  0  0
 36 61  1  0  0  0
 37 62  1  0  0  0
 37 63  1  0  0  0
 37 64  1  0  0  0
 38 65  1  0  0  0
 38 66  1  0  0  0
 38 67  1  0  0  0
M  END
> <i_i_glide_confnum>
108

> <i_i_glide_lignum>
2121

> <i_i_glide_posenum>
50

> <i_i_glide_rotatable_bonds>
9

> <i_m_Source_File_Index>
3830

> <b_m_subgroup_collapsed>
0

> <r_i_docking_score>
-5.53496

> <r_i_glide_ecoul>
-2.55525

> <r_i_glide_eff_state_penalty>
0

> <r_i_glide_einternal>
6.92653

> <r_i_glide_emodel>
-61.0513

> <r_i_glide_energy>
-49.7043

> <r_i_glide_erotb>
0.689316

> <r_i_glide_esite>
-0.197039

> <r_i_glide_evdw>
-47.149

> <r_i_glide_gscore>
-5.53496

> <r_i_glide_hbond>
-0.119985

> <r_i_glide_ligand_efficiency>
-0.153749

> <r_i_glide_ligand_efficiency_ln>
-1.20758

> <r_i_glide_ligand_efficiency_sa>
-0.507668

> <r_i_glide_lipo>
-2.90161

> <r_i_glide_metal>
0

> <r_i_glide_rewards>
-0.26491

> <s_i_glide_gridfile>
wee1_glide-grid

> <s_m_Source_File>
wee1_decoys_glide_SP.sdf

> <s_m_Source_Path>
/Users/zhangxujun/Desktop

> <s_m_entry_id>
4105

> <s_m_entry_name>
wee1_decoys_glide_SP.3830

> <s_m_subgroup_title>
wee1_decoys_glide_SP

> <s_m_subgroupid>
wee1_decoys_glide_SP


$$$$
