ZINC39011980_757
                    3D
 Schrodinger Suite 2024-2.
 34 36  0  0  1  0            999 V2000
    3.6883   54.0966   24.1599 C   0  0  0  0  0  0
    4.3005   54.4964   25.3463 C   0  0  0  0  0  0
    5.6789   54.6880   25.3825 C   0  0  0  0  0  0
    6.4411   54.4959   24.2362 C   0  0  0  0  0  0
    5.8309   54.0871   23.0557 C   0  0  0  0  0  0
    4.4477   53.8547   23.0053 C   0  0  0  0  0  0
    3.7413   53.4184   21.6999 C   0  0  1  0  0  0
    3.1043   54.2496   21.4082 H   0  0  0  0  0  0
    4.6422   53.1748   20.6101 N   0  0  0  0  0  0
    4.3048   52.0965   20.0684 N   0  3  0  0  0  0
    3.2154   51.4353   20.6072 C   0  0  0  0  0  0
    2.5222   50.0995   19.8811 S   0  0  0  0  0  0
    2.9561   52.1808   21.7365 N   0  0  0  0  0  0
    1.9077   52.0264   22.6281 N   0  0  0  0  0  0
    1.6053   50.8645   23.0806 C   0  0  0  0  0  0
    0.4775   50.5787   23.9853 C   0  0  0  0  0  0
    0.1864   49.2303   24.2388 C   0  0  0  0  0  0
   -0.8801   48.8621   25.0537 C   0  0  0  0  0  0
   -1.6447   49.8395   25.6813 C   0  0  0  0  0  0
   -1.3777   51.1880   25.4518 C   0  0  0  0  0  0
   -0.3333   51.5620   24.5953 C   0  0  0  0  0  0
   -0.1176   52.8965   24.3581 O   0  0  0  0  0  0
   -2.4672   52.4964   26.3126 Br  0  0  0  0  0  0
   -1.3145   47.0227   25.2758 Br  0  0  0  0  0  0
    6.4514   55.1794   26.8460 Cl  0  0  0  0  0  0
    2.6161   53.9756   24.1535 H   0  0  0  0  0  0
    3.7050   54.6607   26.2326 H   0  0  0  0  0  0
    7.5044   54.6681   24.2561 H   0  0  0  0  0  0
    6.4514   53.9709   22.1826 H   0  0  0  0  0  0
    2.1894   49.9857   22.8144 H   0  0  0  0  0  0
    0.7714   48.4420   23.7855 H   0  0  0  0  0  0
   -2.4472   49.5449   26.3438 H   0  0  0  0  0  0
    0.5793   52.9962   23.7003 H   0  0  0  0  0  0
    4.7814   51.7830   19.2214 H   0  0  0  0  0  0
  1  6  2  0  0  0
  1  2  1  0  0  0
  1 26  1  0  0  0
  2  3  2  0  0  0
  2 27  1  0  0  0
  3  4  1  0  0  0
  3 25  1  0  0  0
  4  5  2  0  0  0
  4 28  1  0  0  0
  5  6  1  0  0  0
  5 29  1  0  0  0
  6  7  1  0  0  0
  7  8  1  0  0  0
  7 13  1  0  0  0
  7  9  1  0  0  0
  9 10  2  0  0  0
 10 11  1  0  0  0
 10 34  1  0  0  0
 11 12  2  0  0  0
 11 13  1  0  0  0
 13 14  1  0  0  0
 14 15  2  0  0  0
 15 16  1  0  0  0
 15 30  1  0  0  0
 16 21  2  0  0  0
 16 17  1  0  0  0
 17 18  2  0  0  0
 17 31  1  0  0  0
 18 19  1  0  0  0
 18 24  1  0  0  0
 19 20  2  0  0  0
 19 32  1  0  0  0
 20 21  1  0  0  0
 20 23  1  0  0  0
 21 22  1  0  0  0
 22 33  1  0  0  0
M  CHG  1  10   1
M  END
> <i_i_glide_confnum>
1

> <i_i_glide_lignum>
758

> <i_i_glide_posenum>
395

> <i_i_glide_rotatable_bonds>
4

> <i_m_Source_File_Index>
331

> <b_m_subgroup_collapsed>
0

> <r_i_docking_score>
-5.10117

> <r_i_glide_ecoul>
-4.57592

> <r_i_glide_eff_state_penalty>
0

> <r_i_glide_einternal>
5.05333

> <r_i_glide_emodel>
-52.8714

> <r_i_glide_energy>
-41.0701

> <r_i_glide_erotb>
0.254624

> <r_i_glide_esite>
-0.158018

> <r_i_glide_evdw>
-36.4942

> <r_i_glide_gscore>
-5.10117

> <r_i_glide_hbond>
-0.194888

> <r_i_glide_ligand_efficiency>
-0.212549

> <r_i_glide_ligand_efficiency_ln>
-1.22095

> <r_i_glide_ligand_efficiency_sa>
-0.613097

> <r_i_glide_lipo>
-2.03853

> <r_i_glide_metal>
0

> <r_i_glide_rewards>
-0.453266

> <s_i_glide_gridfile>
wee1_glide-grid

> <s_m_Source_File>
wee1_decoys_glide_SP.sdf

> <s_m_Source_Path>
/Users/zhangxujun/Desktop

> <s_m_entry_id>
606

> <s_m_entry_name>
wee1_decoys_glide_SP.331

> <s_m_subgroup_title>
wee1_decoys_glide_SP

> <s_m_subgroupid>
wee1_decoys_glide_SP


$$$$
