ZINC67393139_6230
                    3D
 Schrodinger Suite 2024-2.
 61 62  0  0  1  0            999 V2000
   -0.1522   61.4020   14.2302 C   0  0  0  0  0  0
    0.3589   60.0777   14.8145 C   0  0  0  0  0  0
    1.8718   60.1009   15.0804 C   0  0  0  0  0  0
    2.3102   58.7922   15.7718 N   0  3  2  0  0  0
    3.7563   58.8597   16.2976 C   0  0  0  0  0  0
    4.2583   57.4159   16.2944 C   0  0  0  0  0  0
    3.1811   56.5326   15.6301 C   0  0  2  0  0  0
    3.6578   55.8886   14.8869 H   0  0  0  0  0  0
    2.2873   57.5342   14.8832 C   0  0  0  0  0  0
    2.3718   55.5846   16.5673 C   0  0  0  0  0  0
    3.1139   55.0059   17.6893 N   0  0  0  0  0  0
    4.2170   54.2260   17.5874 C   0  0  0  0  0  0
    4.6487   53.8371   16.5002 O   0  0  0  0  0  0
    4.9540   53.9534   18.8662 C   0  0  0  0  0  0
    6.1611   53.6979   18.8500 O   0  0  0  0  0  0
    4.2190   54.0369   20.0060 N   0  0  0  0  0  0
    4.6872   54.1272   21.3340 C   0  0  0  0  0  0
    5.9176   54.7251   21.6375 C   0  0  0  0  0  0
    6.3238   54.8967   22.9572 C   0  0  0  0  0  0
    5.4948   54.5114   24.0163 C   0  0  0  0  0  0
    4.2615   53.9119   23.7122 C   0  0  0  0  0  0
    3.8570   53.7065   22.3879 C   0  0  0  0  0  0
    2.5246   53.0114   22.1286 C   0  0  0  0  0  0
    5.9147   54.8146   25.4381 C   0  0  0  0  0  0
    6.7591   55.6772   25.6811 O   0  0  0  0  0  0
    5.3286   54.0945   26.4079 N   0  0  0  0  0  0
    5.6056   54.2031   27.8383 C   0  0  0  0  0  0
    4.5148   53.4736   28.6340 C   0  0  0  0  0  0
    7.0154   53.6949   28.1984 C   0  0  0  0  0  0
   -1.2275   61.3612   14.0515 H   0  0  0  0  0  0
    0.3304   61.6303   13.2788 H   0  0  0  0  0  0
    0.0379   62.2358   14.9082 H   0  0  0  0  0  0
   -0.1729   59.8652   15.7440 H   0  0  0  0  0  0
    0.1123   59.2691   14.1254 H   0  0  0  0  0  0
    2.4745   60.2079   14.1763 H   0  0  0  0  0  0
    2.1389   60.8966   15.7790 H   0  0  0  0  0  0
    4.3340   59.4879   15.6143 H   0  0  0  0  0  0
    3.7218   59.3246   17.2817 H   0  0  0  0  0  0
    5.1681   57.3854   15.6909 H   0  0  0  0  0  0
    4.5677   57.0843   17.2845 H   0  0  0  0  0  0
    1.2523   57.2234   14.7308 H   0  0  0  0  0  0
    2.6950   57.8185   13.9115 H   0  0  0  0  0  0
    1.5226   56.1209   16.9939 H   0  0  0  0  0  0
    1.9292   54.7751   15.9836 H   0  0  0  0  0  0
    2.8058   55.2962   18.6068 H   0  0  0  0  0  0
    3.2143   54.0757   19.9171 H   0  0  0  0  0  0
    6.5712   55.0835   20.8560 H   0  0  0  0  0  0
    7.2778   55.3706   23.1469 H   0  0  0  0  0  0
    3.5945   53.6083   24.5056 H   0  0  0  0  0  0
    2.0887   52.5980   23.0397 H   0  0  0  0  0  0
    1.8072   53.6969   21.6817 H   0  0  0  0  0  0
    2.6646   52.1814   21.4342 H   0  0  0  0  0  0
    4.6845   53.3672   26.1356 H   0  0  0  0  0  0
    5.5506   55.2596   28.1162 H   0  0  0  0  0  0
    4.7042   53.5478   29.7020 H   0  0  0  0  0  0
    3.5287   53.9037   28.4555 H   0  0  0  0  0  0
    4.4852   52.4099   28.3972 H   0  0  0  0  0  0
    7.1803   53.7301   29.2746 H   0  0  0  0  0  0
    7.1634   52.6606   27.8892 H   0  0  0  0  0  0
    7.7897   54.3155   27.7477 H   0  0  0  0  0  0
    1.6988   58.6581   16.5689 H   0  0  0  0  0  0
  1  2  1  0  0  0
  1 30  1  0  0  0
  1 31  1  0  0  0
  1 32  1  0  0  0
  2  3  1  0  0  0
  2 33  1  0  0  0
  2 34  1  0  0  0
  3  4  1  0  0  0
  3 35  1  0  0  0
  3 36  1  0  0  0
  4  9  1  0  0  0
  4  5  1  0  0  0
  4 61  1  0  0  0
  5  6  1  0  0  0
  5 37  1  0  0  0
  5 38  1  0  0  0
  6  7  1  0  0  0
  6 39  1  0  0  0
  6 40  1  0  0  0
  7  8  1  0  0  0
  7  9  1  0  0  0
  7 10  1  0  0  0
  9 41  1  0  0  0
  9 42  1  0  0  0
 10 11  1  0  0  0
 10 43  1  0  0  0
 10 44  1  0  0  0
 11 12  1  0  0  0
 11 45  1  0  0  0
 12 13  2  0  0  0
 12 14  1  0  0  0
 14 15  2  0  0  0
 14 16  1  0  0  0
 16 17  1  0  0  0
 16 46  1  0  0  0
 17 22  2  0  0  0
 17 18  1  0  0  0
 18 19  2  0  0  0
 18 47  1  0  0  0
 19 20  1  0  0  0
 19 48  1  0  0  0
 20 21  2  0  0  0
 20 24  1  0  0  0
 21 22  1  0  0  0
 21 49  1  0  0  0
 22 23  1  0  0  0
 23 50  1  0  0  0
 23 51  1  0  0  0
 23 52  1  0  0  0
 24 25  2  0  0  0
 24 26  1  0  0  0
 26 27  1  0  0  0
 26 53  1  0  0  0
 27 28  1  0  0  0
 27 29  1  0  0  0
 27 54  1  0  0  0
 28 55  1  0  0  0
 28 56  1  0  0  0
 28 57  1  0  0  0
 29 58  1  0  0  0
 29 59  1  0  0  0
 29 60  1  0  0  0
M  CHG  1   4   1
M  END
> <i_i_glide_confnum>
91

> <i_i_glide_lignum>
6231

> <i_i_glide_posenum>
163

> <i_i_glide_rotatable_bonds>
11

> <i_m_Source_File_Index>
1510

> <b_m_subgroup_collapsed>
0

> <r_i_docking_score>
-6.4773

> <r_i_glide_ecoul>
-10.1609

> <r_i_glide_eff_state_penalty>
0

> <r_i_glide_einternal>
7.52891

> <r_i_glide_emodel>
-63.1299

> <r_i_glide_energy>
-45.8118

> <r_i_glide_erotb>
1.15644

> <r_i_glide_esite>
-0.0890366

> <r_i_glide_evdw>
-35.6509

> <r_i_glide_gscore>
-6.4773

> <r_i_glide_hbond>
-0.774163

> <r_i_glide_ligand_efficiency>
-0.231332

> <r_i_glide_ligand_efficiency_ln>
-1.49515

> <r_i_glide_ligand_efficiency_sa>
-0.70246

> <r_i_glide_lipo>
-2.23602

> <r_i_glide_metal>
0

> <r_i_glide_rewards>
-1.22784

> <s_i_glide_gridfile>
wee1_glide-grid

> <s_m_Source_File>
wee1_decoys_glide_SP.sdf

> <s_m_Source_Path>
/Users/zhangxujun/Desktop

> <s_m_entry_id>
1785

> <s_m_entry_name>
wee1_decoys_glide_SP.1510

> <s_m_subgroup_title>
wee1_decoys_glide_SP

> <s_m_subgroupid>
wee1_decoys_glide_SP


$$$$
