ZINC33263360_3272
                    3D
 Schrodinger Suite 2024-2.
 55 58  0  0  1  0            999 V2000
   -0.0748   48.1243   24.5749 C   0  0  0  0  0  0
   -0.5878   49.5171   24.8653 C   0  0  0  0  0  0
   -1.3547   50.1948   23.9147 C   0  0  0  0  0  0
   -1.8338   51.4774   24.1843 C   0  0  0  0  0  0
   -1.5383   52.0877   25.4031 C   0  0  0  0  0  0
   -0.7513   51.4280   26.3507 C   0  0  0  0  0  0
   -0.2855   50.1334   26.0807 C   0  0  0  0  0  0
   -0.5042   52.0993   27.5551 N   0  0  0  0  0  0
    0.5916   52.0230   28.3415 C   0  0  0  0  0  0
    1.5563   51.2988   28.0934 O   0  0  0  0  0  0
    0.5696   52.9124   29.6171 C   0  0  2  0  0  0
   -0.2809   52.5319   30.1893 H   0  0  0  0  0  0
    0.3037   54.3906   29.2160 C   0  0  0  0  0  0
    1.5061   55.1238   28.5954 C   0  0  0  0  0  0
    2.7663   54.9726   29.4596 C   0  0  0  0  0  0
    2.9667   53.5289   29.6877 N   0  0  0  0  0  0
    1.8905   52.8419   30.4433 C   0  0  0  0  0  0
    4.0655   52.8361   29.2926 C   0  0  0  0  0  0
    4.3043   51.6968   29.6842 O   0  0  0  0  0  0
    4.9646   53.4429   28.3529 C   0  0  0  0  0  0
    6.2428   53.6954   28.4813 N   0  0  0  0  0  0
    6.8249   54.1910   27.3280 N   0  0  0  0  0  0
    5.9983   54.2723   26.3156 C   0  0  0  0  0  0
    4.3733   53.7911   26.7518 S   0  0  0  0  0  0
    6.2802   54.7972   25.0129 C   0  0  0  0  0  0
    7.1044   55.6966   24.8982 O   0  0  0  0  0  0
    5.6151   54.2115   23.9942 N   0  0  0  0  0  0
    5.7011   54.4813   22.6148 C   0  0  0  0  0  0
    4.7099   53.8969   21.8172 C   0  0  0  0  0  0
    4.7017   54.0961   20.4364 C   0  0  0  0  0  0
    5.6851   54.8821   19.8410 C   0  0  0  0  0  0
    6.6837   55.4619   20.6216 C   0  0  0  0  0  0
    6.7015   55.2596   22.0040 C   0  0  0  0  0  0
    7.9056   56.4164   19.8688 Cl  0  0  0  0  0  0
    0.3609   48.0964   23.5786 H   0  0  0  0  0  0
    0.7044   47.8351   25.2800 H   0  0  0  0  0  0
   -0.8851   47.3977   24.6207 H   0  0  0  0  0  0
   -1.5879   49.7252   22.9690 H   0  0  0  0  0  0
   -2.4322   51.9955   23.4505 H   0  0  0  0  0  0
   -1.9194   53.0794   25.6010 H   0  0  0  0  0  0
    0.2830   49.5886   26.8214 H   0  0  0  0  0  0
   -1.2019   52.7758   27.8123 H   0  0  0  0  0  0
   -0.0539   54.8974   30.1122 H   0  0  0  0  0  0
   -0.5720   54.4835   28.5802 H   0  0  0  0  0  0
    1.2737   56.1836   28.4808 H   0  0  0  0  0  0
    1.6964   54.7481   27.5910 H   0  0  0  0  0  0
    2.5860   55.4316   30.4316 H   0  0  0  0  0  0
    3.6384   55.4849   29.0513 H   0  0  0  0  0  0
    2.1384   51.8211   30.7400 H   0  0  0  0  0  0
    1.7326   53.3535   31.3906 H   0  0  0  0  0  0
    4.9529   53.4953   24.2490 H   0  0  0  0  0  0
    3.9315   53.2891   22.2579 H   0  0  0  0  0  0
    3.9276   53.6465   19.8289 H   0  0  0  0  0  0
    5.6748   55.0363   18.7716 H   0  0  0  0  0  0
    7.5047   55.7043   22.5705 H   0  0  0  0  0  0
  1  2  1  0  0  0
  1 35  1  0  0  0
  1 36  1  0  0  0
  1 37  1  0  0  0
  2  7  2  0  0  0
  2  3  1  0  0  0
  3  4  2  0  0  0
  3 38  1  0  0  0
  4  5  1  0  0  0
  4 39  1  0  0  0
  5  6  2  0  0  0
  5 40  1  0  0  0
  6  7  1  0  0  0
  6  8  1  0  0  0
  7 41  1  0  0  0
  8  9  1  0  0  0
  8 42  1  0  0  0
  9 10  2  0  0  0
  9 11  1  0  0  0
 11 12  1  0  0  0
 11 17  1  0  0  0
 11 13  1  0  0  0
 13 14  1  0  0  0
 13 43  1  0  0  0
 13 44  1  0  0  0
 14 15  1  0  0  0
 14 45  1  0  0  0
 14 46  1  0  0  0
 15 16  1  0  0  0
 15 47  1  0  0  0
 15 48  1  0  0  0
 16 17  1  0  0  0
 16 18  1  0  0  0
 17 49  1  0  0  0
 17 50  1  0  0  0
 18 19  2  0  0  0
 18 20  1  0  0  0
 20 24  1  0  0  0
 20 21  2  0  0  0
 21 22  1  0  0  0
 22 23  2  0  0  0
 23 24  1  0  0  0
 23 25  1  0  0  0
 25 26  2  0  0  0
 25 27  1  0  0  0
 27 28  1  0  0  0
 27 51  1  0  0  0
 28 33  2  0  0  0
 28 29  1  0  0  0
 29 30  2  0  0  0
 29 52  1  0  0  0
 30 31  1  0  0  0
 30 53  1  0  0  0
 31 32  2  0  0  0
 31 54  1  0  0  0
 32 33  1  0  0  0
 32 34  1  0  0  0
 33 55  1  0  0  0
M  END
> <i_i_glide_confnum>
128

> <i_i_glide_lignum>
3273

> <i_i_glide_posenum>
180

> <i_i_glide_rotatable_bonds>
8

> <i_m_Source_File_Index>
5063

> <b_m_subgroup_collapsed>
0

> <r_i_docking_score>
-6.57231

> <r_i_glide_ecoul>
-3.58745

> <r_i_glide_eff_state_penalty>
0

> <r_i_glide_einternal>
12.6445

> <r_i_glide_emodel>
-77.0263

> <r_i_glide_energy>
-60.5035

> <r_i_glide_erotb>
0.693498

> <r_i_glide_esite>
-0.0260487

> <r_i_glide_evdw>
-56.916

> <r_i_glide_gscore>
-6.57231

> <r_i_glide_hbond>
-0.33905

> <r_i_glide_ligand_efficiency>
-0.199161

> <r_i_glide_ligand_efficiency_ln>
-1.46165

> <r_i_glide_ligand_efficiency_sa>
-0.638815

> <r_i_glide_lipo>
-2.41259

> <r_i_glide_metal>
0

> <r_i_glide_rewards>
-1.1042

> <s_i_glide_gridfile>
wee1_glide-grid

> <s_m_Source_File>
wee1_decoys_glide_SP.sdf

> <s_m_Source_Path>
/Users/zhangxujun/Desktop

> <s_m_entry_id>
5338

> <s_m_entry_name>
wee1_decoys_glide_SP.5063

> <s_m_subgroup_title>
wee1_decoys_glide_SP

> <s_m_subgroupid>
wee1_decoys_glide_SP


$$$$
