ZINC15967917_4412
                    3D
 Schrodinger Suite 2024-2.
 66 72  0  0  1  0            999 V2000
    4.1672   54.4843   24.1773 C   0  0  0  0  0  0
    3.0036   53.7217   23.5784 C   0  0  0  0  0  0
    1.7288   53.8204   24.1337 C   0  0  0  0  0  0
    0.6986   53.0173   23.6534 C   0  0  0  0  0  0
    0.9462   52.0734   22.6513 C   0  0  0  0  0  0
    2.2087   52.0593   22.0354 C   0  0  0  0  0  0
    3.2265   52.8941   22.4820 C   0  0  0  0  0  0
   -0.0882   51.0869   22.1959 C   0  0  0  0  0  0
    0.0881   50.4274   21.1666 O   0  0  0  0  0  0
   -1.3969   50.8538   23.0330 C   0  0  1  0  0  0
   -1.8576   51.8326   23.1465 H   0  0  0  0  0  0
   -2.3723   49.9221   22.2533 C   0  0  2  0  0  0
   -1.8910   49.1790   21.6117 H   0  0  0  0  0  0
   -3.4116   50.6008   21.3466 C   0  0  0  0  0  0
   -4.7769   50.1339   21.8660 C   0  0  0  0  0  0
   -4.4614   48.9299   22.7506 C   0  0  0  0  0  0
   -3.0987   49.1350   23.2325 N   0  0  0  0  0  0
   -2.8116   49.6501   24.5838 C   0  0  1  0  0  0
   -1.3024   50.1742   24.4631 C   0  0  2  0  0  0
   -0.7991   50.9967   25.6476 C   0  0  0  0  0  0
   -1.2487   52.1805   26.2478 C   0  0  0  0  0  0
   -0.5708   52.7108   27.3507 C   0  0  0  0  0  0
    0.5526   52.0748   27.8677 C   0  0  0  0  0  0
    0.9967   50.8969   27.2820 C   0  0  0  0  0  0
    0.3048   50.3690   26.1926 C   0  0  0  0  0  0
    0.5905   49.2222   25.4891 N   0  0  0  0  0  0
   -0.2370   49.0230   24.4584 C   0  0  0  0  0  0
   -0.1645   48.0961   23.6627 O   0  0  0  0  0  0
   -3.7860   50.6785   25.1397 C   0  0  0  0  0  0
   -4.2158   51.9176   24.6562 C   0  0  0  0  0  0
   -5.0404   52.7296   25.4398 C   0  0  0  0  0  0
   -5.4337   52.2971   26.7121 C   0  0  0  0  0  0
   -5.0126   51.0578   27.2058 C   0  0  0  0  0  0
   -4.1951   50.2653   26.3949 C   0  0  0  0  0  0
   -3.6969   48.9981   26.6394 N   0  0  0  0  0  0
   -3.0106   48.4857   25.6079 C   0  0  0  0  0  0
   -2.6101   47.3238   25.5098 O   0  0  0  0  0  0
   -5.4367   50.6104   28.5950 C   0  0  0  0  0  0
   -5.4635   54.0965   24.9407 C   0  0  0  0  0  0
    3.8313   55.2964   24.8193 H   0  0  0  0  0  0
    4.7915   53.8107   24.7653 H   0  0  0  0  0  0
    4.7909   54.8956   23.3847 H   0  0  0  0  0  0
    1.5394   54.4952   24.9549 H   0  0  0  0  0  0
   -0.2788   53.1250   24.0916 H   0  0  0  0  0  0
    2.4272   51.3756   21.2266 H   0  0  0  0  0  0
    4.2040   52.8375   22.0230 H   0  0  0  0  0  0
   -3.2951   51.6836   21.3056 H   0  0  0  0  0  0
   -3.2985   50.2196   20.3293 H   0  0  0  0  0  0
   -5.2960   50.8978   22.4431 H   0  0  0  0  0  0
   -5.4456   49.8567   21.0482 H   0  0  0  0  0  0
   -5.1546   48.8459   23.5889 H   0  0  0  0  0  0
   -4.5279   47.9920   22.1979 H   0  0  0  0  0  0
   -2.0981   52.7199   25.8661 H   0  0  0  0  0  0
   -0.8956   53.6389   27.7934 H   0  0  0  0  0  0
    1.0773   52.4947   28.7128 H   0  0  0  0  0  0
    1.8676   50.3999   27.6822 H   0  0  0  0  0  0
    1.3311   48.5735   25.7144 H   0  0  0  0  0  0
   -3.8950   52.2756   23.6915 H   0  0  0  0  0  0
   -6.0656   52.9305   27.3192 H   0  0  0  0  0  0
   -3.8316   48.4826   27.4965 H   0  0  0  0  0  0
   -5.9419   51.4009   29.1502 H   0  0  0  0  0  0
   -6.0951   49.7445   28.5288 H   0  0  0  0  0  0
   -4.5603   50.3052   29.1693 H   0  0  0  0  0  0
   -4.7904   54.4694   24.1692 H   0  0  0  0  0  0
   -6.4753   54.0637   24.5398 H   0  0  0  0  0  0
   -5.4363   54.8118   25.7622 H   0  0  0  0  0  0
  1  2  1  0  0  0
  1 40  1  0  0  0
  1 41  1  0  0  0
  1 42  1  0  0  0
  2  7  2  0  0  0
  2  3  1  0  0  0
  3  4  2  0  0  0
  3 43  1  0  0  0
  4  5  1  0  0  0
  4 44  1  0  0  0
  5  6  2  0  0  0
  5  8  1  0  0  0
  6  7  1  0  0  0
  6 45  1  0  0  0
  7 46  1  0  0  0
  8  9  2  0  0  0
  8 10  1  0  0  0
 10 11  1  0  0  0
 10 19  1  0  0  0
 10 12  1  0  0  0
 12 13  1  0  0  0
 12 17  1  0  0  0
 12 14  1  0  0  0
 14 15  1  0  0  0
 14 47  1  0  0  0
 14 48  1  0  0  0
 15 16  1  0  0  0
 15 49  1  0  0  0
 15 50  1  0  0  0
 16 17  1  0  0  0
 16 51  1  0  0  0
 16 52  1  0  0  0
 17 18  1  0  0  0
 18 36  1  0  0  0
 18 19  1  0  0  0
 18 29  1  0  0  0
 19 27  1  0  0  0
 19 20  1  0  0  0
 20 25  2  0  0  0
 20 21  1  0  0  0
 21 22  2  0  0  0
 21 53  1  0  0  0
 22 23  1  0  0  0
 22 54  1  0  0  0
 23 24  2  0  0  0
 23 55  1  0  0  0
 24 25  1  0  0  0
 24 56  1  0  0  0
 25 26  1  0  0  0
 26 27  1  0  0  0
 26 57  1  0  0  0
 27 28  2  0  0  0
 29 34  2  0  0  0
 29 30  1  0  0  0
 30 31  2  0  0  0
 30 58  1  0  0  0
 31 32  1  0  0  0
 31 39  1  0  0  0
 32 33  2  0  0  0
 32 59  1  0  0  0
 33 34  1  0  0  0
 33 38  1  0  0  0
 34 35  1  0  0  0
 35 36  1  0  0  0
 35 60  1  0  0  0
 36 37  2  0  0  0
 38 61  1  0  0  0
 38 62  1  0  0  0
 38 63  1  0  0  0
 39 64  1  0  0  0
 39 65  1  0  0  0
 39 66  1  0  0  0
M  END
> <i_i_glide_confnum>
5

> <i_i_glide_lignum>
4413

> <i_i_glide_posenum>
97

> <i_i_glide_rotatable_bonds>
2

> <i_m_Source_File_Index>
5214

> <b_m_subgroup_collapsed>
0

> <r_i_docking_score>
-3.10373

> <r_i_glide_ecoul>
-0.657298

> <r_i_glide_eff_state_penalty>
0

> <r_i_glide_einternal>
1.23107

> <r_i_glide_emodel>
-37.3235

> <r_i_glide_energy>
-31.4509

> <r_i_glide_erotb>
0.168495

> <r_i_glide_esite>
-0.266442

> <r_i_glide_evdw>
-30.7936

> <r_i_glide_gscore>
-3.10373

> <r_i_glide_hbond>
-0.0463488

> <r_i_glide_ligand_efficiency>
-0.0838845

> <r_i_glide_ligand_efficiency_ln>
-0.673126

> <r_i_glide_ligand_efficiency_sa>
-0.279522

> <r_i_glide_lipo>
-1.24413

> <r_i_glide_metal>
0

> <r_i_glide_rewards>
-0.0770239

> <s_i_glide_gridfile>
wee1_glide-grid

> <s_m_Source_File>
wee1_decoys_glide_SP.sdf

> <s_m_Source_Path>
/Users/zhangxujun/Desktop

> <s_m_entry_id>
5489

> <s_m_entry_name>
wee1_decoys_glide_SP.5214

> <s_m_subgroup_title>
wee1_decoys_glide_SP

> <s_m_subgroupid>
wee1_decoys_glide_SP


$$$$
