ZINC01390560_3864
                    3D
 Schrodinger Suite 2024-2.
 31 33  0  0  1  0            999 V2000
    5.4112   54.4880   24.3913 C   0  0  0  0  0  0
    6.4634   54.9006   23.5772 C   0  0  0  0  0  0
    6.2985   54.9336   22.1948 C   0  0  0  0  0  0
    5.1086   54.4966   21.6184 C   0  0  0  0  0  0
    4.0554   54.0890   22.4312 C   0  0  0  0  0  0
    4.1917   54.0954   23.8247 C   0  0  0  0  0  0
    3.0377   53.6610   24.6844 C   0  0  0  0  0  0
    1.9076   52.9274   24.2967 C   0  0  0  0  0  0
    1.1511   52.7258   25.4299 C   0  0  0  0  0  0
    1.8560   53.3499   26.4492 N   0  0  0  0  0  0
    2.9904   53.9151   25.9767 N   0  0  0  0  0  0
    1.5052   53.5123   27.8210 C   0  0  0  0  0  0
    1.7996   54.7135   28.4817 C   0  0  0  0  0  0
    1.3951   54.9093   29.7995 C   0  0  0  0  0  0
    0.7047   53.9012   30.4643 C   0  0  0  0  0  0
    0.4327   52.6910   29.8336 C   0  0  0  0  0  0
    0.8388   52.4910   28.5151 C   0  0  0  0  0  0
    0.3053   54.0966   31.7376 F   0  0  0  0  0  0
   -0.0541   52.0958   25.5774 N   0  0  0  0  0  0
    7.6497   55.6960   21.0924 Br  0  0  0  0  0  0
    5.5442   54.4819   25.4632 H   0  0  0  0  0  0
    7.3913   55.2361   24.0198 H   0  0  0  0  0  0
    4.9828   54.5230   20.5462 H   0  0  0  0  0  0
    3.1273   53.7911   21.9670 H   0  0  0  0  0  0
    1.6722   52.5726   23.3045 H   0  0  0  0  0  0
    2.3136   55.5153   27.9731 H   0  0  0  0  0  0
    1.6059   55.8429   30.3029 H   0  0  0  0  0  0
   -0.0954   51.9138   30.3695 H   0  0  0  0  0  0
    0.6296   51.5352   28.0520 H   0  0  0  0  0  0
   -0.5018   51.6257   24.8043 H   0  0  0  0  0  0
   -0.5193   52.0360   26.4718 H   0  0  0  0  0  0
  1  6  2  0  0  0
  1  2  1  0  0  0
  1 21  1  0  0  0
  2  3  2  0  0  0
  2 22  1  0  0  0
  3  4  1  0  0  0
  3 20  1  0  0  0
  4  5  2  0  0  0
  4 23  1  0  0  0
  5  6  1  0  0  0
  5 24  1  0  0  0
  6  7  1  0  0  0
  7 11  2  0  0  0
  7  8  1  0  0  0
  8  9  2  0  0  0
  8 25  1  0  0  0
  9 10  1  0  0  0
  9 19  1  0  0  0
 10 11  1  0  0  0
 10 12  1  0  0  0
 12 17  2  0  0  0
 12 13  1  0  0  0
 13 14  2  0  0  0
 13 26  1  0  0  0
 14 15  1  0  0  0
 14 27  1  0  0  0
 15 16  2  0  0  0
 15 18  1  0  0  0
 16 17  1  0  0  0
 16 28  1  0  0  0
 17 29  1  0  0  0
 19 30  1  0  0  0
 19 31  1  0  0  0
M  END
> <i_i_glide_confnum>
1

> <i_i_glide_lignum>
3865

> <i_i_glide_posenum>
375

> <i_i_glide_rotatable_bonds>
2

> <i_m_Source_File_Index>
1706

> <b_m_subgroup_collapsed>
0

> <r_i_docking_score>
-6.37606

> <r_i_glide_ecoul>
-1.2099

> <r_i_glide_eff_state_penalty>
0

> <r_i_glide_einternal>
0.271357

> <r_i_glide_emodel>
-49.2692

> <r_i_glide_energy>
-35.9205

> <r_i_glide_erotb>
0.341335

> <r_i_glide_esite>
-0.024645

> <r_i_glide_evdw>
-34.7106

> <r_i_glide_gscore>
-6.37606

> <r_i_glide_hbond>
0

> <r_i_glide_ligand_efficiency>
-0.318803

> <r_i_glide_ligand_efficiency_ln>
-1.59572

> <r_i_glide_ligand_efficiency_sa>
-0.865365

> <r_i_glide_lipo>
-3.37399

> <r_i_glide_metal>
0

> <r_i_glide_rewards>
-1.40174

> <s_i_glide_gridfile>
wee1_glide-grid

> <s_m_Source_File>
wee1_decoys_glide_SP.sdf

> <s_m_Source_Path>
/Users/zhangxujun/Desktop

> <s_m_entry_id>
1981

> <s_m_entry_name>
wee1_decoys_glide_SP.1706

> <s_m_subgroup_title>
wee1_decoys_glide_SP

> <s_m_subgroupid>
wee1_decoys_glide_SP


$$$$
