ZINC20806539_2403
                    3D
 Schrodinger Suite 2024-2.
 58 62  0  0  1  0            999 V2000
   -2.9282   50.3593   22.1831 C   0  0  0  0  0  0
   -2.3099   51.4129   21.5132 C   0  0  0  0  0  0
   -0.9322   51.5758   21.6039 C   0  0  0  0  0  0
   -0.1664   50.6677   22.3384 C   0  0  0  0  0  0
   -0.7943   49.6072   23.0058 C   0  0  0  0  0  0
   -2.1775   49.4583   22.9347 C   0  0  0  0  0  0
    1.3663   50.8255   22.3663 C   0  0  2  0  0  0
    1.6801   49.9441   22.9336 H   0  0  0  0  0  0
    1.9118   52.0545   23.1280 C   0  0  0  0  0  0
    2.8576   52.8949   22.5839 C   0  0  0  0  0  0
    3.4163   54.0714   23.3941 C   0  0  0  0  0  0
    2.4605   54.4967   24.4822 C   0  0  0  0  0  0
    2.0308   53.3322   25.3650 C   0  0  0  0  0  0
    1.4419   52.1973   24.5320 C   0  0  0  0  0  0
    0.7045   51.3808   25.0804 O   0  0  0  0  0  0
    3.2983   52.7590   21.2507 N   0  0  0  0  0  0
    2.8820   51.6486   20.5016 C   0  0  0  0  0  0
    2.0141   50.7238   20.9803 C   0  0  0  0  0  0
    1.6851   49.4847   20.2423 C   0  0  0  0  0  0
    1.9018   48.4127   20.8027 O   0  0  0  0  0  0
    1.1663   49.5364   18.8346 C   0  0  0  0  0  0
    0.5015   50.6721   18.3483 C   0  0  0  0  0  0
    0.0018   50.6917   17.0484 C   0  0  0  0  0  0
    0.1490   49.5697   16.2359 C   0  0  0  0  0  0
    0.7861   48.4286   16.7113 C   0  0  0  0  0  0
    1.2870   48.4102   18.0091 C   0  0  0  0  0  0
    3.4835   51.5288   19.2816 N   0  0  0  0  0  0
    4.2094   53.7107   20.6744 C   0  0  0  0  0  0
    3.9045   54.3509   19.4630 C   0  0  0  0  0  0
    4.7856   55.2520   18.8747 C   0  0  0  0  0  0
    6.0125   55.5321   19.4839 C   0  0  0  0  0  0
    6.3294   54.8980   20.6891 C   0  0  0  0  0  0
    5.4531   53.9791   21.2583 C   0  0  0  0  0  0
    6.9754   56.4590   18.8460 N   0  3  0  0  0  0
    8.1093   56.5259   19.3098 O   0  0  0  0  0  0
    6.6052   57.1167   17.8787 O   0  5  0  0  0  0
   -4.0005   50.2363   22.1211 H   0  0  0  0  0  0
   -2.8954   52.0990   20.9244 H   0  0  0  0  0  0
   -0.4491   52.3949   21.0896 H   0  0  0  0  0  0
   -0.2143   48.8993   23.5803 H   0  0  0  0  0  0
   -2.6613   48.6431   23.4523 H   0  0  0  0  0  0
    4.4144   53.8671   23.7835 H   0  0  0  0  0  0
    3.4856   54.9651   22.7745 H   0  0  0  0  0  0
    2.9915   55.2433   25.0788 H   0  0  0  0  0  0
    1.5824   54.9859   24.0548 H   0  0  0  0  0  0
    2.9142   52.9192   25.8531 H   0  0  0  0  0  0
    1.3306   53.6222   26.1502 H   0  0  0  0  0  0
    0.3752   51.5506   18.9655 H   0  0  0  0  0  0
   -0.4963   51.5730   16.6734 H   0  0  0  0  0  0
   -0.2345   49.5891   15.2258 H   0  0  0  0  0  0
    0.9038   47.5636   16.0752 H   0  0  0  0  0  0
    1.7866   47.5172   18.3568 H   0  0  0  0  0  0
    3.3555   50.7033   18.7097 H   0  0  0  0  0  0
    4.3124   52.0556   19.0540 H   0  0  0  0  0  0
    2.9747   54.1282   18.9570 H   0  0  0  0  0  0
    4.5103   55.7158   17.9360 H   0  0  0  0  0  0
    7.2795   55.0785   21.1723 H   0  0  0  0  0  0
    5.7643   53.4552   22.1488 H   0  0  0  0  0  0
  1  6  2  0  0  0
  1  2  1  0  0  0
  1 37  1  0  0  0
  2  3  2  0  0  0
  2 38  1  0  0  0
  3  4  1  0  0  0
  3 39  1  0  0  0
  4  5  2  0  0  0
  4  7  1  0  0  0
  5  6  1  0  0  0
  5 40  1  0  0  0
  6 41  1  0  0  0
  7  8  1  0  0  0
  7 18  1  0  0  0
  7  9  1  0  0  0
  9 14  1  0  0  0
  9 10  2  0  0  0
 10 11  1  0  0  0
 10 16  1  0  0  0
 11 12  1  0  0  0
 11 42  1  0  0  0
 11 43  1  0  0  0
 12 13  1  0  0  0
 12 44  1  0  0  0
 12 45  1  0  0  0
 13 14  1  0  0  0
 13 46  1  0  0  0
 13 47  1  0  0  0
 14 15  2  0  0  0
 16 17  1  0  0  0
 16 28  1  0  0  0
 17 18  2  0  0  0
 17 27  1  0  0  0
 18 19  1  0  0  0
 19 20  2  0  0  0
 19 21  1  0  0  0
 21 26  2  0  0  0
 21 22  1  0  0  0
 22 23  2  0  0  0
 22 48  1  0  0  0
 23 24  1  0  0  0
 23 49  1  0  0  0
 24 25  2  0  0  0
 24 50  1  0  0  0
 25 26  1  0  0  0
 25 51  1  0  0  0
 26 52  1  0  0  0
 27 53  1  0  0  0
 27 54  1  0  0  0
 28 33  2  0  0  0
 28 29  1  0  0  0
 29 30  2  0  0  0
 29 55  1  0  0  0
 30 31  1  0  0  0
 30 56  1  0  0  0
 31 32  2  0  0  0
 31 34  1  0  0  0
 32 33  1  0  0  0
 32 57  1  0  0  0
 33 58  1  0  0  0
 34 35  2  0  0  0
 34 36  1  0  0  0
M  CHG  2  34   1  36  -1
M  END
> <i_i_glide_confnum>
37

> <i_i_glide_lignum>
2404

> <i_i_glide_posenum>
304

> <i_i_glide_rotatable_bonds>
5

> <i_m_Source_File_Index>
460

> <b_m_subgroup_collapsed>
0

> <r_i_docking_score>
-3.00205

> <r_i_glide_ecoul>
-0.929622

> <r_i_glide_eff_state_penalty>
0

> <r_i_glide_einternal>
4.95088

> <r_i_glide_emodel>
-30.8492

> <r_i_glide_energy>
-26.9907

> <r_i_glide_erotb>
0.372284

> <r_i_glide_esite>
-0.120545

> <r_i_glide_evdw>
-26.0611

> <r_i_glide_gscore>
-3.00205

> <r_i_glide_hbond>
-0.000682335

> <r_i_glide_ligand_efficiency>
-0.0857727

> <r_i_glide_ligand_efficiency_ln>
-0.659016

> <r_i_glide_ligand_efficiency_sa>
-0.280568

> <r_i_glide_lipo>
-1.33813

> <r_i_glide_metal>
0

> <r_i_glide_rewards>
-0.472481

> <s_i_glide_gridfile>
wee1_glide-grid

> <s_m_Source_File>
wee1_decoys_glide_SP.sdf

> <s_m_Source_Path>
/Users/zhangxujun/Desktop

> <s_m_entry_id>
735

> <s_m_entry_name>
wee1_decoys_glide_SP.460

> <s_m_subgroup_title>
wee1_decoys_glide_SP

> <s_m_subgroupid>
wee1_decoys_glide_SP


$$$$
