ZINC38666268_1045
                    3D
 Schrodinger Suite 2024-2.
 74 77  0  0  1  0            999 V2000
    0.2032   53.6926   30.4550 C   0  0  0  0  0  0
    1.6516   53.3945   30.0806 C   0  0  0  0  0  0
    2.3542   52.4948   30.8818 C   0  0  0  0  0  0
    3.6756   52.1683   30.5995 C   0  0  0  0  0  0
    4.3044   52.7448   29.5018 C   0  0  0  0  0  0
    3.6369   53.6594   28.6922 C   0  0  0  0  0  0
    2.2949   53.9981   28.9781 C   0  0  0  0  0  0
    1.5669   55.0381   28.1475 C   0  0  0  0  0  0
    4.4082   54.2192   27.6573 N   0  0  0  0  0  0
    4.1780   54.0966   26.3317 C   0  0  0  0  0  0
    3.1649   53.5866   25.8412 O   0  0  0  0  0  0
    5.3043   54.6083   25.4888 C   0  0  0  0  0  0
    6.2448   55.2772   25.9331 O   0  0  0  0  0  0
    5.1818   54.2528   24.1953 N   0  0  0  0  0  0
    6.0899   54.5727   23.0880 C   0  0  0  0  0  0
    5.4013   54.7565   21.6856 C   0  0  2  0  0  0
    4.8559   55.6965   21.6818 H   0  0  0  0  0  0
    4.3629   53.6398   21.4328 C   0  0  0  0  0  0
    4.6223   52.5402   20.6091 C   0  0  0  0  0  0
    3.6827   51.5195   20.4817 C   0  0  0  0  0  0
    2.4722   51.5448   21.1860 C   0  0  0  0  0  0
    2.2139   52.6603   21.9939 C   0  0  0  0  0  0
    3.1348   53.6970   22.0994 C   0  0  0  0  0  0
    1.5477   50.4680   21.0931 N   0  0  0  0  0  0
    1.7482   49.4028   20.1073 C   0  0  0  0  0  0
    0.2317   50.5625   21.7255 C   0  0  0  0  0  0
    6.3689   54.8971   20.5695 N   0  0  0  0  0  0
    7.6250   55.5826   20.9062 C   0  0  0  0  0  0
    8.5949   55.5781   19.7100 C   0  0  0  0  0  0
    8.0384   56.2581   18.5331 N   0  0  0  0  0  0
    6.7220   55.6767   18.2094 C   0  0  0  0  0  0
    5.7589   55.5887   19.4200 C   0  0  0  0  0  0
    8.5701   57.4369   18.0096 C   0  0  0  0  0  0
    7.7522   58.4234   17.4393 C   0  0  0  0  0  0
    8.3045   59.5956   16.9241 C   0  0  0  0  0  0
    9.6789   59.8017   16.9911 C   0  0  0  0  0  0
   10.5092   58.8343   17.5445 C   0  0  0  0  0  0
    9.9575   57.6558   18.0441 C   0  0  0  0  0  0
   10.2117   60.9543   16.5230 F   0  0  0  0  0  0
   -0.1590   53.0633   31.2720 H   0  0  0  0  0  0
    0.0917   54.7340   30.7563 H   0  0  0  0  0  0
   -0.4512   53.5191   29.6012 H   0  0  0  0  0  0
    1.8739   52.0391   31.7391 H   0  0  0  0  0  0
    4.2188   51.4783   31.2295 H   0  0  0  0  0  0
    5.3336   52.4857   29.2862 H   0  0  0  0  0  0
    2.1655   55.9476   28.0774 H   0  0  0  0  0  0
    0.6004   55.3051   28.5537 H   0  0  0  0  0  0
    1.3924   54.6449   27.1491 H   0  0  0  0  0  0
    5.3075   54.5996   27.9182 H   0  0  0  0  0  0
    4.3831   53.6761   23.9621 H   0  0  0  0  0  0
    6.6688   55.4635   23.3404 H   0  0  0  0  0  0
    6.8153   53.7593   23.0308 H   0  0  0  0  0  0
    5.5489   52.4622   20.0581 H   0  0  0  0  0  0
    3.9050   50.7027   19.8143 H   0  0  0  0  0  0
    1.2970   52.7479   22.5518 H   0  0  0  0  0  0
    2.8936   54.5439   22.7250 H   0  0  0  0  0  0
    1.7617   49.8178   19.0973 H   0  0  0  0  0  0
    2.7023   48.8969   20.2662 H   0  0  0  0  0  0
    0.9616   48.6475   20.1446 H   0  0  0  0  0  0
    0.3251   50.7840   22.7902 H   0  0  0  0  0  0
   -0.3452   51.3663   21.2673 H   0  0  0  0  0  0
   -0.3394   49.6384   21.6265 H   0  0  0  0  0  0
    7.4272   56.6063   21.2157 H   0  0  0  0  0  0
    8.1504   55.0690   21.7098 H   0  0  0  0  0  0
    8.8850   54.5642   19.4298 H   0  0  0  0  0  0
    9.5043   56.0681   20.0470 H   0  0  0  0  0  0
    6.9009   54.6791   17.8039 H   0  0  0  0  0  0
    6.2352   56.2248   17.4030 H   0  0  0  0  0  0
    4.8502   55.0749   19.1033 H   0  0  0  0  0  0
    5.5029   56.6113   19.7032 H   0  0  0  0  0  0
    6.6786   58.3088   17.4004 H   0  0  0  0  0  0
    7.6639   60.3486   16.4841 H   0  0  0  0  0  0
   11.5760   58.9913   17.5802 H   0  0  0  0  0  0
   10.6250   56.9099   18.4485 H   0  0  0  0  0  0
  1  2  1  0  0  0
  1 40  1  0  0  0
  1 41  1  0  0  0
  1 42  1  0  0  0
  2  7  2  0  0  0
  2  3  1  0  0  0
  3  4  2  0  0  0
  3 43  1  0  0  0
  4  5  1  0  0  0
  4 44  1  0  0  0
  5  6  2  0  0  0
  5 45  1  0  0  0
  6  7  1  0  0  0
  6  9  1  0  0  0
  7  8  1  0  0  0
  8 46  1  0  0  0
  8 47  1  0  0  0
  8 48  1  0  0  0
  9 10  1  0  0  0
  9 49  1  0  0  0
 10 11  2  0  0  0
 10 12  1  0  0  0
 12 13  2  0  0  0
 12 14  1  0  0  0
 14 15  1  0  0  0
 14 50  1  0  0  0
 15 16  1  0  0  0
 15 51  1  0  0  0
 15 52  1  0  0  0
 16 17  1  0  0  0
 16 18  1  0  0  0
 16 27  1  0  0  0
 18 23  2  0  0  0
 18 19  1  0  0  0
 19 20  2  0  0  0
 19 53  1  0  0  0
 20 21  1  0  0  0
 20 54  1  0  0  0
 21 22  2  0  0  0
 21 24  1  0  0  0
 22 23  1  0  0  0
 22 55  1  0  0  0
 23 56  1  0  0  0
 24 25  1  0  0  0
 24 26  1  0  0  0
 25 57  1  0  0  0
 25 58  1  0  0  0
 25 59  1  0  0  0
 26 60  1  0  0  0
 26 61  1  0  0  0
 26 62  1  0  0  0
 27 32  1  0  0  0
 27 28  1  0  0  0
 28 29  1  0  0  0
 28 63  1  0  0  0
 28 64  1  0  0  0
 29 30  1  0  0  0
 29 65  1  0  0  0
 29 66  1  0  0  0
 30 31  1  0  0  0
 30 33  1  0  0  0
 31 32  1  0  0  0
 31 67  1  0  0  0
 31 68  1  0  0  0
 32 69  1  0  0  0
 32 70  1  0  0  0
 33 38  2  0  0  0
 33 34  1  0  0  0
 34 35  2  0  0  0
 34 71  1  0  0  0
 35 36  1  0  0  0
 35 72  1  0  0  0
 36 37  2  0  0  0
 36 39  1  0  0  0
 37 38  1  0  0  0
 37 73  1  0  0  0
 38 74  1  0  0  0
M  END
> <i_i_glide_confnum>
104

> <i_i_glide_lignum>
1046

> <i_i_glide_posenum>
241

> <i_i_glide_rotatable_bonds>
10

> <i_m_Source_File_Index>
1642

> <b_m_subgroup_collapsed>
0

> <r_i_docking_score>
-5.75386

> <r_i_glide_ecoul>
-4.05579

> <r_i_glide_eff_state_penalty>
0

> <r_i_glide_einternal>
12.6098

> <r_i_glide_emodel>
-69.3413

> <r_i_glide_energy>
-55.5863

> <r_i_glide_erotb>
0.689682

> <r_i_glide_esite>
-0.0172343

> <r_i_glide_evdw>
-51.5305

> <r_i_glide_gscore>
-5.75386

> <r_i_glide_hbond>
0

> <r_i_glide_ligand_efficiency>
-0.151417

> <r_i_glide_ligand_efficiency_ln>
-1.2407

> <r_i_glide_ligand_efficiency_sa>
-0.509061

> <r_i_glide_lipo>
-2.40294

> <r_i_glide_metal>
0

> <r_i_glide_rewards>
-0.838469

> <s_i_glide_gridfile>
wee1_glide-grid

> <s_m_Source_File>
wee1_decoys_glide_SP.sdf

> <s_m_Source_Path>
/Users/zhangxujun/Desktop

> <s_m_entry_id>
1917

> <s_m_entry_name>
wee1_decoys_glide_SP.1642

> <s_m_subgroup_title>
wee1_decoys_glide_SP

> <s_m_subgroupid>
wee1_decoys_glide_SP


$$$$
