ZINC50323145_1701
                    3D
 Schrodinger Suite 2024-2.
 42 44  0  0  1  0            999 V2000
    4.0854   51.8206   21.1945 C   0  0  0  0  0  0
    5.0085   53.0113   21.4988 C   0  0  0  0  0  0
    4.2841   54.2515   22.0603 C   0  0  0  0  0  0
    3.8548   54.0966   23.5091 C   0  0  0  0  0  0
    2.7043   53.6094   24.1169 C   0  0  0  0  0  0
    2.9381   53.6966   25.5233 C   0  0  0  0  0  0
    4.0994   54.2876   25.7455 N   0  0  0  0  0  0
    4.6475   54.4865   24.5493 N   0  0  0  0  0  0
    5.5607   54.9033   24.4440 H   0  0  0  0  0  0
    1.9941   53.2637   26.5643 C   0  0  0  0  0  0
    0.8643   52.8963   26.2313 O   0  0  0  0  0  0
    2.3547   53.2966   27.8840 N   0  0  0  0  0  0
    3.7490   53.0295   28.3238 C   0  0  0  0  0  0
    3.7358   52.1092   29.5628 C   0  0  0  0  0  0
    2.8776   52.6358   30.5575 O   0  0  0  0  0  0
    1.5213   52.6147   30.1343 C   0  0  2  0  0  0
    1.1840   51.5925   29.9543 H   0  0  0  0  0  0
    1.2962   53.5180   28.9081 C   0  0  1  0  0  0
    0.3160   53.2439   28.5122 H   0  0  0  0  0  0
    1.2375   54.9333   29.4897 C   0  0  0  0  0  0
    0.5567   54.7665   30.8559 C   0  0  0  0  0  0
    0.6712   53.2770   31.2305 C   0  0  0  0  0  0
    1.6050   53.1342   23.4554 N   0  0  0  0  0  0
    3.5612   51.4689   22.0816 H   0  0  0  0  0  0
    3.3325   52.0879   20.4511 H   0  0  0  0  0  0
    4.6552   50.9827   20.7911 H   0  0  0  0  0  0
    5.8005   52.6998   22.1810 H   0  0  0  0  0  0
    5.5048   53.2927   20.5689 H   0  0  0  0  0  0
    4.9433   55.1133   21.9503 H   0  0  0  0  0  0
    3.4206   54.4803   21.4331 H   0  0  0  0  0  0
    4.3134   52.4959   27.5577 H   0  0  0  0  0  0
    4.1865   53.9936   28.5860 H   0  0  0  0  0  0
    3.4114   51.1062   29.2819 H   0  0  0  0  0  0
    4.7400   52.0034   29.9713 H   0  0  0  0  0  0
    2.2454   55.3288   29.6293 H   0  0  0  0  0  0
    0.7097   55.6207   28.8285 H   0  0  0  0  0  0
    1.0096   55.4194   31.6031 H   0  0  0  0  0  0
   -0.4938   55.0372   30.8003 H   0  0  0  0  0  0
   -0.3141   52.8089   31.2777 H   0  0  0  0  0  0
    1.1080   53.1634   32.2224 H   0  0  0  0  0  0
    1.5535   53.1135   22.4467 H   0  0  0  0  0  0
    0.8127   52.7754   23.9734 H   0  0  0  0  0  0
  1  2  1  0  0  0
  1 24  1  0  0  0
  1 25  1  0  0  0
  1 26  1  0  0  0
  2  3  1  0  0  0
  2 27  1  0  0  0
  2 28  1  0  0  0
  3  4  1  0  0  0
  3 29  1  0  0  0
  3 30  1  0  0  0
  4  8  1  0  0  0
  4  5  2  0  0  0
  5  6  1  0  0  0
  5 23  1  0  0  0
  6  7  2  0  0  0
  6 10  1  0  0  0
  7  8  1  0  0  0
  8  9  1  0  0  0
 10 11  2  0  0  0
 10 12  1  0  0  0
 12 18  1  0  0  0
 12 13  1  0  0  0
 13 14  1  0  0  0
 13 31  1  0  0  0
 13 32  1  0  0  0
 14 15  1  0  0  0
 14 33  1  0  0  0
 14 34  1  0  0  0
 15 16  1  0  0  0
 16 17  1  0  0  0
 16 22  1  0  0  0
 16 18  1  0  0  0
 18 19  1  0  0  0
 18 20  1  0  0  0
 20 21  1  0  0  0
 20 35  1  0  0  0
 20 36  1  0  0  0
 21 22  1  0  0  0
 21 37  1  0  0  0
 21 38  1  0  0  0
 22 39  1  0  0  0
 22 40  1  0  0  0
 23 41  1  0  0  0
 23 42  1  0  0  0
M  END
> <i_i_glide_confnum>
31

> <i_i_glide_lignum>
1702

> <i_i_glide_posenum>
231

> <i_i_glide_rotatable_bonds>
4

> <i_m_Source_File_Index>
4234

> <b_m_subgroup_collapsed>
0

> <r_i_docking_score>
-5.01488

> <r_i_glide_ecoul>
-1.91585

> <r_i_glide_eff_state_penalty>
0

> <r_i_glide_einternal>
1.87395

> <r_i_glide_emodel>
-40.771

> <r_i_glide_energy>
-32.9617

> <r_i_glide_erotb>
0.697914

> <r_i_glide_esite>
0

> <r_i_glide_evdw>
-31.0459

> <r_i_glide_gscore>
-5.01488

> <r_i_glide_hbond>
-0.145011

> <r_i_glide_ligand_efficiency>
-0.250744

> <r_i_glide_ligand_efficiency_ln>
-1.25506

> <r_i_glide_ligand_efficiency_sa>
-0.680624

> <r_i_glide_lipo>
-2.15981

> <r_i_glide_metal>
0

> <r_i_glide_rewards>
-1.56831

> <s_i_glide_gridfile>
wee1_glide-grid

> <s_m_Source_File>
wee1_decoys_glide_SP.sdf

> <s_m_Source_Path>
/Users/zhangxujun/Desktop

> <s_m_entry_id>
4509

> <s_m_entry_name>
wee1_decoys_glide_SP.4234

> <s_m_subgroup_title>
wee1_decoys_glide_SP

> <s_m_subgroupid>
wee1_decoys_glide_SP


$$$$
