ZINC64623131_1209
                    3D
 Schrodinger Suite 2024-2.
 60 65  0  0  1  0            999 V2000
   11.3530   59.4585   18.6026 C   0  0  0  0  0  0
   10.0022   59.7161   18.2246 O   0  0  0  0  0  0
    9.1354   58.6480   18.0817 C   0  0  0  0  0  0
    9.5010   57.3046   18.2471 C   0  0  0  0  0  0
    8.5464   56.3004   18.1286 C   0  0  0  0  0  0
    7.2074   56.6191   17.8648 C   0  0  0  0  0  0
    6.8491   57.9539   17.6740 C   0  0  0  0  0  0
    7.8097   58.9533   17.7799 C   0  0  0  0  0  0
    6.1276   55.5322   17.7308 C   0  0  1  0  0  0
    5.4570   55.9505   16.9771 H   0  0  0  0  0  0
    6.6377   54.1708   17.1623 C   0  0  1  0  0  0
    7.3097   53.6683   17.8607 H   0  0  0  0  0  0
    5.4453   53.2965   16.8319 C   0  0  0  0  0  0
    5.5429   52.8717   15.5643 C   0  0  0  0  0  0
    4.6829   51.9939   14.7611 C   0  0  0  0  0  0
    4.9885   51.7054   13.4793 C   0  0  0  0  0  0
    6.1922   52.3149   12.9245 C   0  0  0  0  0  0
    6.9977   53.1344   13.6529 C   0  0  0  0  0  0
    6.6863   53.4272   14.9860 C   0  0  0  0  0  0
    7.3155   54.1979   15.8482 N   0  3  0  0  0  0
    3.9944   50.6038   12.5237 Cl  0  0  0  0  0  0
    4.3905   53.1304   17.9158 C   0  0  0  0  0  0
    4.0351   54.5292   18.4865 C   0  0  0  0  0  0
    5.2857   55.2059   18.9263 N   0  0  0  0  0  0
    5.8775   54.8205   20.1023 C   0  0  0  0  0  0
    7.0898   54.9003   20.2717 O   0  0  0  0  0  0
    5.0255   54.5066   21.1114 N   0  0  0  0  0  0
    5.2764   54.3656   22.4952 C   0  0  0  0  0  0
    6.5407   54.4987   23.1035 C   0  0  0  0  0  0
    6.6773   54.4362   24.4891 C   0  0  0  0  0  0
    5.5575   54.2296   25.2876 C   0  0  0  0  0  0
    4.2908   54.0967   24.6965 C   0  0  0  0  0  0
    4.1577   54.1360   23.3074 C   0  0  0  0  0  0
    3.1598   53.8325   25.4444 O   0  0  0  0  0  0
    3.3064   54.0925   26.8458 C   0  0  0  0  0  0
    4.6727   53.5915   27.3745 C   0  0  0  0  0  0
    5.7425   54.2125   26.6545 O   0  0  0  0  0  0
   11.8950   60.4007   18.6779 H   0  0  0  0  0  0
   11.4106   58.9680   19.5767 H   0  0  0  0  0  0
   11.8681   58.8419   17.8641 H   0  0  0  0  0  0
   10.5158   57.0180   18.4849 H   0  0  0  0  0  0
    8.8535   55.2756   18.2838 H   0  0  0  0  0  0
    5.8285   58.2304   17.4506 H   0  0  0  0  0  0
    7.5047   59.9806   17.6367 H   0  0  0  0  0  0
    3.8100   51.5217   15.1937 H   0  0  0  0  0  0
    6.4500   52.1082   11.8948 H   0  0  0  0  0  0
    7.8760   53.5546   13.1834 H   0  0  0  0  0  0
    4.7684   52.4962   18.7168 H   0  0  0  0  0  0
    3.4978   52.6349   17.5343 H   0  0  0  0  0  0
    3.2735   54.4983   19.2649 H   0  0  0  0  0  0
    3.5674   55.1449   17.7158 H   0  0  0  0  0  0
    4.0501   54.4553   20.8617 H   0  0  0  0  0  0
    7.4421   54.6798   22.5432 H   0  0  0  0  0  0
    7.6517   54.5510   24.9354 H   0  0  0  0  0  0
    3.1764   54.0214   22.8719 H   0  0  0  0  0  0
    3.2322   55.1664   27.0196 H   0  0  0  0  0  0
    2.4875   53.6140   27.3839 H   0  0  0  0  0  0
    4.7787   53.8220   28.4341 H   0  0  0  0  0  0
    4.7358   52.5044   27.2710 H   0  0  0  0  0  0
    8.1689   54.7177   15.6638 H   0  0  0  0  0  0
  1  2  1  0  0  0
  1 38  1  0  0  0
  1 39  1  0  0  0
  1 40  1  0  0  0
  2  3  1  0  0  0
  3  8  2  0  0  0
  3  4  1  0  0  0
  4  5  2  0  0  0
  4 41  1  0  0  0
  5  6  1  0  0  0
  5 42  1  0  0  0
  6  7  2  0  0  0
  6  9  1  0  0  0
  7  8  1  0  0  0
  7 43  1  0  0  0
  8 44  1  0  0  0
  9 10  1  0  0  0
  9 24  1  0  0  0
  9 11  1  0  0  0
 11 12  1  0  0  0
 11 20  1  0  0  0
 11 13  1  0  0  0
 13 14  2  0  0  0
 13 22  1  0  0  0
 14 19  1  0  0  0
 14 15  1  0  0  0
 15 16  2  0  0  0
 15 45  1  0  0  0
 16 17  1  0  0  0
 16 21  1  0  0  0
 17 18  2  0  0  0
 17 46  1  0  0  0
 18 19  1  0  0  0
 18 47  1  0  0  0
 19 20  2  0  0  0
 20 60  1  0  0  0
 22 23  1  0  0  0
 22 48  1  0  0  0
 22 49  1  0  0  0
 23 24  1  0  0  0
 23 50  1  0  0  0
 23 51  1  0  0  0
 24 25  1  0  0  0
 25 26  2  0  0  0
 25 27  1  0  0  0
 27 28  1  0  0  0
 27 52  1  0  0  0
 28 33  2  0  0  0
 28 29  1  0  0  0
 29 30  2  0  0  0
 29 53  1  0  0  0
 30 31  1  0  0  0
 30 54  1  0  0  0
 31 37  1  0  0  0
 31 32  2  0  0  0
 32 33  1  0  0  0
 32 34  1  0  0  0
 33 55  1  0  0  0
 34 35  1  0  0  0
 35 36  1  0  0  0
 35 56  1  0  0  0
 35 57  1  0  0  0
 36 37  1  0  0  0
 36 58  1  0  0  0
 36 59  1  0  0  0
M  CHG  1  20   1
M  END
> <i_i_glide_confnum>
55

> <i_i_glide_lignum>
1210

> <i_i_glide_posenum>
398

> <i_i_glide_rotatable_bonds>
5

> <i_m_Source_File_Index>
2281

> <b_m_subgroup_collapsed>
0

> <r_i_docking_score>
-4.69928

> <r_i_glide_ecoul>
-6.97692

> <r_i_glide_eff_state_penalty>
0

> <r_i_glide_einternal>
5.94718

> <r_i_glide_emodel>
-50.977

> <r_i_glide_energy>
-40.6125

> <r_i_glide_erotb>
0.337773

> <r_i_glide_esite>
0

> <r_i_glide_evdw>
-33.6356

> <r_i_glide_gscore>
-4.69928

> <r_i_glide_hbond>
0

> <r_i_glide_ligand_efficiency>
-0.134265

> <r_i_glide_ligand_efficiency_ln>
-1.0316

> <r_i_glide_ligand_efficiency_sa>
-0.43919

> <r_i_glide_lipo>
-1.95299

> <r_i_glide_metal>
0

> <r_i_glide_rewards>
-0.355746

> <s_i_glide_gridfile>
wee1_glide-grid

> <s_m_Source_File>
wee1_decoys_glide_SP.sdf

> <s_m_Source_Path>
/Users/zhangxujun/Desktop

> <s_m_entry_id>
2556

> <s_m_entry_name>
wee1_decoys_glide_SP.2281

> <s_m_subgroup_title>
wee1_decoys_glide_SP

> <s_m_subgroupid>
wee1_decoys_glide_SP


$$$$
