ZINC39667095_588
                    3D
 Schrodinger Suite 2024-2.
 74 77  0  0  1  0            999 V2000
    0.2999   48.9732   25.0400 C   0  0  0  0  0  0
   -1.1248   49.5566   25.0924 C   0  0  0  0  0  0
   -1.3610   50.7929   24.1750 C   0  0  2  0  0  0
   -0.5998   51.5204   24.4491 H   0  0  0  0  0  0
   -2.6979   51.5112   24.4357 C   0  0  0  0  0  0
   -3.8421   50.8070   24.8353 C   0  0  0  0  0  0
   -5.0398   51.4806   25.0599 C   0  0  0  0  0  0
   -5.1029   52.8606   24.8822 C   0  0  0  0  0  0
   -3.9770   53.5724   24.4812 C   0  0  0  0  0  0
   -2.7811   52.8971   24.2445 C   0  0  0  0  0  0
   -1.2287   50.4091   22.6751 C   0  0  0  0  0  0
   -2.1472   49.7821   22.1407 O   0  0  0  0  0  0
   -0.1149   50.7497   21.9775 N   0  0  0  0  0  0
    1.0605   51.4177   22.5299 C   0  0  0  0  0  0
    2.1934   51.0067   21.5573 C   0  0  1  0  0  0
    2.5931   50.0710   21.9541 H   0  0  0  0  0  0
    1.5001   50.8192   20.1769 C   0  0  0  0  0  0
    0.1089   50.2875   20.6063 C   0  0  0  0  0  0
    1.3745   52.1473   19.3620 C   0  0  0  0  0  0
    0.5984   51.9671   18.0350 C   0  0  0  0  0  0
    1.2715   50.8428   17.2072 N   0  3  0  0  0  0
    1.4357   49.5218   17.9854 C   0  0  0  0  0  0
    2.2624   49.8395   19.2493 C   0  0  0  0  0  0
    3.3565   52.0363   21.6135 C   0  0  0  0  0  0
    4.4842   51.6718   21.2818 O   0  0  0  0  0  0
    3.1058   53.2931   22.0242 N   0  0  0  0  0  0
    4.0933   54.3563   22.1812 C   0  0  0  0  0  0
    5.0817   54.1926   23.3618 C   0  0  0  0  0  0
    4.5516   54.2416   24.8094 C   0  0  0  0  0  0
    3.1883   54.0958   25.1086 C   0  0  0  0  0  0
    2.7404   54.0953   26.4286 C   0  0  0  0  0  0
    3.6375   54.2704   27.4789 C   0  0  0  0  0  0
    4.9948   54.4165   27.1978 C   0  0  0  0  0  0
    5.4567   54.4060   25.8763 C   0  0  0  0  0  0
    6.9495   54.5615   25.6375 C   0  0  0  0  0  0
    3.1494   54.2818   28.9160 C   0  0  0  0  0  0
    0.3790   48.0967   25.6821 H   0  0  0  0  0  0
    0.5793   48.6506   24.0379 H   0  0  0  0  0  0
    1.0379   49.6962   25.3833 H   0  0  0  0  0  0
   -1.3345   49.8225   26.1296 H   0  0  0  0  0  0
   -1.8239   48.7565   24.8469 H   0  0  0  0  0  0
   -3.8153   49.7378   24.9770 H   0  0  0  0  0  0
   -5.9167   50.9318   25.3693 H   0  0  0  0  0  0
   -6.0340   53.3771   25.0552 H   0  0  0  0  0  0
   -4.0369   54.6413   24.3417 H   0  0  0  0  0  0
   -1.9147   53.4551   23.9194 H   0  0  0  0  0  0
    0.8382   52.4845   22.4531 H   0  0  0  0  0  0
    1.3329   51.1148   23.5428 H   0  0  0  0  0  0
    0.1950   49.2024   20.6923 H   0  0  0  0  0  0
   -0.7039   50.4696   19.9066 H   0  0  0  0  0  0
    0.8506   52.8968   19.9576 H   0  0  0  0  0  0
    2.3544   52.5843   19.1483 H   0  0  0  0  0  0
   -0.4430   51.6760   18.1693 H   0  0  0  0  0  0
    0.6323   52.8673   17.4180 H   0  0  0  0  0  0
    0.7575   50.6761   16.3518 H   0  0  0  0  0  0
    0.4339   49.1436   18.1947 H   0  0  0  0  0  0
    1.9258   48.8265   17.3044 H   0  0  0  0  0  0
    3.2560   50.2181   19.0013 H   0  0  0  0  0  0
    2.4382   48.8975   19.7727 H   0  0  0  0  0  0
    2.1478   53.5562   22.1971 H   0  0  0  0  0  0
    4.6154   54.5646   21.2444 H   0  0  0  0  0  0
    3.5006   55.2502   22.3719 H   0  0  0  0  0  0
    5.6418   53.2662   23.2309 H   0  0  0  0  0  0
    5.8233   54.9827   23.2457 H   0  0  0  0  0  0
    2.4517   53.9682   24.3382 H   0  0  0  0  0  0
    1.6889   53.9713   26.6345 H   0  0  0  0  0  0
    5.6948   54.5494   28.0107 H   0  0  0  0  0  0
    7.5058   54.4700   26.5684 H   0  0  0  0  0  0
    7.3112   53.7860   24.9629 H   0  0  0  0  0  0
    7.1657   55.5263   25.1825 H   0  0  0  0  0  0
    2.2877   53.6257   29.0369 H   0  0  0  0  0  0
    3.9210   53.9168   29.5937 H   0  0  0  0  0  0
    2.8679   55.2905   29.2157 H   0  0  0  0  0  0
    2.1996   51.1386   16.9254 H   0  0  0  0  0  0
  1  2  1  0  0  0
  1 37  1  0  0  0
  1 38  1  0  0  0
  1 39  1  0  0  0
  2  3  1  0  0  0
  2 40  1  0  0  0
  2 41  1  0  0  0
  3  4  1  0  0  0
  3  5  1  0  0  0
  3 11  1  0  0  0
  5 10  2  0  0  0
  5  6  1  0  0  0
  6  7  2  0  0  0
  6 42  1  0  0  0
  7  8  1  0  0  0
  7 43  1  0  0  0
  8  9  2  0  0  0
  8 44  1  0  0  0
  9 10  1  0  0  0
  9 45  1  0  0  0
 10 46  1  0  0  0
 11 12  2  0  0  0
 11 13  1  0  0  0
 13 18  1  0  0  0
 13 14  1  0  0  0
 14 15  1  0  0  0
 14 47  1  0  0  0
 14 48  1  0  0  0
 15 16  1  0  0  0
 15 17  1  0  0  0
 15 24  1  0  0  0
 17 23  1  0  0  0
 17 18  1  0  0  0
 17 19  1  0  0  0
 18 49  1  0  0  0
 18 50  1  0  0  0
 19 20  1  0  0  0
 19 51  1  0  0  0
 19 52  1  0  0  0
 20 21  1  0  0  0
 20 53  1  0  0  0
 20 54  1  0  0  0
 21 22  1  0  0  0
 21 55  1  0  0  0
 21 74  1  0  0  0
 22 23  1  0  0  0
 22 56  1  0  0  0
 22 57  1  0  0  0
 23 58  1  0  0  0
 23 59  1  0  0  0
 24 25  2  0  0  0
 24 26  1  0  0  0
 26 27  1  0  0  0
 26 60  1  0  0  0
 27 28  1  0  0  0
 27 61  1  0  0  0
 27 62  1  0  0  0
 28 29  1  0  0  0
 28 63  1  0  0  0
 28 64  1  0  0  0
 29 34  2  0  0  0
 29 30  1  0  0  0
 30 31  2  0  0  0
 30 65  1  0  0  0
 31 32  1  0  0  0
 31 66  1  0  0  0
 32 33  2  0  0  0
 32 36  1  0  0  0
 33 34  1  0  0  0
 33 67  1  0  0  0
 34 35  1  0  0  0
 35 68  1  0  0  0
 35 69  1  0  0  0
 35 70  1  0  0  0
 36 71  1  0  0  0
 36 72  1  0  0  0
 36 73  1  0  0  0
M  CHG  1  21   1
M  END
> <i_i_glide_confnum>
282

> <i_i_glide_lignum>
589

> <i_i_glide_posenum>
262

> <i_i_glide_rotatable_bonds>
9

> <i_m_Source_File_Index>
4031

> <b_m_subgroup_collapsed>
0

> <r_i_docking_score>
-4.72621

> <r_i_glide_ecoul>
-3.4849

> <r_i_glide_eff_state_penalty>
0

> <r_i_glide_einternal>
6.6182

> <r_i_glide_emodel>
-53.8933

> <r_i_glide_energy>
-42.1211

> <r_i_glide_erotb>
0.752958

> <r_i_glide_esite>
-0.0568796

> <r_i_glide_evdw>
-38.6362

> <r_i_glide_gscore>
-4.72621

> <r_i_glide_hbond>
0

> <r_i_glide_ligand_efficiency>
-0.139006

> <r_i_glide_ligand_efficiency_ln>
-1.04415

> <r_i_glide_ligand_efficiency_sa>
-0.450326

> <r_i_glide_lipo>
-2.58689

> <r_i_glide_metal>
0

> <r_i_glide_rewards>
-0.380859

> <s_i_glide_gridfile>
wee1_glide-grid

> <s_m_Source_File>
wee1_decoys_glide_SP.sdf

> <s_m_Source_Path>
/Users/zhangxujun/Desktop

> <s_m_entry_id>
4306

> <s_m_entry_name>
wee1_decoys_glide_SP.4031

> <s_m_subgroup_title>
wee1_decoys_glide_SP

> <s_m_subgroupid>
wee1_decoys_glide_SP


$$$$
