ZINC38678739_4397
                    3D
 Schrodinger Suite 2024-2.
 51 54  0  0  1  0            999 V2000
   -0.7782   47.3373   18.7946 C   0  0  0  0  0  0
   -0.6116   47.9059   20.2151 C   0  0  1  0  0  0
    0.1718   47.3277   20.7037 H   0  0  0  0  0  0
   -0.2129   49.3947   20.1711 C   0  0  0  0  0  0
   -1.0606   50.2884   20.0917 O   0  0  0  0  0  0
    1.1486   49.5512   20.2429 O   0  0  0  0  0  0
    1.7649   50.7519   20.5618 C   0  0  0  0  0  0
    1.1876   51.7445   21.3656 C   0  0  0  0  0  0
    1.9017   52.8916   21.7012 C   0  0  0  0  0  0
    3.2469   53.0564   21.3547 C   0  0  0  0  0  0
    3.7609   52.1239   20.4418 C   0  0  0  0  0  0
    3.0588   50.9707   20.0800 C   0  0  0  0  0  0
    4.9413   52.3563   19.7802 O   0  0  0  0  0  0
    5.4301   53.6118   19.7455 C   0  0  0  0  0  0
    5.1219   54.5682   20.6397 C   0  0  0  0  0  0
    4.1180   54.2661   21.7908 C   0  0  2  0  0  0
    3.4643   55.1306   21.9015 H   0  0  0  0  0  0
    4.7782   54.1121   23.1933 C   0  0  0  0  0  0
    6.1776   54.0902   23.2811 C   0  0  0  0  0  0
    6.8347   54.0976   24.5001 C   0  0  0  0  0  0
    6.1241   54.1064   25.6902 C   0  0  0  0  0  0
    4.7381   54.0958   25.6454 C   0  0  0  0  0  0
    4.0644   54.0968   24.4187 C   0  0  0  0  0  0
    2.1738   54.0971   24.5548 Br  0  0  0  0  0  0
    5.8995   55.7732   20.6223 C   0  0  0  0  0  0
    6.5628   56.7243   20.5952 N   0  0  0  0  0  0
    6.3193   53.6878   18.7126 N   0  0  0  0  0  0
   -1.8550   47.6784   20.8934 O   0  0  0  0  0  0
   -1.9372   47.7200   22.2783 C   0  0  0  0  0  0
   -0.8950   48.1426   23.1243 C   0  0  0  0  0  0
   -1.0472   48.1234   24.5113 C   0  0  0  0  0  0
   -2.2451   47.6958   25.0775 C   0  0  0  0  0  0
   -3.2916   47.2844   24.2508 C   0  0  0  0  0  0
   -3.1367   47.2944   22.8637 C   0  0  0  0  0  0
   -4.1622   46.8740   22.0849 F   0  0  0  0  0  0
    0.1210   47.4824   18.1915 H   0  0  0  0  0  0
   -0.9790   46.2649   18.8245 H   0  0  0  0  0  0
   -1.6117   47.8119   18.2743 H   0  0  0  0  0  0
    0.1799   51.6499   21.7401 H   0  0  0  0  0  0
    1.3703   53.6645   22.2274 H   0  0  0  0  0  0
    3.5054   50.2730   19.3830 H   0  0  0  0  0  0
    6.8062   54.0968   22.4038 H   0  0  0  0  0  0
    7.9040   54.0921   24.4856 H   0  0  0  0  0  0
    6.6414   54.1022   26.6391 H   0  0  0  0  0  0
    4.1753   54.0877   26.5658 H   0  0  0  0  0  0
    6.7835   54.5543   18.4792 H   0  0  0  0  0  0
    6.3614   52.9344   18.0406 H   0  0  0  0  0  0
    0.0464   48.4942   22.7296 H   0  0  0  0  0  0
   -0.2381   48.4459   25.1493 H   0  0  0  0  0  0
   -2.3624   47.6931   26.1522 H   0  0  0  0  0  0
   -4.2257   46.9646   24.6880 H   0  0  0  0  0  0
  1  2  1  0  0  0
  1 36  1  0  0  0
  1 37  1  0  0  0
  1 38  1  0  0  0
  2  3  1  0  0  0
  2  4  1  0  0  0
  2 28  1  0  0  0
  4  5  2  0  0  0
  4  6  1  0  0  0
  6  7  1  0  0  0
  7 12  2  0  0  0
  7  8  1  0  0  0
  8  9  2  0  0  0
  8 39  1  0  0  0
  9 10  1  0  0  0
  9 40  1  0  0  0
 10 16  1  0  0  0
 10 11  2  0  0  0
 11 12  1  0  0  0
 11 13  1  0  0  0
 12 41  1  0  0  0
 13 14  1  0  0  0
 14 15  2  0  0  0
 14 27  1  0  0  0
 15 16  1  0  0  0
 15 25  1  0  0  0
 16 17  1  0  0  0
 16 18  1  0  0  0
 18 23  2  0  0  0
 18 19  1  0  0  0
 19 20  2  0  0  0
 19 42  1  0  0  0
 20 21  1  0  0  0
 20 43  1  0  0  0
 21 22  2  0  0  0
 21 44  1  0  0  0
 22 23  1  0  0  0
 22 45  1  0  0  0
 23 24  1  0  0  0
 25 26  3  0  0  0
 27 46  1  0  0  0
 27 47  1  0  0  0
 28 29  1  0  0  0
 29 34  2  0  0  0
 29 30  1  0  0  0
 30 31  2  0  0  0
 30 48  1  0  0  0
 31 32  1  0  0  0
 31 49  1  0  0  0
 32 33  2  0  0  0
 32 50  1  0  0  0
 33 34  1  0  0  0
 33 51  1  0  0  0
 34 35  1  0  0  0
M  END
> <i_i_glide_confnum>
11

> <i_i_glide_lignum>
4398

> <i_i_glide_posenum>
239

> <i_i_glide_rotatable_bonds>
7

> <i_m_Source_File_Index>
536

> <b_m_subgroup_collapsed>
0

> <r_i_docking_score>
-4.42564

> <r_i_glide_ecoul>
-5.31652

> <r_i_glide_eff_state_penalty>
0

> <r_i_glide_einternal>
7.38332

> <r_i_glide_emodel>
-46.862

> <r_i_glide_energy>
-39.2653

> <r_i_glide_erotb>
0.394724

> <r_i_glide_esite>
-0.0329965

> <r_i_glide_evdw>
-33.9487

> <r_i_glide_gscore>
-4.42564

> <r_i_glide_hbond>
-0.258187

> <r_i_glide_ligand_efficiency>
-0.13411

> <r_i_glide_ligand_efficiency_ln>
-0.984239

> <r_i_glide_ligand_efficiency_sa>
-0.430163

> <r_i_glide_lipo>
-1.97705

> <r_i_glide_metal>
0

> <r_i_glide_rewards>
-0.0572177

> <s_i_glide_gridfile>
wee1_glide-grid

> <s_m_Source_File>
wee1_decoys_glide_SP.sdf

> <s_m_Source_Path>
/Users/zhangxujun/Desktop

> <s_m_entry_id>
811

> <s_m_entry_name>
wee1_decoys_glide_SP.536

> <s_m_subgroup_title>
wee1_decoys_glide_SP

> <s_m_subgroupid>
wee1_decoys_glide_SP


$$$$
