ZINC15497709_674
                    3D
 Schrodinger Suite 2024-2.
 61 64  0  0  1  0            999 V2000
    5.7323   54.0978   27.5675 C   0  0  0  0  0  0
    6.4213   54.1472   26.3598 C   0  0  0  0  0  0
    5.7161   54.1639   25.1532 C   0  0  0  0  0  0
    4.3181   54.1439   25.1559 C   0  0  0  0  0  0
    3.6316   54.0951   26.3675 C   0  0  0  0  0  0
    4.3404   54.0719   27.5671 C   0  0  0  0  0  0
    3.6717   54.0322   28.7417 F   0  0  0  0  0  0
    6.6289   54.2675   23.6129 S   0  0  0  0  0  0
    7.7238   53.2967   23.6824 O   0  0  0  0  0  0
    6.9022   55.6969   23.4414 O   0  0  0  0  0  0
    5.5299   53.7560   22.3219 N   0  0  0  0  0  0
    5.3460   52.3317   22.0072 C   0  0  0  0  0  0
    3.8632   52.0682   21.6817 C   0  0  0  0  0  0
    3.2377   53.0785   20.6702 C   0  0  0  0  0  0
    3.9043   54.4967   20.7638 C   0  0  0  0  0  0
    5.3783   54.5899   21.1314 C   0  0  0  0  0  0
    3.2952   52.5001   19.2323 C   0  0  0  0  0  0
    3.0878   51.2973   19.0712 O   0  0  0  0  0  0
    3.4993   53.3606   18.2113 N   0  0  0  0  0  0
    3.6430   52.8784   16.9196 N   0  0  0  0  0  0
    4.7551   53.2491   16.2492 C   0  0  0  0  0  0
    5.6365   53.9901   16.6994 O   0  0  0  0  0  0
    4.8680   52.6730   14.9345 C   0  0  0  0  0  0
    4.2504   51.5370   14.4214 C   0  0  0  0  0  0
    4.7513   51.1162   13.1829 C   0  0  0  0  0  0
    5.7303   51.9853   12.6945 C   0  0  0  0  0  0
    6.0458   53.2757   13.8170 S   0  0  0  0  0  0
    6.5572   51.8329   11.4391 C   0  0  0  0  0  0
    7.8416   51.0238   11.7068 C   0  0  0  0  0  0
    7.6669   49.7476   12.5652 C   0  0  0  0  0  0
    6.6565   48.7044   12.0228 C   0  0  0  0  0  0
    5.2823   48.6519   12.7352 C   0  0  0  0  0  0
    4.3207   49.8376   12.4884 C   0  0  0  0  0  0
    6.2749   54.0889   28.5015 H   0  0  0  0  0  0
    7.4995   54.1768   26.3726 H   0  0  0  0  0  0
    3.7594   54.1723   24.2319 H   0  0  0  0  0  0
    2.5524   54.0782   26.3811 H   0  0  0  0  0  0
    5.7717   51.7217   22.7958 H   0  0  0  0  0  0
    5.9045   52.0946   21.1044 H   0  0  0  0  0  0
    3.2443   52.1154   22.5761 H   0  0  0  0  0  0
    3.6744   51.0240   21.4268 H   0  0  0  0  0  0
    2.1538   53.0909   20.7934 H   0  0  0  0  0  0
    3.6557   55.1277   19.9115 H   0  0  0  0  0  0
    3.3177   55.0095   21.5278 H   0  0  0  0  0  0
    5.6811   55.6167   21.3333 H   0  0  0  0  0  0
    5.9925   54.1983   20.3189 H   0  0  0  0  0  0
    3.2883   54.3468   18.2589 H   0  0  0  0  0  0
    2.7709   52.6486   16.4694 H   0  0  0  0  0  0
    3.5036   50.9670   14.9551 H   0  0  0  0  0  0
    6.8213   52.8063   11.0246 H   0  0  0  0  0  0
    5.9786   51.3362   10.6606 H   0  0  0  0  0  0
    8.5623   51.6717   12.2090 H   0  0  0  0  0  0
    8.3051   50.7632   10.7540 H   0  0  0  0  0  0
    7.4124   50.0141   13.5918 H   0  0  0  0  0  0
    8.6536   49.2951   12.6515 H   0  0  0  0  0  0
    7.1011   47.7146   12.1390 H   0  0  0  0  0  0
    6.5174   48.8269   10.9478 H   0  0  0  0  0  0
    5.4274   48.5122   13.8089 H   0  0  0  0  0  0
    4.7780   47.7439   12.3991 H   0  0  0  0  0  0
    4.1986   49.9970   11.4169 H   0  0  0  0  0  0
    3.3245   49.5555   12.8316 H   0  0  0  0  0  0
  1  6  2  0  0  0
  1  2  1  0  0  0
  1 34  1  0  0  0
  2  3  2  0  0  0
  2 35  1  0  0  0
  3  4  1  0  0  0
  3  8  1  0  0  0
  4  5  2  0  0  0
  4 36  1  0  0  0
  5  6  1  0  0  0
  5 37  1  0  0  0
  6  7  1  0  0  0
  8  9  2  0  0  0
  8 10  2  0  0  0
  8 11  1  0  0  0
 11 16  1  0  0  0
 11 12  1  0  0  0
 12 13  1  0  0  0
 12 38  1  0  0  0
 12 39  1  0  0  0
 13 14  1  0  0  0
 13 40  1  0  0  0
 13 41  1  0  0  0
 14 15  1  0  0  0
 14 17  1  0  0  0
 14 42  1  0  0  0
 15 16  1  0  0  0
 15 43  1  0  0  0
 15 44  1  0  0  0
 16 45  1  0  0  0
 16 46  1  0  0  0
 17 18  2  0  0  0
 17 19  1  0  0  0
 19 20  1  0  0  0
 19 47  1  0  0  0
 20 21  1  0  0  0
 20 48  1  0  0  0
 21 22  2  0  0  0
 21 23  1  0  0  0
 23 27  1  0  0  0
 23 24  2  0  0  0
 24 25  1  0  0  0
 24 49  1  0  0  0
 25 33  1  0  0  0
 25 26  2  0  0  0
 26 27  1  0  0  0
 26 28  1  0  0  0
 28 29  1  0  0  0
 28 50  1  0  0  0
 28 51  1  0  0  0
 29 30  1  0  0  0
 29 52  1  0  0  0
 29 53  1  0  0  0
 30 31  1  0  0  0
 30 54  1  0  0  0
 30 55  1  0  0  0
 31 32  1  0  0  0
 31 56  1  0  0  0
 31 57  1  0  0  0
 32 33  1  0  0  0
 32 58  1  0  0  0
 32 59  1  0  0  0
 33 60  1  0  0  0
 33 61  1  0  0  0
M  END
> <i_i_glide_confnum>
419

> <i_i_glide_lignum>
675

> <i_i_glide_posenum>
359

> <i_i_glide_rotatable_bonds>
7

> <i_m_Source_File_Index>
2316

> <b_m_subgroup_collapsed>
0

> <r_i_docking_score>
-2.81624

> <r_i_glide_ecoul>
0.454412

> <r_i_glide_eff_state_penalty>
0

> <r_i_glide_einternal>
5.8689

> <r_i_glide_emodel>
-28.847

> <r_i_glide_energy>
-27.5822

> <r_i_glide_erotb>
0.501674

> <r_i_glide_esite>
-0.179483

> <r_i_glide_evdw>
-28.0366

> <r_i_glide_gscore>
-2.81624

> <r_i_glide_hbond>
0

> <r_i_glide_ligand_efficiency>
-0.0853407

> <r_i_glide_ligand_efficiency_ln>
-0.626318

> <r_i_glide_ligand_efficiency_sa>
-0.273733

> <r_i_glide_lipo>
-1.92944

> <r_i_glide_metal>
0

> <r_i_glide_rewards>
0.124677

> <s_i_glide_gridfile>
wee1_glide-grid

> <s_m_Source_File>
wee1_decoys_glide_SP.sdf

> <s_m_Source_Path>
/Users/zhangxujun/Desktop

> <s_m_entry_id>
2591

> <s_m_entry_name>
wee1_decoys_glide_SP.2316

> <s_m_subgroup_title>
wee1_decoys_glide_SP

> <s_m_subgroupid>
wee1_decoys_glide_SP


$$$$
