ZINC38651416_6005
                    3D
 Schrodinger Suite 2024-2.
 60 63  0  0  1  0            999 V2000
   -1.6796   49.1346   20.0066 C   0  0  0  0  0  0
   -1.0900   50.5147   19.6608 C   0  0  2  0  0  0
   -0.1959   50.3484   19.0559 H   0  0  0  0  0  0
   -0.7088   51.2990   20.9365 C   0  0  0  0  0  0
   -1.4869   52.0968   21.4673 O   0  0  0  0  0  0
    0.5640   51.0242   21.3275 O   0  0  0  0  0  0
    1.2075   51.8134   22.2543 C   0  0  0  0  0  0
    0.7929   51.9155   23.5847 C   0  0  0  0  0  0
    1.5143   52.6934   24.4939 C   0  0  0  0  0  0
    2.6773   53.3891   24.1157 C   0  0  0  0  0  0
    3.0902   53.2342   22.7717 C   0  0  0  0  0  0
    2.3685   52.4715   21.8577 C   0  0  0  0  0  0
    4.2670   53.7624   22.2854 O   0  0  0  0  0  0
    5.1668   54.2463   23.1629 C   0  0  0  0  0  0
    4.9171   54.4977   24.4627 C   0  0  0  0  0  0
    3.5291   54.2650   25.0774 C   0  0  2  0  0  0
    3.1046   55.2728   25.0826 H   0  0  0  0  0  0
    3.5066   53.8491   26.5683 C   0  0  0  0  0  0
    4.6355   53.2969   27.1912 C   0  0  0  0  0  0
    4.5998   52.9093   28.5252 C   0  0  0  0  0  0
    3.4285   53.0667   29.2547 C   0  0  0  0  0  0
    2.3068   53.6539   28.6719 C   0  0  0  0  0  0
    2.3544   54.0521   27.3375 C   0  0  0  0  0  0
    3.3640   52.4966   30.8809 Cl  0  0  0  0  0  0
    5.9094   55.1640   25.2343 C   0  0  0  0  0  0
    6.7044   55.6967   25.8759 N   0  0  0  0  0  0
    6.3168   54.5202   22.4792 N   0  0  0  0  0  0
   -2.0782   51.1937   18.8706 O   0  0  0  0  0  0
   -1.7663   52.3610   18.1951 C   0  0  0  0  0  0
   -0.4728   52.8951   18.0803 C   0  0  0  0  0  0
   -0.2731   54.1122   17.4343 C   0  0  0  0  0  0
   -1.3547   54.8079   16.8876 C   0  0  0  0  0  0
   -2.6361   54.2527   16.9612 C   0  0  0  0  0  0
   -2.8351   53.0374   17.6116 C   0  0  0  0  0  0
   -1.1286   56.1759   16.2388 C   0  0  0  0  0  0
   -1.7539   56.2849   14.8333 C   0  0  0  0  0  0
   -1.6038   57.3158   17.1616 C   0  0  0  0  0  0
   -1.0042   48.5446   20.6283 H   0  0  0  0  0  0
   -2.6290   49.2277   20.5395 H   0  0  0  0  0  0
   -1.8659   48.5598   19.0995 H   0  0  0  0  0  0
   -0.0874   51.3848   23.9164 H   0  0  0  0  0  0
    1.1477   52.7271   25.5065 H   0  0  0  0  0  0
    2.7227   52.3790   20.8405 H   0  0  0  0  0  0
    5.5461   53.1050   26.6427 H   0  0  0  0  0  0
    5.4711   52.4653   28.9756 H   0  0  0  0  0  0
    1.4001   53.7844   29.2437 H   0  0  0  0  0  0
    1.4776   54.4939   26.8894 H   0  0  0  0  0  0
    7.1548   54.8217   22.9560 H   0  0  0  0  0  0
    6.3027   54.5678   21.4690 H   0  0  0  0  0  0
    0.3848   52.3980   18.5087 H   0  0  0  0  0  0
    0.7259   54.5231   17.3909 H   0  0  0  0  0  0
   -3.4842   54.7700   16.5337 H   0  0  0  0  0  0
   -3.8303   52.6217   17.6799 H   0  0  0  0  0  0
   -0.0523   56.3025   16.1026 H   0  0  0  0  0  0
   -1.4288   55.4659   14.1898 H   0  0  0  0  0  0
   -2.8430   56.2676   14.8677 H   0  0  0  0  0  0
   -1.4616   57.2158   14.3455 H   0  0  0  0  0  0
   -1.1545   57.2403   18.1533 H   0  0  0  0  0  0
   -1.3296   58.2911   16.7571 H   0  0  0  0  0  0
   -2.6886   57.3006   17.2817 H   0  0  0  0  0  0
  1  2  1  0  0  0
  1 38  1  0  0  0
  1 39  1  0  0  0
  1 40  1  0  0  0
  2  3  1  0  0  0
  2  4  1  0  0  0
  2 28  1  0  0  0
  4  5  2  0  0  0
  4  6  1  0  0  0
  6  7  1  0  0  0
  7 12  2  0  0  0
  7  8  1  0  0  0
  8  9  2  0  0  0
  8 41  1  0  0  0
  9 10  1  0  0  0
  9 42  1  0  0  0
 10 16  1  0  0  0
 10 11  2  0  0  0
 11 12  1  0  0  0
 11 13  1  0  0  0
 12 43  1  0  0  0
 13 14  1  0  0  0
 14 15  2  0  0  0
 14 27  1  0  0  0
 15 16  1  0  0  0
 15 25  1  0  0  0
 16 17  1  0  0  0
 16 18  1  0  0  0
 18 23  2  0  0  0
 18 19  1  0  0  0
 19 20  2  0  0  0
 19 44  1  0  0  0
 20 21  1  0  0  0
 20 45  1  0  0  0
 21 22  2  0  0  0
 21 24  1  0  0  0
 22 23  1  0  0  0
 22 46  1  0  0  0
 23 47  1  0  0  0
 25 26  3  0  0  0
 27 48  1  0  0  0
 27 49  1  0  0  0
 28 29  1  0  0  0
 29 34  2  0  0  0
 29 30  1  0  0  0
 30 31  2  0  0  0
 30 50  1  0  0  0
 31 32  1  0  0  0
 31 51  1  0  0  0
 32 33  2  0  0  0
 32 35  1  0  0  0
 33 34  1  0  0  0
 33 52  1  0  0  0
 34 53  1  0  0  0
 35 36  1  0  0  0
 35 37  1  0  0  0
 35 54  1  0  0  0
 36 55  1  0  0  0
 36 56  1  0  0  0
 36 57  1  0  0  0
 37 58  1  0  0  0
 37 59  1  0  0  0
 37 60  1  0  0  0
M  END
> <i_i_glide_confnum>
37

> <i_i_glide_lignum>
6006

> <i_i_glide_posenum>
114

> <i_i_glide_rotatable_bonds>
8

> <i_m_Source_File_Index>
187

> <b_m_subgroup_collapsed>
0

> <r_i_docking_score>
-4.91674

> <r_i_glide_ecoul>
-7.54959

> <r_i_glide_eff_state_penalty>
0

> <r_i_glide_einternal>
9.23591

> <r_i_glide_emodel>
-55.7521

> <r_i_glide_energy>
-49.0343

> <r_i_glide_erotb>
0.510452

> <r_i_glide_esite>
-0.00664171

> <r_i_glide_evdw>
-41.4847

> <r_i_glide_gscore>
-4.91674

> <r_i_glide_hbond>
-0.32

> <r_i_glide_ligand_efficiency>
-0.140478

> <r_i_glide_ligand_efficiency_ln>
-1.07933

> <r_i_glide_ligand_efficiency_sa>
-0.459513

> <r_i_glide_lipo>
-2.6166

> <r_i_glide_metal>
0

> <r_i_glide_rewards>
0.722721

> <s_i_glide_gridfile>
wee1_glide-grid

> <s_m_Source_File>
wee1_decoys_glide_SP.sdf

> <s_m_Source_Path>
/Users/zhangxujun/Desktop

> <s_m_entry_id>
462

> <s_m_entry_name>
wee1_decoys_glide_SP.187

> <s_m_subgroup_title>
wee1_decoys_glide_SP

> <s_m_subgroupid>
wee1_decoys_glide_SP


$$$$
