ZINC32933121_2832
                    3D
 Schrodinger Suite 2024-2.
 54 58  0  0  1  0            999 V2000
    0.5388   51.0035   27.5621 C   0  0  0  0  0  0
    0.6283   52.4867   27.1680 C   0  0  2  0  0  0
   -0.3330   52.9493   27.3924 H   0  0  0  0  0  0
    0.9669   52.6678   25.6761 C   0  0  0  0  0  0
    2.3181   53.3178   25.6892 C   0  0  0  0  0  0
    3.1546   53.6595   24.6276 C   0  0  0  0  0  0
    4.4249   54.2155   24.8731 C   0  0  0  0  0  0
    4.7804   54.4962   26.1995 C   0  0  0  0  0  0
    3.9140   54.2085   27.2511 C   0  0  0  0  0  0
    2.6821   53.6049   26.9946 C   0  0  0  0  0  0
    1.6751   53.2213   27.8921 N   0  0  0  0  0  0
    1.9160   53.0629   29.6526 S   0  0  0  0  0  0
    2.3979   51.7005   29.9116 O   0  0  0  0  0  0
    2.7084   54.2186   30.0817 O   0  0  0  0  0  0
    0.1846   53.2558   30.3637 C   0  0  0  0  0  0
    5.4112   54.4965   23.7599 C   0  0  0  0  0  0
    6.5339   54.9352   24.0214 O   0  0  0  0  0  0
    4.9668   54.2463   22.5103 N   0  0  0  0  0  0
    5.5866   54.5017   21.2799 C   0  0  0  0  0  0
    6.5927   55.4698   21.1021 C   0  0  0  0  0  0
    7.1988   55.6725   19.8592 C   0  0  0  0  0  0
    6.7878   54.8705   18.7876 C   0  0  0  0  0  0
    5.7643   53.9143   18.9840 C   0  0  0  0  0  0
    5.1248   53.7275   20.2092 C   0  0  0  0  0  0
    5.6572   53.2964   17.7664 N   0  0  0  0  0  0
    5.1065   52.4788   17.5288 H   0  0  0  0  0  0
    6.5777   53.8689   16.9156 C   0  0  0  0  0  0
    7.2485   54.8387   17.4980 N   0  0  0  0  0  0
    6.7889   53.4158   15.5011 C   0  0  0  0  0  0
    7.6411   54.1328   14.6506 C   0  0  0  0  0  0
    7.8425   53.7123   13.3380 C   0  0  0  0  0  0
    7.2001   52.5696   12.8701 C   0  0  0  0  0  0
    6.3530   51.8469   13.7055 C   0  0  0  0  0  0
    6.1476   52.2695   15.0159 C   0  0  0  0  0  0
    7.3957   52.1611   11.5966 F   0  0  0  0  0  0
   -0.1858   50.4681   26.9460 H   0  0  0  0  0  0
    0.2088   50.8964   28.5955 H   0  0  0  0  0  0
    1.5020   50.4977   27.4612 H   0  0  0  0  0  0
    0.9867   51.7124   25.1479 H   0  0  0  0  0  0
    0.2187   53.2968   25.1954 H   0  0  0  0  0  0
    2.8269   53.4281   23.6243 H   0  0  0  0  0  0
    5.7429   54.9345   26.4324 H   0  0  0  0  0  0
    4.2363   54.4487   28.2501 H   0  0  0  0  0  0
    0.2400   53.1409   31.4452 H   0  0  0  0  0  0
   -0.1855   54.2462   30.1086 H   0  0  0  0  0  0
   -0.4661   52.4880   29.9541 H   0  0  0  0  0  0
    4.0748   53.7869   22.4357 H   0  0  0  0  0  0
    6.9229   56.0808   21.9302 H   0  0  0  0  0  0
    7.9838   56.4009   19.7325 H   0  0  0  0  0  0
    4.3485   52.9843   20.3252 H   0  0  0  0  0  0
    8.1469   55.0206   15.0047 H   0  0  0  0  0  0
    8.4978   54.2694   12.6843 H   0  0  0  0  0  0
    5.8593   50.9583   13.3386 H   0  0  0  0  0  0
    5.4849   51.6969   15.6477 H   0  0  0  0  0  0
  1  2  1  0  0  0
  1 36  1  0  0  0
  1 37  1  0  0  0
  1 38  1  0  0  0
  2  3  1  0  0  0
  2 11  1  0  0  0
  2  4  1  0  0  0
  4  5  1  0  0  0
  4 39  1  0  0  0
  4 40  1  0  0  0
  5 10  2  0  0  0
  5  6  1  0  0  0
  6  7  2  0  0  0
  6 41  1  0  0  0
  7  8  1  0  0  0
  7 16  1  0  0  0
  8  9  2  0  0  0
  8 42  1  0  0  0
  9 10  1  0  0  0
  9 43  1  0  0  0
 10 11  1  0  0  0
 11 12  1  0  0  0
 12 13  2  0  0  0
 12 14  2  0  0  0
 12 15  1  0  0  0
 15 44  1  0  0  0
 15 45  1  0  0  0
 15 46  1  0  0  0
 16 17  2  0  0  0
 16 18  1  0  0  0
 18 19  1  0  0  0
 18 47  1  0  0  0
 19 24  2  0  0  0
 19 20  1  0  0  0
 20 21  2  0  0  0
 20 48  1  0  0  0
 21 22  1  0  0  0
 21 49  1  0  0  0
 22 28  1  0  0  0
 22 23  2  0  0  0
 23 24  1  0  0  0
 23 25  1  0  0  0
 24 50  1  0  0  0
 25 26  1  0  0  0
 25 27  1  0  0  0
 27 28  2  0  0  0
 27 29  1  0  0  0
 29 34  2  0  0  0
 29 30  1  0  0  0
 30 31  2  0  0  0
 30 51  1  0  0  0
 31 32  1  0  0  0
 31 52  1  0  0  0
 32 33  2  0  0  0
 32 35  1  0  0  0
 33 34  1  0  0  0
 33 53  1  0  0  0
 34 54  1  0  0  0
M  END
> <i_i_glide_confnum>
22

> <i_i_glide_lignum>
2833

> <i_i_glide_posenum>
320

> <i_i_glide_rotatable_bonds>
5

> <i_m_Source_File_Index>
1356

> <b_m_subgroup_collapsed>
0

> <r_i_docking_score>
-6.15598

> <r_i_glide_ecoul>
-8.12747

> <r_i_glide_eff_state_penalty>
0

> <r_i_glide_einternal>
6.38481

> <r_i_glide_emodel>
-64.3498

> <r_i_glide_energy>
-48.2643

> <r_i_glide_erotb>
0.373727

> <r_i_glide_esite>
-0.177954

> <r_i_glide_evdw>
-40.1369

> <r_i_glide_gscore>
-6.15598

> <r_i_glide_hbond>
-0.0533631

> <r_i_glide_ligand_efficiency>
-0.186545

> <r_i_glide_ligand_efficiency_ln>
-1.36906

> <r_i_glide_ligand_efficiency_sa>
-0.598349

> <r_i_glide_lipo>
-2.05052

> <r_i_glide_metal>
0

> <r_i_glide_rewards>
-1.0219

> <s_i_glide_gridfile>
wee1_glide-grid

> <s_m_Source_File>
wee1_decoys_glide_SP.sdf

> <s_m_Source_Path>
/Users/zhangxujun/Desktop

> <s_m_entry_id>
1631

> <s_m_entry_name>
wee1_decoys_glide_SP.1356

> <s_m_subgroup_title>
wee1_decoys_glide_SP

> <s_m_subgroupid>
wee1_decoys_glide_SP


$$$$
