ZINC32609573_4233
                    3D
 Schrodinger Suite 2024-2.
 59 62  0  0  1  0            999 V2000
   -0.0184   51.6369   29.6087 C   0  0  0  0  0  0
   -0.8945   51.7581   28.3821 C   0  0  0  0  0  0
   -2.2135   51.2967   28.4002 C   0  0  0  0  0  0
   -3.0233   51.4832   27.2820 C   0  0  0  0  0  0
   -2.4868   52.0522   26.1259 C   0  0  0  0  0  0
   -1.1665   52.4960   26.1073 C   0  0  0  0  0  0
   -0.3728   52.3616   27.2401 C   0  0  0  0  0  0
   -3.4299   52.1202   24.6100 S   0  0  0  0  0  0
   -4.7395   51.4994   24.8380 O   0  0  0  0  0  0
   -3.3018   53.4783   24.0683 O   0  0  0  0  0  0
   -2.4805   51.0214   23.5324 C   0  0  0  0  0  0
   -2.4830   49.6253   23.5612 C   0  0  0  0  0  0
   -1.2912   49.0228   22.4464 S   0  0  0  0  0  0
   -0.8722   50.6754   22.1179 C   0  0  0  0  0  0
   -1.6175   51.5733   22.7064 N   0  0  0  0  0  0
    0.5460   51.1363   21.1080 S   0  0  0  0  0  0
    1.2536   49.8970   20.7699 O   0  0  0  0  0  0
    0.0275   52.0356   20.0715 O   0  0  0  0  0  0
    1.6269   52.1023   22.1681 C   0  0  0  0  0  0
    1.4925   52.0805   23.5591 C   0  0  0  0  0  0
    2.3000   52.8963   24.3465 C   0  0  0  0  0  0
    3.2754   53.6966   23.7532 C   0  0  0  0  0  0
    3.4314   53.6961   22.3654 C   0  0  0  0  0  0
    2.6074   52.8969   21.5743 C   0  0  0  0  0  0
    4.1976   54.5133   24.6373 C   0  0  0  0  0  0
   -3.2284   48.7909   24.3325 N   0  0  0  0  0  0
   -2.8064   48.5546   25.7167 C   0  0  0  0  0  0
   -4.0414   48.3528   26.6160 C   0  0  0  0  0  0
   -4.9021   47.1458   26.1923 C   0  0  0  0  0  0
   -5.1727   47.2564   24.6651 C   0  0  0  0  0  0
   -3.9377   47.6190   23.7988 C   0  0  0  0  0  0
   -4.1889   45.8213   26.5630 C   0  0  0  0  0  0
   -4.0960   44.8970   25.7602 O   0  0  0  0  0  0
   -3.6956   45.6967   27.7949 N   0  0  0  0  0  0
    0.4274   52.6005   29.8569 H   0  0  0  0  0  0
    0.7922   50.9387   29.3941 H   0  0  0  0  0  0
   -0.5805   51.2968   30.4800 H   0  0  0  0  0  0
   -2.6112   50.8130   29.2820 H   0  0  0  0  0  0
   -4.0497   51.1541   27.3082 H   0  0  0  0  0  0
   -0.7536   52.9353   25.2120 H   0  0  0  0  0  0
    0.6471   52.7156   27.2284 H   0  0  0  0  0  0
    0.7687   51.4400   24.0400 H   0  0  0  0  0  0
    2.1954   52.8765   25.4208 H   0  0  0  0  0  0
    4.1858   54.3106   21.8959 H   0  0  0  0  0  0
    2.7146   52.9152   20.4982 H   0  0  0  0  0  0
    3.6382   55.2962   25.1485 H   0  0  0  0  0  0
    4.6360   53.8741   25.4048 H   0  0  0  0  0  0
    5.0194   54.9611   24.0789 H   0  0  0  0  0  0
   -2.1595   47.6755   25.7331 H   0  0  0  0  0  0
   -2.1832   49.3637   26.0919 H   0  0  0  0  0  0
   -3.7869   48.3294   27.6772 H   0  0  0  0  0  0
   -4.6900   49.2273   26.5984 H   0  0  0  0  0  0
   -5.8328   47.0834   26.7579 H   0  0  0  0  0  0
   -5.9938   47.9538   24.4928 H   0  0  0  0  0  0
   -5.6689   46.3536   24.3041 H   0  0  0  0  0  0
   -4.2801   47.8535   22.7898 H   0  0  0  0  0  0
   -3.2474   46.7791   23.7090 H   0  0  0  0  0  0
   -3.2956   44.7926   28.0819 H   0  0  0  0  0  0
   -3.5430   46.5122   28.3727 H   0  0  0  0  0  0
  1  2  1  0  0  0
  1 35  1  0  0  0
  1 36  1  0  0  0
  1 37  1  0  0  0
  2  7  2  0  0  0
  2  3  1  0  0  0
  3  4  2  0  0  0
  3 38  1  0  0  0
  4  5  1  0  0  0
  4 39  1  0  0  0
  5  6  2  0  0  0
  5  8  1  0  0  0
  6  7  1  0  0  0
  6 40  1  0  0  0
  7 41  1  0  0  0
  8  9  2  0  0  0
  8 10  2  0  0  0
  8 11  1  0  0  0
 11 15  1  0  0  0
 11 12  2  0  0  0
 12 13  1  0  0  0
 12 26  1  0  0  0
 13 14  1  0  0  0
 14 15  2  0  0  0
 14 16  1  0  0  0
 16 17  2  0  0  0
 16 18  2  0  0  0
 16 19  1  0  0  0
 19 24  2  0  0  0
 19 20  1  0  0  0
 20 21  2  0  0  0
 20 42  1  0  0  0
 21 22  1  0  0  0
 21 43  1  0  0  0
 22 23  2  0  0  0
 22 25  1  0  0  0
 23 24  1  0  0  0
 23 44  1  0  0  0
 24 45  1  0  0  0
 25 46  1  0  0  0
 25 47  1  0  0  0
 25 48  1  0  0  0
 26 31  1  0  0  0
 26 27  1  0  0  0
 27 28  1  0  0  0
 27 49  1  0  0  0
 27 50  1  0  0  0
 28 29  1  0  0  0
 28 51  1  0  0  0
 28 52  1  0  0  0
 29 30  1  0  0  0
 29 32  1  0  0  0
 29 53  1  0  0  0
 30 31  1  0  0  0
 30 54  1  0  0  0
 30 55  1  0  0  0
 31 56  1  0  0  0
 31 57  1  0  0  0
 32 33  2  0  0  0
 32 34  1  0  0  0
 34 58  1  0  0  0
 34 59  1  0  0  0
M  END
> <i_i_glide_confnum>
89

> <i_i_glide_lignum>
4234

> <i_i_glide_posenum>
195

> <i_i_glide_rotatable_bonds>
6

> <i_m_Source_File_Index>
4991

> <b_m_subgroup_collapsed>
0

> <r_i_docking_score>
-4.30852

> <r_i_glide_ecoul>
-11.5689

> <r_i_glide_eff_state_penalty>
0

> <r_i_glide_einternal>
8.79259

> <r_i_glide_emodel>
-49.2236

> <r_i_glide_energy>
-40.7899

> <r_i_glide_erotb>
0.38042

> <r_i_glide_esite>
-0.15767

> <r_i_glide_evdw>
-29.221

> <r_i_glide_gscore>
-4.30852

> <r_i_glide_hbond>
-0.32

> <r_i_glide_ligand_efficiency>
-0.126721

> <r_i_glide_ligand_efficiency_ln>
-0.951872

> <r_i_glide_ligand_efficiency_sa>
-0.410527

> <r_i_glide_lipo>
-0.9709

> <r_i_glide_metal>
0

> <r_i_glide_rewards>
-0.0439816

> <s_i_glide_gridfile>
wee1_glide-grid

> <s_m_Source_File>
wee1_decoys_glide_SP.sdf

> <s_m_Source_Path>
/Users/zhangxujun/Desktop

> <s_m_entry_id>
5266

> <s_m_entry_name>
wee1_decoys_glide_SP.4991

> <s_m_subgroup_title>
wee1_decoys_glide_SP

> <s_m_subgroupid>
wee1_decoys_glide_SP


$$$$
