ZINC31818108_1969
                    3D
 Schrodinger Suite 2024-2.
 38 41  0  0  1  0            999 V2000
    0.3024   48.9010   25.2816 C   0  0  0  0  0  0
   -0.6267   49.8637   24.5896 C   0  0  0  0  0  0
   -0.6225   50.2988   23.2618 C   0  0  0  0  0  0
   -1.6787   51.2045   23.1544 C   0  0  0  0  0  0
   -2.2408   51.2801   24.4221 N   0  0  0  0  0  0
   -1.6016   50.4323   25.2619 N   0  0  0  0  0  0
   -3.2912   52.0834   24.9002 C   0  0  0  0  0  0
   -3.6227   53.3395   24.2611 C   0  0  0  0  0  0
   -4.5926   54.1131   24.7929 C   0  0  0  0  0  0
   -5.2965   53.6976   25.9941 C   0  0  0  0  0  0
   -4.9678   52.5018   26.5047 N   0  5  0  0  0  0
   -3.9667   51.7530   25.9685 N   0  0  0  0  0  0
   -6.1194   54.4955   26.4388 O   0  0  0  0  0  0
   -2.0961   51.8650   22.0328 N   0  0  0  0  0  0
   -1.6285   51.4319   20.9271 C   0  0  0  0  0  0
   -0.7004   50.2082   20.7621 C   0  0  0  0  0  0
    0.2510   50.0662   22.0147 C   0  0  1  0  0  0
    0.6620   49.0540   22.0322 H   0  0  0  0  0  0
    1.4759   50.9896   21.9057 C   0  0  0  0  0  0
    2.4734   50.7004   20.9640 C   0  0  0  0  0  0
    3.5819   51.5347   20.8210 C   0  0  0  0  0  0
    3.7129   52.6678   21.6220 C   0  0  0  0  0  0
    2.7273   52.9672   22.5639 C   0  0  0  0  0  0
    1.6180   52.1357   22.7025 C   0  0  0  0  0  0
    2.8863   54.4966   23.6860 Br  0  0  0  0  0  0
    4.7994   53.4637   21.4885 F   0  0  0  0  0  0
   -1.9549   52.0965   19.7752 O   0  0  0  0  0  0
   -0.0817   47.8812   25.2558 H   0  0  0  0  0  0
    1.2814   48.8961   24.8037 H   0  0  0  0  0  0
    0.4658   49.1552   26.3308 H   0  0  0  0  0  0
   -3.1160   53.7050   23.3812 H   0  0  0  0  0  0
   -4.8520   55.0518   24.3298 H   0  0  0  0  0  0
   -1.3350   49.3238   20.6989 H   0  0  0  0  0  0
   -0.1302   50.2674   19.8349 H   0  0  0  0  0  0
    2.3876   49.8300   20.3295 H   0  0  0  0  0  0
    4.3365   51.3053   20.0822 H   0  0  0  0  0  0
    0.8726   52.3959   23.4387 H   0  0  0  0  0  0
   -1.5146   51.6792   19.0308 H   0  0  0  0  0  0
  1  2  1  0  0  0
  1 28  1  0  0  0
  1 29  1  0  0  0
  1 30  1  0  0  0
  2  6  2  0  0  0
  2  3  1  0  0  0
  3 17  1  0  0  0
  3  4  2  0  0  0
  4  5  1  0  0  0
  4 14  1  0  0  0
  5  6  1  0  0  0
  5  7  1  0  0  0
  7 12  2  0  0  0
  7  8  1  0  0  0
  8  9  2  0  0  0
  8 31  1  0  0  0
  9 10  1  0  0  0
  9 32  1  0  0  0
 10 11  1  0  0  0
 10 13  2  0  0  0
 11 12  1  0  0  0
 14 15  2  0  0  0
 15 16  1  0  0  0
 15 27  1  0  0  0
 16 17  1  0  0  0
 16 33  1  0  0  0
 16 34  1  0  0  0
 17 18  1  0  0  0
 17 19  1  0  0  0
 19 24  2  0  0  0
 19 20  1  0  0  0
 20 21  2  0  0  0
 20 35  1  0  0  0
 21 22  1  0  0  0
 21 36  1  0  0  0
 22 23  2  0  0  0
 22 26  1  0  0  0
 23 24  1  0  0  0
 23 25  1  0  0  0
 24 37  1  0  0  0
 27 38  1  0  0  0
M  CHG  1  11  -1
M  END
> <i_i_glide_confnum>
7

> <i_i_glide_lignum>
1970

> <i_i_glide_posenum>
27

> <i_i_glide_rotatable_bonds>
3

> <i_m_Source_File_Index>
4600

> <b_m_subgroup_collapsed>
0

> <r_i_docking_score>
-4.60048

> <r_i_glide_ecoul>
-6.40579

> <r_i_glide_eff_state_penalty>
0

> <r_i_glide_einternal>
0.48455

> <r_i_glide_emodel>
-48.6809

> <r_i_glide_energy>
-37.1395

> <r_i_glide_erotb>
0.227076

> <r_i_glide_esite>
-0.026511

> <r_i_glide_evdw>
-30.7337

> <r_i_glide_gscore>
-4.60048

> <r_i_glide_hbond>
-0.527306

> <r_i_glide_ligand_efficiency>
-0.176941

> <r_i_glide_ligand_efficiency_ln>
-1.08041

> <r_i_glide_ligand_efficiency_sa>
-0.524188

> <r_i_glide_lipo>
-1.00847

> <r_i_glide_metal>
0

> <r_i_glide_rewards>
-0.767714

> <s_i_glide_gridfile>
wee1_glide-grid

> <s_m_Source_File>
wee1_decoys_glide_SP.sdf

> <s_m_Source_Path>
/Users/zhangxujun/Desktop

> <s_m_entry_id>
4875

> <s_m_entry_name>
wee1_decoys_glide_SP.4600

> <s_m_subgroup_title>
wee1_decoys_glide_SP

> <s_m_subgroupid>
wee1_decoys_glide_SP


$$$$
