ZINC52012312_1654
                    3D
 Schrodinger Suite 2024-2.
 46 47  0  0  1  0            999 V2000
    0.3840   52.9002   23.5405 C   0  0  0  0  0  0
    0.4497   51.3940   23.2271 C   0  0  0  0  0  0
    1.9044   50.9014   23.0658 C   0  0  0  0  0  0
    2.7386   51.7602   22.0734 C   0  0  2  0  0  0
    3.7813   51.4413   22.0817 H   0  0  0  0  0  0
    2.6548   53.2851   22.3925 C   0  0  1  0  0  0
    3.0964   53.8457   21.5634 H   0  0  0  0  0  0
    1.1721   53.6956   22.4824 C   0  0  0  0  0  0
    3.3853   53.6960   23.5994 N   0  0  0  0  0  0
    4.7014   53.9680   23.7041 C   0  0  0  0  0  0
    5.4731   53.7862   22.7577 O   0  0  0  0  0  0
    5.1187   54.3286   24.9513 N   0  0  0  0  0  0
    6.5652   54.4916   25.2124 C   0  0  0  0  0  0
    6.8383   53.9749   26.6429 C   0  0  0  0  0  0
    5.9536   54.6437   27.7021 C   0  0  0  0  0  0
    4.4515   54.5385   27.3468 C   0  0  1  0  0  0
    3.9316   55.2415   27.9977 H   0  0  0  0  0  0
    4.2335   55.0535   25.8986 C   0  0  0  0  0  0
    3.8473   53.1189   27.5199 C   0  0  0  0  0  0
    4.0469   52.3602   28.8621 C   0  0  0  0  0  0
    3.3413   52.9494   30.0807 C   0  0  0  0  0  0
    3.1528   52.1569   31.0316 O   0  0  0  0  0  0
    3.0180   54.1580   30.0815 O   0  5  0  0  0  0
    2.3384   51.4947   20.7396 O   0  0  0  0  0  0
   -0.6554   53.2300   23.5655 H   0  0  0  0  0  0
    0.7865   53.0932   24.5358 H   0  0  0  0  0  0
   -0.1027   51.1899   22.3067 H   0  0  0  0  0  0
   -0.0550   50.8273   24.0115 H   0  0  0  0  0  0
    1.9257   49.8460   22.7900 H   0  0  0  0  0  0
    2.3182   50.9932   24.0663 H   0  0  0  0  0  0
    1.1051   54.7667   22.6769 H   0  0  0  0  0  0
    0.7053   53.5273   21.5093 H   0  0  0  0  0  0
    2.8611   53.6481   24.4592 H   0  0  0  0  0  0
    6.8162   55.5505   25.1331 H   0  0  0  0  0  0
    7.1784   53.9079   24.5216 H   0  0  0  0  0  0
    7.8820   54.1434   26.8984 H   0  0  0  0  0  0
    6.7014   52.8980   26.6811 H   0  0  0  0  0  0
    6.2362   55.6943   27.7714 H   0  0  0  0  0  0
    6.1599   54.2223   28.6865 H   0  0  0  0  0  0
    3.1745   54.9602   25.6584 H   0  0  0  0  0  0
    4.5065   56.0971   25.8412 H   0  0  0  0  0  0
    4.2784   52.4968   26.7450 H   0  0  0  0  0  0
    2.7810   53.1565   27.2943 H   0  0  0  0  0  0
    5.1038   52.2257   29.0863 H   0  0  0  0  0  0
    3.6175   51.3647   28.7680 H   0  0  0  0  0  0
    2.9270   51.9588   20.1382 H   0  0  0  0  0  0
  1  8  1  0  0  0
  1  2  1  0  0  0
  1 25  1  0  0  0
  1 26  1  0  0  0
  2  3  1  0  0  0
  2 27  1  0  0  0
  2 28  1  0  0  0
  3  4  1  0  0  0
  3 29  1  0  0  0
  3 30  1  0  0  0
  4  5  1  0  0  0
  4  6  1  0  0  0
  4 24  1  0  0  0
  6  7  1  0  0  0
  6  8  1  0  0  0
  6  9  1  0  0  0
  8 31  1  0  0  0
  8 32  1  0  0  0
  9 10  1  0  0  0
  9 33  1  0  0  0
 10 11  2  0  0  0
 10 12  1  0  0  0
 12 18  1  0  0  0
 12 13  1  0  0  0
 13 14  1  0  0  0
 13 34  1  0  0  0
 13 35  1  0  0  0
 14 15  1  0  0  0
 14 36  1  0  0  0
 14 37  1  0  0  0
 15 16  1  0  0  0
 15 38  1  0  0  0
 15 39  1  0  0  0
 16 17  1  0  0  0
 16 18  1  0  0  0
 16 19  1  0  0  0
 18 40  1  0  0  0
 18 41  1  0  0  0
 19 20  1  0  0  0
 19 42  1  0  0  0
 19 43  1  0  0  0
 20 21  1  0  0  0
 20 44  1  0  0  0
 20 45  1  0  0  0
 21 22  2  0  0  0
 21 23  1  0  0  0
 24 46  1  0  0  0
M  CHG  1  23  -1
M  END
> <i_i_glide_confnum>
184

> <i_i_glide_lignum>
1655

> <i_i_glide_posenum>
399

> <i_i_glide_rotatable_bonds>
7

> <i_m_Source_File_Index>
4697

> <b_m_subgroup_collapsed>
0

> <r_i_docking_score>
-5.84676

> <r_i_glide_ecoul>
-6.33554

> <r_i_glide_eff_state_penalty>
0

> <r_i_glide_einternal>
2.55412

> <r_i_glide_emodel>
-42.958

> <r_i_glide_energy>
-30.8653

> <r_i_glide_erotb>
1.03668

> <r_i_glide_esite>
0

> <r_i_glide_evdw>
-24.5297

> <r_i_glide_gscore>
-5.84676

> <r_i_glide_hbond>
-0.321498

> <r_i_glide_ligand_efficiency>
-0.278417

> <r_i_glide_ligand_efficiency_ln>
-1.4456

> <r_i_glide_ligand_efficiency_sa>
-0.768132

> <r_i_glide_lipo>
-1.9436

> <r_i_glide_metal>
0

> <r_i_glide_rewards>
-2.44152

> <s_i_glide_gridfile>
wee1_glide-grid

> <s_m_Source_File>
wee1_decoys_glide_SP.sdf

> <s_m_Source_Path>
/Users/zhangxujun/Desktop

> <s_m_entry_id>
4972

> <s_m_entry_name>
wee1_decoys_glide_SP.4697

> <s_m_subgroup_title>
wee1_decoys_glide_SP

> <s_m_subgroupid>
wee1_decoys_glide_SP


$$$$
