ZINC03840771_4361
                    3D
 Schrodinger Suite 2024-2.
 67 71  0  0  1  0            999 V2000
    1.6716   47.8831   20.0427 C   0  0  0  0  0  0
    1.0453   48.9620   20.9606 C   0  0  2  0  0  0
    1.0576   48.5008   21.9457 H   0  0  0  0  0  0
   -0.4089   49.2621   20.6067 C   0  0  0  0  0  0
   -0.8420   50.4838   20.0714 C   0  0  0  0  0  0
   -2.5667   50.4182   19.8374 S   0  0  0  0  0  0
   -2.5365   48.7910   20.4341 C   0  0  0  0  0  0
   -1.3496   48.3497   20.7812 N   0  0  0  0  0  0
   -3.7455   48.1042   20.4890 N   0  0  0  0  0  0
   -3.9411   46.8508   20.9507 C   0  0  0  0  0  0
   -3.0575   46.1272   21.4172 O   0  0  0  0  0  0
   -5.3735   46.2867   20.9058 C   0  0  0  0  0  0
   -6.4364   47.0078   20.0974 C   0  0  0  0  0  0
   -5.8194   45.7127   19.5802 C   0  0  0  0  0  0
    0.0244   51.7124   19.8378 C   0  0  0  0  0  0
    1.5319   51.2902   19.8255 C   0  0  2  0  0  0
    1.8528   50.3125   21.0269 C   0  0  1  0  0  0
    2.9138   50.0620   20.9493 H   0  0  0  0  0  0
    1.7021   51.0808   22.4016 C   0  0  2  0  0  0
    0.6711   51.4204   22.4823 H   0  0  0  0  0  0
    2.6204   52.3444   22.5024 C   0  0  1  0  0  0
    3.6315   51.9686   22.3595 H   0  0  0  0  0  0
    2.3542   53.2473   21.2823 C   0  0  0  0  0  0
    2.4989   52.4964   19.9525 C   0  0  0  0  0  0
    2.5452   53.1510   23.8640 C   0  0  2  0  0  0
    2.4959   52.4148   24.6658 H   0  0  0  0  0  0
    1.2556   54.0180   23.9449 C   0  0  0  0  0  0
    3.8192   54.0102   24.1507 C   0  0  0  0  0  0
    4.5854   54.2364   23.2093 O   0  0  0  0  0  0
    4.1533   54.3817   25.4209 N   0  0  0  0  0  0
    5.4134   55.1171   25.6620 C   0  0  0  0  0  0
    6.2808   54.2963   26.6351 C   0  0  0  0  0  0
    5.5139   54.1143   28.2710 S   0  0  0  0  0  0
    3.9546   53.4226   27.6744 C   0  0  0  0  0  0
    3.2593   54.2676   26.5942 C   0  0  0  0  0  0
    1.8886   50.2446   23.5248 O   0  0  0  0  0  0
    1.8440   50.6584   18.4419 C   0  0  0  0  0  0
    1.1271   46.9397   20.0841 H   0  0  0  0  0  0
    1.6864   48.1466   18.9909 H   0  0  0  0  0  0
    2.7042   47.6966   20.3348 H   0  0  0  0  0  0
   -4.5567   48.6066   20.1663 H   0  0  0  0  0  0
   -5.6789   45.7782   21.8223 H   0  0  0  0  0  0
   -7.4624   46.9894   20.4705 H   0  0  0  0  0  0
   -6.2184   47.9350   19.5677 H   0  0  0  0  0  0
   -5.1464   45.7522   18.7214 H   0  0  0  0  0  0
   -6.4185   44.8021   19.5897 H   0  0  0  0  0  0
   -0.1911   52.3893   20.6611 H   0  0  0  0  0  0
   -0.2508   52.2403   18.9222 H   0  0  0  0  0  0
    1.3616   53.6771   21.3732 H   0  0  0  0  0  0
    3.0359   54.0972   21.2815 H   0  0  0  0  0  0
    2.3163   53.2050   19.1417 H   0  0  0  0  0  0
    3.5331   52.1763   19.8248 H   0  0  0  0  0  0
    1.1068   54.4875   24.9107 H   0  0  0  0  0  0
    1.2692   54.8432   23.2307 H   0  0  0  0  0  0
    0.3648   53.4209   23.7504 H   0  0  0  0  0  0
    5.1745   56.0899   26.0815 H   0  0  0  0  0  0
    5.9661   55.3371   24.7463 H   0  0  0  0  0  0
    6.4641   53.2972   26.2387 H   0  0  0  0  0  0
    7.2509   54.7643   26.7834 H   0  0  0  0  0  0
    4.1916   52.4435   27.2826 H   0  0  0  0  0  0
    3.3018   53.2807   28.5338 H   0  0  0  0  0  0
    2.3046   53.8008   26.3746 H   0  0  0  0  0  0
    3.0489   55.2649   26.9802 H   0  0  0  0  0  0
    1.2638   49.5132   23.4884 H   0  0  0  0  0  0
    1.0617   49.9763   18.1060 H   0  0  0  0  0  0
    1.9220   51.4109   17.6563 H   0  0  0  0  0  0
    2.7920   50.1186   18.4550 H   0  0  0  0  0  0
  1  2  1  0  0  0
  1 38  1  0  0  0
  1 39  1  0  0  0
  1 40  1  0  0  0
  2  3  1  0  0  0
  2 17  1  0  0  0
  2  4  1  0  0  0
  4  8  1  0  0  0
  4  5  2  0  0  0
  5  6  1  0  0  0
  5 15  1  0  0  0
  6  7  1  0  0  0
  7  8  2  0  0  0
  7  9  1  0  0  0
  9 10  1  0  0  0
  9 41  1  0  0  0
 10 11  2  0  0  0
 10 12  1  0  0  0
 12 14  1  0  0  0
 12 13  1  0  0  0
 12 42  1  0  0  0
 13 14  1  0  0  0
 13 43  1  0  0  0
 13 44  1  0  0  0
 14 45  1  0  0  0
 14 46  1  0  0  0
 15 16  1  0  0  0
 15 47  1  0  0  0
 15 48  1  0  0  0
 16 24  1  0  0  0
 16 17  1  0  0  0
 16 37  1  0  0  0
 17 18  1  0  0  0
 17 19  1  0  0  0
 19 20  1  0  0  0
 19 21  1  0  0  0
 19 36  1  0  0  0
 21 22  1  0  0  0
 21 23  1  0  0  0
 21 25  1  0  0  0
 23 24  1  0  0  0
 23 49  1  0  0  0
 23 50  1  0  0  0
 24 51  1  0  0  0
 24 52  1  0  0  0
 25 26  1  0  0  0
 25 27  1  0  0  0
 25 28  1  0  0  0
 27 53  1  0  0  0
 27 54  1  0  0  0
 27 55  1  0  0  0
 28 29  2  0  0  0
 28 30  1  0  0  0
 30 35  1  0  0  0
 30 31  1  0  0  0
 31 32  1  0  0  0
 31 56  1  0  0  0
 31 57  1  0  0  0
 32 33  1  0  0  0
 32 58  1  0  0  0
 32 59  1  0  0  0
 33 34  1  0  0  0
 34 35  1  0  0  0
 34 60  1  0  0  0
 34 61  1  0  0  0
 35 62  1  0  0  0
 35 63  1  0  0  0
 36 64  1  0  0  0
 37 65  1  0  0  0
 37 66  1  0  0  0
 37 67  1  0  0  0
M  END
> <i_i_glide_confnum>
122

> <i_i_glide_lignum>
4362

> <i_i_glide_posenum>
354

> <i_i_glide_rotatable_bonds>
7

> <i_m_Source_File_Index>
1597

> <b_m_subgroup_collapsed>
0

> <r_i_docking_score>
-3.7149

> <r_i_glide_ecoul>
0.610743

> <r_i_glide_eff_state_penalty>
0

> <r_i_glide_einternal>
12.0281

> <r_i_glide_emodel>
-29.2452

> <r_i_glide_energy>
-28.2073

> <r_i_glide_erotb>
0.532702

> <r_i_glide_esite>
0

> <r_i_glide_evdw>
-28.8181

> <r_i_glide_gscore>
-3.7149

> <r_i_glide_hbond>
0

> <r_i_glide_ligand_efficiency>
-0.116091

> <r_i_glide_ligand_efficiency_ln>
-0.831868

> <r_i_glide_ligand_efficiency_sa>
-0.368565

> <r_i_glide_lipo>
-1.99043

> <r_i_glide_metal>
0

> <r_i_glide_rewards>
-0.907883

> <s_i_glide_gridfile>
wee1_glide-grid

> <s_m_Source_File>
wee1_decoys_glide_SP.sdf

> <s_m_Source_Path>
/Users/zhangxujun/Desktop

> <s_m_entry_id>
1872

> <s_m_entry_name>
wee1_decoys_glide_SP.1597

> <s_m_subgroup_title>
wee1_decoys_glide_SP

> <s_m_subgroupid>
wee1_decoys_glide_SP


$$$$
