ZINC43424803_6163
                    3D
 Schrodinger Suite 2024-2.
 38 40  0  0  1  0            999 V2000
   -0.0413   51.2047   27.5854 C   0  0  0  0  0  0
    0.8427   52.2508   27.8138 C   0  0  0  0  0  0
    1.4707   52.9136   26.7503 C   0  0  0  0  0  0
    1.1796   52.4967   25.4286 C   0  0  0  0  0  0
    0.3044   51.4256   25.2111 C   0  0  0  0  0  0
   -0.2947   50.7791   26.2874 C   0  0  0  0  0  0
   -1.1383   49.6964   26.0817 N   0  0  0  0  0  0
    1.7117   53.1731   24.2473 C   0  0  0  0  0  0
    2.1268   53.7085   23.3090 N   0  0  0  0  0  0
    2.3821   53.9258   27.0355 N   0  0  0  0  0  0
    2.1016   54.9249   28.0817 C   0  0  0  0  0  0
    2.8902   54.7198   29.3878 C   0  0  0  0  0  0
    4.2785   54.6165   29.1021 O   0  0  0  0  0  0
    4.5674   53.5148   28.2454 C   0  0  1  0  0  0
    4.2390   52.5795   28.7049 H   0  0  0  0  0  0
    3.8342   53.6967   26.8766 C   0  0  2  0  0  0
    3.9703   52.7380   26.3821 H   0  0  0  0  0  0
    4.4914   54.7172   25.9237 C   0  0  0  0  0  0
    6.0179   54.5685   25.8102 C   0  0  0  0  0  0
    6.6813   54.5557   27.1938 C   0  0  0  0  0  0
    6.1019   53.4462   28.0817 C   0  0  0  0  0  0
   -0.5088   50.7069   28.4230 H   0  0  0  0  0  0
    1.0408   52.5329   28.8355 H   0  0  0  0  0  0
    0.0788   51.0920   24.2070 H   0  0  0  0  0  0
   -1.2956   49.1380   26.9381 H   0  0  0  0  0  0
   -1.0182   49.1880   25.2199 H   0  0  0  0  0  0
    2.3318   55.9103   27.6817 H   0  0  0  0  0  0
    1.0311   54.9643   28.2888 H   0  0  0  0  0  0
    2.7123   55.5564   30.0638 H   0  0  0  0  0  0
    2.5462   53.8216   29.9023 H   0  0  0  0  0  0
    4.0486   54.6829   24.9305 H   0  0  0  0  0  0
    4.2970   55.6967   26.3258 H   0  0  0  0  0  0
    6.4261   55.3818   25.2082 H   0  0  0  0  0  0
    6.2579   53.6476   25.2773 H   0  0  0  0  0  0
    6.5362   55.5209   27.6817 H   0  0  0  0  0  0
    7.7578   54.4230   27.0974 H   0  0  0  0  0  0
    6.5945   53.4527   29.0514 H   0  0  0  0  0  0
    6.3587   52.4967   27.6178 H   0  0  0  0  0  0
  1  6  2  0  0  0
  1  2  1  0  0  0
  1 22  1  0  0  0
  2  3  2  0  0  0
  2 23  1  0  0  0
  3  4  1  0  0  0
  3 10  1  0  0  0
  4  5  2  0  0  0
  4  8  1  0  0  0
  5  6  1  0  0  0
  5 24  1  0  0  0
  6  7  1  0  0  0
  7 25  1  0  0  0
  7 26  1  0  0  0
  8  9  3  0  0  0
 10 16  1  0  0  0
 10 11  1  0  0  0
 11 12  1  0  0  0
 11 27  1  0  0  0
 11 28  1  0  0  0
 12 13  1  0  0  0
 12 29  1  0  0  0
 12 30  1  0  0  0
 13 14  1  0  0  0
 14 15  1  0  0  0
 14 21  1  0  0  0
 14 16  1  0  0  0
 16 17  1  0  0  0
 16 18  1  0  0  0
 18 19  1  0  0  0
 18 31  1  0  0  0
 18 32  1  0  0  0
 19 20  1  0  0  0
 19 33  1  0  0  0
 19 34  1  0  0  0
 20 21  1  0  0  0
 20 35  1  0  0  0
 20 36  1  0  0  0
 21 37  1  0  0  0
 21 38  1  0  0  0
M  END
> <i_i_glide_confnum>
1

> <i_i_glide_lignum>
6164

> <i_i_glide_posenum>
370

> <i_i_glide_rotatable_bonds>
2

> <i_m_Source_File_Index>
1546

> <b_m_subgroup_collapsed>
0

> <r_i_docking_score>
-6.94908

> <r_i_glide_ecoul>
-4.1197

> <r_i_glide_eff_state_penalty>
0

> <r_i_glide_einternal>
4.96886

> <r_i_glide_emodel>
-48.1934

> <r_i_glide_energy>
-35.3702

> <r_i_glide_erotb>
0.266443

> <r_i_glide_esite>
-0.1

> <r_i_glide_evdw>
-31.2505

> <r_i_glide_gscore>
-6.94908

> <r_i_glide_hbond>
-0.16

> <r_i_glide_ligand_efficiency>
-0.365741

> <r_i_glide_ligand_efficiency_ln>
-1.76174

> <r_i_glide_ligand_efficiency_sa>
-0.975945

> <r_i_glide_lipo>
-2.54235

> <r_i_glide_metal>
0

> <r_i_glide_rewards>
-2.2327

> <s_i_glide_gridfile>
wee1_glide-grid

> <s_m_Source_File>
wee1_decoys_glide_SP.sdf

> <s_m_Source_Path>
/Users/zhangxujun/Desktop

> <s_m_entry_id>
1821

> <s_m_entry_name>
wee1_decoys_glide_SP.1546

> <s_m_subgroup_title>
wee1_decoys_glide_SP

> <s_m_subgroupid>
wee1_decoys_glide_SP


$$$$
