ZINC13398013_528
                    3D
 Schrodinger Suite 2024-2.
 57 60  0  0  1  0            999 V2000
    1.3529   51.5869   21.7804 C   0  0  0  0  0  0
    1.8951   52.4727   22.7091 C   0  0  0  0  0  0
    1.6240   52.3451   24.0820 C   0  0  0  0  0  0
    0.7407   51.3270   24.4839 C   0  0  0  0  0  0
    0.1981   50.4431   23.5575 C   0  0  0  0  0  0
    0.5140   50.5453   22.1987 C   0  0  0  0  0  0
   -0.0726   49.5494   21.2225 C   0  0  0  0  0  0
   -1.1357   48.9912   21.4966 O   0  0  0  0  0  0
    0.6510   49.3143   20.1025 N   0  0  0  0  0  0
    0.3233   48.5364   18.9717 C   0  0  0  0  0  0
   -0.9348   47.9530   18.7489 C   0  0  0  0  0  0
   -1.1886   47.2634   17.5688 C   0  0  0  0  0  0
   -0.1928   47.1457   16.5990 C   0  0  0  0  0  0
    1.0708   47.6979   16.8230 C   0  0  0  0  0  0
    1.3239   48.3921   18.0052 C   0  0  0  0  0  0
   -0.5785   46.3287   15.0471 S   0  0  0  0  0  0
   -2.0281   46.4683   14.8612 O   0  0  0  0  0  0
    0.3588   46.8506   14.0449 O   0  0  0  0  0  0
   -0.2386   44.6002   15.2829 N   0  0  0  0  0  0
    1.1461   44.1039   15.0719 C   0  0  0  0  0  0
    1.9050   43.9680   16.4048 C   0  0  0  0  0  0
    1.1045   43.1111   17.4072 C   0  0  0  0  0  0
   -0.3070   43.7210   17.6247 C   0  0  1  0  0  0
   -0.2188   44.7122   18.0670 H   0  0  0  0  0  0
   -1.0516   43.8293   16.2638 C   0  0  0  0  0  0
   -1.1066   42.8967   18.6629 C   0  0  0  0  0  0
   -0.4947   42.4967   19.6817 O   0  0  0  0  0  0
    2.3107   53.1915   25.0096 N   0  0  0  0  0  0
    3.3968   54.0972   24.5965 C   0  0  0  0  0  0
    4.1337   54.4871   25.8561 C   0  0  0  0  0  0
    3.1388   54.2182   26.9522 C   0  0  0  0  0  0
    2.0768   53.2968   26.3557 C   0  0  0  0  0  0
    1.2102   52.7594   27.0421 O   0  0  0  0  0  0
    1.5982   51.7260   20.7367 H   0  0  0  0  0  0
    2.5460   53.2477   22.3332 H   0  0  0  0  0  0
    0.4870   51.1534   25.5167 H   0  0  0  0  0  0
   -0.4542   49.6582   23.9160 H   0  0  0  0  0  0
    1.5533   49.7612   20.0550 H   0  0  0  0  0  0
   -1.7469   48.0400   19.4518 H   0  0  0  0  0  0
   -2.1694   46.8410   17.4023 H   0  0  0  0  0  0
    1.8510   47.6208   16.0779 H   0  0  0  0  0  0
    2.3019   48.8349   18.1432 H   0  0  0  0  0  0
    1.0829   43.1358   14.5734 H   0  0  0  0  0  0
    1.6719   44.7736   14.3914 H   0  0  0  0  0  0
    2.8870   43.5260   16.2300 H   0  0  0  0  0  0
    2.0893   44.9598   16.8198 H   0  0  0  0  0  0
    1.0246   42.1035   16.9943 H   0  0  0  0  0  0
    1.6624   43.0503   18.3429 H   0  0  0  0  0  0
   -2.0234   44.3129   16.3735 H   0  0  0  0  0  0
   -1.2252   42.8386   15.8418 H   0  0  0  0  0  0
    4.0804   53.6102   23.8999 H   0  0  0  0  0  0
    2.9768   54.9721   24.0980 H   0  0  0  0  0  0
    4.4970   55.5151   25.8314 H   0  0  0  0  0  0
    5.0017   53.8367   25.9850 H   0  0  0  0  0  0
    2.6520   55.1358   27.2817 H   0  0  0  0  0  0
    3.6047   53.7639   27.8272 H   0  0  0  0  0  0
   -2.3155   42.6550   18.4458 O   0  5  0  0  0  0
  1  6  2  0  0  0
  1  2  1  0  0  0
  1 34  1  0  0  0
  2  3  2  0  0  0
  2 35  1  0  0  0
  3  4  1  0  0  0
  3 28  1  0  0  0
  4  5  2  0  0  0
  4 36  1  0  0  0
  5  6  1  0  0  0
  5 37  1  0  0  0
  6  7  1  0  0  0
  7  8  2  0  0  0
  7  9  1  0  0  0
  9 10  1  0  0  0
  9 38  1  0  0  0
 10 15  2  0  0  0
 10 11  1  0  0  0
 11 12  2  0  0  0
 11 39  1  0  0  0
 12 13  1  0  0  0
 12 40  1  0  0  0
 13 14  2  0  0  0
 13 16  1  0  0  0
 14 15  1  0  0  0
 14 41  1  0  0  0
 15 42  1  0  0  0
 16 17  2  0  0  0
 16 18  2  0  0  0
 16 19  1  0  0  0
 19 25  1  0  0  0
 19 20  1  0  0  0
 20 21  1  0  0  0
 20 43  1  0  0  0
 20 44  1  0  0  0
 21 22  1  0  0  0
 21 45  1  0  0  0
 21 46  1  0  0  0
 22 23  1  0  0  0
 22 47  1  0  0  0
 22 48  1  0  0  0
 23 24  1  0  0  0
 23 25  1  0  0  0
 23 26  1  0  0  0
 25 49  1  0  0  0
 25 50  1  0  0  0
 26 27  2  0  0  0
 26 57  1  0  0  0
 28 32  1  0  0  0
 28 29  1  0  0  0
 29 30  1  0  0  0
 29 51  1  0  0  0
 29 52  1  0  0  0
 30 31  1  0  0  0
 30 53  1  0  0  0
 30 54  1  0  0  0
 31 32  1  0  0  0
 31 55  1  0  0  0
 31 56  1  0  0  0
 32 33  2  0  0  0
M  CHG  1  57  -1
M  END
> <i_i_glide_confnum>
22

> <i_i_glide_lignum>
529

> <i_i_glide_posenum>
381

> <i_i_glide_rotatable_bonds>
7

> <i_m_Source_File_Index>
5990

> <b_m_subgroup_collapsed>
0

> <r_i_docking_score>
-3.56208

> <r_i_glide_ecoul>
-4.04979

> <r_i_glide_eff_state_penalty>
0

> <r_i_glide_einternal>
5.81632

> <r_i_glide_emodel>
-40.8364

> <r_i_glide_energy>
-30.9405

> <r_i_glide_erotb>
0.547608

> <r_i_glide_esite>
-0.0540227

> <r_i_glide_evdw>
-26.8907

> <r_i_glide_gscore>
-3.56208

> <r_i_glide_hbond>
-0.292536

> <r_i_glide_ligand_efficiency>
-0.107942

> <r_i_glide_ligand_efficiency_ln>
-0.792189

> <r_i_glide_ligand_efficiency_sa>
-0.346227

> <r_i_glide_lipo>
-1.17549

> <r_i_glide_metal>
0

> <r_i_glide_rewards>
-0.635636

> <s_i_glide_gridfile>
wee1_glide-grid

> <s_m_Source_File>
wee1_decoys_glide_SP.sdf

> <s_m_Source_Path>
/Users/zhangxujun/Desktop

> <s_m_entry_id>
6265

> <s_m_entry_name>
wee1_decoys_glide_SP.5990

> <s_m_subgroup_title>
wee1_decoys_glide_SP

> <s_m_subgroupid>
wee1_decoys_glide_SP


$$$$
