ZINC61818972_3793
                    3D
 Schrodinger Suite 2024-2.
 44 45  0  0  1  0            999 V2000
    6.6948   54.6628   27.3332 C   0  0  0  0  0  0
    5.4181   54.3674   26.5651 C   0  0  0  0  0  0
    4.2672   54.0194   27.2755 C   0  0  0  0  0  0
    3.0871   53.6953   26.6077 C   0  0  0  0  0  0
    3.0457   53.7020   25.2038 C   0  0  0  0  0  0
    4.1884   54.0997   24.4984 C   0  0  0  0  0  0
    5.3752   54.4268   25.1622 C   0  0  0  0  0  0
    6.5984   54.8252   24.3479 C   0  0  0  0  0  0
    1.5675   53.2521   24.2618 S   0  0  0  0  0  0
    0.6860   52.4770   25.1429 O   0  0  0  0  0  0
    1.1062   54.4964   23.6479 O   0  0  0  0  0  0
    2.1390   52.1814   22.9593 N   0  0  0  0  0  0
    2.6361   52.7632   21.6811 C   0  0  0  0  0  0
    1.7431   52.3422   20.4937 C   0  0  0  0  0  0
    1.5931   50.7997   20.3997 C   0  0  0  0  0  0
    0.9472   50.3402   21.7376 C   0  0  0  0  0  0
    1.8000   50.7293   22.9711 C   0  0  0  0  0  0
    2.9653   50.1147   20.1681 C   0  0  0  0  0  0
    0.6004   50.4870   19.2585 C   0  0  0  0  0  0
    1.9764   53.3627   27.3774 N   0  0  0  0  0  0
    6.5804   54.4954   28.4055 H   0  0  0  0  0  0
    6.9951   55.6961   27.1795 H   0  0  0  0  0  0
    7.5047   54.0248   26.9845 H   0  0  0  0  0  0
    4.2971   53.9854   28.3550 H   0  0  0  0  0  0
    4.1623   54.1434   23.4201 H   0  0  0  0  0  0
    6.3850   54.8976   23.2798 H   0  0  0  0  0  0
    6.9710   55.7961   24.6748 H   0  0  0  0  0  0
    7.4037   54.1024   24.4855 H   0  0  0  0  0  0
    2.6386   53.8507   21.7596 H   0  0  0  0  0  0
    3.6792   52.4709   21.5493 H   0  0  0  0  0  0
    0.7678   52.8262   20.5899 H   0  0  0  0  0  0
    2.1689   52.7389   19.5695 H   0  0  0  0  0  0
    0.7969   49.2582   21.7350 H   0  0  0  0  0  0
   -0.0523   50.7684   21.8489 H   0  0  0  0  0  0
    2.7215   50.1531   23.0368 H   0  0  0  0  0  0
    1.2523   50.4955   23.8820 H   0  0  0  0  0  0
    3.4771   50.5129   19.2878 H   0  0  0  0  0  0
    3.6467   50.2394   21.0064 H   0  0  0  0  0  0
    2.8385   49.0431   20.0070 H   0  0  0  0  0  0
    0.9922   50.8174   18.2941 H   0  0  0  0  0  0
    0.4137   49.4136   19.1785 H   0  0  0  0  0  0
   -0.3657   50.9776   19.4055 H   0  0  0  0  0  0
    2.0806   53.2244   28.3720 H   0  0  0  0  0  0
    1.1836   52.9707   26.8769 H   0  0  0  0  0  0
  1  2  1  0  0  0
  1 21  1  0  0  0
  1 22  1  0  0  0
  1 23  1  0  0  0
  2  7  2  0  0  0
  2  3  1  0  0  0
  3  4  2  0  0  0
  3 24  1  0  0  0
  4  5  1  0  0  0
  4 20  1  0  0  0
  5  6  2  0  0  0
  5  9  1  0  0  0
  6  7  1  0  0  0
  6 25  1  0  0  0
  7  8  1  0  0  0
  8 26  1  0  0  0
  8 27  1  0  0  0
  8 28  1  0  0  0
  9 10  2  0  0  0
  9 11  2  0  0  0
  9 12  1  0  0  0
 12 17  1  0  0  0
 12 13  1  0  0  0
 13 14  1  0  0  0
 13 29  1  0  0  0
 13 30  1  0  0  0
 14 15  1  0  0  0
 14 31  1  0  0  0
 14 32  1  0  0  0
 15 16  1  0  0  0
 15 18  1  0  0  0
 15 19  1  0  0  0
 16 17  1  0  0  0
 16 33  1  0  0  0
 16 34  1  0  0  0
 17 35  1  0  0  0
 17 36  1  0  0  0
 18 37  1  0  0  0
 18 38  1  0  0  0
 18 39  1  0  0  0
 19 40  1  0  0  0
 19 41  1  0  0  0
 19 42  1  0  0  0
 20 43  1  0  0  0
 20 44  1  0  0  0
M  END
> <i_i_glide_confnum>
12

> <i_i_glide_lignum>
3794

> <i_i_glide_posenum>
221

> <i_i_glide_rotatable_bonds>
2

> <i_m_Source_File_Index>
5252

> <b_m_subgroup_collapsed>
0

> <r_i_docking_score>
-4.47432

> <r_i_glide_ecoul>
-0.642559

> <r_i_glide_eff_state_penalty>
0

> <r_i_glide_einternal>
1.77147

> <r_i_glide_emodel>
-35.4349

> <r_i_glide_energy>
-29.9471

> <r_i_glide_erotb>
0.416974

> <r_i_glide_esite>
0

> <r_i_glide_evdw>
-29.3045

> <r_i_glide_gscore>
-4.47432

> <r_i_glide_hbond>
0

> <r_i_glide_ligand_efficiency>
-0.223716

> <r_i_glide_ligand_efficiency_ln>
-1.11977

> <r_i_glide_ligand_efficiency_sa>
-0.607258

> <r_i_glide_lipo>
-2.13396

> <r_i_glide_metal>
0

> <r_i_glide_rewards>
-1.19572

> <s_i_glide_gridfile>
wee1_glide-grid

> <s_m_Source_File>
wee1_decoys_glide_SP.sdf

> <s_m_Source_Path>
/Users/zhangxujun/Desktop

> <s_m_entry_id>
5527

> <s_m_entry_name>
wee1_decoys_glide_SP.5252

> <s_m_subgroup_title>
wee1_decoys_glide_SP

> <s_m_subgroupid>
wee1_decoys_glide_SP


$$$$
