ZINC18200657_4429
                    3D
 Schrodinger Suite 2024-2.
 46 50  0  0  1  0            999 V2000
    6.3041   54.5152   22.9957 C   0  0  0  0  0  0
    4.9801   54.0969   22.8517 C   0  0  0  0  0  0
    4.1902   54.2382   23.9998 C   0  0  0  0  0  0
    5.1809   54.8963   25.2853 S   0  0  0  0  0  0
    6.5722   54.9797   24.2659 C   0  0  0  0  0  0
    2.7140   53.9095   24.2052 C   0  0  2  0  0  0
    2.1571   54.8490   24.1748 H   0  0  0  0  0  0
    2.4431   53.2642   25.5861 C   0  0  0  0  0  0
    1.0471   52.6573   25.7090 C   0  0  0  0  0  0
    0.2364   52.3901   24.6448 C   0  0  0  0  0  0
   -1.1946   51.8127   24.8238 C   0  0  2  0  0  0
   -1.9251   52.5073   24.4047 H   0  0  0  0  0  0
   -1.4791   51.7131   26.2616 N   0  0  0  0  0  0
   -0.6065   51.9522   27.2921 C   0  0  0  0  0  0
   -1.1649   51.6966   28.4427 N   0  0  0  0  0  0
   -2.3730   51.2967   28.0736 C   0  0  0  0  0  0
   -2.6442   51.3167   26.7861 N   0  0  0  0  0  0
   -3.2945   50.8956   28.9858 N   0  0  0  0  0  0
    0.6420   52.4613   27.0197 N   0  0  0  0  0  0
   -1.4547   50.4782   24.1056 C   0  0  0  0  0  0
   -2.3362   50.4264   23.0213 C   0  0  0  0  0  0
   -2.5683   49.2233   22.3637 C   0  0  0  0  0  0
   -1.9289   48.0542   22.7871 C   0  0  0  0  0  0
   -1.0538   48.1033   23.8789 C   0  0  0  0  0  0
   -0.8158   49.3089   24.5328 C   0  0  0  0  0  0
   -2.1929   46.7357   22.0611 C   0  0  0  0  0  0
   -3.4107   46.7109   21.5162 F   0  0  0  0  0  0
   -2.1003   45.6965   22.8899 F   0  0  0  0  0  0
   -1.2956   46.5838   21.0883 F   0  0  0  0  0  0
    0.6925   52.6243   23.2616 C   0  0  0  0  0  0
   -0.0536   52.4962   22.2926 O   0  0  0  0  0  0
    2.1498   53.0432   23.0589 C   0  0  0  0  0  0
    7.0353   54.4946   22.2009 H   0  0  0  0  0  0
    4.5987   53.7104   21.9185 H   0  0  0  0  0  0
    7.5044   55.3723   24.6354 H   0  0  0  0  0  0
    2.5392   54.0652   26.3217 H   0  0  0  0  0  0
    3.1656   52.4970   25.8507 H   0  0  0  0  0  0
   -2.9409   50.4154   29.8063 H   0  0  0  0  0  0
   -4.1864   50.5623   28.6567 H   0  0  0  0  0  0
    1.2543   52.7123   27.7806 H   0  0  0  0  0  0
   -2.8346   51.3198   22.6753 H   0  0  0  0  0  0
   -3.2444   49.2065   21.5209 H   0  0  0  0  0  0
   -0.5514   47.2142   24.2293 H   0  0  0  0  0  0
   -0.1416   49.3313   25.3782 H   0  0  0  0  0  0
    2.2513   53.5215   22.0838 H   0  0  0  0  0  0
    2.7190   52.1160   23.0038 H   0  0  0  0  0  0
  1  5  2  0  0  0
  1  2  1  0  0  0
  1 33  1  0  0  0
  2  3  2  0  0  0
  2 34  1  0  0  0
  3  4  1  0  0  0
  3  6  1  0  0  0
  4  5  1  0  0  0
  5 35  1  0  0  0
  6  7  1  0  0  0
  6 32  1  0  0  0
  6  8  1  0  0  0
  8  9  1  0  0  0
  8 36  1  0  0  0
  8 37  1  0  0  0
  9 19  1  0  0  0
  9 10  2  0  0  0
 10 11  1  0  0  0
 10 30  1  0  0  0
 11 12  1  0  0  0
 11 13  1  0  0  0
 11 20  1  0  0  0
 13 17  1  0  0  0
 13 14  1  0  0  0
 14 15  2  0  0  0
 14 19  1  0  0  0
 15 16  1  0  0  0
 16 17  2  0  0  0
 16 18  1  0  0  0
 18 38  1  0  0  0
 18 39  1  0  0  0
 19 40  1  0  0  0
 20 25  2  0  0  0
 20 21  1  0  0  0
 21 22  2  0  0  0
 21 41  1  0  0  0
 22 23  1  0  0  0
 22 42  1  0  0  0
 23 24  2  0  0  0
 23 26  1  0  0  0
 24 25  1  0  0  0
 24 43  1  0  0  0
 25 44  1  0  0  0
 26 27  1  0  0  0
 26 28  1  0  0  0
 26 29  1  0  0  0
 30 31  2  0  0  0
 30 32  1  0  0  0
 32 45  1  0  0  0
 32 46  1  0  0  0
M  END
> <i_i_glide_confnum>
3

> <i_i_glide_lignum>
4430

> <i_i_glide_posenum>
379

> <i_i_glide_rotatable_bonds>
3

> <i_m_Source_File_Index>
722

> <b_m_subgroup_collapsed>
0

> <r_i_docking_score>
-5.08352

> <r_i_glide_ecoul>
-1.81814

> <r_i_glide_eff_state_penalty>
0

> <r_i_glide_einternal>
0.751707

> <r_i_glide_emodel>
-48.6781

> <r_i_glide_energy>
-37.3331

> <r_i_glide_erotb>
0.213713

> <r_i_glide_esite>
-0.315016

> <r_i_glide_evdw>
-35.515

> <r_i_glide_gscore>
-5.08352

> <r_i_glide_hbond>
-0.00871706

> <r_i_glide_ligand_efficiency>
-0.169451

> <r_i_glide_ligand_efficiency_ln>
-1.15503

> <r_i_glide_ligand_efficiency_sa>
-0.526523

> <r_i_glide_lipo>
-2.17023

> <r_i_glide_metal>
0

> <r_i_glide_rewards>
-0.754805

> <s_i_glide_gridfile>
wee1_glide-grid

> <s_m_Source_File>
wee1_decoys_glide_SP.sdf

> <s_m_Source_Path>
/Users/zhangxujun/Desktop

> <s_m_entry_id>
997

> <s_m_entry_name>
wee1_decoys_glide_SP.722

> <s_m_subgroup_title>
wee1_decoys_glide_SP

> <s_m_subgroupid>
wee1_decoys_glide_SP


$$$$
