ZINC01176821_2341
                    3D
 Schrodinger Suite 2024-2.
 53 55  0  0  1  0            999 V2000
    1.6401   53.1373   21.8944 C   0  0  0  0  0  0
    3.1861   53.0494   21.8081 C   0  0  0  0  0  0
    3.5389   51.5486   21.6617 C   0  0  0  0  0  0
    3.6545   53.7936   20.5349 C   0  0  0  0  0  0
    3.8912   53.6473   23.0508 C   0  0  0  0  0  0
    5.2895   53.6968   23.0920 C   0  0  0  0  0  0
    5.9538   54.0963   24.2462 C   0  0  0  0  0  0
    5.2447   54.4530   25.4031 C   0  0  0  0  0  0
    3.8466   54.5078   25.3196 C   0  0  0  0  0  0
    3.1798   54.0969   24.1714 C   0  0  0  0  0  0
    6.0302   54.7525   26.6756 C   0  0  0  0  0  0
    7.2309   54.8970   26.5918 O   0  0  0  0  0  0
    5.5011   54.8192   27.9140 N   0  0  0  0  0  0
    4.2985   54.2588   28.2980 C   0  0  0  0  0  0
    4.0963   52.8967   28.1098 C   0  0  0  0  0  0
    2.8161   52.3872   28.2197 C   0  0  0  0  0  0
    1.7739   53.2456   28.5264 C   0  0  0  0  0  0
    1.9822   54.5944   28.8066 C   0  0  0  0  0  0
    3.2716   55.0872   28.7395 C   0  0  0  0  0  0
    0.5196   52.6857   28.6288 N   0  0  0  0  0  0
   -0.1730   52.4567   29.7774 C   0  0  0  0  0  0
    0.3045   53.0003   31.2814 S   0  0  0  0  0  0
   -1.2957   51.6933   29.6820 N   0  0  0  0  0  0
   -2.0105   51.2974   28.5911 C   0  0  0  0  0  0
   -1.6060   51.3570   27.4247 O   0  0  0  0  0  0
   -3.3687   50.8965   28.8847 C   0  0  0  0  0  0
   -3.9278   50.4932   30.1035 C   0  0  0  0  0  0
   -5.2805   50.1542   30.0067 C   0  0  0  0  0  0
   -5.7642   50.2630   28.7122 C   0  0  0  0  0  0
   -4.5384   50.7737   27.5976 S   0  0  0  0  0  0
    1.1628   52.8051   20.9707 H   0  0  0  0  0  0
    1.3077   54.1564   22.0816 H   0  0  0  0  0  0
    1.2426   52.5157   22.6976 H   0  0  0  0  0  0
    4.6158   51.3728   21.6573 H   0  0  0  0  0  0
    3.1039   50.9553   22.4682 H   0  0  0  0  0  0
    3.1480   51.1376   20.7293 H   0  0  0  0  0  0
    4.7102   53.6281   20.3199 H   0  0  0  0  0  0
    3.1034   53.4658   19.6514 H   0  0  0  0  0  0
    3.5077   54.8700   20.6307 H   0  0  0  0  0  0
    5.8774   53.3730   22.2467 H   0  0  0  0  0  0
    7.0351   54.0710   24.2417 H   0  0  0  0  0  0
    3.2351   54.8469   26.1361 H   0  0  0  0  0  0
    2.1020   54.1099   24.1928 H   0  0  0  0  0  0
    6.1160   55.1473   28.6476 H   0  0  0  0  0  0
    4.9120   52.2590   27.8036 H   0  0  0  0  0  0
    2.6355   51.3345   28.0545 H   0  0  0  0  0  0
    1.1632   55.2413   29.0883 H   0  0  0  0  0  0
    3.4464   56.1223   28.9465 H   0  0  0  0  0  0
    0.1646   52.2282   27.7987 H   0  0  0  0  0  0
   -1.7017   51.4477   30.5747 H   0  0  0  0  0  0
   -3.3756   50.4359   31.0329 H   0  0  0  0  0  0
   -5.8741   49.8271   30.8478 H   0  0  0  0  0  0
   -6.7629   50.0495   28.3608 H   0  0  0  0  0  0
  1  2  1  0  0  0
  1 31  1  0  0  0
  1 32  1  0  0  0
  1 33  1  0  0  0
  2  3  1  0  0  0
  2  4  1  0  0  0
  2  5  1  0  0  0
  3 34  1  0  0  0
  3 35  1  0  0  0
  3 36  1  0  0  0
  4 37  1  0  0  0
  4 38  1  0  0  0
  4 39  1  0  0  0
  5 10  2  0  0  0
  5  6  1  0  0  0
  6  7  2  0  0  0
  6 40  1  0  0  0
  7  8  1  0  0  0
  7 41  1  0  0  0
  8  9  2  0  0  0
  8 11  1  0  0  0
  9 10  1  0  0  0
  9 42  1  0  0  0
 10 43  1  0  0  0
 11 12  2  0  0  0
 11 13  1  0  0  0
 13 14  1  0  0  0
 13 44  1  0  0  0
 14 19  2  0  0  0
 14 15  1  0  0  0
 15 16  2  0  0  0
 15 45  1  0  0  0
 16 17  1  0  0  0
 16 46  1  0  0  0
 17 18  2  0  0  0
 17 20  1  0  0  0
 18 19  1  0  0  0
 18 47  1  0  0  0
 19 48  1  0  0  0
 20 21  1  0  0  0
 20 49  1  0  0  0
 21 22  2  0  0  0
 21 23  1  0  0  0
 23 24  1  0  0  0
 23 50  1  0  0  0
 24 25  2  0  0  0
 24 26  1  0  0  0
 26 30  1  0  0  0
 26 27  2  0  0  0
 27 28  1  0  0  0
 27 51  1  0  0  0
 28 29  2  0  0  0
 28 52  1  0  0  0
 29 30  1  0  0  0
 29 53  1  0  0  0
M  END
> <i_i_glide_confnum>
161

> <i_i_glide_lignum>
2342

> <i_i_glide_posenum>
353

> <i_i_glide_rotatable_bonds>
9

> <i_m_Source_File_Index>
5358

> <b_m_subgroup_collapsed>
0

> <r_i_docking_score>
-1.84415

> <r_i_glide_ecoul>
-6.28651

> <r_i_glide_eff_state_penalty>
0

> <r_i_glide_einternal>
16.8191

> <r_i_glide_emodel>
-25.449

> <r_i_glide_energy>
-41.6862

> <r_i_glide_erotb>
0.510343

> <r_i_glide_esite>
-0.274743

> <r_i_glide_evdw>
-35.3997

> <r_i_glide_gscore>
-1.84415

> <r_i_glide_hbond>
-0.485909

> <r_i_glide_ligand_efficiency>
-0.0614717

> <r_i_glide_ligand_efficiency_ln>
-0.419011

> <r_i_glide_ligand_efficiency_sa>
-0.191007

> <r_i_glide_lipo>
-2.91959

> <r_i_glide_metal>
0

> <r_i_glide_rewards>
4.03871

> <s_i_glide_gridfile>
wee1_glide-grid

> <s_m_Source_File>
wee1_decoys_glide_SP.sdf

> <s_m_Source_Path>
/Users/zhangxujun/Desktop

> <s_m_entry_id>
5633

> <s_m_entry_name>
wee1_decoys_glide_SP.5358

> <s_m_subgroup_title>
wee1_decoys_glide_SP

> <s_m_subgroupid>
wee1_decoys_glide_SP


$$$$
