ZINC50364231_1648
                    3D
 Schrodinger Suite 2024-2.
 40 41  0  0  1  0            999 V2000
    2.6599   52.6829   28.8908 C   0  0  0  0  0  0
    2.1253   53.8074   27.9810 C   0  0  0  0  0  0
    2.0374   55.1522   28.7314 C   0  0  0  0  0  0
    2.9372   53.9205   26.6893 C   0  0  0  0  0  0
    2.3067   53.6036   25.5348 N   0  0  0  0  0  0
    3.0526   53.6981   24.4069 C   0  0  0  0  0  0
    4.4044   54.0965   24.3752 C   0  0  0  0  0  0
    4.9502   54.4398   25.6486 C   0  0  0  0  0  0
    4.2218   54.3362   26.7965 N   0  0  0  0  0  0
    6.3042   55.0328   25.8393 C   0  0  0  0  0  0
    6.5549   56.0958   25.2349 O   0  0  0  0  0  0
    7.1042   54.4554   26.6092 O   0  5  0  0  0  0
    5.0866   54.1067   23.1438 N   0  0  0  0  0  0
    6.5127   53.7597   22.9745 C   0  0  0  0  0  0
    7.2645   54.8078   22.1257 C   0  0  0  0  0  0
    6.6598   54.9672   20.7234 C   0  0  0  0  0  0
    5.1691   55.2285   20.8620 C   0  0  0  0  0  0
    4.4050   54.2716   21.8250 C   0  0  1  0  0  0
    3.4257   54.7276   21.9806 H   0  0  0  0  0  0
    4.0738   52.9102   21.1353 C   0  0  0  0  0  0
    4.7015   51.8767   21.3445 O   0  0  0  0  0  0
    3.0719   52.8967   20.2601 N   0  0  0  0  0  0
    2.6896   51.7295   28.3612 H   0  0  0  0  0  0
    2.0258   52.5485   29.7672 H   0  0  0  0  0  0
    3.6702   52.8986   29.2426 H   0  0  0  0  0  0
    1.1027   53.5346   27.7090 H   0  0  0  0  0  0
    1.6460   55.9377   28.0850 H   0  0  0  0  0  0
    1.3757   55.0802   29.5953 H   0  0  0  0  0  0
    3.0145   55.4791   29.0904 H   0  0  0  0  0  0
    2.5306   53.3960   23.5130 H   0  0  0  0  0  0
    7.0329   53.6109   23.9159 H   0  0  0  0  0  0
    6.5702   52.7819   22.5043 H   0  0  0  0  0  0
    7.2847   55.7619   22.6552 H   0  0  0  0  0  0
    8.3040   54.5098   22.0392 H   0  0  0  0  0  0
    7.1422   55.7952   20.2024 H   0  0  0  0  0  0
    6.7928   54.0974   20.0822 H   0  0  0  0  0  0
    5.1047   56.2265   21.2745 H   0  0  0  0  0  0
    4.7044   55.2732   19.8761 H   0  0  0  0  0  0
    2.5264   53.7343   20.0816 H   0  0  0  0  0  0
    2.8771   52.0403   19.7643 H   0  0  0  0  0  0
  1  2  1  0  0  0
  1 23  1  0  0  0
  1 24  1  0  0  0
  1 25  1  0  0  0
  2  3  1  0  0  0
  2  4  1  0  0  0
  2 26  1  0  0  0
  3 27  1  0  0  0
  3 28  1  0  0  0
  3 29  1  0  0  0
  4  9  2  0  0  0
  4  5  1  0  0  0
  5  6  2  0  0  0
  6  7  1  0  0  0
  6 30  1  0  0  0
  7  8  2  0  0  0
  7 13  1  0  0  0
  8  9  1  0  0  0
  8 10  1  0  0  0
 10 11  2  0  0  0
 10 12  1  0  0  0
 13 18  1  0  0  0
 13 14  1  0  0  0
 14 15  1  0  0  0
 14 31  1  0  0  0
 14 32  1  0  0  0
 15 16  1  0  0  0
 15 33  1  0  0  0
 15 34  1  0  0  0
 16 17  1  0  0  0
 16 35  1  0  0  0
 16 36  1  0  0  0
 17 18  1  0  0  0
 17 37  1  0  0  0
 17 38  1  0  0  0
 18 19  1  0  0  0
 18 20  1  0  0  0
 20 21  2  0  0  0
 20 22  1  0  0  0
 22 39  1  0  0  0
 22 40  1  0  0  0
M  CHG  1  12  -1
M  END
> <i_i_glide_confnum>
6

> <i_i_glide_lignum>
1649

> <i_i_glide_posenum>
65

> <i_i_glide_rotatable_bonds>
4

> <i_m_Source_File_Index>
3715

> <b_m_subgroup_collapsed>
0

> <r_i_docking_score>
-7.41494

> <r_i_glide_ecoul>
-7.28654

> <r_i_glide_eff_state_penalty>
0

> <r_i_glide_einternal>
1.41715

> <r_i_glide_emodel>
-52.9288

> <r_i_glide_energy>
-34.72

> <r_i_glide_erotb>
0.214906

> <r_i_glide_esite>
-0.0039964

> <r_i_glide_evdw>
-27.4335

> <r_i_glide_gscore>
-7.41494

> <r_i_glide_hbond>
-0.506247

> <r_i_glide_ligand_efficiency>
-0.353093

> <r_i_glide_ligand_efficiency_ln>
-1.83333

> <r_i_glide_ligand_efficiency_sa>
-0.974156

> <r_i_glide_lipo>
-2.04747

> <r_i_glide_metal>
0

> <r_i_glide_rewards>
-2.60748

> <s_i_glide_gridfile>
wee1_glide-grid

> <s_m_Source_File>
wee1_decoys_glide_SP.sdf

> <s_m_Source_Path>
/Users/zhangxujun/Desktop

> <s_m_entry_id>
3990

> <s_m_entry_name>
wee1_decoys_glide_SP.3715

> <s_m_subgroup_title>
wee1_decoys_glide_SP

> <s_m_subgroupid>
wee1_decoys_glide_SP


$$$$
