ZINC33795936_978
                    3D
 Schrodinger Suite 2024-2.
 51 55  0  0  1  0            999 V2000
   -6.1165   49.4992   26.3987 C   0  0  0  0  0  0
   -4.9816   49.7734   27.2111 O   0  0  0  0  0  0
   -4.0393   50.6810   26.7688 C   0  0  0  0  0  0
   -4.1285   51.3913   25.5632 C   0  0  0  0  0  0
   -3.1362   52.3004   25.2132 C   0  0  0  0  0  0
   -2.0470   52.5016   26.0572 C   0  0  0  0  0  0
   -1.9030   51.7904   27.2547 C   0  0  0  0  0  0
   -2.9338   50.8963   27.5953 C   0  0  0  0  0  0
   -0.7676   52.0094   28.2339 C   0  0  0  0  0  0
    0.5889   52.5267   27.8714 C   0  0  0  0  0  0
    1.1229   52.7942   26.4753 C   0  0  1  0  0  0
    0.7044   53.6962   26.0410 H   0  0  0  0  0  0
    2.5235   53.2208   26.7045 N   0  0  0  0  0  0
    2.8309   53.1676   28.0336 C   0  0  0  0  0  0
    3.9196   53.4299   28.5599 O   0  0  0  0  0  0
    1.6188   52.7465   28.7099 C   0  0  0  0  0  0
    1.6876   52.6207   29.9930 O   0  5  0  0  0  0
    3.3755   53.6964   25.6795 C   0  0  0  0  0  0
    3.0261   53.7134   24.4212 N   0  0  0  0  0  0
    4.0396   54.0950   23.6003 C   0  0  0  0  0  0
    3.9719   54.1017   22.1996 C   0  0  0  0  0  0
    5.1049   54.4980   21.4828 C   0  0  0  0  0  0
    6.2753   54.8966   22.1316 C   0  0  0  0  0  0
    6.3668   54.8858   23.5238 C   0  0  0  0  0  0
    5.2404   54.4752   24.2522 C   0  0  0  0  0  0
    5.0118   54.3104   25.9827 S   0  0  0  0  0  0
    7.3390   55.2991   21.4009 F   0  0  0  0  0  0
    0.8553   51.6662   25.4474 C   0  0  0  0  0  0
    0.7042   50.3283   25.8494 C   0  0  0  0  0  0
    0.3615   49.3369   24.9349 C   0  0  0  0  0  0
    0.1588   49.6660   23.5978 C   0  0  0  0  0  0
    0.2772   50.9938   23.1635 C   0  0  0  0  0  0
    0.6073   51.9810   24.1047 C   0  0  0  0  0  0
    0.0489   51.3509   21.7437 N   0  3  0  0  0  0
   -0.3947   50.4937   20.9857 O   0  0  0  0  0  0
    0.3043   52.4952   21.3815 O   0  5  0  0  0  0
   -0.9712   51.7194   29.4128 O   0  0  0  0  0  0
   -6.7444   48.7601   26.8962 H   0  0  0  0  0  0
   -6.7213   50.3934   26.2407 H   0  0  0  0  0  0
   -5.8254   49.0877   25.4310 H   0  0  0  0  0  0
   -4.9637   51.2580   24.8930 H   0  0  0  0  0  0
   -3.2162   52.8600   24.2929 H   0  0  0  0  0  0
   -1.3357   53.2506   25.7620 H   0  0  0  0  0  0
   -2.8833   50.3281   28.5163 H   0  0  0  0  0  0
    3.0670   53.8090   21.6850 H   0  0  0  0  0  0
    5.0711   54.5130   20.4026 H   0  0  0  0  0  0
    7.2838   55.1797   24.0130 H   0  0  0  0  0  0
    0.8512   50.0448   26.8817 H   0  0  0  0  0  0
    0.2606   48.3134   25.2686 H   0  0  0  0  0  0
   -0.0984   48.8804   22.9022 H   0  0  0  0  0  0
    0.6607   53.0130   23.7899 H   0  0  0  0  0  0
  1  2  1  0  0  0
  1 38  1  0  0  0
  1 39  1  0  0  0
  1 40  1  0  0  0
  2  3  1  0  0  0
  3  8  2  0  0  0
  3  4  1  0  0  0
  4  5  2  0  0  0
  4 41  1  0  0  0
  5  6  1  0  0  0
  5 42  1  0  0  0
  6  7  2  0  0  0
  6 43  1  0  0  0
  7  8  1  0  0  0
  7  9  1  0  0  0
  8 44  1  0  0  0
  9 10  1  0  0  0
  9 37  2  0  0  0
 10 16  2  0  0  0
 10 11  1  0  0  0
 11 12  1  0  0  0
 11 13  1  0  0  0
 11 28  1  0  0  0
 13 14  1  0  0  0
 13 18  1  0  0  0
 14 15  2  0  0  0
 14 16  1  0  0  0
 16 17  1  0  0  0
 18 26  1  0  0  0
 18 19  2  0  0  0
 19 20  1  0  0  0
 20 25  2  0  0  0
 20 21  1  0  0  0
 21 22  2  0  0  0
 21 45  1  0  0  0
 22 23  1  0  0  0
 22 46  1  0  0  0
 23 24  2  0  0  0
 23 27  1  0  0  0
 24 25  1  0  0  0
 24 47  1  0  0  0
 25 26  1  0  0  0
 28 33  2  0  0  0
 28 29  1  0  0  0
 29 30  2  0  0  0
 29 48  1  0  0  0
 30 31  1  0  0  0
 30 49  1  0  0  0
 31 32  2  0  0  0
 31 50  1  0  0  0
 32 33  1  0  0  0
 32 34  1  0  0  0
 33 51  1  0  0  0
 34 35  2  0  0  0
 34 36  1  0  0  0
M  CHG  3  17  -1  34   1  36  -1
M  END
> <i_i_glide_confnum>
5

> <i_i_glide_lignum>
979

> <i_i_glide_posenum>
121

> <i_i_glide_rotatable_bonds>
6

> <i_m_Source_File_Index>
1710

> <b_m_subgroup_collapsed>
0

> <r_i_docking_score>
-5.06429

> <r_i_glide_ecoul>
-1.23396

> <r_i_glide_eff_state_penalty>
0

> <r_i_glide_einternal>
13.1168

> <r_i_glide_emodel>
-50.2284

> <r_i_glide_energy>
-41.6424

> <r_i_glide_erotb>
0.321381

> <r_i_glide_esite>
-0.0551345

> <r_i_glide_evdw>
-40.4084

> <r_i_glide_gscore>
-5.06429

> <r_i_glide_hbond>
0

> <r_i_glide_ligand_efficiency>
-0.140675

> <r_i_glide_ligand_efficiency_ln>
-1.10489

> <r_i_glide_ligand_efficiency_sa>
-0.464498

> <r_i_glide_lipo>
-2.39232

> <r_i_glide_metal>
0

> <r_i_glide_rewards>
-0.732698

> <s_i_glide_gridfile>
wee1_glide-grid

> <s_m_Source_File>
wee1_decoys_glide_SP.sdf

> <s_m_Source_Path>
/Users/zhangxujun/Desktop

> <s_m_entry_id>
1985

> <s_m_entry_name>
wee1_decoys_glide_SP.1710

> <s_m_subgroup_title>
wee1_decoys_glide_SP

> <s_m_subgroupid>
wee1_decoys_glide_SP


$$$$
