ZINC50650660_4301
                    3D
 Schrodinger Suite 2024-2.
 28 29  0  0  1  0            999 V2000
    4.0574   53.6013   19.5772 C   0  0  0  0  0  0
    3.3788   52.8982   18.5796 C   0  0  0  0  0  0
    2.8529   51.6902   18.8667 N   0  3  0  0  0  0
    2.9495   51.1084   20.0782 C   0  0  0  0  0  0
    3.6261   51.7737   21.1017 C   0  0  0  0  0  0
    4.1839   53.0356   20.8547 C   0  0  0  0  0  0
    5.0415   53.9267   22.1580 S   0  0  0  0  0  0
    5.8159   54.9608   21.4637 O   0  0  0  0  0  0
    5.7959   52.8972   22.8797 O   0  0  0  0  0  0
    3.8037   54.4967   22.9306 N   0  5  0  0  0  0
    3.4868   54.0970   24.2040 C   0  0  0  0  0  0
    4.2846   54.4454   25.3196 C   0  0  0  0  0  0
    3.9066   54.0740   26.6106 C   0  0  0  0  0  0
    2.7248   53.3731   26.8256 C   0  0  0  0  0  0
    1.9103   53.0464   25.7468 C   0  0  0  0  0  0
    2.2828   53.4042   24.4501 C   0  0  0  0  0  0
    1.0731   52.9507   23.0406 Br  0  0  0  0  0  0
    2.2283   52.8610   28.5911 Br  0  0  0  0  0  0
    5.9012   55.4572   25.1513 Br  0  0  0  0  0  0
    2.3839   49.8360   20.2808 N   0  0  0  0  0  0
    4.4766   54.5753   19.3643 H   0  0  0  0  0  0
    3.2513   53.2461   17.5642 H   0  0  0  0  0  0
    3.7127   51.3294   22.0815 H   0  0  0  0  0  0
    4.5350   54.3351   27.4499 H   0  0  0  0  0  0
    0.9873   52.5112   25.9152 H   0  0  0  0  0  0
    2.4673   49.3818   21.1782 H   0  0  0  0  0  0
    1.9798   49.3297   19.5043 H   0  0  0  0  0  0
    2.4227   51.1634   18.1203 H   0  0  0  0  0  0
  1  6  2  0  0  0
  1  2  1  0  0  0
  1 21  1  0  0  0
  2  3  2  0  0  0
  2 22  1  0  0  0
  3  4  1  0  0  0
  3 28  1  0  0  0
  4  5  2  0  0  0
  4 20  1  0  0  0
  5  6  1  0  0  0
  5 23  1  0  0  0
  6  7  1  0  0  0
  7  8  2  0  0  0
  7  9  2  0  0  0
  7 10  1  0  0  0
 10 11  1  0  0  0
 11 16  2  0  0  0
 11 12  1  0  0  0
 12 13  2  0  0  0
 12 19  1  0  0  0
 13 14  1  0  0  0
 13 24  1  0  0  0
 14 15  2  0  0  0
 14 18  1  0  0  0
 15 16  1  0  0  0
 15 25  1  0  0  0
 16 17  1  0  0  0
 20 26  1  0  0  0
 20 27  1  0  0  0
M  CHG  2   3   1  10  -1
M  END
> <i_i_glide_confnum>
4

> <i_i_glide_lignum>
4302

> <i_i_glide_posenum>
187

> <i_i_glide_rotatable_bonds>
3

> <i_m_Source_File_Index>
1260

> <b_m_subgroup_collapsed>
0

> <r_i_docking_score>
-3.80797

> <r_i_glide_ecoul>
-2.2792

> <r_i_glide_eff_state_penalty>
0

> <r_i_glide_einternal>
1.17402

> <r_i_glide_emodel>
-38.8636

> <r_i_glide_energy>
-29.3519

> <r_i_glide_erotb>
0.258101

> <r_i_glide_esite>
-0.103274

> <r_i_glide_evdw>
-27.0727

> <r_i_glide_gscore>
-3.80797

> <r_i_glide_hbond>
0

> <r_i_glide_ligand_efficiency>
-0.190399

> <r_i_glide_ligand_efficiency_ln>
-0.95301

> <r_i_glide_ligand_efficiency_sa>
-0.516822

> <r_i_glide_lipo>
-1.93718

> <r_i_glide_metal>
0

> <r_i_glide_rewards>
-0.330103

> <s_i_glide_gridfile>
wee1_glide-grid

> <s_m_Source_File>
wee1_decoys_glide_SP.sdf

> <s_m_Source_Path>
/Users/zhangxujun/Desktop

> <s_m_entry_id>
1535

> <s_m_entry_name>
wee1_decoys_glide_SP.1260

> <s_m_subgroup_title>
wee1_decoys_glide_SP

> <s_m_subgroupid>
wee1_decoys_glide_SP


$$$$
