ZINC59564783_351
                    3D
 Schrodinger Suite 2024-2.
 68 72  0  0  1  0            999 V2000
   -1.9763   52.0334   26.2765 C   0  0  0  0  0  0
   -0.7444   51.1175   26.2312 C   0  0  0  0  0  0
    0.4376   51.8198   26.6068 O   0  0  0  0  0  0
    1.1031   52.6220   25.7424 C   0  0  0  0  0  0
    0.7655   52.8063   24.5688 O   0  0  0  0  0  0
    2.3048   53.2406   26.3470 C   0  0  0  0  0  0
    2.6446   53.2867   27.7367 C   0  0  0  0  0  0
    3.8724   53.9222   27.9792 C   0  0  0  0  0  0
    4.6193   54.4962   26.5447 S   0  0  0  0  0  0
    3.3400   53.8176   25.5772 C   0  0  0  0  0  0
    3.3744   53.8456   24.1821 N   0  0  0  0  0  0
    4.4219   54.0964   23.3695 C   0  0  0  0  0  0
    5.5618   54.3670   23.7472 O   0  0  0  0  0  0
    4.1087   54.0098   21.8747 C   0  0  0  0  0  0
    5.5015   54.4351   20.7826 S   0  0  0  0  0  0
    4.9351   53.9879   19.1993 C   0  0  0  0  0  0
    3.6714   53.7450   18.8896 N   0  3  0  0  0  0
    3.5841   53.2543   17.5239 C   0  0  0  0  0  0
    2.7031   51.9895   17.3947 C   0  0  0  0  0  0
    1.1983   52.2890   17.5644 C   0  0  0  0  0  0
    0.7206   53.3910   16.6006 C   0  0  0  0  0  0
    1.5918   54.6580   16.6982 C   0  0  0  0  0  0
    3.0917   54.3334   16.5263 C   0  0  0  0  0  0
    4.9709   52.8967   17.2649 N   0  0  0  0  0  0
    5.6815   53.7252   18.1270 N   0  0  0  0  0  0
    7.0944   53.8865   17.9071 C   0  0  0  0  0  0
    7.8286   52.9723   17.1309 C   0  0  0  0  0  0
    9.1994   53.1398   16.9551 C   0  0  0  0  0  0
    9.8440   54.2215   17.5507 C   0  0  0  0  0  0
    9.1271   55.1429   18.3087 C   0  0  0  0  0  0
    7.7557   54.9788   18.4817 C   0  0  0  0  0  0
    4.5043   54.1421   29.3406 C   0  0  0  0  0  0
    3.9043   53.1205   30.3257 C   0  0  0  0  0  0
    2.3680   53.1701   30.2767 C   0  0  0  0  0  0
    1.8113   52.7266   28.9046 C   0  0  0  0  0  0
   -2.8815   51.4731   26.0441 H   0  0  0  0  0  0
   -2.0978   52.4673   27.2681 H   0  0  0  0  0  0
   -1.8958   52.8506   25.5591 H   0  0  0  0  0  0
   -0.6314   50.6655   25.2441 H   0  0  0  0  0  0
   -0.8819   50.2929   26.9316 H   0  0  0  0  0  0
    2.5244   53.5107   23.7479 H   0  0  0  0  0  0
    3.8041   52.9901   21.6333 H   0  0  0  0  0  0
    3.2533   54.6361   21.6167 H   0  0  0  0  0  0
    2.8642   51.5243   16.4196 H   0  0  0  0  0  0
    3.0135   51.2413   18.1267 H   0  0  0  0  0  0
    0.6217   51.3763   17.4069 H   0  0  0  0  0  0
    1.0022   52.5988   18.5925 H   0  0  0  0  0  0
    0.7471   53.0127   15.5778 H   0  0  0  0  0  0
   -0.3224   53.6387   16.8020 H   0  0  0  0  0  0
    1.2799   55.3845   15.9457 H   0  0  0  0  0  0
    1.4292   55.1351   17.6664 H   0  0  0  0  0  0
    3.6783   55.2479   16.6288 H   0  0  0  0  0  0
    3.2620   53.9889   15.5049 H   0  0  0  0  0  0
    5.1041   51.9129   17.5244 H   0  0  0  0  0  0
    7.3526   52.1143   16.6769 H   0  0  0  0  0  0
    9.7639   52.4259   16.3721 H   0  0  0  0  0  0
   10.9107   54.3455   17.4277 H   0  0  0  0  0  0
    9.6392   55.9799   18.7632 H   0  0  0  0  0  0
    7.2182   55.7173   19.0566 H   0  0  0  0  0  0
    4.3083   55.1604   29.6791 H   0  0  0  0  0  0
    5.5891   54.0402   29.2808 H   0  0  0  0  0  0
    4.2802   53.2951   31.3357 H   0  0  0  0  0  0
    4.2431   52.1165   30.0658 H   0  0  0  0  0  0
    2.0248   54.1861   30.4802 H   0  0  0  0  0  0
    1.9436   52.5446   31.0640 H   0  0  0  0  0  0
    1.8113   51.6368   28.8576 H   0  0  0  0  0  0
    0.7682   53.0378   28.8328 H   0  0  0  0  0  0
    2.8592   53.9901   19.4436 H   0  0  0  0  0  0
  1  2  1  0  0  0
  1 36  1  0  0  0
  1 37  1  0  0  0
  1 38  1  0  0  0
  2  3  1  0  0  0
  2 39  1  0  0  0
  2 40  1  0  0  0
  3  4  1  0  0  0
  4  5  2  0  0  0
  4  6  1  0  0  0
  6 10  2  0  0  0
  6  7  1  0  0  0
  7 35  1  0  0  0
  7  8  2  0  0  0
  8  9  1  0  0  0
  8 32  1  0  0  0
  9 10  1  0  0  0
 10 11  1  0  0  0
 11 12  1  0  0  0
 11 41  1  0  0  0
 12 13  2  0  0  0
 12 14  1  0  0  0
 14 15  1  0  0  0
 14 42  1  0  0  0
 14 43  1  0  0  0
 15 16  1  0  0  0
 16 25  1  0  0  0
 16 17  2  0  0  0
 17 18  1  0  0  0
 17 68  1  0  0  0
 18 23  1  0  0  0
 18 19  1  0  0  0
 18 24  1  0  0  0
 19 20  1  0  0  0
 19 44  1  0  0  0
 19 45  1  0  0  0
 20 21  1  0  0  0
 20 46  1  0  0  0
 20 47  1  0  0  0
 21 22  1  0  0  0
 21 48  1  0  0  0
 21 49  1  0  0  0
 22 23  1  0  0  0
 22 50  1  0  0  0
 22 51  1  0  0  0
 23 52  1  0  0  0
 23 53  1  0  0  0
 24 25  1  0  0  0
 24 54  1  0  0  0
 25 26  1  0  0  0
 26 31  2  0  0  0
 26 27  1  0  0  0
 27 28  2  0  0  0
 27 55  1  0  0  0
 28 29  1  0  0  0
 28 56  1  0  0  0
 29 30  2  0  0  0
 29 57  1  0  0  0
 30 31  1  0  0  0
 30 58  1  0  0  0
 31 59  1  0  0  0
 32 33  1  0  0  0
 32 60  1  0  0  0
 32 61  1  0  0  0
 33 34  1  0  0  0
 33 62  1  0  0  0
 33 63  1  0  0  0
 34 35  1  0  0  0
 34 64  1  0  0  0
 34 65  1  0  0  0
 35 66  1  0  0  0
 35 67  1  0  0  0
M  CHG  1  17   1
M  END
> <i_i_glide_confnum>
114

> <i_i_glide_lignum>
352

> <i_i_glide_posenum>
228

> <i_i_glide_rotatable_bonds>
9

> <i_m_Source_File_Index>
1445

> <b_m_subgroup_collapsed>
0

> <r_i_docking_score>
-5.2765

> <r_i_glide_ecoul>
-7.15732

> <r_i_glide_eff_state_penalty>
0

> <r_i_glide_einternal>
3.44781

> <r_i_glide_emodel>
-63.7929

> <r_i_glide_energy>
-47.8107

> <r_i_glide_erotb>
0.62172

> <r_i_glide_esite>
-0.115064

> <r_i_glide_evdw>
-40.6533

> <r_i_glide_gscore>
-5.2765

> <r_i_glide_hbond>
-0.16

> <r_i_glide_ligand_efficiency>
-0.150757

> <r_i_glide_ligand_efficiency_ln>
-1.15831

> <r_i_glide_ligand_efficiency_sa>
-0.493137

> <r_i_glide_lipo>
-2.04075

> <r_i_glide_metal>
0

> <r_i_glide_rewards>
-0.476147

> <s_i_glide_gridfile>
wee1_glide-grid

> <s_m_Source_File>
wee1_decoys_glide_SP.sdf

> <s_m_Source_Path>
/Users/zhangxujun/Desktop

> <s_m_entry_id>
1720

> <s_m_entry_name>
wee1_decoys_glide_SP.1445

> <s_m_subgroup_title>
wee1_decoys_glide_SP

> <s_m_subgroupid>
wee1_decoys_glide_SP


$$$$
