ZINC36963124_6146
                    3D
 Schrodinger Suite 2024-2.
 35 35  0  0  1  0            999 V2000
    5.8556   54.3674   19.8319 C   0  0  0  0  0  0
    6.5194   55.0510   21.0480 C   0  0  2  0  0  0
    7.5987   54.8965   21.0117 H   0  0  0  0  0  0
    5.9955   54.5596   22.4153 C   0  0  0  0  0  0
    4.9828   53.8561   22.4770 O   0  0  0  0  0  0
    6.7042   54.9815   23.4924 N   0  0  0  0  0  0
    6.3506   55.0167   24.8001 C   0  0  0  0  0  0
    7.1043   55.5445   25.6113 O   0  0  0  0  0  0
    5.1607   54.5059   25.1797 N   0  0  0  0  0  0
    4.6225   54.5215   26.5448 C   0  0  0  0  0  0
    3.0917   54.3319   26.4946 C   0  0  0  0  0  0
    2.2789   54.8830   27.6928 C   0  0  0  0  0  0
    2.6667   54.4474   29.1183 C   0  0  0  0  0  0
    3.4898   53.1596   29.2407 C   0  0  0  0  0  0
    4.9702   53.3535   28.8816 C   0  0  0  0  0  0
    5.3336   53.4513   27.3944 C   0  0  0  0  0  0
    6.3044   56.8162   20.8819 Cl  0  0  0  0  0  0
    5.9044   53.2789   19.8877 H   0  0  0  0  0  0
    6.3355   54.6679   18.8996 H   0  0  0  0  0  0
    4.7994   54.6328   19.7558 H   0  0  0  0  0  0
    7.5921   55.4242   23.2992 H   0  0  0  0  0  0
    4.5643   54.1261   24.4559 H   0  0  0  0  0  0
    4.8398   55.5021   26.9657 H   0  0  0  0  0  0
    2.7043   54.7674   25.5732 H   0  0  0  0  0  0
    2.8732   53.2674   26.3927 H   0  0  0  0  0  0
    2.3041   55.9726   27.6818 H   0  0  0  0  0  0
    1.2329   54.6185   27.5295 H   0  0  0  0  0  0
    3.2071   55.2604   29.6071 H   0  0  0  0  0  0
    1.7512   54.3343   29.7018 H   0  0  0  0  0  0
    3.4364   52.8232   30.2772 H   0  0  0  0  0  0
    3.0482   52.3554   28.6494 H   0  0  0  0  0  0
    5.3613   54.2340   29.3930 H   0  0  0  0  0  0
    5.5044   52.4972   29.2817 H   0  0  0  0  0  0
    5.1583   52.4966   26.9181 H   0  0  0  0  0  0
    6.4134   53.6049   27.3449 H   0  0  0  0  0  0
  1  2  1  0  0  0
  1 18  1  0  0  0
  1 19  1  0  0  0
  1 20  1  0  0  0
  2  3  1  0  0  0
  2  4  1  0  0  0
  2 17  1  0  0  0
  4  5  2  0  0  0
  4  6  1  0  0  0
  6  7  1  0  0  0
  6 21  1  0  0  0
  7  8  2  0  0  0
  7  9  1  0  0  0
  9 10  1  0  0  0
  9 22  1  0  0  0
 10 16  1  0  0  0
 10 11  1  0  0  0
 10 23  1  0  0  0
 11 12  1  0  0  0
 11 24  1  0  0  0
 11 25  1  0  0  0
 12 13  1  0  0  0
 12 26  1  0  0  0
 12 27  1  0  0  0
 13 14  1  0  0  0
 13 28  1  0  0  0
 13 29  1  0  0  0
 14 15  1  0  0  0
 14 30  1  0  0  0
 14 31  1  0  0  0
 15 16  1  0  0  0
 15 32  1  0  0  0
 15 33  1  0  0  0
 16 34  1  0  0  0
 16 35  1  0  0  0
M  END
> <i_i_glide_confnum>
27

> <i_i_glide_lignum>
6147

> <i_i_glide_posenum>
109

> <i_i_glide_rotatable_bonds>
5

> <i_m_Source_File_Index>
3164

> <b_m_subgroup_collapsed>
0

> <r_i_docking_score>
-5.17228

> <r_i_glide_ecoul>
-5.99712

> <r_i_glide_eff_state_penalty>
0

> <r_i_glide_einternal>
3.40311

> <r_i_glide_emodel>
-37.1746

> <r_i_glide_energy>
-31.1185

> <r_i_glide_erotb>
0.859139

> <r_i_glide_esite>
0

> <r_i_glide_evdw>
-25.1214

> <r_i_glide_gscore>
-5.17228

> <r_i_glide_hbond>
-0.499601

> <r_i_glide_ligand_efficiency>
-0.323267

> <r_i_glide_ligand_efficiency_ln>
-1.37102

> <r_i_glide_ligand_efficiency_sa>
-0.814582

> <r_i_glide_lipo>
-1.66475

> <r_i_glide_metal>
0

> <r_i_glide_rewards>
-1.71143

> <s_i_glide_gridfile>
wee1_glide-grid

> <s_m_Source_File>
wee1_decoys_glide_SP.sdf

> <s_m_Source_Path>
/Users/zhangxujun/Desktop

> <s_m_entry_id>
3439

> <s_m_entry_name>
wee1_decoys_glide_SP.3164

> <s_m_subgroup_title>
wee1_decoys_glide_SP

> <s_m_subgroupid>
wee1_decoys_glide_SP


$$$$
