ZINC12515016_4824
                    3D
 Schrodinger Suite 2024-2.
 61 64  0  0  1  0            999 V2000
    1.3215   50.1447   15.5818 C   0  0  0  0  0  0
    0.9815   48.9018   16.4397 C   0  0  2  0  0  0
   -0.0178   48.5453   16.1877 H   0  0  0  0  0  0
    1.1015   49.1975   17.9487 C   0  0  0  0  0  0
    1.9360   48.6037   18.7723 N   0  0  0  0  0  0
    1.7413   49.1311   20.0386 N   0  0  0  0  0  0
    0.8157   50.0488   19.9389 C   0  0  0  0  0  0
    0.3491   50.1332   18.6417 N   0  0  0  0  0  0
   -0.6727   50.9765   18.1687 C   0  0  0  0  0  0
   -0.3728   52.2878   17.7880 C   0  0  0  0  0  0
   -1.3940   53.1254   17.3505 C   0  0  0  0  0  0
   -2.7031   52.6521   17.2992 C   0  0  0  0  0  0
   -3.0027   51.3458   17.6800 C   0  0  0  0  0  0
   -1.9850   50.5007   18.1173 C   0  0  0  0  0  0
   -3.6936   53.4702   16.8800 F   0  0  0  0  0  0
    0.2596   51.0131   21.3079 S   0  0  0  0  0  0
    1.2981   52.4836   21.0053 C   0  0  0  0  0  0
    2.7867   52.3460   21.3421 C   0  0  0  0  0  0
    3.2757   51.2707   21.6818 O   0  0  0  0  0  0
    3.5045   53.4760   21.2405 N   0  0  0  0  0  0
    4.9174   53.6223   21.6055 C   0  0  2  0  0  0
    5.3894   52.6384   21.5349 H   0  0  0  0  0  0
    5.1505   54.0146   23.0807 C   0  0  0  0  0  0
    4.0866   54.1921   23.9812 C   0  0  0  0  0  0
    4.3318   54.4972   25.3169 C   0  0  0  0  0  0
    5.6414   54.6291   25.7654 C   0  0  0  0  0  0
    6.7048   54.4479   24.8871 C   0  0  0  0  0  0
    6.4619   54.1304   23.5555 C   0  0  0  0  0  0
    5.5908   54.4989   20.5530 C   0  0  0  0  0  0
    5.7776   54.1950   19.1987 C   0  0  0  0  0  0
    6.4267   55.1841   18.4574 C   0  0  0  0  0  0
    6.7801   56.2752   19.2296 C   0  0  0  0  0  0
    6.3067   56.0639   20.8796 S   0  0  0  0  0  0
    1.4096   46.3408   16.6064 C   0  0  0  0  0  0
    2.2390   47.5481   14.5517 C   0  0  0  0  0  0
    0.6615   50.9799   15.7939 H   0  0  0  0  0  0
    2.3433   50.4875   15.7594 H   0  0  0  0  0  0
    1.2043   49.9635   14.5140 H   0  0  0  0  0  0
    0.6430   52.6562   17.8128 H   0  0  0  0  0  0
   -1.1720   54.1377   17.0448 H   0  0  0  0  0  0
   -4.0223   50.9928   17.6353 H   0  0  0  0  0  0
   -2.2189   49.4895   18.4199 H   0  0  0  0  0  0
    0.8981   53.2938   21.6153 H   0  0  0  0  0  0
    1.2036   52.8042   19.9719 H   0  0  0  0  0  0
    3.0215   54.3220   20.9670 H   0  0  0  0  0  0
    3.0601   54.0956   23.6631 H   0  0  0  0  0  0
    3.5075   54.6305   26.0018 H   0  0  0  0  0  0
    5.8316   54.8635   26.8032 H   0  0  0  0  0  0
    7.7203   54.5364   25.2338 H   0  0  0  0  0  0
    7.3020   53.9849   22.8914 H   0  0  0  0  0  0
    5.4335   53.2677   18.7557 H   0  0  0  0  0  0
    6.6317   55.1020   17.3989 H   0  0  0  0  0  0
    7.2885   57.1725   18.9067 H   0  0  0  0  0  0
    0.4984   46.0759   16.0665 H   0  0  0  0  0  0
    2.2013   45.6108   16.4337 H   0  0  0  0  0  0
    1.2142   46.4292   17.6738 H   0  0  0  0  0  0
    1.3020   47.4851   13.9958 H   0  0  0  0  0  0
    2.8351   48.4152   14.2603 H   0  0  0  0  0  0
    2.8405   46.6462   14.4339 H   0  0  0  0  0  0
    1.9044   47.7003   16.0536 N   0  3  0  0  0  0
    2.8005   47.9440   16.4859 H   0  0  0  0  0  0
  1  2  1  0  0  0
  1 36  1  0  0  0
  1 37  1  0  0  0
  1 38  1  0  0  0
  2  3  1  0  0  0
  2  4  1  0  0  0
  2 60  1  0  0  0
  4  8  1  0  0  0
  4  5  2  0  0  0
  5  6  1  0  0  0
  6  7  2  0  0  0
  7  8  1  0  0  0
  7 16  1  0  0  0
  8  9  1  0  0  0
  9 14  2  0  0  0
  9 10  1  0  0  0
 10 11  2  0  0  0
 10 39  1  0  0  0
 11 12  1  0  0  0
 11 40  1  0  0  0
 12 13  2  0  0  0
 12 15  1  0  0  0
 13 14  1  0  0  0
 13 41  1  0  0  0
 14 42  1  0  0  0
 16 17  1  0  0  0
 17 18  1  0  0  0
 17 43  1  0  0  0
 17 44  1  0  0  0
 18 19  2  0  0  0
 18 20  1  0  0  0
 20 21  1  0  0  0
 20 45  1  0  0  0
 21 22  1  0  0  0
 21 23  1  0  0  0
 21 29  1  0  0  0
 23 28  2  0  0  0
 23 24  1  0  0  0
 24 25  2  0  0  0
 24 46  1  0  0  0
 25 26  1  0  0  0
 25 47  1  0  0  0
 26 27  2  0  0  0
 26 48  1  0  0  0
 27 28  1  0  0  0
 27 49  1  0  0  0
 28 50  1  0  0  0
 29 33  1  0  0  0
 29 30  2  0  0  0
 30 31  1  0  0  0
 30 51  1  0  0  0
 31 32  2  0  0  0
 31 52  1  0  0  0
 32 33  1  0  0  0
 32 53  1  0  0  0
 34 54  1  0  0  0
 34 55  1  0  0  0
 34 56  1  0  0  0
 34 60  1  0  0  0
 35 57  1  0  0  0
 35 58  1  0  0  0
 35 59  1  0  0  0
 35 60  1  0  0  0
 60 61  1  0  0  0
M  CHG  1  60   1
M  END
> <i_i_glide_confnum>
340

> <i_i_glide_lignum>
4825

> <i_i_glide_posenum>
335

> <i_i_glide_rotatable_bonds>
10

> <i_m_Source_File_Index>
160

> <b_m_subgroup_collapsed>
0

> <r_i_docking_score>
-4.66572

> <r_i_glide_ecoul>
-3.46752

> <r_i_glide_eff_state_penalty>
0

> <r_i_glide_einternal>
5.67769

> <r_i_glide_emodel>
-55.7373

> <r_i_glide_energy>
-42.2327

> <r_i_glide_erotb>
0.744126

> <r_i_glide_esite>
-0.299957

> <r_i_glide_evdw>
-38.7651

> <r_i_glide_gscore>
-4.66572

> <r_i_glide_hbond>
-0.498714

> <r_i_glide_ligand_efficiency>
-0.137227

> <r_i_glide_ligand_efficiency_ln>
-1.03079

> <r_i_glide_ligand_efficiency_sa>
-0.444562

> <r_i_glide_lipo>
-2.06799

> <r_i_glide_metal>
0

> <r_i_glide_rewards>
-0.0847952

> <s_i_glide_gridfile>
wee1_glide-grid

> <s_m_Source_File>
wee1_decoys_glide_SP.sdf

> <s_m_Source_Path>
/Users/zhangxujun/Desktop

> <s_m_entry_id>
435

> <s_m_entry_name>
wee1_decoys_glide_SP.160

> <s_m_subgroup_title>
wee1_decoys_glide_SP

> <s_m_subgroupid>
wee1_decoys_glide_SP


$$$$
