ZINC40399796_597
                    3D
 Schrodinger Suite 2024-2.
 67 70  0  0  1  0            999 V2000
   -1.2258   48.6402   19.8676 C   0  0  0  0  0  0
   -0.6191   48.8493   21.2632 C   0  0  0  0  0  0
    0.8855   49.2058   21.2532 C   0  0  2  0  0  0
    1.3896   48.3651   20.7724 H   0  0  0  0  0  0
    1.3982   49.2700   22.7168 C   0  0  0  0  0  0
    1.1811   50.4972   20.4182 C   0  0  1  0  0  0
    0.7267   50.4850   19.4271 H   0  0  0  0  0  0
    0.8759   51.8084   21.1635 C   0  0  0  0  0  0
   -0.2435   52.0970   21.5872 O   0  0  0  0  0  0
    2.0255   52.4998   21.3122 N   0  0  0  0  0  0
    3.1119   51.9792   20.4680 C   0  0  0  0  0  0
    2.6557   50.5558   20.1718 N   0  3  0  0  0  0
    4.4991   51.8980   21.1264 C   0  0  0  0  0  0
    5.1710   53.2726   21.2859 C   0  0  0  0  0  0
    5.3064   53.8364   19.9267 N   0  0  0  0  0  0
    4.0522   54.0599   19.1784 C   0  0  0  0  0  0
    3.2601   52.7300   19.1130 C   0  0  0  0  0  0
    6.4110   54.5543   19.5547 C   0  0  0  0  0  0
    7.1056   55.6997   20.5682 S   0  0  0  0  0  0
    6.8628   54.2225   18.3042 N   0  0  0  0  0  0
    7.9579   54.6878   17.5558 C   0  0  0  0  0  0
    7.7262   55.0239   16.2198 C   0  0  0  0  0  0
    8.7807   55.4598   15.4207 C   0  0  0  0  0  0
   10.0641   55.5482   15.9547 C   0  0  0  0  0  0
   10.3037   55.2012   17.2819 C   0  0  0  0  0  0
    9.2529   54.7649   18.0838 C   0  0  0  0  0  0
   11.0855   55.9733   15.1778 F   0  0  0  0  0  0
    2.0610   53.7264   22.1363 C   0  0  0  0  0  0
    2.3423   53.5995   23.6354 C   0  0  0  0  0  0
    3.4089   54.3005   24.2086 C   0  0  0  0  0  0
    3.6205   54.2798   25.5851 C   0  0  0  0  0  0
    2.7532   53.5705   26.4105 C   0  0  0  0  0  0
    1.6728   52.8690   25.8638 C   0  0  0  0  0  0
    1.4744   52.8895   24.4744 C   0  0  0  0  0  0
    0.7556   52.0616   26.7837 C   0  0  0  0  0  0
    1.4733   51.4199   27.7081 F   0  0  0  0  0  0
    0.0469   51.1580   26.1063 F   0  0  0  0  0  0
   -0.0886   52.8849   27.4031 F   0  0  0  0  0  0
   -2.0943   47.9830   19.9165 H   0  0  0  0  0  0
   -1.5562   49.5858   19.4367 H   0  0  0  0  0  0
   -0.5109   48.1879   19.1791 H   0  0  0  0  0  0
   -0.7739   47.9384   21.8430 H   0  0  0  0  0  0
   -1.1823   49.6228   21.7872 H   0  0  0  0  0  0
    0.9792   50.1100   23.2692 H   0  0  0  0  0  0
    1.1063   48.3896   23.2848 H   0  0  0  0  0  0
    2.4842   49.3473   22.7686 H   0  0  0  0  0  0
    3.1407   49.9212   20.7885 H   0  0  0  0  0  0
    4.4196   51.3987   22.0817 H   0  0  0  0  0  0
    5.1594   51.2654   20.5317 H   0  0  0  0  0  0
    4.5771   53.9684   21.8513 H   0  0  0  0  0  0
    6.0875   53.1972   21.8634 H   0  0  0  0  0  0
    3.5044   54.8324   19.7109 H   0  0  0  0  0  0
    4.2273   54.4345   18.1675 H   0  0  0  0  0  0
    3.7803   52.0960   18.3924 H   0  0  0  0  0  0
    2.2834   52.9109   18.6607 H   0  0  0  0  0  0
    6.2435   53.6257   17.7750 H   0  0  0  0  0  0
    6.7339   54.9563   15.7972 H   0  0  0  0  0  0
    8.6080   55.7277   14.3892 H   0  0  0  0  0  0
   11.3012   55.2712   17.6896 H   0  0  0  0  0  0
    9.4560   54.4934   19.1096 H   0  0  0  0  0  0
    1.1044   54.2260   22.0821 H   0  0  0  0  0  0
    2.7126   54.4659   21.6819 H   0  0  0  0  0  0
    4.0717   54.8963   23.6036 H   0  0  0  0  0  0
    4.4492   54.8253   26.0133 H   0  0  0  0  0  0
    2.9262   53.5604   27.4775 H   0  0  0  0  0  0
    0.6289   52.3696   24.0487 H   0  0  0  0  0  0
    2.9212   50.2938   19.2287 H   0  0  0  0  0  0
  1  2  1  0  0  0
  1 39  1  0  0  0
  1 40  1  0  0  0
  1 41  1  0  0  0
  2  3  1  0  0  0
  2 42  1  0  0  0
  2 43  1  0  0  0
  3  4  1  0  0  0
  3  5  1  0  0  0
  3  6  1  0  0  0
  5 44  1  0  0  0
  5 45  1  0  0  0
  5 46  1  0  0  0
  6  7  1  0  0  0
  6 12  1  0  0  0
  6  8  1  0  0  0
  8  9  2  0  0  0
  8 10  1  0  0  0
 10 11  1  0  0  0
 10 28  1  0  0  0
 11 17  1  0  0  0
 11 12  1  0  0  0
 11 13  1  0  0  0
 12 47  1  0  0  0
 12 67  1  0  0  0
 13 14  1  0  0  0
 13 48  1  0  0  0
 13 49  1  0  0  0
 14 15  1  0  0  0
 14 50  1  0  0  0
 14 51  1  0  0  0
 15 16  1  0  0  0
 15 18  1  0  0  0
 16 17  1  0  0  0
 16 52  1  0  0  0
 16 53  1  0  0  0
 17 54  1  0  0  0
 17 55  1  0  0  0
 18 19  2  0  0  0
 18 20  1  0  0  0
 20 21  1  0  0  0
 20 56  1  0  0  0
 21 26  2  0  0  0
 21 22  1  0  0  0
 22 23  2  0  0  0
 22 57  1  0  0  0
 23 24  1  0  0  0
 23 58  1  0  0  0
 24 25  2  0  0  0
 24 27  1  0  0  0
 25 26  1  0  0  0
 25 59  1  0  0  0
 26 60  1  0  0  0
 28 29  1  0  0  0
 28 61  1  0  0  0
 28 62  1  0  0  0
 29 34  2  0  0  0
 29 30  1  0  0  0
 30 31  2  0  0  0
 30 63  1  0  0  0
 31 32  1  0  0  0
 31 64  1  0  0  0
 32 33  2  0  0  0
 32 65  1  0  0  0
 33 34  1  0  0  0
 33 35  1  0  0  0
 34 66  1  0  0  0
 35 36  1  0  0  0
 35 37  1  0  0  0
 35 38  1  0  0  0
M  CHG  1  12   1
M  END
> <i_i_glide_confnum>
3

> <i_i_glide_lignum>
598

> <i_i_glide_posenum>
123

> <i_i_glide_rotatable_bonds>
8

> <i_m_Source_File_Index>
3214

> <b_m_subgroup_collapsed>
0

> <r_i_docking_score>
-3.9659

> <r_i_glide_ecoul>
-4.82571

> <r_i_glide_eff_state_penalty>
0

> <r_i_glide_einternal>
5.71255

> <r_i_glide_emodel>
-47.5107

> <r_i_glide_energy>
-38.4031

> <r_i_glide_erotb>
0.45019

> <r_i_glide_esite>
-0.11689

> <r_i_glide_evdw>
-33.5774

> <r_i_glide_gscore>
-3.9659

> <r_i_glide_hbond>
0

> <r_i_glide_ligand_efficiency>
-0.110164

> <r_i_glide_ligand_efficiency_ln>
-0.865253

> <r_i_glide_ligand_efficiency_sa>
-0.363754

> <r_i_glide_lipo>
-1.74758

> <r_i_glide_metal>
0

> <r_i_glide_rewards>
-0.1489

> <s_i_glide_gridfile>
wee1_glide-grid

> <s_m_Source_File>
wee1_decoys_glide_SP.sdf

> <s_m_Source_Path>
/Users/zhangxujun/Desktop

> <s_m_entry_id>
3489

> <s_m_entry_name>
wee1_decoys_glide_SP.3214

> <s_m_subgroup_title>
wee1_decoys_glide_SP

> <s_m_subgroupid>
wee1_decoys_glide_SP


$$$$
