ZINC02841702_3504
                    3D
 Schrodinger Suite 2024-2.
 47 49  0  0  1  0            999 V2000
    2.8421   53.9376   22.6863 C   0  0  0  0  0  0
    3.9154   53.1953   21.8656 C   0  0  0  0  0  0
    3.2605   52.4685   20.6707 C   0  0  0  0  0  0
    5.0970   54.1164   21.5103 C   0  0  0  0  0  0
    5.2498   54.5877   20.1960 C   0  0  0  0  0  0
    6.3145   55.4158   19.8477 C   0  0  0  0  0  0
    7.2463   55.7881   20.8054 C   0  0  0  0  0  0
    7.1029   55.3502   22.1155 C   0  0  0  0  0  0
    6.0399   54.5126   22.4870 C   0  0  0  0  0  0
    5.9399   54.0018   23.7992 N   0  0  0  0  0  0
    6.3076   54.5772   24.9649 C   0  0  0  0  0  0
    6.7067   55.7336   25.0734 O   0  0  0  0  0  0
    6.2311   53.6764   26.1997 C   0  0  0  0  0  0
    5.8785   54.4969   27.7835 S   0  0  0  0  0  0
    4.4353   53.6004   28.2648 C   0  0  0  0  0  0
    4.3045   53.0191   29.4283 N   0  0  0  0  0  0
    3.0349   52.4616   29.4829 N   0  0  0  0  0  0
    2.4186   52.7636   28.3630 C   0  0  0  0  0  0
    3.2537   53.5190   27.5613 N   0  0  0  0  0  0
    2.9806   54.0961   26.3334 N   0  0  0  0  0  0
    1.0144   52.3330   28.0558 C   0  0  0  0  0  0
    0.5768   52.1378   26.7404 C   0  0  0  0  0  0
   -0.7347   51.7444   26.4850 C   0  0  0  0  0  0
   -1.6100   51.5319   27.5441 C   0  0  0  0  0  0
   -1.1796   51.6962   28.8563 C   0  0  0  0  0  0
    0.1259   52.0974   29.1124 C   0  0  0  0  0  0
   -3.2385   51.0598   27.2283 Cl  0  0  0  0  0  0
    6.4936   56.0392   18.0591 Br  0  0  0  0  0  0
    3.2667   54.4510   23.5471 H   0  0  0  0  0  0
    2.3342   54.6911   22.0826 H   0  0  0  0  0  0
    2.0852   53.2461   23.0559 H   0  0  0  0  0  0
    4.3290   52.4040   22.4817 H   0  0  0  0  0  0
    4.0022   51.9596   20.0494 H   0  0  0  0  0  0
    2.5581   51.7093   21.0171 H   0  0  0  0  0  0
    2.7040   53.1555   20.0316 H   0  0  0  0  0  0
    4.5432   54.3245   19.4238 H   0  0  0  0  0  0
    8.0868   56.4094   20.5310 H   0  0  0  0  0  0
    7.8425   55.6627   22.8356 H   0  0  0  0  0  0
    5.5041   53.0954   23.8608 H   0  0  0  0  0  0
    5.4909   52.8967   26.0430 H   0  0  0  0  0  0
    7.1891   53.1723   26.3052 H   0  0  0  0  0  0
    3.0755   55.1040   26.3671 H   0  0  0  0  0  0
    3.5016   53.6579   25.5862 H   0  0  0  0  0  0
    1.2470   52.2768   25.9060 H   0  0  0  0  0  0
   -1.0646   51.5945   25.4668 H   0  0  0  0  0  0
   -1.8515   51.4906   29.6781 H   0  0  0  0  0  0
    0.4435   52.2198   30.1383 H   0  0  0  0  0  0
  1  2  1  0  0  0
  1 29  1  0  0  0
  1 30  1  0  0  0
  1 31  1  0  0  0
  2  3  1  0  0  0
  2  4  1  0  0  0
  2 32  1  0  0  0
  3 33  1  0  0  0
  3 34  1  0  0  0
  3 35  1  0  0  0
  4  9  2  0  0  0
  4  5  1  0  0  0
  5  6  2  0  0  0
  5 36  1  0  0  0
  6  7  1  0  0  0
  6 28  1  0  0  0
  7  8  2  0  0  0
  7 37  1  0  0  0
  8  9  1  0  0  0
  8 38  1  0  0  0
  9 10  1  0  0  0
 10 11  1  0  0  0
 10 39  1  0  0  0
 11 12  2  0  0  0
 11 13  1  0  0  0
 13 14  1  0  0  0
 13 40  1  0  0  0
 13 41  1  0  0  0
 14 15  1  0  0  0
 15 19  1  0  0  0
 15 16  2  0  0  0
 16 17  1  0  0  0
 17 18  2  0  0  0
 18 19  1  0  0  0
 18 21  1  0  0  0
 19 20  1  0  0  0
 20 42  1  0  0  0
 20 43  1  0  0  0
 21 26  2  0  0  0
 21 22  1  0  0  0
 22 23  2  0  0  0
 22 44  1  0  0  0
 23 24  1  0  0  0
 23 45  1  0  0  0
 24 25  2  0  0  0
 24 27  1  0  0  0
 25 26  1  0  0  0
 25 46  1  0  0  0
 26 47  1  0  0  0
M  END
> <i_i_glide_confnum>
83

> <i_i_glide_lignum>
3505

> <i_i_glide_posenum>
310

> <i_i_glide_rotatable_bonds>
7

> <i_m_Source_File_Index>
4521

> <b_m_subgroup_collapsed>
0

> <r_i_docking_score>
-5.86988

> <r_i_glide_ecoul>
-3.55534

> <r_i_glide_eff_state_penalty>
0

> <r_i_glide_einternal>
2.29755

> <r_i_glide_emodel>
-69.3198

> <r_i_glide_energy>
-51.3561

> <r_i_glide_erotb>
0.526393

> <r_i_glide_esite>
0

> <r_i_glide_evdw>
-47.8008

> <r_i_glide_gscore>
-5.86988

> <r_i_glide_hbond>
-0.183162

> <r_i_glide_ligand_efficiency>
-0.209639

> <r_i_glide_ligand_efficiency_ln>
-1.35494

> <r_i_glide_ligand_efficiency_sa>
-0.636586

> <r_i_glide_lipo>
-1.86777

> <r_i_glide_metal>
0

> <r_i_glide_rewards>
-1.422

> <s_i_glide_gridfile>
wee1_glide-grid

> <s_m_Source_File>
wee1_decoys_glide_SP.sdf

> <s_m_Source_Path>
/Users/zhangxujun/Desktop

> <s_m_entry_id>
4796

> <s_m_entry_name>
wee1_decoys_glide_SP.4521

> <s_m_subgroup_title>
wee1_decoys_glide_SP

> <s_m_subgroupid>
wee1_decoys_glide_SP


$$$$
