ZINC36064999_5809
                    3D
 Schrodinger Suite 2024-2.
 56 59  0  0  1  0            999 V2000
    3.4977   54.6040   25.0769 C   0  0  0  0  0  0
    2.4819   53.4903   24.8444 C   0  0  0  0  0  0
    1.6632   52.8943   25.7682 C   0  0  0  0  0  0
    0.7716   51.6790   25.3449 C   0  0  2  0  0  0
    1.0869   50.8284   25.9539 H   0  0  0  0  0  0
    1.1018   51.2632   23.9492 N   0  0  0  0  0  0
    0.6393   50.1160   23.3177 C   0  0  0  0  0  0
    0.9348   50.1149   22.0033 C   0  0  0  0  0  0
    1.8486   51.5258   21.4788 S   0  0  0  0  0  0
    1.8696   52.1097   23.1518 C   0  0  0  0  0  0
    2.4711   53.1714   23.5189 N   0  0  0  0  0  0
   -0.1477   49.0690   23.9560 C   0  0  0  0  0  0
   -1.2427   48.4813   23.4366 C   0  0  0  0  0  0
   -1.8249   48.6920   22.3068 O   0  5  0  0  0  0
   -1.9027   47.5072   24.1579 N   0  0  0  0  0  0
   -3.2282   46.9112   23.9596 C   0  0  0  0  0  0
   -3.2841   45.8286   22.8982 C   0  0  0  0  0  0
   -2.4334   45.3949   21.8904 C   0  0  0  0  0  0
   -3.0651   44.3361   21.2368 C   0  0  0  0  0  0
   -4.2863   44.1739   21.8655 C   0  0  0  0  0  0
   -4.4177   45.0777   22.8695 O   0  0  0  0  0  0
   -0.7406   51.8215   25.5862 C   0  0  0  0  0  0
   -1.3260   51.1514   26.6677 C   0  0  0  0  0  0
   -2.6974   51.2426   26.9010 C   0  0  0  0  0  0
   -3.5024   51.9988   26.0508 C   0  0  0  0  0  0
   -2.9338   52.6591   24.9631 C   0  0  0  0  0  0
   -1.5600   52.5745   24.7323 C   0  0  0  0  0  0
   -1.0345   53.2432   23.6818 F   0  0  0  0  0  0
    1.7579   53.1377   27.2200 C   0  0  0  0  0  0
    0.7912   53.0372   27.9780 O   0  0  0  0  0  0
    3.0188   53.3924   27.6498 O   0  0  0  0  0  0
    3.3306   53.5991   29.0256 C   0  0  0  0  0  0
    3.4602   52.2533   29.7642 C   0  0  0  0  0  0
    4.6421   54.3958   29.0653 C   0  0  0  0  0  0
    4.4968   54.1744   25.1747 H   0  0  0  0  0  0
    3.5120   55.2962   24.2331 H   0  0  0  0  0  0
    3.2884   55.1929   25.9678 H   0  0  0  0  0  0
    0.6564   49.3525   21.2926 H   0  0  0  0  0  0
    0.1813   48.7457   24.9352 H   0  0  0  0  0  0
   -1.3645   47.0450   24.8745 H   0  0  0  0  0  0
   -3.9211   47.7127   23.6973 H   0  0  0  0  0  0
   -3.5669   46.5248   24.9199 H   0  0  0  0  0  0
   -1.4632   45.8150   21.6615 H   0  0  0  0  0  0
   -2.6857   43.7696   20.3998 H   0  0  0  0  0  0
   -5.1192   43.5019   21.7181 H   0  0  0  0  0  0
   -0.7268   50.5449   27.3338 H   0  0  0  0  0  0
   -3.1300   50.7117   27.7382 H   0  0  0  0  0  0
   -4.5652   52.0675   26.2283 H   0  0  0  0  0  0
   -3.5526   53.2425   24.2994 H   0  0  0  0  0  0
    2.5493   54.2011   29.4917 H   0  0  0  0  0  0
    3.7302   52.4036   30.8096 H   0  0  0  0  0  0
    2.5227   51.6977   29.7396 H   0  0  0  0  0  0
    4.2312   51.6306   29.3067 H   0  0  0  0  0  0
    4.8891   54.7068   30.0800 H   0  0  0  0  0  0
    5.4779   53.8117   28.6754 H   0  0  0  0  0  0
    4.5639   55.2958   28.4595 H   0  0  0  0  0  0
  1  2  1  0  0  0
  1 35  1  0  0  0
  1 36  1  0  0  0
  1 37  1  0  0  0
  2 11  1  0  0  0
  2  3  2  0  0  0
  3  4  1  0  0  0
  3 29  1  0  0  0
  4  5  1  0  0  0
  4  6  1  0  0  0
  4 22  1  0  0  0
  6 10  1  0  0  0
  6  7  1  0  0  0
  7  8  2  0  0  0
  7 12  1  0  0  0
  8  9  1  0  0  0
  8 38  1  0  0  0
  9 10  1  0  0  0
 10 11  2  0  0  0
 12 13  2  0  0  0
 12 39  1  0  0  0
 13 14  1  0  0  0
 13 15  1  0  0  0
 15 16  1  0  0  0
 15 40  1  0  0  0
 16 17  1  0  0  0
 16 41  1  0  0  0
 16 42  1  0  0  0
 17 21  1  0  0  0
 17 18  2  0  0  0
 18 19  1  0  0  0
 18 43  1  0  0  0
 19 20  2  0  0  0
 19 44  1  0  0  0
 20 21  1  0  0  0
 20 45  1  0  0  0
 22 27  2  0  0  0
 22 23  1  0  0  0
 23 24  2  0  0  0
 23 46  1  0  0  0
 24 25  1  0  0  0
 24 47  1  0  0  0
 25 26  2  0  0  0
 25 48  1  0  0  0
 26 27  1  0  0  0
 26 49  1  0  0  0
 27 28  1  0  0  0
 29 30  2  0  0  0
 29 31  1  0  0  0
 31 32  1  0  0  0
 32 33  1  0  0  0
 32 34  1  0  0  0
 32 50  1  0  0  0
 33 51  1  0  0  0
 33 52  1  0  0  0
 33 53  1  0  0  0
 34 54  1  0  0  0
 34 55  1  0  0  0
 34 56  1  0  0  0
M  CHG  1  14  -1
M  END
> <i_i_glide_confnum>
30

> <i_i_glide_lignum>
5810

> <i_i_glide_posenum>
331

> <i_i_glide_rotatable_bonds>
8

> <i_m_Source_File_Index>
3255

> <b_m_subgroup_collapsed>
0

> <r_i_docking_score>
-3.9744

> <r_i_glide_ecoul>
-1.49343

> <r_i_glide_eff_state_penalty>
0

> <r_i_glide_einternal>
5.11033

> <r_i_glide_emodel>
-46.0766

> <r_i_glide_energy>
-38.3454

> <r_i_glide_erotb>
0.551875

> <r_i_glide_esite>
-0.0347928

> <r_i_glide_evdw>
-36.852

> <r_i_glide_gscore>
-3.9744

> <r_i_glide_hbond>
0

> <r_i_glide_ligand_efficiency>
-0.120436

> <r_i_glide_ligand_efficiency_ln>
-0.883885

> <r_i_glide_ligand_efficiency_sa>
-0.386303

> <r_i_glide_lipo>
-1.64689

> <r_i_glide_metal>
0

> <r_i_glide_rewards>
-0.777978

> <s_i_glide_gridfile>
wee1_glide-grid

> <s_m_Source_File>
wee1_decoys_glide_SP.sdf

> <s_m_Source_Path>
/Users/zhangxujun/Desktop

> <s_m_entry_id>
3530

> <s_m_entry_name>
wee1_decoys_glide_SP.3255

> <s_m_subgroup_title>
wee1_decoys_glide_SP

> <s_m_subgroupid>
wee1_decoys_glide_SP


$$$$
