ZINC44938759_6064
                    3D
 Schrodinger Suite 2024-2.
 72 75  0  0  1  0            999 V2000
    0.4068   54.0436   16.8527 C   0  0  0  0  0  0
    1.6191   53.6090   16.0397 C   0  0  0  0  0  0
    2.3941   54.5956   15.4189 C   0  0  0  0  0  0
    3.5125   54.2486   14.6622 C   0  0  0  0  0  0
    3.8667   52.9087   14.5185 C   0  0  0  0  0  0
    3.1039   51.9185   15.1326 C   0  0  0  0  0  0
    1.9811   52.2522   15.9011 C   0  0  0  0  0  0
    1.1944   51.1161   16.5566 C   0  0  0  0  0  0
    1.9046   50.4705   17.7709 N   0  3  2  0  0  0
    1.0948   49.2631   18.3100 C   0  0  0  0  0  0
    1.8413   48.6337   19.5097 C   0  0  0  0  0  0
    2.1253   49.6556   20.6331 C   0  0  0  0  0  0
    2.9479   50.8146   20.0228 C   0  0  1  0  0  0
    3.9042   50.4227   19.6817 H   0  0  0  0  0  0
    2.1814   51.5147   18.8776 C   0  0  0  0  0  0
    3.3439   51.8856   21.0549 C   0  0  0  0  0  0
    2.6823   52.0397   22.0831 O   0  0  0  0  0  0
    4.4278   52.6199   20.7207 N   0  0  0  0  0  0
    5.1030   53.5904   21.4765 C   0  0  0  0  0  0
    5.9042   54.4980   20.7827 C   0  0  0  0  0  0
    6.7217   55.3834   21.4844 C   0  0  0  0  0  0
    6.7074   55.3950   22.8795 C   0  0  0  0  0  0
    5.8391   54.5637   23.5996 C   0  0  0  0  0  0
    5.0810   53.6327   22.8763 C   0  0  0  0  0  0
    5.7673   54.6594   25.1029 C   0  0  0  0  0  0
    6.7128   55.1474   25.7302 O   0  0  0  0  0  0
    4.5511   54.1793   25.8517 C   0  0  0  0  0  0
    4.6599   53.7757   27.1899 C   0  0  0  0  0  0
    3.5464   53.2980   27.8794 C   0  0  0  0  0  0
    2.2921   53.2085   27.2527 C   0  0  0  0  0  0
    2.1751   53.6950   25.9435 C   0  0  0  0  0  0
    3.2806   54.1866   25.2621 C   0  0  0  0  0  0
    1.0689   52.5982   27.9899 C   0  0  0  0  0  0
    0.4092   53.6740   28.8787 C   0  0  0  0  0  0
    1.4870   51.4003   28.8776 C   0  0  0  0  0  0
   -0.0062   52.0479   27.0091 C   0  0  0  0  0  0
    0.2830   55.1269   16.8602 H   0  0  0  0  0  0
   -0.5035   53.6068   16.4427 H   0  0  0  0  0  0
    0.4991   53.7170   17.8881 H   0  0  0  0  0  0
    2.1330   55.6399   15.5200 H   0  0  0  0  0  0
    4.1049   55.0194   14.1890 H   0  0  0  0  0  0
    4.7362   52.6373   13.9374 H   0  0  0  0  0  0
    3.4005   50.8839   15.0228 H   0  0  0  0  0  0
    1.0653   50.2963   15.8461 H   0  0  0  0  0  0
    0.2048   51.4151   16.9040 H   0  0  0  0  0  0
    1.0293   48.5441   17.4902 H   0  0  0  0  0  0
    0.0980   49.6220   18.5787 H   0  0  0  0  0  0
    2.7812   48.1957   19.1624 H   0  0  0  0  0  0
    1.2538   47.8039   19.9068 H   0  0  0  0  0  0
    2.6879   49.1326   21.4110 H   0  0  0  0  0  0
    1.1559   50.0004   21.0007 H   0  0  0  0  0  0
    1.2099   51.9107   19.1842 H   0  0  0  0  0  0
    2.7931   52.2907   18.4111 H   0  0  0  0  0  0
    4.7957   52.4696   19.7934 H   0  0  0  0  0  0
    5.9466   54.4894   19.7020 H   0  0  0  0  0  0
    7.3783   56.0509   20.9456 H   0  0  0  0  0  0
    7.3535   56.0968   23.3899 H   0  0  0  0  0  0
    4.4870   52.9107   23.4074 H   0  0  0  0  0  0
    5.6152   53.7983   27.6975 H   0  0  0  0  0  0
    3.6804   52.9737   28.8993 H   0  0  0  0  0  0
    1.2304   53.6940   25.4230 H   0  0  0  0  0  0
    3.1208   54.5646   24.2627 H   0  0  0  0  0  0
   -0.4512   53.2771   29.4229 H   0  0  0  0  0  0
    0.0514   54.5059   28.2776 H   0  0  0  0  0  0
    1.1072   54.0768   29.6124 H   0  0  0  0  0  0
    2.0494   50.6585   28.3108 H   0  0  0  0  0  0
    2.0890   51.7018   29.7331 H   0  0  0  0  0  0
    0.6100   50.8971   29.2821 H   0  0  0  0  0  0
    0.4252   51.3377   26.3022 H   0  0  0  0  0  0
   -0.8052   51.5242   27.5383 H   0  0  0  0  0  0
   -0.4901   52.8389   26.4376 H   0  0  0  0  0  0
    2.8104   50.1151   17.4455 H   0  0  0  0  0  0
  1  2  1  0  0  0
  1 37  1  0  0  0
  1 38  1  0  0  0
  1 39  1  0  0  0
  2  7  2  0  0  0
  2  3  1  0  0  0
  3  4  2  0  0  0
  3 40  1  0  0  0
  4  5  1  0  0  0
  4 41  1  0  0  0
  5  6  2  0  0  0
  5 42  1  0  0  0
  6  7  1  0  0  0
  6 43  1  0  0  0
  7  8  1  0  0  0
  8  9  1  0  0  0
  8 44  1  0  0  0
  8 45  1  0  0  0
  9 15  1  0  0  0
  9 10  1  0  0  0
  9 72  1  0  0  0
 10 11  1  0  0  0
 10 46  1  0  0  0
 10 47  1  0  0  0
 11 12  1  0  0  0
 11 48  1  0  0  0
 11 49  1  0  0  0
 12 13  1  0  0  0
 12 50  1  0  0  0
 12 51  1  0  0  0
 13 14  1  0  0  0
 13 15  1  0  0  0
 13 16  1  0  0  0
 15 52  1  0  0  0
 15 53  1  0  0  0
 16 17  2  0  0  0
 16 18  1  0  0  0
 18 19  1  0  0  0
 18 54  1  0  0  0
 19 24  2  0  0  0
 19 20  1  0  0  0
 20 21  2  0  0  0
 20 55  1  0  0  0
 21 22  1  0  0  0
 21 56  1  0  0  0
 22 23  2  0  0  0
 22 57  1  0  0  0
 23 24  1  0  0  0
 23 25  1  0  0  0
 24 58  1  0  0  0
 25 26  2  0  0  0
 25 27  1  0  0  0
 27 32  2  0  0  0
 27 28  1  0  0  0
 28 29  2  0  0  0
 28 59  1  0  0  0
 29 30  1  0  0  0
 29 60  1  0  0  0
 30 31  2  0  0  0
 30 33  1  0  0  0
 31 32  1  0  0  0
 31 61  1  0  0  0
 32 62  1  0  0  0
 33 34  1  0  0  0
 33 35  1  0  0  0
 33 36  1  0  0  0
 34 63  1  0  0  0
 34 64  1  0  0  0
 34 65  1  0  0  0
 35 66  1  0  0  0
 35 67  1  0  0  0
 35 68  1  0  0  0
 36 69  1  0  0  0
 36 70  1  0  0  0
 36 71  1  0  0  0
M  CHG  1   9   1
M  END
> <i_i_glide_confnum>
207

> <i_i_glide_lignum>
6065

> <i_i_glide_posenum>
87

> <i_i_glide_rotatable_bonds>
8

> <i_m_Source_File_Index>
1603

> <b_m_subgroup_collapsed>
0

> <r_i_docking_score>
-6.44528

> <r_i_glide_ecoul>
-4.48056

> <r_i_glide_eff_state_penalty>
0

> <r_i_glide_einternal>
5.614

> <r_i_glide_emodel>
-64.297

> <r_i_glide_energy>
-44.9298

> <r_i_glide_erotb>
0.641066

> <r_i_glide_esite>
-0.108494

> <r_i_glide_evdw>
-40.4493

> <r_i_glide_gscore>
-6.44528

> <r_i_glide_hbond>
-0.496698

> <r_i_glide_ligand_efficiency>
-0.184151

> <r_i_glide_ligand_efficiency_ln>
-1.41488

> <r_i_glide_ligand_efficiency_sa>
-0.60237

> <r_i_glide_lipo>
-2.64876

> <r_i_glide_metal>
0

> <r_i_glide_rewards>
-1.13785

> <s_i_glide_gridfile>
wee1_glide-grid

> <s_m_Source_File>
wee1_decoys_glide_SP.sdf

> <s_m_Source_Path>
/Users/zhangxujun/Desktop

> <s_m_entry_id>
1878

> <s_m_entry_name>
wee1_decoys_glide_SP.1603

> <s_m_subgroup_title>
wee1_decoys_glide_SP

> <s_m_subgroupid>
wee1_decoys_glide_SP


$$$$
