ZINC63426686_4203
                    3D
 Schrodinger Suite 2024-2.
 69 75  0  0  1  0            999 V2000
   -0.9259   54.8855   17.0203 C   0  0  0  0  0  0
   -0.7090   53.6756   17.6814 C   0  0  0  0  0  0
   -1.9405   53.0395   17.7905 C   0  0  0  0  0  0
   -2.8956   53.8245   17.2211 O   0  0  0  0  0  0
   -2.2815   54.9382   16.7480 C   0  0  0  0  0  0
   -2.4314   51.7364   18.3997 C   0  0  0  0  0  0
   -1.3726   50.9888   19.1252 N   0  0  0  0  0  0
   -0.3554   50.2660   18.2849 C   0  0  2  0  0  0
    0.1767   51.0277   17.7162 H   0  0  0  0  0  0
   -1.0212   49.2913   17.2681 C   0  0  0  0  0  0
   -0.0355   48.4364   16.4509 C   0  0  0  0  0  0
    0.9619   47.7061   17.3568 C   0  0  0  0  0  0
    1.7007   48.6932   18.2735 C   0  0  0  0  0  0
    0.6976   49.4963   19.1021 C   0  0  0  0  0  0
    0.7404   49.5760   20.4371 C   0  0  0  0  0  0
   -0.1606   50.4751   21.2528 C   0  0  2  0  0  0
   -0.5936   49.8970   22.0705 H   0  0  0  0  0  0
   -1.3582   51.1050   20.4952 C   0  0  0  0  0  0
   -2.2337   51.7039   21.1260 O   0  0  0  0  0  0
    0.6370   51.6454   21.8745 C   0  0  0  0  0  0
    1.1859   52.4518   21.1181 O   0  0  0  0  0  0
    0.6851   51.7012   23.2255 N   0  0  0  0  0  0
    1.4417   52.5668   24.0099 C   0  0  0  0  0  0
    1.3623   52.5374   25.3202 N   0  0  0  0  0  0
    0.1304   51.0334   23.7397 H   0  0  0  0  0  0
    2.1917   53.4006   25.9016 C   0  0  0  0  0  0
    2.9972   54.1102   25.0075 C   0  0  0  0  0  0
    2.6056   53.6980   23.3775 S   0  0  0  0  0  0
    2.1968   53.4996   27.4395 C   0  0  0  0  0  0
    2.8170   52.2221   28.0813 C   0  0  0  0  0  0
    2.8765   52.3251   29.6263 C   0  0  2  0  0  0
    1.4455   52.5123   30.1908 C   0  0  0  0  0  0
    0.8114   53.7921   29.5923 C   0  0  2  0  0  0
    0.7666   53.6752   28.0521 C   0  0  0  0  0  0
    1.6573   55.0325   29.9579 C   0  0  0  0  0  0
    3.1097   54.8349   29.4413 C   0  0  1  0  0  0
    3.7523   53.5402   30.0056 C   0  0  0  0  0  0
    3.0701   54.7125   27.9024 C   0  0  0  0  0  0
    1.6285   48.9105   21.2263 O   0  0  0  0  0  0
   -0.1828   55.6323   16.7731 H   0  0  0  0  0  0
    0.2330   53.3110   18.0619 H   0  0  0  0  0  0
   -2.9130   55.6648   16.2539 H   0  0  0  0  0  0
   -3.2754   51.9556   19.0530 H   0  0  0  0  0  0
   -2.8638   51.0982   17.6315 H   0  0  0  0  0  0
   -1.7341   48.6519   17.7918 H   0  0  0  0  0  0
   -1.6201   49.8531   16.5531 H   0  0  0  0  0  0
    0.5112   49.0766   15.7577 H   0  0  0  0  0  0
   -0.5818   47.7185   15.8363 H   0  0  0  0  0  0
    1.6846   47.1608   16.7466 H   0  0  0  0  0  0
    0.4400   46.9606   17.9586 H   0  0  0  0  0  0
    2.3043   49.3827   17.6816 H   0  0  0  0  0  0
    2.4144   48.1492   18.8919 H   0  0  0  0  0  0
    3.7576   54.8471   25.2119 H   0  0  0  0  0  0
    2.2598   51.3323   27.7879 H   0  0  0  0  0  0
    3.8284   52.0967   27.6959 H   0  0  0  0  0  0
    3.3258   51.4170   30.0293 H   0  0  0  0  0  0
    1.4662   52.5692   31.2802 H   0  0  0  0  0  0
    0.8251   51.6526   29.9445 H   0  0  0  0  0  0
   -0.2008   53.9117   29.9801 H   0  0  0  0  0  0
    0.3052   54.5855   27.6831 H   0  0  0  0  0  0
    0.1107   52.8520   27.7604 H   0  0  0  0  0  0
    1.2233   55.9271   29.5044 H   0  0  0  0  0  0
    1.6002   55.2131   31.0243 H   0  0  0  0  0  0
    3.7263   55.6973   29.6813 H   0  0  0  0  0  0
    3.9043   53.5808   31.0793 H   0  0  0  0  0  0
    4.7496   53.4136   29.5887 H   0  0  0  0  0  0
    4.0920   54.6101   27.5289 H   0  0  0  0  0  0
    2.6996   55.6453   27.4781 H   0  0  0  0  0  0
    2.2937   48.4979   20.6689 H   0  0  0  0  0  0
  1  5  2  0  0  0
  1  2  1  0  0  0
  1 40  1  0  0  0
  2  3  2  0  0  0
  2 41  1  0  0  0
  3  4  1  0  0  0
  3  6  1  0  0  0
  4  5  1  0  0  0
  5 42  1  0  0  0
  6  7  1  0  0  0
  6 43  1  0  0  0
  6 44  1  0  0  0
  7 18  1  0  0  0
  7  8  1  0  0  0
  8  9  1  0  0  0
  8 14  1  0  0  0
  8 10  1  0  0  0
 10 11  1  0  0  0
 10 45  1  0  0  0
 10 46  1  0  0  0
 11 12  1  0  0  0
 11 47  1  0  0  0
 11 48  1  0  0  0
 12 13  1  0  0  0
 12 49  1  0  0  0
 12 50  1  0  0  0
 13 14  1  0  0  0
 13 51  1  0  0  0
 13 52  1  0  0  0
 14 15  2  0  0  0
 15 16  1  0  0  0
 15 39  1  0  0  0
 16 17  1  0  0  0
 16 18  1  0  0  0
 16 20  1  0  0  0
 18 19  2  0  0  0
 20 22  1  0  0  0
 20 21  2  0  0  0
 22 23  1  0  0  0
 22 25  1  0  0  0
 23 28  1  0  0  0
 23 24  2  0  0  0
 24 26  1  0  0  0
 26 29  1  0  0  0
 26 27  2  0  0  0
 27 53  1  0  0  0
 27 28  1  0  0  0
 29 34  1  0  0  0
 29 38  1  0  0  0
 29 30  1  0  0  0
 30 31  1  0  0  0
 30 54  1  0  0  0
 30 55  1  0  0  0
 31 37  1  0  0  0
 31 32  1  0  0  0
 31 56  1  0  0  0
 32 33  1  0  0  0
 32 57  1  0  0  0
 32 58  1  0  0  0
 33 34  1  0  0  0
 33 35  1  0  0  0
 33 59  1  0  0  0
 34 60  1  0  0  0
 34 61  1  0  0  0
 35 36  1  0  0  0
 35 62  1  0  0  0
 35 63  1  0  0  0
 36 37  1  0  0  0
 36 38  1  0  0  0
 36 64  1  0  0  0
 37 65  1  0  0  0
 37 66  1  0  0  0
 38 67  1  0  0  0
 38 68  1  0  0  0
 39 69  1  0  0  0
M  END
> <i_i_glide_confnum>
33

> <i_i_glide_lignum>
4204

> <i_i_glide_posenum>
36

> <i_i_glide_rotatable_bonds>
7

> <i_m_Source_File_Index>
164

> <b_m_subgroup_collapsed>
0

> <r_i_docking_score>
-4.04078

> <r_i_glide_ecoul>
-2.45406

> <r_i_glide_eff_state_penalty>
0

> <r_i_glide_einternal>
6.06819

> <r_i_glide_emodel>
-44.4468

> <r_i_glide_energy>
-38.0343

> <r_i_glide_erotb>
0.476548

> <r_i_glide_esite>
-0.00860668

> <r_i_glide_evdw>
-35.5802

> <r_i_glide_gscore>
-4.04078

> <r_i_glide_hbond>
0

> <r_i_glide_ligand_efficiency>
-0.112244

> <r_i_glide_ligand_efficiency_ln>
-0.881589

> <r_i_glide_ligand_efficiency_sa>
-0.370621

> <r_i_glide_lipo>
-2.27492

> <r_i_glide_metal>
0

> <r_i_glide_rewards>
-0.0866891

> <s_i_glide_gridfile>
wee1_glide-grid

> <s_m_Source_File>
wee1_decoys_glide_SP.sdf

> <s_m_Source_Path>
/Users/zhangxujun/Desktop

> <s_m_entry_id>
439

> <s_m_entry_name>
wee1_decoys_glide_SP.164

> <s_m_subgroup_title>
wee1_decoys_glide_SP

> <s_m_subgroupid>
wee1_decoys_glide_SP


$$$$
