ZINC54691222_4809
                    3D
 Schrodinger Suite 2024-2.
 44 46  0  0  1  0            999 V2000
    0.7050   49.6965   24.1373 C   0  0  0  0  0  0
   -0.1835   49.4998   25.3820 C   0  0  2  0  0  0
   -0.0595   48.4670   25.7164 H   0  0  0  0  0  0
   -1.6885   49.7041   25.0921 C   0  0  0  0  0  0
   -2.0264   51.1857   24.8074 C   0  0  0  0  0  0
   -1.5272   52.1158   25.9384 C   0  0  0  0  0  0
   -0.0343   51.8878   26.2830 C   0  0  2  0  0  0
    0.5802   52.2191   25.4470 H   0  0  0  0  0  0
    0.2145   50.3926   26.5800 C   0  0  0  0  0  0
    0.4429   52.8735   27.7324 S   0  0  0  0  0  0
    2.1632   53.3267   27.5974 C   0  0  0  0  0  0
    3.0504   53.3084   28.7101 C   0  0  0  0  0  0
    4.3770   53.7212   28.4651 C   0  0  0  0  0  0
    4.7758   54.1317   27.1971 C   0  0  0  0  0  0
    3.8428   54.0942   26.1733 C   0  0  0  0  0  0
    2.5590   53.6967   26.3490 N   0  0  0  0  0  0
    4.4727   54.4736   24.8546 C   0  0  0  0  0  0
    5.8338   55.0511   25.2628 C   0  0  0  0  0  0
    6.1339   54.5414   26.6778 C   0  0  0  0  0  0
    2.7082   52.8482   30.0814 C   0  0  0  0  0  0
    3.5517   52.0953   30.6694 N   0  0  0  0  0  0
    3.2057   51.6967   31.9764 O   0  0  0  0  0  0
    1.5007   53.3539   30.5280 N   0  0  0  0  0  0
    0.6285   50.6994   23.7195 H   0  0  0  0  0  0
    1.7529   49.5194   24.3717 H   0  0  0  0  0  0
    0.4302   48.9945   23.3498 H   0  0  0  0  0  0
   -1.9940   49.0921   24.2427 H   0  0  0  0  0  0
   -2.2737   49.3578   25.9465 H   0  0  0  0  0  0
   -3.1038   51.3009   24.6833 H   0  0  0  0  0  0
   -1.5815   51.4914   23.8604 H   0  0  0  0  0  0
   -2.1357   51.9344   26.8260 H   0  0  0  0  0  0
   -1.6973   53.1551   25.6567 H   0  0  0  0  0  0
    1.2509   50.2339   26.8766 H   0  0  0  0  0  0
   -0.3823   50.0996   27.4449 H   0  0  0  0  0  0
    5.1068   53.7172   29.2641 H   0  0  0  0  0  0
    3.8783   55.1952   24.2953 H   0  0  0  0  0  0
    4.5997   53.5937   24.2227 H   0  0  0  0  0  0
    5.7702   56.1408   25.2777 H   0  0  0  0  0  0
    6.6214   54.7953   24.5511 H   0  0  0  0  0  0
    6.8014   53.6804   26.6326 H   0  0  0  0  0  0
    6.6165   55.3069   27.2871 H   0  0  0  0  0  0
    2.3683   52.1362   32.1389 H   0  0  0  0  0  0
    1.0602   53.0411   31.3787 H   0  0  0  0  0  0
    0.9080   53.8174   29.8548 H   0  0  0  0  0  0
  1  2  1  0  0  0
  1 24  1  0  0  0
  1 25  1  0  0  0
  1 26  1  0  0  0
  2  3  1  0  0  0
  2  9  1  0  0  0
  2  4  1  0  0  0
  4  5  1  0  0  0
  4 27  1  0  0  0
  4 28  1  0  0  0
  5  6  1  0  0  0
  5 29  1  0  0  0
  5 30  1  0  0  0
  6  7  1  0  0  0
  6 31  1  0  0  0
  6 32  1  0  0  0
  7  8  1  0  0  0
  7  9  1  0  0  0
  7 10  1  0  0  0
  9 33  1  0  0  0
  9 34  1  0  0  0
 10 11  1  0  0  0
 11 16  2  0  0  0
 11 12  1  0  0  0
 12 13  2  0  0  0
 12 20  1  0  0  0
 13 14  1  0  0  0
 13 35  1  0  0  0
 14 19  1  0  0  0
 14 15  2  0  0  0
 15 16  1  0  0  0
 15 17  1  0  0  0
 17 18  1  0  0  0
 17 36  1  0  0  0
 17 37  1  0  0  0
 18 19  1  0  0  0
 18 38  1  0  0  0
 18 39  1  0  0  0
 19 40  1  0  0  0
 19 41  1  0  0  0
 20 21  2  0  0  0
 20 23  1  0  0  0
 21 22  1  0  0  0
 22 42  1  0  0  0
 23 43  1  0  0  0
 23 44  1  0  0  0
M  END
> <i_i_glide_confnum>
60

> <i_i_glide_lignum>
4810

> <i_i_glide_posenum>
261

> <i_i_glide_rotatable_bonds>
4

> <i_m_Source_File_Index>
1402

> <b_m_subgroup_collapsed>
0

> <r_i_docking_score>
-5.50482

> <r_i_glide_ecoul>
-5.05342

> <r_i_glide_eff_state_penalty>
0

> <r_i_glide_einternal>
3.72935

> <r_i_glide_emodel>
-53.55

> <r_i_glide_energy>
-40.8588

> <r_i_glide_erotb>
0.791362

> <r_i_glide_esite>
-0.000540127

> <r_i_glide_evdw>
-35.8054

> <r_i_glide_gscore>
-5.50482

> <r_i_glide_hbond>
0

> <r_i_glide_ligand_efficiency>
-0.262134

> <r_i_glide_ligand_efficiency_ln>
-1.36106

> <r_i_glide_ligand_efficiency_sa>
-0.723209

> <r_i_glide_lipo>
-2.11909

> <r_i_glide_metal>
0

> <r_i_glide_rewards>
-1.62827

> <s_i_glide_gridfile>
wee1_glide-grid

> <s_m_Source_File>
wee1_decoys_glide_SP.sdf

> <s_m_Source_Path>
/Users/zhangxujun/Desktop

> <s_m_entry_id>
1677

> <s_m_entry_name>
wee1_decoys_glide_SP.1402

> <s_m_subgroup_title>
wee1_decoys_glide_SP

> <s_m_subgroupid>
wee1_decoys_glide_SP


$$$$
