ZINC21002258_21
                    3D
 Schrodinger Suite 2024-2.
 58 61  0  0  1  0            999 V2000
   -1.7908   52.5092   23.8288 C   0  0  0  0  0  0
   -1.3489   52.4979   25.1820 O   0  0  0  0  0  0
   -2.1480   51.9488   26.1725 C   0  0  0  0  0  0
   -3.4737   51.5462   25.9221 C   0  0  0  0  0  0
   -4.2694   51.0221   26.9369 C   0  0  0  0  0  0
   -3.7560   50.8981   28.2216 C   0  0  0  0  0  0
   -2.4516   51.2967   28.4870 C   0  0  0  0  0  0
   -1.6242   51.8133   27.4836 C   0  0  0  0  0  0
   -0.3432   52.2286   27.8532 N   0  0  0  0  0  0
    0.8002   52.1232   26.9435 C   0  0  0  0  0  0
    2.1770   52.0886   27.6213 C   0  0  0  0  0  0
    2.2775   53.1840   28.5892 N   0  0  0  0  0  0
    1.2677   53.1329   29.6496 C   0  0  0  0  0  0
   -0.1292   53.1571   28.9818 C   0  0  0  0  0  0
    3.3996   53.9434   28.7024 C   0  0  0  0  0  0
    3.7172   54.4967   29.7573 O   0  0  0  0  0  0
    4.2569   54.1558   27.4698 C   0  0  0  0  0  0
    3.6665   54.3560   26.2141 C   0  0  0  0  0  0
    4.4463   54.5278   25.0785 C   0  0  0  0  0  0
    5.8419   54.5353   25.1795 C   0  0  0  0  0  0
    6.4349   54.3738   26.4366 C   0  0  0  0  0  0
    5.6520   54.1934   27.5750 C   0  0  0  0  0  0
    6.7079   54.7557   24.0893 N   0  0  0  0  0  0
    6.4354   54.8093   22.7698 C   0  0  0  0  0  0
    5.3622   54.4968   22.2545 O   0  0  0  0  0  0
    7.4870   55.3000   22.0819 N   0  0  0  0  0  0
    7.4804   55.8077   20.7704 C   0  0  0  0  0  0
    6.3842   56.4953   20.2383 C   0  0  0  0  0  0
    6.4455   57.0377   18.9576 C   0  0  0  0  0  0
    7.6103   56.8982   18.2083 C   0  0  0  0  0  0
    8.7145   56.2292   18.7337 C   0  0  0  0  0  0
    8.6485   55.6956   20.0182 C   0  0  0  0  0  0
   -0.9915   52.8955   23.1968 H   0  0  0  0  0  0
   -2.0297   51.5051   23.4751 H   0  0  0  0  0  0
   -2.6593   53.1566   23.6945 H   0  0  0  0  0  0
   -3.9113   51.6311   24.9399 H   0  0  0  0  0  0
   -5.2810   50.7060   26.7262 H   0  0  0  0  0  0
   -4.3603   50.4751   29.0113 H   0  0  0  0  0  0
   -2.0733   51.1603   29.4903 H   0  0  0  0  0  0
    0.6864   51.2605   26.2835 H   0  0  0  0  0  0
    0.7714   53.0252   26.3329 H   0  0  0  0  0  0
    2.2704   51.1417   28.1550 H   0  0  0  0  0  0
    2.9678   52.0970   26.8811 H   0  0  0  0  0  0
    1.3579   53.9527   30.3647 H   0  0  0  0  0  0
    1.3710   52.2005   30.2061 H   0  0  0  0  0  0
   -0.2487   54.1470   28.5401 H   0  0  0  0  0  0
   -0.8946   53.0459   29.7473 H   0  0  0  0  0  0
    2.5926   54.3751   26.1030 H   0  0  0  0  0  0
    3.9407   54.6825   24.1383 H   0  0  0  0  0  0
    7.5069   54.3828   26.5475 H   0  0  0  0  0  0
    6.1362   54.0705   28.5360 H   0  0  0  0  0  0
    7.6781   54.8966   24.3331 H   0  0  0  0  0  0
    8.3864   55.2976   22.5514 H   0  0  0  0  0  0
    5.5046   56.6336   20.8358 H   0  0  0  0  0  0
    5.5984   57.5733   18.5509 H   0  0  0  0  0  0
    7.6610   57.3214   17.2153 H   0  0  0  0  0  0
    9.6212   56.1322   18.1547 H   0  0  0  0  0  0
    9.5047   55.1844   20.4222 H   0  0  0  0  0  0
  1  2  1  0  0  0
  1 33  1  0  0  0
  1 34  1  0  0  0
  1 35  1  0  0  0
  2  3  1  0  0  0
  3  8  2  0  0  0
  3  4  1  0  0  0
  4  5  2  0  0  0
  4 36  1  0  0  0
  5  6  1  0  0  0
  5 37  1  0  0  0
  6  7  2  0  0  0
  6 38  1  0  0  0
  7  8  1  0  0  0
  7 39  1  0  0  0
  8  9  1  0  0  0
  9 14  1  0  0  0
  9 10  1  0  0  0
 10 11  1  0  0  0
 10 40  1  0  0  0
 10 41  1  0  0  0
 11 12  1  0  0  0
 11 42  1  0  0  0
 11 43  1  0  0  0
 12 13  1  0  0  0
 12 15  1  0  0  0
 13 14  1  0  0  0
 13 44  1  0  0  0
 13 45  1  0  0  0
 14 46  1  0  0  0
 14 47  1  0  0  0
 15 16  2  0  0  0
 15 17  1  0  0  0
 17 22  2  0  0  0
 17 18  1  0  0  0
 18 19  2  0  0  0
 18 48  1  0  0  0
 19 20  1  0  0  0
 19 49  1  0  0  0
 20 21  2  0  0  0
 20 23  1  0  0  0
 21 22  1  0  0  0
 21 50  1  0  0  0
 22 51  1  0  0  0
 23 24  1  0  0  0
 23 52  1  0  0  0
 24 25  2  0  0  0
 24 26  1  0  0  0
 26 27  1  0  0  0
 26 53  1  0  0  0
 27 32  2  0  0  0
 27 28  1  0  0  0
 28 29  2  0  0  0
 28 54  1  0  0  0
 29 30  1  0  0  0
 29 55  1  0  0  0
 30 31  2  0  0  0
 30 56  1  0  0  0
 31 32  1  0  0  0
 31 57  1  0  0  0
 32 58  1  0  0  0
M  END
> <i_i_glide_confnum>
121

> <i_i_glide_lignum>
22

> <i_i_glide_posenum>
396

> <i_i_glide_rotatable_bonds>
8

> <i_m_Source_File_Index>
3009

> <b_m_subgroup_collapsed>
0

> <r_i_docking_score>
-7.06657

> <r_i_glide_ecoul>
-5.22263

> <r_i_glide_eff_state_penalty>
0

> <r_i_glide_einternal>
11.3015

> <r_i_glide_emodel>
-66.9633

> <r_i_glide_energy>
-51.1202

> <r_i_glide_erotb>
0.643666

> <r_i_glide_esite>
-0.0132062

> <r_i_glide_evdw>
-45.8975

> <r_i_glide_gscore>
-7.06657

> <r_i_glide_hbond>
-0.752226

> <r_i_glide_ligand_efficiency>
-0.22083

> <r_i_glide_ligand_efficiency_ln>
-1.5824

> <r_i_glide_ligand_efficiency_sa>
-0.701092

> <r_i_glide_lipo>
-2.60304

> <r_i_glide_metal>
0

> <r_i_glide_rewards>
-1.26349

> <s_i_glide_gridfile>
wee1_glide-grid

> <s_m_Source_File>
wee1_decoys_glide_SP.sdf

> <s_m_Source_Path>
/Users/zhangxujun/Desktop

> <s_m_entry_id>
3284

> <s_m_entry_name>
wee1_decoys_glide_SP.3009

> <s_m_subgroup_title>
wee1_decoys_glide_SP

> <s_m_subgroupid>
wee1_decoys_glide_SP


$$$$
