ZINC39467574_776
                    3D
 Schrodinger Suite 2024-2.
 60 64  0  0  1  0            999 V2000
    0.0942   53.2954   31.7185 C   0  0  0  0  0  0
    0.6216   54.2845   30.3046 S   0  0  0  0  0  0
    0.5684   53.1326   28.9350 C   0  0  0  0  0  0
   -0.4841   52.2959   28.7493 C   0  0  0  0  0  0
   -0.5632   51.2893   27.5967 C   0  0  1  0  0  0
   -0.0967   50.3988   28.0184 H   0  0  0  0  0  0
   -1.9623   50.8572   27.1049 C   0  0  0  0  0  0
   -1.8006   49.6980   26.0813 N   0  3  2  0  0  0
   -0.8452   50.0158   24.8922 C   0  0  1  0  0  0
   -1.3704   50.7894   24.3291 H   0  0  0  0  0  0
    0.5039   50.5423   25.4394 C   0  0  0  0  0  0
    0.2808   51.7462   26.3740 C   0  0  2  0  0  0
   -0.2851   52.4952   25.8137 H   0  0  0  0  0  0
    1.5443   52.4948   26.7858 C   0  0  0  0  0  0
    1.6752   53.1108   27.9783 C   0  0  0  0  0  0
    3.2640   53.8554   28.4572 S   0  0  0  0  0  0
    3.1387   55.2965   28.2528 O   0  0  0  0  0  0
    3.6622   53.3110   29.7620 O   0  0  0  0  0  0
    4.2864   53.2068   27.3017 O   0  0  0  0  0  0
    4.8829   53.9981   26.3517 C   0  0  0  0  0  0
    4.4889   53.8833   25.0162 C   0  0  0  0  0  0
    5.2222   54.4968   24.0105 C   0  0  0  0  0  0
    6.3108   55.2931   24.3499 C   0  0  0  0  0  0
    6.6763   55.4633   25.6811 C   0  0  0  0  0  0
    5.9751   54.8003   26.6873 C   0  0  0  0  0  0
   -0.6697   48.7418   24.0244 C   0  0  0  0  0  0
   -1.9229   48.2460   23.5733 O   0  0  0  0  0  0
   -3.0200   47.7501   24.6737 P   0  0  1  0  0  0
   -2.6634   46.4645   25.3343 O   0  0  0  0  0  0
   -3.0699   49.1262   25.6517 N   0  0  0  0  0  0
   -4.6139   47.7043   23.8151 C   0  0  0  0  0  0
   -4.8460   48.6087   22.7738 C   0  0  0  0  0  0
   -6.0684   48.6057   22.1015 C   0  0  0  0  0  0
   -7.0636   47.7006   22.4680 C   0  0  0  0  0  0
   -6.8361   46.7974   23.5062 C   0  0  0  0  0  0
   -5.6161   46.7962   24.1822 C   0  0  0  0  0  0
   -5.4251   45.9010   25.2026 O   0  0  0  0  0  0
    0.0537   53.9004   32.6236 H   0  0  0  0  0  0
   -0.8956   52.8968   31.5365 H   0  0  0  0  0  0
    0.7741   52.4610   31.8901 H   0  0  0  0  0  0
   -1.2965   52.3163   29.4578 H   0  0  0  0  0  0
   -2.5644   50.4594   27.9228 H   0  0  0  0  0  0
   -2.5223   51.6599   26.6245 H   0  0  0  0  0  0
    0.9961   49.7354   25.9888 H   0  0  0  0  0  0
    1.1539   50.8219   24.6077 H   0  0  0  0  0  0
    2.3760   52.4860   26.1098 H   0  0  0  0  0  0
    3.6653   53.2573   24.7243 H   0  0  0  0  0  0
    4.9406   54.3694   22.9754 H   0  0  0  0  0  0
    6.8770   55.7871   23.5736 H   0  0  0  0  0  0
    7.5034   56.1103   25.9150 H   0  0  0  0  0  0
    6.2837   54.8921   27.7191 H   0  0  0  0  0  0
   -0.0550   48.9597   23.1496 H   0  0  0  0  0  0
   -0.1486   47.9559   24.5790 H   0  0  0  0  0  0
   -3.7927   49.1211   26.3723 H   0  0  0  0  0  0
   -4.0828   49.3158   22.4839 H   0  0  0  0  0  0
   -6.2441   49.3053   21.2965 H   0  0  0  0  0  0
   -8.0112   47.6973   21.9490 H   0  0  0  0  0  0
   -7.6082   46.0982   23.7912 H   0  0  0  0  0  0
   -4.5571   46.0119   25.6036 H   0  0  0  0  0  0
   -1.3668   48.9502   26.6108 H   0  0  0  0  0  0
  1  2  1  0  0  0
  1 38  1  0  0  0
  1 39  1  0  0  0
  1 40  1  0  0  0
  2  3  1  0  0  0
  3 15  1  0  0  0
  3  4  2  0  0  0
  4  5  1  0  0  0
  4 41  1  0  0  0
  5  6  1  0  0  0
  5 12  1  0  0  0
  5  7  1  0  0  0
  7  8  1  0  0  0
  7 42  1  0  0  0
  7 43  1  0  0  0
  8 30  1  0  0  0
  8  9  1  0  0  0
  8 60  1  0  0  0
  9 10  1  0  0  0
  9 11  1  0  0  0
  9 26  1  0  0  0
 11 12  1  0  0  0
 11 44  1  0  0  0
 11 45  1  0  0  0
 12 13  1  0  0  0
 12 14  1  0  0  0
 14 15  2  0  0  0
 14 46  1  0  0  0
 15 16  1  0  0  0
 16 17  2  0  0  0
 16 18  2  0  0  0
 16 19  1  0  0  0
 19 20  1  0  0  0
 20 25  2  0  0  0
 20 21  1  0  0  0
 21 22  2  0  0  0
 21 47  1  0  0  0
 22 23  1  0  0  0
 22 48  1  0  0  0
 23 24  2  0  0  0
 23 49  1  0  0  0
 24 25  1  0  0  0
 24 50  1  0  0  0
 25 51  1  0  0  0
 26 27  1  0  0  0
 26 52  1  0  0  0
 26 53  1  0  0  0
 27 28  1  0  0  0
 28 29  2  0  0  0
 28 30  1  0  0  0
 28 31  1  0  0  0
 30 54  1  0  0  0
 31 36  2  0  0  0
 31 32  1  0  0  0
 32 33  2  0  0  0
 32 55  1  0  0  0
 33 34  1  0  0  0
 33 56  1  0  0  0
 34 35  2  0  0  0
 34 57  1  0  0  0
 35 36  1  0  0  0
 35 58  1  0  0  0
 36 37  1  0  0  0
 37 59  1  0  0  0
M  CHG  1   8   1
M  END
> <i_i_glide_confnum>
64

> <i_i_glide_lignum>
777

> <i_i_glide_posenum>
227

> <i_i_glide_rotatable_bonds>
6

> <i_m_Source_File_Index>
4575

> <b_m_subgroup_collapsed>
0

> <r_i_docking_score>
-5.16669

> <r_i_glide_ecoul>
-4.3101

> <r_i_glide_eff_state_penalty>
0

> <r_i_glide_einternal>
7.27949

> <r_i_glide_emodel>
-54.8743

> <r_i_glide_energy>
-42.3633

> <r_i_glide_erotb>
0.302292

> <r_i_glide_esite>
-0.201831

> <r_i_glide_evdw>
-38.0532

> <r_i_glide_gscore>
-5.16669

> <r_i_glide_hbond>
-0.142089

> <r_i_glide_ligand_efficiency>
-0.151962

> <r_i_glide_ligand_efficiency_ln>
-1.14147

> <r_i_glide_ligand_efficiency_sa>
-0.492297

> <r_i_glide_lipo>
-2.30961

> <r_i_glide_metal>
0

> <r_i_glide_rewards>
-0.266275

> <s_i_glide_gridfile>
wee1_glide-grid

> <s_m_Source_File>
wee1_decoys_glide_SP.sdf

> <s_m_Source_Path>
/Users/zhangxujun/Desktop

> <s_m_entry_id>
4850

> <s_m_entry_name>
wee1_decoys_glide_SP.4575

> <s_m_subgroup_title>
wee1_decoys_glide_SP

> <s_m_subgroupid>
wee1_decoys_glide_SP


$$$$
