ZINC00718464_458
                    3D
 Schrodinger Suite 2024-2.
 43 46  0  0  1  0            999 V2000
   -3.4958   50.2695   28.7280 C   0  0  0  0  0  0
   -3.9867   51.2540   27.8288 O   0  0  0  0  0  0
   -3.2699   51.5495   26.6819 C   0  0  0  0  0  0
   -2.0448   50.9471   26.3339 C   0  0  0  0  0  0
   -1.3373   51.3587   25.1954 C   0  0  0  0  0  0
   -1.8877   52.3433   24.3732 C   0  0  0  0  0  0
   -3.1076   52.9278   24.6900 C   0  0  0  0  0  0
   -3.8008   52.5346   25.8372 C   0  0  0  0  0  0
   -4.9975   53.1391   26.1405 O   0  0  0  0  0  0
   -3.6957   54.2077   23.6914 Cl  0  0  0  0  0  0
    0.0471   50.7953   24.8612 C   0  0  2  0  0  0
    0.3005   50.0663   25.6312 H   0  0  0  0  0  0
    1.1032   51.9174   24.8011 C   0  0  0  0  0  0
    1.6624   52.8720   25.6995 C   0  0  0  0  0  0
    2.4886   53.6970   25.0651 N   0  0  0  0  0  0
    2.5122   53.2992   23.7909 N   0  0  0  0  0  0
    3.0709   53.7482   23.0800 H   0  0  0  0  0  0
    1.7082   52.2225   23.6000 C   0  0  0  0  0  0
    1.5737   51.5935   22.3907 O   0  0  0  0  0  0
    0.7855   50.4814   22.4414 C   0  0  0  0  0  0
    0.0817   50.0377   23.5166 C   0  0  0  0  0  0
   -0.6779   48.8316   23.4204 C   0  0  0  0  0  0
   -1.2955   47.8587   23.3103 N   0  0  0  0  0  0
    0.8560   49.8819   21.2142 N   0  0  0  0  0  0
    1.3976   53.0431   27.1732 C   0  0  0  0  0  0
    0.7515   52.0407   27.9077 C   0  0  0  0  0  0
    0.4293   52.2327   29.2458 C   0  0  0  0  0  0
    0.7788   53.4235   29.8698 C   0  0  0  0  0  0
    1.4685   54.4136   29.1786 C   0  0  0  0  0  0
    1.7829   54.2178   27.8378 C   0  0  0  0  0  0
    0.3044   53.6968   31.6836 Br  0  0  0  0  0  0
   -4.1610   50.1916   29.5870 H   0  0  0  0  0  0
   -3.4709   49.2966   28.2429 H   0  0  0  0  0  0
   -2.5008   50.5145   29.1025 H   0  0  0  0  0  0
   -1.6213   50.1736   26.9584 H   0  0  0  0  0  0
   -1.3480   52.6778   23.4988 H   0  0  0  0  0  0
   -5.3034   53.6981   25.4235 H   0  0  0  0  0  0
    0.2942   49.0710   21.0015 H   0  0  0  0  0  0
    1.6158   50.1014   20.5859 H   0  0  0  0  0  0
    0.4793   51.1014   27.4620 H   0  0  0  0  0  0
   -0.0987   51.4639   29.7923 H   0  0  0  0  0  0
    1.7449   55.3333   29.6736 H   0  0  0  0  0  0
    2.3090   55.0006   27.3139 H   0  0  0  0  0  0
  1  2  1  0  0  0
  1 32  1  0  0  0
  1 33  1  0  0  0
  1 34  1  0  0  0
  2  3  1  0  0  0
  3  8  2  0  0  0
  3  4  1  0  0  0
  4  5  2  0  0  0
  4 35  1  0  0  0
  5  6  1  0  0  0
  5 11  1  0  0  0
  6  7  2  0  0  0
  6 36  1  0  0  0
  7  8  1  0  0  0
  7 10  1  0  0  0
  8  9  1  0  0  0
  9 37  1  0  0  0
 11 12  1  0  0  0
 11 21  1  0  0  0
 11 13  1  0  0  0
 13 18  2  0  0  0
 13 14  1  0  0  0
 14 15  2  0  0  0
 14 25  1  0  0  0
 15 16  1  0  0  0
 16 17  1  0  0  0
 16 18  1  0  0  0
 18 19  1  0  0  0
 19 20  1  0  0  0
 20 21  2  0  0  0
 20 24  1  0  0  0
 21 22  1  0  0  0
 22 23  3  0  0  0
 24 38  1  0  0  0
 24 39  1  0  0  0
 25 30  2  0  0  0
 25 26  1  0  0  0
 26 27  2  0  0  0
 26 40  1  0  0  0
 27 28  1  0  0  0
 27 41  1  0  0  0
 28 29  2  0  0  0
 28 31  1  0  0  0
 29 30  1  0  0  0
 29 42  1  0  0  0
 30 43  1  0  0  0
M  END
> <i_i_glide_confnum>
2

> <i_i_glide_lignum>
459

> <i_i_glide_posenum>
316

> <i_i_glide_rotatable_bonds>
5

> <i_m_Source_File_Index>
751

> <b_m_subgroup_collapsed>
0

> <r_i_docking_score>
-4.07436

> <r_i_glide_ecoul>
-2.92418

> <r_i_glide_eff_state_penalty>
0

> <r_i_glide_einternal>
1.81533

> <r_i_glide_emodel>
-47.996

> <r_i_glide_energy>
-38.6996

> <r_i_glide_erotb>
0.1803

> <r_i_glide_esite>
-0.00399854

> <r_i_glide_evdw>
-35.7755

> <r_i_glide_gscore>
-4.07436

> <r_i_glide_hbond>
0

> <r_i_glide_ligand_efficiency>
-0.140495

> <r_i_glide_ligand_efficiency_ln>
-0.932926

> <r_i_glide_ligand_efficiency_sa>
-0.431646

> <r_i_glide_lipo>
-1.844

> <r_i_glide_metal>
0

> <r_i_glide_rewards>
-0.179271

> <s_i_glide_gridfile>
wee1_glide-grid

> <s_m_Source_File>
wee1_decoys_glide_SP.sdf

> <s_m_Source_Path>
/Users/zhangxujun/Desktop

> <s_m_entry_id>
1026

> <s_m_entry_name>
wee1_decoys_glide_SP.751

> <s_m_subgroup_title>
wee1_decoys_glide_SP

> <s_m_subgroupid>
wee1_decoys_glide_SP


$$$$
