ZINC40372723_1587
                    3D
 Schrodinger Suite 2024-2.
 44 45  0  0  1  0            999 V2000
   -3.0989   50.5288   25.1196 C   0  0  0  0  0  0
   -1.8246   50.2415   25.9293 C   0  0  0  0  0  0
   -0.6185   51.1425   25.5551 C   0  0  2  0  0  0
    0.7044   50.6959   26.2051 C   0  0  0  0  0  0
    0.6984   50.8979   27.7414 C   0  0  0  0  0  0
    0.5143   52.4013   28.1486 C   0  0  1  0  0  0
   -0.7687   52.8967   27.4143 C   0  0  0  0  0  0
   -0.7919   52.6399   25.8819 C   0  0  0  0  0  0
    0.1874   52.5884   29.6904 C   0  0  0  0  0  0
    0.7373   53.5566   30.3268 N   0  0  0  0  0  0
    0.3044   53.6967   31.6631 O   0  0  0  0  0  0
   -0.7499   51.6967   30.1841 N   0  0  0  0  0  0
    1.7026   53.1760   27.6920 N   0  0  0  0  0  0
    2.9779   53.0481   28.1235 C   0  0  0  0  0  0
    3.3179   52.3216   29.0604 O   0  0  0  0  0  0
    3.9528   53.8260   27.4009 C   0  0  0  0  0  0
    5.2166   54.1937   27.8889 C   0  0  0  0  0  0
    5.8830   54.8397   26.8683 C   0  0  0  0  0  0
    5.1162   54.8491   25.7529 O   0  0  0  0  0  0
    3.9554   54.2055   26.0502 C   0  0  0  0  0  0
    2.9974   54.0348   24.8910 C   0  0  0  0  0  0
   -3.8830   49.8142   25.3719 H   0  0  0  0  0  0
   -3.4913   51.5247   25.3240 H   0  0  0  0  0  0
   -2.9146   50.4509   24.0478 H   0  0  0  0  0  0
   -1.5480   49.1972   25.7746 H   0  0  0  0  0  0
   -2.0617   50.3182   26.9898 H   0  0  0  0  0  0
   -0.4690   51.0636   24.4766 H   0  0  0  0  0  0
    1.5044   51.2967   25.7695 H   0  0  0  0  0  0
    0.9060   49.6476   25.9761 H   0  0  0  0  0  0
    1.6204   50.4967   28.1632 H   0  0  0  0  0  0
   -0.1045   50.2850   28.1325 H   0  0  0  0  0  0
   -1.6556   52.3995   27.8084 H   0  0  0  0  0  0
   -0.8956   53.9468   27.6817 H   0  0  0  0  0  0
    0.0009   53.2031   25.3866 H   0  0  0  0  0  0
   -1.7272   53.0126   25.4653 H   0  0  0  0  0  0
    0.7882   54.4709   31.9602 H   0  0  0  0  0  0
   -1.0014   51.7460   31.1682 H   0  0  0  0  0  0
   -1.0461   50.8861   29.6577 H   0  0  0  0  0  0
    1.5604   53.7275   26.8619 H   0  0  0  0  0  0
    5.6006   54.0117   28.8817 H   0  0  0  0  0  0
    6.8561   55.2967   26.7912 H   0  0  0  0  0  0
    2.0313   54.4967   25.0824 H   0  0  0  0  0  0
    3.3818   54.4806   23.9730 H   0  0  0  0  0  0
    2.8180   52.9814   24.6781 H   0  0  0  0  0  0
  1  2  1  0  0  0
  1 22  1  0  0  0
  1 23  1  0  0  0
  1 24  1  0  0  0
  2  3  1  0  0  0
  2 25  1  0  0  0
  2 26  1  0  0  0
  3  8  1  0  0  0
  3  4  1  0  0  0
  3 27  1  0  0  0
  4  5  1  0  0  0
  4 28  1  0  0  0
  4 29  1  0  0  0
  5  6  1  0  0  0
  5 30  1  0  0  0
  5 31  1  0  0  0
  6  7  1  0  0  0
  6  9  1  0  0  0
  6 13  1  0  0  0
  7  8  1  0  0  0
  7 32  1  0  0  0
  7 33  1  0  0  0
  8 34  1  0  0  0
  8 35  1  0  0  0
  9 10  2  0  0  0
  9 12  1  0  0  0
 10 11  1  0  0  0
 11 36  1  0  0  0
 12 37  1  0  0  0
 12 38  1  0  0  0
 13 14  1  0  0  0
 13 39  1  0  0  0
 14 15  2  0  0  0
 14 16  1  0  0  0
 16 20  2  0  0  0
 16 17  1  0  0  0
 17 18  2  0  0  0
 17 40  1  0  0  0
 18 19  1  0  0  0
 18 41  1  0  0  0
 19 20  1  0  0  0
 20 21  1  0  0  0
 21 42  1  0  0  0
 21 43  1  0  0  0
 21 44  1  0  0  0
M  END
> <i_i_glide_confnum>
108

> <i_i_glide_lignum>
1588

> <i_i_glide_posenum>
3

> <i_i_glide_rotatable_bonds>
6

> <i_m_Source_File_Index>
2823

> <b_m_subgroup_collapsed>
0

> <r_i_docking_score>
-4.26842

> <r_i_glide_ecoul>
-3.01723

> <r_i_glide_eff_state_penalty>
0

> <r_i_glide_einternal>
7.54759

> <r_i_glide_emodel>
-35.8099

> <r_i_glide_energy>
-29.735

> <r_i_glide_erotb>
1.06155

> <r_i_glide_esite>
-0.116945

> <r_i_glide_evdw>
-26.7177

> <r_i_glide_gscore>
-4.26842

> <r_i_glide_hbond>
-0.16

> <r_i_glide_ligand_efficiency>
-0.203258

> <r_i_glide_ligand_efficiency_ln>
-1.05536

> <r_i_glide_ligand_efficiency_sa>
-0.560774

> <r_i_glide_lipo>
-1.45984

> <r_i_glide_metal>
0

> <r_i_glide_rewards>
-1.80471

> <s_i_glide_gridfile>
wee1_glide-grid

> <s_m_Source_File>
wee1_decoys_glide_SP.sdf

> <s_m_Source_Path>
/Users/zhangxujun/Desktop

> <s_m_entry_id>
3098

> <s_m_entry_name>
wee1_decoys_glide_SP.2823

> <s_m_subgroup_title>
wee1_decoys_glide_SP

> <s_m_subgroupid>
wee1_decoys_glide_SP


$$$$
