ZINC37333544_1835
                    3D
 Schrodinger Suite 2024-2.
 40 41  0  0  1  0            999 V2000
    3.3794   53.3542   20.5082 C   0  0  0  0  0  0
    3.3184   53.3273   21.9745 N   0  0  0  0  0  0
    2.3713   52.4072   22.5045 C   0  0  0  0  0  0
    1.4684   52.8707   23.4723 C   0  0  0  0  0  0
    0.5673   52.0058   24.0957 C   0  0  0  0  0  0
    0.5391   50.6548   23.7487 C   0  0  0  0  0  0
    1.4026   50.1825   22.7603 C   0  0  0  0  0  0
    2.2992   51.0440   22.1256 C   0  0  0  0  0  0
    3.1044   50.4959   21.1254 N   0  0  0  0  0  0
   -0.6124   49.5358   24.5498 S   0  0  0  0  0  0
   -1.8271   50.3087   24.8299 O   0  0  0  0  0  0
   -0.6653   48.2950   23.7668 O   0  0  0  0  0  0
    0.1140   49.1469   26.0817 N   0  0  0  0  0  0
    4.5875   53.4739   22.7370 C   0  0  0  0  0  0
    5.6209   54.3674   21.9938 C   0  0  0  0  0  0
    6.9135   54.5757   22.8104 C   0  0  0  0  0  0
    6.6343   55.1180   24.2236 C   0  0  0  0  0  0
    5.5959   54.2679   24.9739 C   0  0  0  0  0  0
    4.3095   54.0606   24.1523 C   0  0  0  0  0  0
    2.4183   53.1013   20.0549 H   0  0  0  0  0  0
    3.6127   54.3646   20.1683 H   0  0  0  0  0  0
    4.1434   52.6847   20.1107 H   0  0  0  0  0  0
    1.4784   53.9108   23.7605 H   0  0  0  0  0  0
   -0.1087   52.3862   24.8500 H   0  0  0  0  0  0
    1.3762   49.1372   22.4852 H   0  0  0  0  0  0
    3.0238   49.5198   20.8822 H   0  0  0  0  0  0
    3.7269   51.1034   20.6096 H   0  0  0  0  0  0
   -0.5820   49.0305   26.8345 H   0  0  0  0  0  0
    0.6729   48.2882   26.0349 H   0  0  0  0  0  0
    5.0516   52.4970   22.8789 H   0  0  0  0  0  0
    5.1783   55.3325   21.7612 H   0  0  0  0  0  0
    5.9038   53.9227   21.0385 H   0  0  0  0  0  0
    7.5779   55.2573   22.2787 H   0  0  0  0  0  0
    7.4530   53.6306   22.8827 H   0  0  0  0  0  0
    6.3040   56.1531   24.1589 H   0  0  0  0  0  0
    7.5524   55.1439   24.8051 H   0  0  0  0  0  0
    5.3561   54.7360   25.9293 H   0  0  0  0  0  0
    6.0337   53.3000   25.2168 H   0  0  0  0  0  0
    3.6659   53.4011   24.7342 H   0  0  0  0  0  0
    3.7968   55.0176   24.0624 H   0  0  0  0  0  0
  1  2  1  0  0  0
  1 20  1  0  0  0
  1 21  1  0  0  0
  1 22  1  0  0  0
  2  3  1  0  0  0
  2 14  1  0  0  0
  3  8  2  0  0  0
  3  4  1  0  0  0
  4  5  2  0  0  0
  4 23  1  0  0  0
  5  6  1  0  0  0
  5 24  1  0  0  0
  6  7  2  0  0  0
  6 10  1  0  0  0
  7  8  1  0  0  0
  7 25  1  0  0  0
  8  9  1  0  0  0
  9 26  1  0  0  0
  9 27  1  0  0  0
 10 11  2  0  0  0
 10 12  2  0  0  0
 10 13  1  0  0  0
 13 28  1  0  0  0
 13 29  1  0  0  0
 14 19  1  0  0  0
 14 15  1  0  0  0
 14 30  1  0  0  0
 15 16  1  0  0  0
 15 31  1  0  0  0
 15 32  1  0  0  0
 16 17  1  0  0  0
 16 33  1  0  0  0
 16 34  1  0  0  0
 17 18  1  0  0  0
 17 35  1  0  0  0
 17 36  1  0  0  0
 18 19  1  0  0  0
 18 37  1  0  0  0
 18 38  1  0  0  0
 19 39  1  0  0  0
 19 40  1  0  0  0
M  END
> <i_i_glide_confnum>
9

> <i_i_glide_lignum>
1836

> <i_i_glide_posenum>
7

> <i_i_glide_rotatable_bonds>
3

> <i_m_Source_File_Index>
2208

> <b_m_subgroup_collapsed>
0

> <r_i_docking_score>
-5.51864

> <r_i_glide_ecoul>
-5.49622

> <r_i_glide_eff_state_penalty>
0

> <r_i_glide_einternal>
6.92617

> <r_i_glide_emodel>
-38.5484

> <r_i_glide_energy>
-30.1208

> <r_i_glide_erotb>
0.450992

> <r_i_glide_esite>
-0.167679

> <r_i_glide_evdw>
-24.6246

> <r_i_glide_gscore>
-5.51864

> <r_i_glide_hbond>
-0.337976

> <r_i_glide_ligand_efficiency>
-0.290455

> <r_i_glide_ligand_efficiency_ln>
-1.39909

> <r_i_glide_ligand_efficiency_sa>
-0.77505

> <r_i_glide_lipo>
-1.90619

> <r_i_glide_metal>
0

> <r_i_glide_rewards>
-1.50213

> <s_i_glide_gridfile>
wee1_glide-grid

> <s_m_Source_File>
wee1_decoys_glide_SP.sdf

> <s_m_Source_Path>
/Users/zhangxujun/Desktop

> <s_m_entry_id>
2483

> <s_m_entry_name>
wee1_decoys_glide_SP.2208

> <s_m_subgroup_title>
wee1_decoys_glide_SP

> <s_m_subgroupid>
wee1_decoys_glide_SP


$$$$
