ZINC03669589_4157
                    3D
 Schrodinger Suite 2024-2.
 70 75  0  0  1  0            999 V2000
    5.1041   51.7910   21.1806 C   0  0  0  0  0  0
    4.4759   53.1991   21.1075 C   0  0  0  0  0  0
    3.4630   53.4302   22.2611 C   0  0  0  0  0  0
    2.1866   52.5651   22.1660 C   0  0  0  0  0  0
    1.8034   52.0679   20.9436 C   0  0  0  0  0  0
    0.5996   51.1016   20.7792 C   0  0  2  0  0  0
   -0.1992   51.7276   20.3785 H   0  0  0  0  0  0
    0.0994   50.6122   22.1328 C   0  0  0  0  0  0
    0.5189   51.1534   23.3009 C   0  0  0  0  0  0
    1.5103   52.1751   23.3547 N   0  0  0  0  0  0
    1.7257   52.7222   24.6600 C   0  0  0  0  0  0
    1.1045   52.2042   25.8232 C   0  0  0  0  0  0
    1.5175   52.8178   27.0407 C   0  0  0  0  0  0
    2.4469   53.8384   26.8220 C   0  0  0  0  0  0
    2.7021   54.0904   25.1229 S   0  0  0  0  0  0
    3.1342   54.6711   27.8869 C   0  0  0  0  0  0
    2.1658   55.5264   28.7301 C   0  0  0  0  0  0
    1.3251   54.7385   29.7566 C   0  0  0  0  0  0
    0.3850   53.6490   29.1987 C   0  0  0  0  0  0
    1.0827   52.4822   28.4670 C   0  0  0  0  0  0
    0.1756   51.1065   25.5743 C   0  0  0  0  0  0
   -0.0656   50.6441   24.4282 N   0  0  0  0  0  0
   -0.5141   50.4967   26.5846 N   0  0  0  0  0  0
   -0.8552   49.5385   22.1148 C   0  0  0  0  0  0
   -1.6030   48.6545   22.0867 N   0  0  0  0  0  0
    0.7848   49.9545   19.7660 C   0  0  0  0  0  0
    1.9517   49.1893   19.8347 C   0  0  0  0  0  0
    2.2148   48.2166   18.8816 C   0  0  0  0  0  0
    1.2973   47.9680   17.8668 C   0  0  0  0  0  0
    0.0985   48.6975   17.7892 C   0  0  0  0  0  0
   -0.1612   49.6884   18.7579 C   0  0  0  0  0  0
   -1.3101   50.4502   18.7119 O   0  0  0  0  0  0
   -2.5389   49.7426   18.8433 C   0  0  0  0  0  0
   -0.8380   48.5104   16.7871 O   0  0  0  0  0  0
   -0.5865   47.5604   15.7572 C   0  0  0  0  0  0
    2.4575   52.4967   19.6717 C   0  0  0  0  0  0
    1.9087   52.3812   18.5762 O   0  0  0  0  0  0
    3.7254   53.3537   19.7719 C   0  0  0  0  0  0
    5.5377   54.3173   21.1755 C   0  0  0  0  0  0
    5.7064   51.6785   22.0816 H   0  0  0  0  0  0
    4.3701   50.9856   21.1760 H   0  0  0  0  0  0
    5.7574   51.6475   20.3193 H   0  0  0  0  0  0
    4.0479   53.1505   23.1338 H   0  0  0  0  0  0
    3.1479   54.4726   22.3409 H   0  0  0  0  0  0
    3.6728   54.0125   28.5695 H   0  0  0  0  0  0
    3.9054   55.2965   27.4391 H   0  0  0  0  0  0
    2.7466   56.2720   29.2762 H   0  0  0  0  0  0
    1.5032   56.0972   28.0820 H   0  0  0  0  0  0
    1.9950   54.2769   30.4815 H   0  0  0  0  0  0
    0.7270   55.4496   30.3288 H   0  0  0  0  0  0
   -0.1747   53.2361   30.0403 H   0  0  0  0  0  0
   -0.3659   54.0964   28.5457 H   0  0  0  0  0  0
    0.4385   51.6133   28.5346 H   0  0  0  0  0  0
    1.9568   52.1820   29.0463 H   0  0  0  0  0  0
   -1.0695   49.6752   26.3860 H   0  0  0  0  0  0
   -0.3593   50.7320   27.5512 H   0  0  0  0  0  0
    2.6882   49.3817   20.6010 H   0  0  0  0  0  0
    3.1595   47.6967   18.9029 H   0  0  0  0  0  0
    1.5538   47.2219   17.1314 H   0  0  0  0  0  0
   -3.2809   50.3952   19.3042 H   0  0  0  0  0  0
   -2.9236   49.4515   17.8650 H   0  0  0  0  0  0
   -2.4559   48.8475   19.4623 H   0  0  0  0  0  0
   -1.4218   47.5598   15.0577 H   0  0  0  0  0  0
    0.3142   47.8109   15.1947 H   0  0  0  0  0  0
   -0.4910   46.5501   16.1586 H   0  0  0  0  0  0
    4.3592   53.1405   18.9101 H   0  0  0  0  0  0
    3.3986   54.3875   19.6754 H   0  0  0  0  0  0
    6.1219   54.2567   22.0947 H   0  0  0  0  0  0
    6.2376   54.2530   20.3408 H   0  0  0  0  0  0
    5.0915   55.3107   21.1410 H   0  0  0  0  0  0
  1  2  1  0  0  0
  1 40  1  0  0  0
  1 41  1  0  0  0
  1 42  1  0  0  0
  2 38  1  0  0  0
  2  3  1  0  0  0
  2 39  1  0  0  0
  3  4  1  0  0  0
  3 43  1  0  0  0
  3 44  1  0  0  0
  4 10  1  0  0  0
  4  5  2  0  0  0
  5  6  1  0  0  0
  5 36  1  0  0  0
  6  7  1  0  0  0
  6  8  1  0  0  0
  6 26  1  0  0  0
  8  9  2  0  0  0
  8 24  1  0  0  0
  9 22  1  0  0  0
  9 10  1  0  0  0
 10 11  1  0  0  0
 11 15  1  0  0  0
 11 12  2  0  0  0
 12 13  1  0  0  0
 12 21  1  0  0  0
 13 20  1  0  0  0
 13 14  2  0  0  0
 14 15  1  0  0  0
 14 16  1  0  0  0
 16 17  1  0  0  0
 16 45  1  0  0  0
 16 46  1  0  0  0
 17 18  1  0  0  0
 17 47  1  0  0  0
 17 48  1  0  0  0
 18 19  1  0  0  0
 18 49  1  0  0  0
 18 50  1  0  0  0
 19 20  1  0  0  0
 19 51  1  0  0  0
 19 52  1  0  0  0
 20 53  1  0  0  0
 20 54  1  0  0  0
 21 22  2  0  0  0
 21 23  1  0  0  0
 23 55  1  0  0  0
 23 56  1  0  0  0
 24 25  3  0  0  0
 26 31  2  0  0  0
 26 27  1  0  0  0
 27 28  2  0  0  0
 27 57  1  0  0  0
 28 29  1  0  0  0
 28 58  1  0  0  0
 29 30  2  0  0  0
 29 59  1  0  0  0
 30 31  1  0  0  0
 30 34  1  0  0  0
 31 32  1  0  0  0
 32 33  1  0  0  0
 33 60  1  0  0  0
 33 61  1  0  0  0
 33 62  1  0  0  0
 34 35  1  0  0  0
 35 63  1  0  0  0
 35 64  1  0  0  0
 35 65  1  0  0  0
 36 37  2  0  0  0
 36 38  1  0  0  0
 38 66  1  0  0  0
 38 67  1  0  0  0
 39 68  1  0  0  0
 39 69  1  0  0  0
 39 70  1  0  0  0
M  END
> <i_i_glide_confnum>
6

> <i_i_glide_lignum>
4158

> <i_i_glide_posenum>
61

> <i_i_glide_rotatable_bonds>
4

> <i_m_Source_File_Index>
153

> <b_m_subgroup_collapsed>
0

> <r_i_docking_score>
-4.70488

> <r_i_glide_ecoul>
-0.0627908

> <r_i_glide_eff_state_penalty>
0

> <r_i_glide_einternal>
5.20062

> <r_i_glide_emodel>
-46.5084

> <r_i_glide_energy>
-38.2763

> <r_i_glide_erotb>
0.0737165

> <r_i_glide_esite>
-0.116711

> <r_i_glide_evdw>
-38.2135

> <r_i_glide_gscore>
-4.70488

> <r_i_glide_hbond>
-0.000636012

> <r_i_glide_ligand_efficiency>
-0.123813

> <r_i_glide_ligand_efficiency_ln>
-1.01451

> <r_i_glide_ligand_efficiency_sa>
-0.416255

> <r_i_glide_lipo>
-2.54071

> <r_i_glide_metal>
0

> <r_i_glide_rewards>
-0.200446

> <s_i_glide_gridfile>
wee1_glide-grid

> <s_m_Source_File>
wee1_decoys_glide_SP.sdf

> <s_m_Source_Path>
/Users/zhangxujun/Desktop

> <s_m_entry_id>
428

> <s_m_entry_name>
wee1_decoys_glide_SP.153

> <s_m_subgroup_title>
wee1_decoys_glide_SP

> <s_m_subgroupid>
wee1_decoys_glide_SP


$$$$
