ZINC36231999_1673
                    3D
 Schrodinger Suite 2024-2.
 41 42  0  0  1  0            999 V2000
    0.5433   55.1527   30.8838 C   0  0  0  0  0  0
    1.4368   54.2389   30.0331 C   0  0  0  0  0  0
    0.9485   54.3358   28.5658 C   0  0  0  0  0  0
    1.8446   53.6241   27.6428 N   0  0  0  0  0  0
    3.1869   54.2262   27.7262 C   0  0  0  0  0  0
    3.7106   54.2487   29.1822 C   0  0  0  0  0  0
    2.7476   54.8071   30.0780 O   0  0  0  0  0  0
    1.3305   52.8755   26.5848 C   0  0  0  0  0  0
    0.3048   51.9665   26.8931 C   0  0  0  0  0  0
   -0.2366   51.1188   25.9339 C   0  0  0  0  0  0
    0.2484   51.1516   24.6286 C   0  0  0  0  0  0
    1.2347   52.0787   24.2821 C   0  0  0  0  0  0
    1.7748   52.9411   25.2409 C   0  0  0  0  0  0
    2.7356   53.8550   24.7939 N   0  0  0  0  0  0
   -0.3863   49.9949   23.4188 S   0  0  0  0  0  0
   -1.8376   50.1992   23.3524 O   0  0  0  0  0  0
    0.4444   50.1141   22.2160 O   0  0  0  0  0  0
   -0.0945   48.3947   24.0964 N   0  0  0  0  0  0
   -0.8771   47.9310   25.2612 C   0  0  0  0  0  0
    1.4271   52.7761   30.5422 C   0  0  0  0  0  0
   -0.4967   54.8965   30.7174 H   0  0  0  0  0  0
    0.6847   56.2043   30.6290 H   0  0  0  0  0  0
    0.7045   55.0379   31.9539 H   0  0  0  0  0  0
   -0.0821   53.9870   28.4984 H   0  0  0  0  0  0
    0.9267   55.3795   28.2467 H   0  0  0  0  0  0
    3.8870   53.6234   27.1461 H   0  0  0  0  0  0
    3.1795   55.2292   27.2976 H   0  0  0  0  0  0
    3.9719   53.2362   29.4926 H   0  0  0  0  0  0
    4.6253   54.8413   29.2384 H   0  0  0  0  0  0
   -0.0626   51.8746   27.9044 H   0  0  0  0  0  0
   -1.0145   50.4276   26.2218 H   0  0  0  0  0  0
    1.5909   52.1199   23.2632 H   0  0  0  0  0  0
    3.0084   53.8668   23.8212 H   0  0  0  0  0  0
    3.1388   54.5010   25.4557 H   0  0  0  0  0  0
    0.8871   48.0988   24.0869 H   0  0  0  0  0  0
   -0.9007   46.8424   25.2793 H   0  0  0  0  0  0
   -0.3927   48.2656   26.1802 H   0  0  0  0  0  0
   -1.8918   48.3299   25.2325 H   0  0  0  0  0  0
    0.4130   52.3775   30.5798 H   0  0  0  0  0  0
    2.0125   52.1082   29.9129 H   0  0  0  0  0  0
    1.8364   52.7082   31.5495 H   0  0  0  0  0  0
  1  2  1  0  0  0
  1 21  1  0  0  0
  1 22  1  0  0  0
  1 23  1  0  0  0
  2  7  1  0  0  0
  2  3  1  0  0  0
  2 20  1  0  0  0
  3  4  1  0  0  0
  3 24  1  0  0  0
  3 25  1  0  0  0
  4  5  1  0  0  0
  4  8  1  0  0  0
  5  6  1  0  0  0
  5 26  1  0  0  0
  5 27  1  0  0  0
  6  7  1  0  0  0
  6 28  1  0  0  0
  6 29  1  0  0  0
  8 13  2  0  0  0
  8  9  1  0  0  0
  9 10  2  0  0  0
  9 30  1  0  0  0
 10 11  1  0  0  0
 10 31  1  0  0  0
 11 12  2  0  0  0
 11 15  1  0  0  0
 12 13  1  0  0  0
 12 32  1  0  0  0
 13 14  1  0  0  0
 14 33  1  0  0  0
 14 34  1  0  0  0
 15 16  2  0  0  0
 15 17  2  0  0  0
 15 18  1  0  0  0
 18 19  1  0  0  0
 18 35  1  0  0  0
 19 36  1  0  0  0
 19 37  1  0  0  0
 19 38  1  0  0  0
 20 39  1  0  0  0
 20 40  1  0  0  0
 20 41  1  0  0  0
M  END
> <i_i_glide_confnum>
2

> <i_i_glide_lignum>
1674

> <i_i_glide_posenum>
291

> <i_i_glide_rotatable_bonds>
3

> <i_m_Source_File_Index>
4779

> <b_m_subgroup_collapsed>
0

> <r_i_docking_score>
-4.78172

> <r_i_glide_ecoul>
-5.91661

> <r_i_glide_eff_state_penalty>
0

> <r_i_glide_einternal>
0.92242

> <r_i_glide_emodel>
-39.6082

> <r_i_glide_energy>
-32.4629

> <r_i_glide_erotb>
0.40979

> <r_i_glide_esite>
-0.0382519

> <r_i_glide_evdw>
-26.5463

> <r_i_glide_gscore>
-4.78172

> <r_i_glide_hbond>
-0.505374

> <r_i_glide_ligand_efficiency>
-0.239086

> <r_i_glide_ligand_efficiency_ln>
-1.19671

> <r_i_glide_ligand_efficiency_sa>
-0.64898

> <r_i_glide_lipo>
-1.64884

> <r_i_glide_metal>
0

> <r_i_glide_rewards>
-0.784239

> <s_i_glide_gridfile>
wee1_glide-grid

> <s_m_Source_File>
wee1_decoys_glide_SP.sdf

> <s_m_Source_Path>
/Users/zhangxujun/Desktop

> <s_m_entry_id>
5054

> <s_m_entry_name>
wee1_decoys_glide_SP.4779

> <s_m_subgroup_title>
wee1_decoys_glide_SP

> <s_m_subgroupid>
wee1_decoys_glide_SP


$$$$
