ZINC40475512_5667
                    3D
 Schrodinger Suite 2024-2.
 50 54  0  0  1  0            999 V2000
    2.3283   49.4716   13.5992 C   0  0  0  0  0  0
    2.4434   50.9765   13.8980 C   0  0  0  0  0  0
    2.2434   51.2420   15.2811 O   0  0  0  0  0  0
    1.0017   51.3304   15.8263 C   0  0  0  0  0  0
   -0.0396   51.3083   15.1611 O   0  0  0  0  0  0
    1.0278   51.5270   17.3121 C   0  0  0  0  0  0
    2.1901   51.2967   18.0616 C   0  0  0  0  0  0
    2.1896   51.4705   19.4402 C   0  0  0  0  0  0
    1.0265   51.8788   20.1102 C   0  0  0  0  0  0
   -0.1385   52.0966   19.3564 C   0  0  0  0  0  0
   -0.1389   51.9222   17.9758 C   0  0  0  0  0  0
    1.0321   52.0636   21.5245 N   0  0  0  0  0  0
   -0.0132   51.7279   22.3474 C   0  0  0  0  0  0
   -1.0622   51.1576   22.0429 O   0  0  0  0  0  0
    0.3082   52.2440   23.7450 C   0  0  1  0  0  0
   -0.1895   53.2129   23.8176 H   0  0  0  0  0  0
   -0.1054   51.3937   24.9855 C   0  0  1  0  0  0
    0.3870   50.4250   24.8883 H   0  0  0  0  0  0
    0.4896   52.0967   26.2125 C   0  0  0  0  0  0
    1.5523   53.0193   26.2354 C   0  0  0  0  0  0
    1.9335   53.4633   27.4141 N   0  0  0  0  0  0
    1.2417   52.9230   28.3845 C   0  0  0  0  0  0
    1.5027   53.2653   30.0817 S   0  5  0  0  0  0
    0.0171   51.8096   27.8665 S   0  0  0  0  0  0
    2.3763   53.6966   24.8178 S   0  0  0  0  0  0
    1.7911   52.4027   23.6846 C   0  0  2  0  0  0
    2.3046   51.4864   23.9837 H   0  0  0  0  0  0
    2.0793   52.6103   22.2167 C   0  0  0  0  0  0
    3.1074   53.1269   21.7759 O   0  0  0  0  0  0
   -1.6137   51.1201   25.1266 C   0  0  0  0  0  0
   -2.5325   52.1713   24.9807 C   0  0  0  0  0  0
   -3.8999   51.9531   25.1434 C   0  0  0  0  0  0
   -4.3676   50.6828   25.4724 C   0  0  0  0  0  0
   -3.4671   49.6325   25.6400 C   0  0  0  0  0  0
   -2.0977   49.8410   25.4663 C   0  0  0  0  0  0
   -1.2548   48.7801   25.6817 O   0  0  0  0  0  0
    2.5529   49.2640   12.5536 H   0  0  0  0  0  0
    1.3211   49.1041   13.8053 H   0  0  0  0  0  0
    3.0271   48.8989   14.2134 H   0  0  0  0  0  0
    3.4475   51.3154   13.6361 H   0  0  0  0  0  0
    1.7504   51.5512   13.2805 H   0  0  0  0  0  0
    3.1044   50.9579   17.5920 H   0  0  0  0  0  0
    3.1064   51.2730   19.9760 H   0  0  0  0  0  0
   -1.0533   52.4147   19.8338 H   0  0  0  0  0  0
   -1.0535   52.1016   17.4275 H   0  0  0  0  0  0
   -2.1916   53.1691   24.7525 H   0  0  0  0  0  0
   -4.5959   52.7700   25.0246 H   0  0  0  0  0  0
   -5.4251   50.5135   25.6071 H   0  0  0  0  0  0
   -3.8330   48.6536   25.9145 H   0  0  0  0  0  0
   -1.2956   48.4969   26.6162 H   0  0  0  0  0  0
  1  2  1  0  0  0
  1 37  1  0  0  0
  1 38  1  0  0  0
  1 39  1  0  0  0
  2  3  1  0  0  0
  2 40  1  0  0  0
  2 41  1  0  0  0
  3  4  1  0  0  0
  4  5  2  0  0  0
  4  6  1  0  0  0
  6 11  2  0  0  0
  6  7  1  0  0  0
  7  8  2  0  0  0
  7 42  1  0  0  0
  8  9  1  0  0  0
  8 43  1  0  0  0
  9 10  2  0  0  0
  9 12  1  0  0  0
 10 11  1  0  0  0
 10 44  1  0  0  0
 11 45  1  0  0  0
 12 28  1  0  0  0
 12 13  1  0  0  0
 13 14  2  0  0  0
 13 15  1  0  0  0
 15 16  1  0  0  0
 15 26  1  0  0  0
 15 17  1  0  0  0
 17 18  1  0  0  0
 17 19  1  0  0  0
 17 30  1  0  0  0
 19 24  1  0  0  0
 19 20  2  0  0  0
 20 21  1  0  0  0
 20 25  1  0  0  0
 21 22  2  0  0  0
 22 23  1  0  0  0
 22 24  1  0  0  0
 25 26  1  0  0  0
 26 27  1  0  0  0
 26 28  1  0  0  0
 28 29  2  0  0  0
 30 35  2  0  0  0
 30 31  1  0  0  0
 31 32  2  0  0  0
 31 46  1  0  0  0
 32 33  1  0  0  0
 32 47  1  0  0  0
 33 34  2  0  0  0
 33 48  1  0  0  0
 34 35  1  0  0  0
 34 49  1  0  0  0
 35 36  1  0  0  0
 36 50  1  0  0  0
M  CHG  1  23  -1
M  END
> <i_i_glide_confnum>
8

> <i_i_glide_lignum>
5668

> <i_i_glide_posenum>
278

> <i_i_glide_rotatable_bonds>
6

> <i_m_Source_File_Index>
3535

> <b_m_subgroup_collapsed>
0

> <r_i_docking_score>
-3.57001

> <r_i_glide_ecoul>
-6.33198

> <r_i_glide_eff_state_penalty>
0

> <r_i_glide_einternal>
5.6723

> <r_i_glide_emodel>
-48.0898

> <r_i_glide_energy>
-40.2445

> <r_i_glide_erotb>
0.329573

> <r_i_glide_esite>
-0.0234051

> <r_i_glide_evdw>
-33.9125

> <r_i_glide_gscore>
-3.57001

> <r_i_glide_hbond>
-0.16

> <r_i_glide_ligand_efficiency>
-0.108182

> <r_i_glide_ligand_efficiency_ln>
-0.793952

> <r_i_glide_ligand_efficiency_sa>
-0.346998

> <r_i_glide_lipo>
-0.886876

> <r_i_glide_metal>
0

> <r_i_glide_rewards>
-0.183883

> <s_i_glide_gridfile>
wee1_glide-grid

> <s_m_Source_File>
wee1_decoys_glide_SP.sdf

> <s_m_Source_Path>
/Users/zhangxujun/Desktop

> <s_m_entry_id>
3810

> <s_m_entry_name>
wee1_decoys_glide_SP.3535

> <s_m_subgroup_title>
wee1_decoys_glide_SP

> <s_m_subgroupid>
wee1_decoys_glide_SP


$$$$
