ZINC36235453_2882
                    3D
 Schrodinger Suite 2024-2.
 70 72  0  0  1  0            999 V2000
    2.9456   53.0098   27.7021 C   0  0  0  0  0  0
    3.5041   54.4144   27.4324 C   0  0  0  0  0  0
    4.7657   54.4207   26.6771 N   0  0  0  0  0  0
    6.0614   54.2449   27.3569 C   0  0  0  0  0  0
    6.0419   54.0985   28.8817 C   0  0  0  0  0  0
    4.7512   54.3656   25.2544 C   0  0  0  0  0  0
    3.5773   54.0957   24.5335 C   0  0  0  0  0  0
    3.5903   53.9697   23.1462 C   0  0  0  0  0  0
    4.7734   54.1463   22.4170 C   0  0  0  0  0  0
    5.9356   54.4941   23.1252 C   0  0  0  0  0  0
    5.9247   54.5772   24.5142 C   0  0  0  0  0  0
    7.1109   54.7894   22.4840 O   0  0  0  0  0  0
    4.7889   54.0050   20.9545 C   0  0  0  0  0  0
    3.8905   53.3974   20.2924 N   0  0  0  0  0  0
    4.1367   53.4313   18.9722 N   0  0  0  0  0  0
    3.2873   52.9758   18.0240 C   0  0  0  0  0  0
    2.1797   52.4920   18.2798 O   0  0  0  0  0  0
    3.7909   53.1300   16.6582 C   0  0  0  0  0  0
    2.9663   53.4642   15.6229 C   0  0  0  0  0  0
    1.5314   53.8313   15.5927 C   0  0  0  0  0  0
    0.9464   54.6707   16.5448 C   0  0  0  0  0  0
   -0.4035   54.9981   16.4584 C   0  0  0  0  0  0
   -1.2060   54.5016   15.4162 C   0  0  0  0  0  0
   -0.5989   53.6702   14.4602 C   0  0  0  0  0  0
    0.7489   53.3395   14.5480 C   0  0  0  0  0  0
   -2.5871   54.8370   15.3248 N   0  0  0  0  0  0
   -3.4381   54.1693   14.3380 C   0  0  0  0  0  0
   -3.2711   55.4105   16.4813 C   0  0  0  0  0  0
    5.1430   52.8889   16.5110 N   0  0  0  0  0  0
    6.0162   53.3772   15.6003 C   0  0  0  0  0  0
    5.7190   54.2163   14.7462 O   0  0  0  0  0  0
    7.4349   52.8473   15.6871 C   0  0  0  0  0  0
    7.8798   52.0919   16.7863 C   0  0  0  0  0  0
    9.1824   51.6050   16.8320 C   0  0  0  0  0  0
   10.0614   51.8807   15.7890 C   0  0  0  0  0  0
    9.6455   52.6372   14.6976 C   0  0  0  0  0  0
    8.3395   53.1180   14.6477 C   0  0  0  0  0  0
    2.0289   53.0664   28.2894 H   0  0  0  0  0  0
    2.7042   52.4965   26.7731 H   0  0  0  0  0  0
    3.6509   52.3864   28.2502 H   0  0  0  0  0  0
    3.6255   54.9578   28.3687 H   0  0  0  0  0  0
    2.7554   54.9920   26.8916 H   0  0  0  0  0  0
    6.5663   53.3752   26.9323 H   0  0  0  0  0  0
    6.6905   55.1049   27.1240 H   0  0  0  0  0  0
    7.0633   54.0106   29.2541 H   0  0  0  0  0  0
    5.6051   54.9738   29.3624 H   0  0  0  0  0  0
    5.5018   53.2161   29.2258 H   0  0  0  0  0  0
    2.6346   53.9353   25.0301 H   0  0  0  0  0  0
    2.6642   53.7322   22.6401 H   0  0  0  0  0  0
    6.8494   54.8291   25.0066 H   0  0  0  0  0  0
    7.8478   54.9490   23.0834 H   0  0  0  0  0  0
    5.6477   54.4757   20.4758 H   0  0  0  0  0  0
    5.0001   53.8792   18.7055 H   0  0  0  0  0  0
    3.4068   53.4999   14.6371 H   0  0  0  0  0  0
    1.5338   55.0775   17.3562 H   0  0  0  0  0  0
   -0.8022   55.6491   17.2191 H   0  0  0  0  0  0
   -1.1568   53.2593   13.6338 H   0  0  0  0  0  0
    1.1832   52.6931   13.7975 H   0  0  0  0  0  0
   -3.0393   54.2847   13.3299 H   0  0  0  0  0  0
   -3.4945   53.1008   14.5514 H   0  0  0  0  0  0
   -4.4548   54.5649   14.3374 H   0  0  0  0  0  0
   -2.7877   56.3275   16.8162 H   0  0  0  0  0  0
   -4.3148   55.6431   16.2687 H   0  0  0  0  0  0
   -3.2419   54.6989   17.3065 H   0  0  0  0  0  0
    5.5049   52.1908   17.1514 H   0  0  0  0  0  0
    7.2297   51.8372   17.6124 H   0  0  0  0  0  0
    9.5065   51.0113   17.6748 H   0  0  0  0  0  0
   11.0730   51.5022   15.8268 H   0  0  0  0  0  0
   10.3326   52.8466   13.8906 H   0  0  0  0  0  0
    8.0363   53.6999   13.7881 H   0  0  0  0  0  0
  1  2  1  0  0  0
  1 38  1  0  0  0
  1 39  1  0  0  0
  1 40  1  0  0  0
  2  3  1  0  0  0
  2 41  1  0  0  0
  2 42  1  0  0  0
  3  4  1  0  0  0
  3  6  1  0  0  0
  4  5  1  0  0  0
  4 43  1  0  0  0
  4 44  1  0  0  0
  5 45  1  0  0  0
  5 46  1  0  0  0
  5 47  1  0  0  0
  6 11  2  0  0  0
  6  7  1  0  0  0
  7  8  2  0  0  0
  7 48  1  0  0  0
  8  9  1  0  0  0
  8 49  1  0  0  0
  9 10  2  0  0  0
  9 13  1  0  0  0
 10 11  1  0  0  0
 10 12  1  0  0  0
 11 50  1  0  0  0
 12 51  1  0  0  0
 13 14  2  0  0  0
 13 52  1  0  0  0
 14 15  1  0  0  0
 15 16  1  0  0  0
 15 53  1  0  0  0
 16 17  2  0  0  0
 16 18  1  0  0  0
 18 19  2  0  0  0
 18 29  1  0  0  0
 19 20  1  0  0  0
 19 54  1  0  0  0
 20 25  2  0  0  0
 20 21  1  0  0  0
 21 22  2  0  0  0
 21 55  1  0  0  0
 22 23  1  0  0  0
 22 56  1  0  0  0
 23 24  2  0  0  0
 23 26  1  0  0  0
 24 25  1  0  0  0
 24 57  1  0  0  0
 25 58  1  0  0  0
 26 27  1  0  0  0
 26 28  1  0  0  0
 27 59  1  0  0  0
 27 60  1  0  0  0
 27 61  1  0  0  0
 28 62  1  0  0  0
 28 63  1  0  0  0
 28 64  1  0  0  0
 29 30  1  0  0  0
 29 65  1  0  0  0
 30 31  2  0  0  0
 30 32  1  0  0  0
 32 37  2  0  0  0
 32 33  1  0  0  0
 33 34  2  0  0  0
 33 66  1  0  0  0
 34 35  1  0  0  0
 34 67  1  0  0  0
 35 36  2  0  0  0
 35 68  1  0  0  0
 36 37  1  0  0  0
 36 69  1  0  0  0
 37 70  1  0  0  0
M  END
> <i_i_glide_confnum>
240

> <i_i_glide_lignum>
2883

> <i_i_glide_posenum>
275

> <i_i_glide_rotatable_bonds>
13

> <i_m_Source_File_Index>
2781

> <b_m_subgroup_collapsed>
0

> <r_i_docking_score>
-5.0908

> <r_i_glide_ecoul>
-3.50027

> <r_i_glide_eff_state_penalty>
0

> <r_i_glide_einternal>
5.3807

> <r_i_glide_emodel>
-53.2854

> <r_i_glide_energy>
-40.9052

> <r_i_glide_erotb>
0.654283

> <r_i_glide_esite>
-0.155215

> <r_i_glide_evdw>
-37.4049

> <r_i_glide_gscore>
-5.0908

> <r_i_glide_hbond>
-0.450095

> <r_i_glide_ligand_efficiency>
-0.137589

> <r_i_glide_ligand_efficiency_ln>
-1.10408

> <r_i_glide_ligand_efficiency_sa>
-0.458478

> <r_i_glide_lipo>
-2.26644

> <r_i_glide_metal>
0

> <r_i_glide_rewards>
-0.478045

> <s_i_glide_gridfile>
wee1_glide-grid

> <s_m_Source_File>
wee1_decoys_glide_SP.sdf

> <s_m_Source_Path>
/Users/zhangxujun/Desktop

> <s_m_entry_id>
3056

> <s_m_entry_name>
wee1_decoys_glide_SP.2781

> <s_m_subgroup_title>
wee1_decoys_glide_SP

> <s_m_subgroupid>
wee1_decoys_glide_SP


$$$$
