ZINC08918719_3454
                    3D
 Schrodinger Suite 2024-2.
 65 68  0  0  1  0            999 V2000
    4.1590   53.8262   29.4264 C   0  0  0  0  0  0
    2.8937   53.7774   28.5294 C   0  0  0  0  0  0
    2.0428   52.5702   29.0051 C   0  0  0  0  0  0
    2.0779   55.0726   28.7759 C   0  0  0  0  0  0
    3.3043   53.5975   27.0162 C   0  0  2  0  0  0
    3.9450   52.7140   27.0011 H   0  0  0  0  0  0
    4.1184   54.7825   26.4380 C   0  0  0  0  0  0
    4.7940   54.4179   25.1043 C   0  0  0  0  0  0
    3.7692   53.8038   24.1421 C   0  0  0  0  0  0
    2.5404   53.3297   24.6146 C   0  0  0  0  0  0
    1.5360   52.7484   23.3373 S   0  0  0  0  0  0
    2.7971   53.0106   22.1557 C   0  0  0  0  0  0
    3.9003   53.6894   22.7289 C   0  0  0  0  0  0
    5.1054   54.0944   22.0194 C   0  0  0  0  0  0
    6.1993   54.0957   22.5851 O   0  0  0  0  0  0
    4.8922   54.4984   20.7479 N   0  0  0  0  0  0
    5.7842   55.1005   19.8385 C   0  0  0  0  0  0
    7.1572   55.2968   20.0700 C   0  0  0  0  0  0
    7.9444   55.9291   19.1114 C   0  0  0  0  0  0
    7.3682   56.3703   17.9236 C   0  0  0  0  0  0
    6.0100   56.1768   17.6821 C   0  0  0  0  0  0
    5.2212   55.5413   18.6382 C   0  0  0  0  0  0
    8.3451   57.1638   16.7412 Cl  0  0  0  0  0  0
    2.7002   52.5168   20.8461 N   0  0  0  0  0  0
    1.5936   52.0964   20.1872 C   0  0  0  0  0  0
    0.4417   52.1848   20.6136 O   0  0  0  0  0  0
    1.8014   51.4741   18.7941 C   0  0  0  0  0  0
    2.0509   48.9234   19.2488 C   0  0  0  0  0  0
    1.3366   49.0037   20.5803 C   0  0  0  0  0  0
    0.0011   48.9953   20.9623 C   0  0  0  0  0  0
   -0.0289   49.1940   22.3440 C   0  0  0  0  0  0
    1.2910   49.2971   22.7477 C   0  0  0  0  0  0
    2.1188   49.1793   21.6780 O   0  0  0  0  0  0
    2.0909   53.3289   26.0729 C   0  0  0  0  0  0
    4.7345   54.7427   29.2886 H   0  0  0  0  0  0
    3.9043   53.7816   30.4847 H   0  0  0  0  0  0
    4.8249   52.9854   29.2270 H   0  0  0  0  0  0
    1.0640   52.5428   28.5249 H   0  0  0  0  0  0
    2.5387   51.6216   28.7936 H   0  0  0  0  0  0
    1.8576   52.6034   30.0797 H   0  0  0  0  0  0
    1.1487   55.0928   28.2063 H   0  0  0  0  0  0
    1.8021   55.1764   29.8259 H   0  0  0  0  0  0
    2.6410   55.9685   28.5129 H   0  0  0  0  0  0
    3.5070   55.6782   26.3523 H   0  0  0  0  0  0
    4.9197   55.0570   27.1230 H   0  0  0  0  0  0
    5.6032   53.7058   25.2764 H   0  0  0  0  0  0
    5.2543   55.3125   24.6842 H   0  0  0  0  0  0
    3.9299   54.4797   20.4415 H   0  0  0  0  0  0
    7.6483   54.9728   20.9731 H   0  0  0  0  0  0
    9.0010   56.0745   19.2915 H   0  0  0  0  0  0
    5.5678   56.5230   16.7584 H   0  0  0  0  0  0
    4.1667   55.4061   18.4417 H   0  0  0  0  0  0
    3.5691   52.4917   20.3323 H   0  0  0  0  0  0
    0.8697   51.1491   18.3270 H   0  0  0  0  0  0
    2.3192   52.1747   18.1372 H   0  0  0  0  0  0
    1.4049   48.6835   18.4030 H   0  0  0  0  0  0
    2.8752   48.2078   19.2441 H   0  0  0  0  0  0
   -0.8533   48.8860   20.3107 H   0  0  0  0  0  0
   -0.9042   49.2526   22.9747 H   0  0  0  0  0  0
    1.7724   49.4368   23.7061 H   0  0  0  0  0  0
    1.3360   54.0968   26.2084 H   0  0  0  0  0  0
    1.6300   52.3711   26.3114 H   0  0  0  0  0  0
    2.7042   50.2768   18.8814 N   0  3  0  0  0  0
    3.1550   50.1170   17.9770 H   0  0  0  0  0  0
    3.5016   50.4397   19.4800 H   0  0  0  0  0  0
  1  2  1  0  0  0
  1 35  1  0  0  0
  1 36  1  0  0  0
  1 37  1  0  0  0
  2  3  1  0  0  0
  2  4  1  0  0  0
  2  5  1  0  0  0
  3 38  1  0  0  0
  3 39  1  0  0  0
  3 40  1  0  0  0
  4 41  1  0  0  0
  4 42  1  0  0  0
  4 43  1  0  0  0
  5  6  1  0  0  0
  5 34  1  0  0  0
  5  7  1  0  0  0
  7  8  1  0  0  0
  7 44  1  0  0  0
  7 45  1  0  0  0
  8  9  1  0  0  0
  8 46  1  0  0  0
  8 47  1  0  0  0
  9 13  1  0  0  0
  9 10  2  0  0  0
 10 11  1  0  0  0
 10 34  1  0  0  0
 11 12  1  0  0  0
 12 13  2  0  0  0
 12 24  1  0  0  0
 13 14  1  0  0  0
 14 15  2  0  0  0
 14 16  1  0  0  0
 16 17  1  0  0  0
 16 48  1  0  0  0
 17 22  2  0  0  0
 17 18  1  0  0  0
 18 19  2  0  0  0
 18 49  1  0  0  0
 19 20  1  0  0  0
 19 50  1  0  0  0
 20 21  2  0  0  0
 20 23  1  0  0  0
 21 22  1  0  0  0
 21 51  1  0  0  0
 22 52  1  0  0  0
 24 25  1  0  0  0
 24 53  1  0  0  0
 25 26  2  0  0  0
 25 27  1  0  0  0
 27 54  1  0  0  0
 27 55  1  0  0  0
 27 63  1  0  0  0
 28 29  1  0  0  0
 28 56  1  0  0  0
 28 57  1  0  0  0
 28 63  1  0  0  0
 29 33  1  0  0  0
 29 30  2  0  0  0
 30 31  1  0  0  0
 30 58  1  0  0  0
 31 32  2  0  0  0
 31 59  1  0  0  0
 32 33  1  0  0  0
 32 60  1  0  0  0
 34 61  1  0  0  0
 34 62  1  0  0  0
 63 64  1  0  0  0
 63 65  1  0  0  0
M  CHG  1  63   1
M  END
> <i_i_glide_confnum>
219

> <i_i_glide_lignum>
3455

> <i_i_glide_posenum>
298

> <i_i_glide_rotatable_bonds>
10

> <i_m_Source_File_Index>
509

> <b_m_subgroup_collapsed>
0

> <r_i_docking_score>
-6.09662

> <r_i_glide_ecoul>
-7.26041

> <r_i_glide_eff_state_penalty>
0

> <r_i_glide_einternal>
4.9946

> <r_i_glide_emodel>
-69.8061

> <r_i_glide_energy>
-48.44

> <r_i_glide_erotb>
0.650798

> <r_i_glide_esite>
-0.136991

> <r_i_glide_evdw>
-41.1796

> <r_i_glide_gscore>
-6.09662

> <r_i_glide_hbond>
-0.235026

> <r_i_glide_ligand_efficiency>
-0.179312

> <r_i_glide_ligand_efficiency_ln>
-1.34691

> <r_i_glide_ligand_efficiency_sa>
-0.580903

> <r_i_glide_lipo>
-2.91238

> <r_i_glide_metal>
0

> <r_i_glide_rewards>
-0.314987

> <s_i_glide_gridfile>
wee1_glide-grid

> <s_m_Source_File>
wee1_decoys_glide_SP.sdf

> <s_m_Source_Path>
/Users/zhangxujun/Desktop

> <s_m_entry_id>
784

> <s_m_entry_name>
wee1_decoys_glide_SP.509

> <s_m_subgroup_title>
wee1_decoys_glide_SP

> <s_m_subgroupid>
wee1_decoys_glide_SP


$$$$
