ZINC11667734_5532
                    3D
 Schrodinger Suite 2024-2.
 65 69  0  0  1  0            999 V2000
    0.1914   53.9182   30.8425 C   0  0  0  0  0  0
    0.7669   52.6026   30.2740 C   0  0  0  0  0  0
   -0.3260   51.6984   29.6764 C   0  0  0  0  0  0
    1.9219   52.8261   29.2481 N   0  3  2  0  0  0
    3.0392   53.7027   29.8625 C   0  0  0  0  0  0
    4.3110   53.6230   29.0016 C   0  0  0  0  0  0
    4.0012   53.7512   27.5072 C   0  0  0  0  0  0
    2.6905   53.5940   27.0340 C   0  0  0  0  0  0
    2.6014   53.6966   25.3113 S   0  0  0  0  0  0
    4.2956   54.0972   25.2088 C   0  0  0  0  0  0
    4.9167   54.0993   26.4709 C   0  0  0  0  0  0
    6.3056   54.4935   26.6542 C   0  0  0  0  0  0
    6.8676   55.2835   25.8980 O   0  0  0  0  0  0
    6.9511   53.9481   27.6818 N   0  0  0  0  0  0
    4.9350   54.3776   24.0030 N   0  0  0  0  0  0
    4.5423   54.0963   22.7427 C   0  0  0  0  0  0
    3.5214   53.4651   22.4651 O   0  0  0  0  0  0
    5.4567   54.6032   21.6422 C   0  0  0  0  0  0
    6.7083   55.1875   21.9179 C   0  0  0  0  0  0
    7.4968   55.6969   20.8893 C   0  0  0  0  0  0
    7.0317   55.6583   19.5750 C   0  0  0  0  0  0
    5.8050   55.0623   19.2840 C   0  0  0  0  0  0
    5.0320   54.5253   20.3081 C   0  0  0  0  0  0
    7.9829   56.4165   18.2569 S   0  0  0  0  0  0
    7.0251   57.0606   17.3521 O   0  0  0  0  0  0
    9.0615   57.1906   18.8808 O   0  0  0  0  0  0
    8.7537   55.0862   17.3646 N   0  0  0  0  0  0
    9.9751   54.4768   17.8772 C   0  0  0  0  0  0
   10.2617   53.3065   16.9371 C   0  0  0  0  0  0
    8.9236   53.0585   16.3030 C   0  0  0  0  0  0
    8.0975   54.1511   16.5512 C   0  0  0  0  0  0
    6.8369   54.2217   15.9506 C   0  0  0  0  0  0
    6.3979   53.1787   15.1339 C   0  0  0  0  0  0
    7.2298   52.0861   14.8884 C   0  0  0  0  0  0
    8.5019   52.0295   15.4602 C   0  0  0  0  0  0
    1.4485   53.4239   27.8986 C   0  0  0  0  0  0
   -0.4956   53.6866   31.6558 H   0  0  0  0  0  0
   -0.3549   54.4895   30.0922 H   0  0  0  0  0  0
    0.9418   54.5714   31.2823 H   0  0  0  0  0  0
    1.2626   52.0539   31.0779 H   0  0  0  0  0  0
   -0.9798   51.3057   30.4588 H   0  0  0  0  0  0
   -0.9606   52.2306   28.9684 H   0  0  0  0  0  0
    0.1002   50.8466   29.1512 H   0  0  0  0  0  0
    2.6589   54.7250   29.9250 H   0  0  0  0  0  0
    3.2514   53.2968   30.8537 H   0  0  0  0  0  0
    5.0042   54.3937   29.3418 H   0  0  0  0  0  0
    4.8002   52.6632   29.1719 H   0  0  0  0  0  0
    6.5335   53.2023   28.2152 H   0  0  0  0  0  0
    7.8822   54.2610   27.9049 H   0  0  0  0  0  0
    5.8726   54.7356   24.1136 H   0  0  0  0  0  0
    7.1011   55.2594   22.9224 H   0  0  0  0  0  0
    8.4612   56.1257   21.1235 H   0  0  0  0  0  0
    5.4336   55.0294   18.2712 H   0  0  0  0  0  0
    4.0760   54.0866   20.0541 H   0  0  0  0  0  0
   10.7906   55.1947   17.9750 H   0  0  0  0  0  0
    9.7749   54.1058   18.8818 H   0  0  0  0  0  0
   11.0224   53.5793   16.2049 H   0  0  0  0  0  0
   10.6234   52.4415   17.4897 H   0  0  0  0  0  0
    6.1906   55.0725   16.0955 H   0  0  0  0  0  0
    5.4191   53.2239   14.6802 H   0  0  0  0  0  0
    6.8910   51.2870   14.2460 H   0  0  0  0  0  0
    9.1492   51.1939   15.2387 H   0  0  0  0  0  0
    0.7468   52.7111   27.4638 H   0  0  0  0  0  0
    0.9444   54.3716   28.0959 H   0  0  0  0  0  0
    2.3131   51.9113   29.0682 H   0  0  0  0  0  0
  1  2  1  0  0  0
  1 37  1  0  0  0
  1 38  1  0  0  0
  1 39  1  0  0  0
  2  3  1  0  0  0
  2  4  1  0  0  0
  2 40  1  0  0  0
  3 41  1  0  0  0
  3 42  1  0  0  0
  3 43  1  0  0  0
  4 36  1  0  0  0
  4  5  1  0  0  0
  4 65  1  0  0  0
  5  6  1  0  0  0
  5 44  1  0  0  0
  5 45  1  0  0  0
  6  7  1  0  0  0
  6 46  1  0  0  0
  6 47  1  0  0  0
  7 11  1  0  0  0
  7  8  2  0  0  0
  8  9  1  0  0  0
  8 36  1  0  0  0
  9 10  1  0  0  0
 10 11  2  0  0  0
 10 15  1  0  0  0
 11 12  1  0  0  0
 12 13  2  0  0  0
 12 14  1  0  0  0
 14 48  1  0  0  0
 14 49  1  0  0  0
 15 16  1  0  0  0
 15 50  1  0  0  0
 16 17  2  0  0  0
 16 18  1  0  0  0
 18 23  2  0  0  0
 18 19  1  0  0  0
 19 20  2  0  0  0
 19 51  1  0  0  0
 20 21  1  0  0  0
 20 52  1  0  0  0
 21 22  2  0  0  0
 21 24  1  0  0  0
 22 23  1  0  0  0
 22 53  1  0  0  0
 23 54  1  0  0  0
 24 25  2  0  0  0
 24 26  2  0  0  0
 24 27  1  0  0  0
 27 31  1  0  0  0
 27 28  1  0  0  0
 28 29  1  0  0  0
 28 55  1  0  0  0
 28 56  1  0  0  0
 29 30  1  0  0  0
 29 57  1  0  0  0
 29 58  1  0  0  0
 30 35  2  0  0  0
 30 31  1  0  0  0
 31 32  2  0  0  0
 32 33  1  0  0  0
 32 59  1  0  0  0
 33 34  2  0  0  0
 33 60  1  0  0  0
 34 35  1  0  0  0
 34 61  1  0  0  0
 35 62  1  0  0  0
 36 63  1  0  0  0
 36 64  1  0  0  0
M  CHG  1   4   1
M  END
> <i_i_glide_confnum>
11

> <i_i_glide_lignum>
5533

> <i_i_glide_posenum>
294

> <i_i_glide_rotatable_bonds>
7

> <i_m_Source_File_Index>
122

> <b_m_subgroup_collapsed>
0

> <r_i_docking_score>
-5.94757

> <r_i_glide_ecoul>
-0.0808605

> <r_i_glide_eff_state_penalty>
0

> <r_i_glide_einternal>
4.71334

> <r_i_glide_emodel>
-67.5603

> <r_i_glide_energy>
-52.3929

> <r_i_glide_erotb>
0.372465

> <r_i_glide_esite>
-0.0189665

> <r_i_glide_evdw>
-52.312

> <r_i_glide_gscore>
-5.94757

> <r_i_glide_hbond>
-0.32

> <r_i_glide_ligand_efficiency>
-0.16521

> <r_i_glide_ligand_efficiency_ln>
-1.2976

> <r_i_glide_ligand_efficiency_sa>
-0.545513

> <r_i_glide_lipo>
-2.64125

> <r_i_glide_metal>
0

> <r_i_glide_rewards>
-0.712096

> <s_i_glide_gridfile>
wee1_glide-grid

> <s_m_Source_File>
wee1_decoys_glide_SP.sdf

> <s_m_Source_Path>
/Users/zhangxujun/Desktop

> <s_m_entry_id>
397

> <s_m_entry_name>
wee1_decoys_glide_SP.122

> <s_m_subgroup_title>
wee1_decoys_glide_SP

> <s_m_subgroupid>
wee1_decoys_glide_SP


$$$$
