ZINC33598414_5302
                    3D
 Schrodinger Suite 2024-2.
 66 70  0  0  1  0            999 V2000
    1.7258   54.0915   23.5220 C   0  0  0  0  0  0
    3.2388   54.0336   23.6947 C   0  0  0  0  0  0
    3.7829   54.4968   24.8975 C   0  0  0  0  0  0
    5.1628   54.5681   25.0776 C   0  0  0  0  0  0
    6.0161   54.1882   24.0454 C   0  0  0  0  0  0
    5.4876   53.6972   22.8541 C   0  0  0  0  0  0
    4.1010   53.5893   22.6660 C   0  0  0  0  0  0
    3.6182   52.9890   21.4742 N   0  0  0  0  0  0
    3.9044   53.4418   20.2073 C   0  0  0  0  0  0
    4.7040   54.3041   19.8443 O   0  0  0  0  0  0
    2.9071   52.7132   19.3282 C   0  0  1  0  0  0
    1.9907   53.2966   19.4015 H   0  0  0  0  0  0
    3.1054   52.3191   17.8653 C   0  0  1  0  0  0
    4.1601   52.0966   17.6945 H   0  0  0  0  0  0
    2.3045   50.9756   17.7989 N   0  3  0  0  0  0
    1.7977   50.5962   19.2344 C   0  0  1  0  0  0
    2.8641   51.4139   20.0044 C   0  0  2  0  0  0
    3.7942   50.8368   19.9172 H   0  0  0  0  0  0
    2.8405   51.8523   21.4537 C   0  0  0  0  0  0
    2.3040   51.2511   22.3843 O   0  0  0  0  0  0
    0.3206   51.0678   19.5220 C   0  0  0  0  0  0
   -0.8805   50.2487   18.9473 C   0  0  0  0  0  0
   -2.2473   50.8398   19.3815 C   0  0  0  0  0  0
   -2.5995   52.1512   18.6414 C   0  0  0  0  0  0
   -2.5584   51.9668   17.1126 C   0  0  0  0  0  0
   -1.2225   51.3564   16.6431 C   0  0  0  0  0  0
   -0.8950   50.0575   17.4066 C   0  0  0  0  0  0
    1.8953   49.0375   19.3966 C   0  0  0  0  0  0
    1.9042   48.3007   18.3839 O   0  0  0  0  0  0
    1.9027   48.5896   20.5647 O   0  5  0  0  0  0
    2.6354   53.2731   16.7637 C   0  0  0  0  0  0
    3.4112   53.4084   15.6064 C   0  0  0  0  0  0
    3.0245   54.2821   14.5915 C   0  0  0  0  0  0
    1.8570   55.0332   14.7228 C   0  0  0  0  0  0
    1.0643   54.9136   15.8698 C   0  0  0  0  0  0
    1.4619   54.0324   16.8829 C   0  0  0  0  0  0
   -0.2211   55.7286   16.0256 C   0  0  0  0  0  0
   -1.2627   54.9555   15.7173 F   0  0  0  0  0  0
   -0.3700   56.1538   17.2816 F   0  0  0  0  0  0
   -0.2382   56.7955   15.2227 F   0  0  0  0  0  0
    1.2921   54.8964   24.1147 H   0  0  0  0  0  0
    1.4662   54.3129   22.4852 H   0  0  0  0  0  0
    1.2573   53.1511   23.8174 H   0  0  0  0  0  0
    3.1346   54.8209   25.6985 H   0  0  0  0  0  0
    5.5677   54.9353   26.0093 H   0  0  0  0  0  0
    7.0871   54.2567   24.1731 H   0  0  0  0  0  0
    6.1668   53.3792   22.0813 H   0  0  0  0  0  0
    2.9345   50.2415   17.4642 H   0  0  0  0  0  0
    0.2013   52.1028   19.2106 H   0  0  0  0  0  0
    0.1887   51.0878   20.6052 H   0  0  0  0  0  0
   -0.8530   49.2459   19.3781 H   0  0  0  0  0  0
   -2.2580   51.0063   20.4597 H   0  0  0  0  0  0
   -3.0335   50.1056   19.1922 H   0  0  0  0  0  0
   -1.9000   52.9389   18.9168 H   0  0  0  0  0  0
   -3.5887   52.4945   18.9462 H   0  0  0  0  0  0
   -2.7314   52.9216   16.6146 H   0  0  0  0  0  0
   -3.3781   51.3144   16.8079 H   0  0  0  0  0  0
   -0.4216   52.0792   16.7847 H   0  0  0  0  0  0
   -1.2623   51.1597   15.5704 H   0  0  0  0  0  0
   -1.6420   49.3046   17.1495 H   0  0  0  0  0  0
    0.0501   49.6562   17.0471 H   0  0  0  0  0  0
    4.3201   52.8347   15.4873 H   0  0  0  0  0  0
    3.6323   54.3809   13.7032 H   0  0  0  0  0  0
    1.5735   55.7069   13.9271 H   0  0  0  0  0  0
    0.8389   53.9440   17.7593 H   0  0  0  0  0  0
    1.5455   51.0159   17.1379 H   0  0  0  0  0  0
  1  2  1  0  0  0
  1 41  1  0  0  0
  1 42  1  0  0  0
  1 43  1  0  0  0
  2  7  2  0  0  0
  2  3  1  0  0  0
  3  4  2  0  0  0
  3 44  1  0  0  0
  4  5  1  0  0  0
  4 45  1  0  0  0
  5  6  2  0  0  0
  5 46  1  0  0  0
  6  7  1  0  0  0
  6 47  1  0  0  0
  7  8  1  0  0  0
  8 19  1  0  0  0
  8  9  1  0  0  0
  9 10  2  0  0  0
  9 11  1  0  0  0
 11 12  1  0  0  0
 11 17  1  0  0  0
 11 13  1  0  0  0
 13 14  1  0  0  0
 13 15  1  0  0  0
 13 31  1  0  0  0
 15 16  1  0  0  0
 15 48  1  0  0  0
 15 66  1  0  0  0
 16 17  1  0  0  0
 16 21  1  0  0  0
 16 28  1  0  0  0
 17 18  1  0  0  0
 17 19  1  0  0  0
 19 20  2  0  0  0
 21 22  1  0  0  0
 21 49  1  0  0  0
 21 50  1  0  0  0
 22 27  1  0  0  0
 22 23  1  0  0  0
 22 51  1  0  0  0
 23 24  1  0  0  0
 23 52  1  0  0  0
 23 53  1  0  0  0
 24 25  1  0  0  0
 24 54  1  0  0  0
 24 55  1  0  0  0
 25 26  1  0  0  0
 25 56  1  0  0  0
 25 57  1  0  0  0
 26 27  1  0  0  0
 26 58  1  0  0  0
 26 59  1  0  0  0
 27 60  1  0  0  0
 27 61  1  0  0  0
 28 29  2  0  0  0
 28 30  1  0  0  0
 31 36  2  0  0  0
 31 32  1  0  0  0
 32 33  2  0  0  0
 32 62  1  0  0  0
 33 34  1  0  0  0
 33 63  1  0  0  0
 34 35  2  0  0  0
 34 64  1  0  0  0
 35 36  1  0  0  0
 35 37  1  0  0  0
 36 65  1  0  0  0
 37 38  1  0  0  0
 37 39  1  0  0  0
 37 40  1  0  0  0
M  CHG  2  15   1  30  -1
M  END
> <i_i_glide_confnum>
105

> <i_i_glide_lignum>
5303

> <i_i_glide_posenum>
162

> <i_i_glide_rotatable_bonds>
6

> <i_m_Source_File_Index>
4897

> <b_m_subgroup_collapsed>
0

> <r_i_docking_score>
-4.23063

> <r_i_glide_ecoul>
-4.03619

> <r_i_glide_eff_state_penalty>
0

> <r_i_glide_einternal>
2.33103

> <r_i_glide_emodel>
-44.7667

> <r_i_glide_energy>
-34.8283

> <r_i_glide_erotb>
0.309929

> <r_i_glide_esite>
-0.161649

> <r_i_glide_evdw>
-30.7921

> <r_i_glide_gscore>
-4.23063

> <r_i_glide_hbond>
-0.2

> <r_i_glide_ligand_efficiency>
-0.114341

> <r_i_glide_ligand_efficiency_ln>
-0.917525

> <r_i_glide_ligand_efficiency_sa>
-0.381011

> <r_i_glide_lipo>
-1.71496

> <r_i_glide_metal>
0

> <r_i_glide_rewards>
-0.318922

> <s_i_glide_gridfile>
wee1_glide-grid

> <s_m_Source_File>
wee1_decoys_glide_SP.sdf

> <s_m_Source_Path>
/Users/zhangxujun/Desktop

> <s_m_entry_id>
5172

> <s_m_entry_name>
wee1_decoys_glide_SP.4897

> <s_m_subgroup_title>
wee1_decoys_glide_SP

> <s_m_subgroupid>
wee1_decoys_glide_SP


$$$$
