ZINC31057745_4840
                    3D
 Schrodinger Suite 2024-2.
 71 75  0  0  1  0            999 V2000
   -0.7505   51.6326   29.6953 C   0  0  0  0  0  0
    0.4665   52.5434   29.4858 C   0  0  2  0  0  0
    1.3612   52.0248   29.8331 H   0  0  0  0  0  0
    0.4004   53.8485   30.2898 C   0  0  0  0  0  0
    1.6594   54.6751   30.0064 C   0  0  0  0  0  0
    1.8813   54.8825   28.4895 C   0  0  0  0  0  0
    1.9049   53.6274   27.7052 N   0  0  0  0  0  0
    0.6749   52.8651   27.9915 C   0  0  0  0  0  0
    2.4194   53.6875   26.4053 C   0  0  0  0  0  0
    1.6669   53.2893   25.2952 C   0  0  0  0  0  0
    2.1726   53.4129   24.0048 C   0  0  0  0  0  0
    3.4535   53.9345   23.7807 C   0  0  0  0  0  0
    4.2152   54.3217   24.8901 C   0  0  0  0  0  0
    3.7044   54.1993   26.1818 C   0  0  0  0  0  0
    3.9988   54.0856   22.3409 C   0  0  1  0  0  0
    3.7518   55.1121   22.0722 H   0  0  0  0  0  0
    5.5397   53.9887   22.2098 C   0  0  0  0  0  0
    3.2624   53.2965   21.3387 N   0  0  0  0  0  0
    3.4447   52.0011   21.0040 C   0  0  0  0  0  0
    4.4467   51.3487   21.2949 O   0  0  0  0  0  0
    2.2872   51.3237   20.2451 C   0  0  2  0  0  0
    1.3859   51.8758   20.5159 H   0  0  0  0  0  0
    2.1613   49.8364   20.6929 C   0  0  0  0  0  0
    1.1606   49.0730   19.8106 C   0  0  0  0  0  0
    1.5099   49.1965   18.3204 C   0  0  0  0  0  0
    1.4584   50.6956   17.9512 N   0  3  1  0  0  0
    2.5281   51.5028   18.7272 C   0  0  0  0  0  0
    1.6200   50.8950   16.4206 C   0  0  0  0  0  0
    0.8048   52.1030   15.9843 C   0  0  0  0  0  0
    0.5322   53.1963   16.6511 N   0  0  0  0  0  0
   -0.3179   53.8072   15.8453 C   0  0  0  0  0  0
   -0.6015   53.1843   14.7192 N   0  0  0  0  0  0
    0.1577   52.0183   14.7948 O   0  0  0  0  0  0
   -0.9170   55.0958   16.2026 C   0  0  0  0  0  0
   -0.4453   56.0325   17.1211 C   0  0  0  0  0  0
   -1.2494   57.1726   17.2275 C   0  0  0  0  0  0
   -2.3581   57.1164   16.3986 C   0  0  0  0  0  0
   -2.4029   55.6510   15.4743 S   0  0  0  0  0  0
   -1.6733   52.0963   29.3492 H   0  0  0  0  0  0
   -0.8869   51.3553   30.7427 H   0  0  0  0  0  0
   -0.6317   50.7173   29.1213 H   0  0  0  0  0  0
   -0.4916   54.4111   30.0167 H   0  0  0  0  0  0
    0.2894   53.6394   31.3574 H   0  0  0  0  0  0
    1.5769   55.6453   30.4961 H   0  0  0  0  0  0
    2.5418   54.2019   30.4356 H   0  0  0  0  0  0
    1.1029   55.5331   28.0819 H   0  0  0  0  0  0
    2.8214   55.4232   28.3685 H   0  0  0  0  0  0
    0.7594   51.9069   27.4770 H   0  0  0  0  0  0
   -0.2080   53.3389   27.5665 H   0  0  0  0  0  0
    0.6678   52.8960   25.4122 H   0  0  0  0  0  0
    1.5417   53.1044   23.1837 H   0  0  0  0  0  0
    5.2060   54.7293   24.7728 H   0  0  0  0  0  0
    4.3196   54.5059   27.0147 H   0  0  0  0  0  0
    6.0450   54.8024   22.7298 H   0  0  0  0  0  0
    5.9162   53.0517   22.6201 H   0  0  0  0  0  0
    5.8596   54.0482   21.1694 H   0  0  0  0  0  0
    2.4446   53.7604   20.9602 H   0  0  0  0  0  0
    3.1043   49.3036   20.5568 H   0  0  0  0  0  0
    1.8195   49.7593   21.7257 H   0  0  0  0  0  0
    1.1445   48.0192   20.0923 H   0  0  0  0  0  0
    0.1484   49.4438   19.9835 H   0  0  0  0  0  0
    2.5067   48.8186   18.0818 H   0  0  0  0  0  0
    0.7592   48.6842   17.7173 H   0  0  0  0  0  0
    2.4108   52.5473   18.4307 H   0  0  0  0  0  0
    3.4931   51.1218   18.3948 H   0  0  0  0  0  0
    2.6893   50.9476   16.1972 H   0  0  0  0  0  0
    1.2372   49.9888   15.9469 H   0  0  0  0  0  0
    0.4679   55.8990   17.6817 H   0  0  0  0  0  0
   -1.0197   58.0102   17.8737 H   0  0  0  0  0  0
   -3.1339   57.8581   16.2714 H   0  0  0  0  0  0
    0.5393   51.0355   18.1964 H   0  0  0  0  0  0
  1  2  1  0  0  0
  1 39  1  0  0  0
  1 40  1  0  0  0
  1 41  1  0  0  0
  2  3  1  0  0  0
  2  8  1  0  0  0
  2  4  1  0  0  0
  4  5  1  0  0  0
  4 42  1  0  0  0
  4 43  1  0  0  0
  5  6  1  0  0  0
  5 44  1  0  0  0
  5 45  1  0  0  0
  6  7  1  0  0  0
  6 46  1  0  0  0
  6 47  1  0  0  0
  7  8  1  0  0  0
  7  9  1  0  0  0
  8 48  1  0  0  0
  8 49  1  0  0  0
  9 14  2  0  0  0
  9 10  1  0  0  0
 10 11  2  0  0  0
 10 50  1  0  0  0
 11 12  1  0  0  0
 11 51  1  0  0  0
 12 13  2  0  0  0
 12 15  1  0  0  0
 13 14  1  0  0  0
 13 52  1  0  0  0
 14 53  1  0  0  0
 15 16  1  0  0  0
 15 17  1  0  0  0
 15 18  1  0  0  0
 17 54  1  0  0  0
 17 55  1  0  0  0
 17 56  1  0  0  0
 18 19  1  0  0  0
 18 57  1  0  0  0
 19 20  2  0  0  0
 19 21  1  0  0  0
 21 22  1  0  0  0
 21 27  1  0  0  0
 21 23  1  0  0  0
 23 24  1  0  0  0
 23 58  1  0  0  0
 23 59  1  0  0  0
 24 25  1  0  0  0
 24 60  1  0  0  0
 24 61  1  0  0  0
 25 26  1  0  0  0
 25 62  1  0  0  0
 25 63  1  0  0  0
 26 27  1  0  0  0
 26 28  1  0  0  0
 26 71  1  0  0  0
 27 64  1  0  0  0
 27 65  1  0  0  0
 28 29  1  0  0  0
 28 66  1  0  0  0
 28 67  1  0  0  0
 29 33  1  0  0  0
 29 30  2  0  0  0
 30 31  1  0  0  0
 31 32  2  0  0  0
 31 34  1  0  0  0
 32 33  1  0  0  0
 34 38  1  0  0  0
 34 35  2  0  0  0
 35 36  1  0  0  0
 35 68  1  0  0  0
 36 37  2  0  0  0
 36 69  1  0  0  0
 37 38  1  0  0  0
 37 70  1  0  0  0
M  CHG  1  26   1
M  END
> <i_i_glide_confnum>
135

> <i_i_glide_lignum>
4841

> <i_i_glide_posenum>
291

> <i_i_glide_rotatable_bonds>
8

> <i_m_Source_File_Index>
2971

> <b_m_subgroup_collapsed>
0

> <r_i_docking_score>
-5.6343

> <r_i_glide_ecoul>
-5.31129

> <r_i_glide_eff_state_penalty>
0

> <r_i_glide_einternal>
8.64915

> <r_i_glide_emodel>
-56.9957

> <r_i_glide_energy>
-44.1247

> <r_i_glide_erotb>
0.666284

> <r_i_glide_esite>
-0.0712913

> <r_i_glide_evdw>
-38.8134

> <r_i_glide_gscore>
-5.6343

> <r_i_glide_hbond>
-0.32

> <r_i_glide_ligand_efficiency>
-0.16098

> <r_i_glide_ligand_efficiency_ln>
-1.23685

> <r_i_glide_ligand_efficiency_sa>
-0.526576

> <r_i_glide_lipo>
-2.90521

> <r_i_glide_metal>
0

> <r_i_glide_rewards>
-0.266714

> <s_i_glide_gridfile>
wee1_glide-grid

> <s_m_Source_File>
wee1_decoys_glide_SP.sdf

> <s_m_Source_Path>
/Users/zhangxujun/Desktop

> <s_m_entry_id>
3246

> <s_m_entry_name>
wee1_decoys_glide_SP.2971

> <s_m_subgroup_title>
wee1_decoys_glide_SP

> <s_m_subgroupid>
wee1_decoys_glide_SP


$$$$
