ZINC22856382_5493
                    3D
 Schrodinger Suite 2024-2.
 74 77  0  0  1  0            999 V2000
   -7.5286   44.0864   26.3209 C   0  0  0  0  0  0
   -6.2841   44.9508   26.2409 C   0  0  0  0  0  0
   -5.2033   44.7048   27.0882 C   0  0  0  0  0  0
   -4.0576   45.4937   27.0095 C   0  0  0  0  0  0
   -3.9577   46.5057   26.0560 C   0  0  0  0  0  0
   -5.0532   46.7768   25.2079 C   0  0  0  0  0  0
   -6.2064   45.9897   25.3114 C   0  0  0  0  0  0
   -5.0502   47.9391   24.2212 C   0  0  0  0  0  0
   -2.7501   47.2169   25.9940 N   0  0  0  0  0  0
   -1.9403   47.2394   24.9044 C   0  0  0  0  0  0
   -2.0967   46.4838   23.9372 O   0  0  0  0  0  0
   -0.8668   48.2840   24.8913 C   0  0  0  0  0  0
   -0.3228   48.6225   23.8370 O   0  0  0  0  0  0
   -0.5491   48.8364   26.0817 N   0  0  0  0  0  0
    0.3042   49.9880   26.3119 C   0  0  0  0  0  0
   -0.3808   51.0061   27.2740 C   0  0  2  0  0  0
   -0.5023   50.4967   28.2276 H   0  0  0  0  0  0
   -1.8079   51.4011   26.8639 C   0  0  0  0  0  0
   -2.1056   51.8705   25.5811 C   0  0  0  0  0  0
   -3.4164   52.1969   25.2404 C   0  0  0  0  0  0
   -4.4680   52.0345   26.1589 C   0  0  0  0  0  0
   -4.1559   51.5293   27.4303 C   0  0  0  0  0  0
   -2.8446   51.2292   27.7823 C   0  0  0  0  0  0
   -5.8086   52.3743   25.8251 N   0  0  0  0  0  0
   -6.9152   51.7954   26.5896 C   0  0  0  0  0  0
   -6.1336   52.8521   24.4819 C   0  0  0  0  0  0
    0.4320   52.1846   27.6160 N   0  0  0  0  0  0
    1.0500   52.8108   26.4495 C   0  0  0  0  0  0
    1.7621   54.0967   26.8614 C   0  0  0  0  0  0
    2.8310   53.8882   27.8427 N   0  0  0  0  0  0
    2.2546   53.1595   28.9935 C   0  0  0  0  0  0
    1.4960   51.8720   28.5832 C   0  0  0  0  0  0
    4.1836   54.0387   27.5392 C   0  0  0  0  0  0
    5.1768   53.5198   28.3833 C   0  0  0  0  0  0
    6.5200   53.6912   28.0817 C   0  0  0  0  0  0
    6.8759   54.3686   26.9278 C   0  0  0  0  0  0
    5.9273   54.8968   26.0738 C   0  0  0  0  0  0
    4.5892   54.7431   26.3895 C   0  0  0  0  0  0
   -7.2954   43.0893   26.6959 H   0  0  0  0  0  0
   -7.9702   43.9523   25.3330 H   0  0  0  0  0  0
   -8.2734   44.5446   26.9719 H   0  0  0  0  0  0
   -5.2366   43.8974   27.8051 H   0  0  0  0  0  0
   -3.2329   45.2972   27.6813 H   0  0  0  0  0  0
   -7.0505   46.1892   24.6668 H   0  0  0  0  0  0
   -4.5083   47.6743   23.3126 H   0  0  0  0  0  0
   -6.0625   48.2430   23.9512 H   0  0  0  0  0  0
   -4.5725   48.8159   24.6611 H   0  0  0  0  0  0
   -2.4987   47.7568   26.8158 H   0  0  0  0  0  0
   -0.9614   48.4963   26.9657 H   0  0  0  0  0  0
    1.2410   49.6353   26.7380 H   0  0  0  0  0  0
    0.5600   50.4594   25.3625 H   0  0  0  0  0  0
   -1.3283   51.9743   24.8397 H   0  0  0  0  0  0
   -3.5961   52.5611   24.2409 H   0  0  0  0  0  0
   -4.9182   51.3710   28.1763 H   0  0  0  0  0  0
   -2.6406   50.8361   28.7694 H   0  0  0  0  0  0
   -6.8765   50.7062   26.5372 H   0  0  0  0  0  0
   -6.8649   52.0788   27.6414 H   0  0  0  0  0  0
   -7.8868   52.1100   26.2063 H   0  0  0  0  0  0
   -5.4791   53.6724   24.1843 H   0  0  0  0  0  0
   -6.0082   52.0482   23.7547 H   0  0  0  0  0  0
   -7.1612   53.2117   24.4156 H   0  0  0  0  0  0
    1.7781   52.1534   25.9706 H   0  0  0  0  0  0
    0.2949   53.0721   25.7125 H   0  0  0  0  0  0
    1.0960   54.8450   27.2818 H   0  0  0  0  0  0
    2.1123   54.4966   25.9209 H   0  0  0  0  0  0
    1.5724   53.8409   29.5043 H   0  0  0  0  0  0
    2.9949   52.8976   29.7434 H   0  0  0  0  0  0
    1.0530   51.4408   29.4817 H   0  0  0  0  0  0
    2.2082   51.1548   28.1729 H   0  0  0  0  0  0
    4.9428   52.9749   29.2809 H   0  0  0  0  0  0
    7.2832   53.2967   28.7360 H   0  0  0  0  0  0
    7.9048   54.4967   26.6906 H   0  0  0  0  0  0
    6.2239   55.4354   25.1853 H   0  0  0  0  0  0
    3.8995   55.2164   25.7131 H   0  0  0  0  0  0
  1  2  1  0  0  0
  1 39  1  0  0  0
  1 40  1  0  0  0
  1 41  1  0  0  0
  2  7  2  0  0  0
  2  3  1  0  0  0
  3  4  2  0  0  0
  3 42  1  0  0  0
  4  5  1  0  0  0
  4 43  1  0  0  0
  5  6  2  0  0  0
  5  9  1  0  0  0
  6  7  1  0  0  0
  6  8  1  0  0  0
  7 44  1  0  0  0
  8 45  1  0  0  0
  8 46  1  0  0  0
  8 47  1  0  0  0
  9 10  1  0  0  0
  9 48  1  0  0  0
 10 11  2  0  0  0
 10 12  1  0  0  0
 12 13  2  0  0  0
 12 14  1  0  0  0
 14 15  1  0  0  0
 14 49  1  0  0  0
 15 16  1  0  0  0
 15 50  1  0  0  0
 15 51  1  0  0  0
 16 17  1  0  0  0
 16 18  1  0  0  0
 16 27  1  0  0  0
 18 23  2  0  0  0
 18 19  1  0  0  0
 19 20  2  0  0  0
 19 52  1  0  0  0
 20 21  1  0  0  0
 20 53  1  0  0  0
 21 22  2  0  0  0
 21 24  1  0  0  0
 22 23  1  0  0  0
 22 54  1  0  0  0
 23 55  1  0  0  0
 24 25  1  0  0  0
 24 26  1  0  0  0
 25 56  1  0  0  0
 25 57  1  0  0  0
 25 58  1  0  0  0
 26 59  1  0  0  0
 26 60  1  0  0  0
 26 61  1  0  0  0
 27 32  1  0  0  0
 27 28  1  0  0  0
 28 29  1  0  0  0
 28 62  1  0  0  0
 28 63  1  0  0  0
 29 30  1  0  0  0
 29 64  1  0  0  0
 29 65  1  0  0  0
 30 31  1  0  0  0
 30 33  1  0  0  0
 31 32  1  0  0  0
 31 66  1  0  0  0
 31 67  1  0  0  0
 32 68  1  0  0  0
 32 69  1  0  0  0
 33 38  2  0  0  0
 33 34  1  0  0  0
 34 35  2  0  0  0
 34 70  1  0  0  0
 35 36  1  0  0  0
 35 71  1  0  0  0
 36 37  2  0  0  0
 36 72  1  0  0  0
 37 38  1  0  0  0
 37 73  1  0  0  0
 38 74  1  0  0  0
M  END
> <i_i_glide_confnum>
133

> <i_i_glide_lignum>
5494

> <i_i_glide_posenum>
43

> <i_i_glide_rotatable_bonds>
10

> <i_m_Source_File_Index>
3641

> <b_m_subgroup_collapsed>
0

> <r_i_docking_score>
-5.85235

> <r_i_glide_ecoul>
-9.91681

> <r_i_glide_eff_state_penalty>
0

> <r_i_glide_einternal>
14.3288

> <r_i_glide_emodel>
-61.2757

> <r_i_glide_energy>
-48.2638

> <r_i_glide_erotb>
0.735952

> <r_i_glide_esite>
-0.33763

> <r_i_glide_evdw>
-38.3469

> <r_i_glide_gscore>
-5.85235

> <r_i_glide_hbond>
-0.292415

> <r_i_glide_ligand_efficiency>
-0.158172

> <r_i_glide_ligand_efficiency_ln>
-1.26924

> <r_i_glide_ligand_efficiency_sa>
-0.527063

> <r_i_glide_lipo>
-2.26868

> <r_i_glide_metal>
0

> <r_i_glide_rewards>
-0.284712

> <s_i_glide_gridfile>
wee1_glide-grid

> <s_m_Source_File>
wee1_decoys_glide_SP.sdf

> <s_m_Source_Path>
/Users/zhangxujun/Desktop

> <s_m_entry_id>
3916

> <s_m_entry_name>
wee1_decoys_glide_SP.3641

> <s_m_subgroup_title>
wee1_decoys_glide_SP

> <s_m_subgroupid>
wee1_decoys_glide_SP


$$$$
