ZINC01089453_2077
                    3D
 Schrodinger Suite 2024-2.
 55 59  0  0  1  0            999 V2000
   -0.6154   51.5628   28.2149 C   0  0  0  0  0  0
   -0.0525   50.6515   27.2782 O   0  0  0  0  0  0
   -0.1299   50.9258   25.9300 C   0  0  0  0  0  0
   -0.6108   52.1213   25.3921 C   0  0  0  0  0  0
   -0.5593   52.3472   24.0197 C   0  0  0  0  0  0
   -0.0273   51.3891   23.1423 C   0  0  0  0  0  0
    0.2970   50.1180   23.6695 C   0  0  0  0  0  0
    0.2961   49.9303   25.0573 C   0  0  0  0  0  0
    0.5826   48.8971   22.7999 C   0  0  0  0  0  0
   -0.9411   48.1290   22.1353 S   0  0  0  0  0  0
   -1.9065   47.4440   23.4476 C   0  0  0  0  0  0
   -3.2358   47.0917   23.1973 C   0  0  0  0  0  0
   -4.0067   46.5897   24.2492 C   0  0  0  0  0  0
   -3.4337   46.4541   25.5156 C   0  0  0  0  0  0
   -2.0976   46.8203   25.6818 C   0  0  0  0  0  0
   -1.3315   47.2935   24.6672 N   0  0  0  0  0  0
    0.1650   51.7907   21.6608 C   0  0  1  0  0  0
   -0.0950   52.8478   21.6053 H   0  0  0  0  0  0
    1.5960   51.6869   21.0715 C   0  0  0  0  0  0
    2.9232   52.1525   21.3653 C   0  0  0  0  0  0
    3.7923   51.6816   20.4816 N   0  0  0  0  0  0
    3.1044   50.9703   19.5977 N   0  0  0  0  0  0
    3.5560   50.5201   18.8029 H   0  0  0  0  0  0
    1.7873   50.9632   19.9038 C   0  0  0  0  0  0
    0.8653   50.3287   19.1170 O   0  0  0  0  0  0
   -0.4082   50.4388   19.5740 C   0  0  0  0  0  0
   -0.8127   51.0832   20.6986 C   0  0  0  0  0  0
   -2.1875   51.0198   21.0665 C   0  0  0  0  0  0
   -3.2971   50.8965   21.3603 N   0  0  0  0  0  0
   -1.2062   49.7618   18.6928 N   0  0  0  0  0  0
    3.4724   53.0437   22.4576 C   0  0  0  0  0  0
    4.8373   53.3901   22.4855 C   0  0  0  0  0  0
    5.3739   54.1114   23.5488 C   0  0  0  0  0  0
    4.5499   54.4956   24.6020 C   0  0  0  0  0  0
    3.1906   54.2003   24.5725 C   0  0  0  0  0  0
    2.6585   53.5076   23.4907 C   0  0  0  0  0  0
   -0.4952   51.1631   29.2219 H   0  0  0  0  0  0
   -0.1155   52.5321   28.1819 H   0  0  0  0  0  0
   -1.6844   51.7002   28.0433 H   0  0  0  0  0  0
   -0.9957   52.8973   26.0325 H   0  0  0  0  0  0
   -0.8865   53.3077   23.6513 H   0  0  0  0  0  0
    0.6006   48.9826   25.4794 H   0  0  0  0  0  0
    1.1046   48.1427   23.3849 H   0  0  0  0  0  0
    1.2524   49.1564   21.9824 H   0  0  0  0  0  0
   -3.6671   47.2254   22.2157 H   0  0  0  0  0  0
   -5.0435   46.3307   24.0899 H   0  0  0  0  0  0
   -4.0120   46.0974   26.3554 H   0  0  0  0  0  0
   -1.6246   46.7638   26.6539 H   0  0  0  0  0  0
   -2.1903   49.6277   18.8736 H   0  0  0  0  0  0
   -0.8484   49.4995   17.7858 H   0  0  0  0  0  0
    5.5040   53.0780   21.6963 H   0  0  0  0  0  0
    6.4273   54.3526   23.5655 H   0  0  0  0  0  0
    4.9643   55.0346   25.4409 H   0  0  0  0  0  0
    2.5478   54.4959   25.3871 H   0  0  0  0  0  0
    1.6086   53.3176   23.4769 H   0  0  0  0  0  0
  1  2  1  0  0  0
  1 37  1  0  0  0
  1 38  1  0  0  0
  1 39  1  0  0  0
  2  3  1  0  0  0
  3  8  2  0  0  0
  3  4  1  0  0  0
  4  5  2  0  0  0
  4 40  1  0  0  0
  5  6  1  0  0  0
  5 41  1  0  0  0
  6  7  2  0  0  0
  6 17  1  0  0  0
  7  8  1  0  0  0
  7  9  1  0  0  0
  8 42  1  0  0  0
  9 10  1  0  0  0
  9 43  1  0  0  0
  9 44  1  0  0  0
 10 11  1  0  0  0
 11 16  2  0  0  0
 11 12  1  0  0  0
 12 13  2  0  0  0
 12 45  1  0  0  0
 13 14  1  0  0  0
 13 46  1  0  0  0
 14 15  2  0  0  0
 14 47  1  0  0  0
 15 16  1  0  0  0
 15 48  1  0  0  0
 17 18  1  0  0  0
 17 27  1  0  0  0
 17 19  1  0  0  0
 19 24  2  0  0  0
 19 20  1  0  0  0
 20 21  2  0  0  0
 20 31  1  0  0  0
 21 22  1  0  0  0
 22 23  1  0  0  0
 22 24  1  0  0  0
 24 25  1  0  0  0
 25 26  1  0  0  0
 26 27  2  0  0  0
 26 30  1  0  0  0
 27 28  1  0  0  0
 28 29  3  0  0  0
 30 49  1  0  0  0
 30 50  1  0  0  0
 31 36  2  0  0  0
 31 32  1  0  0  0
 32 33  2  0  0  0
 32 51  1  0  0  0
 33 34  1  0  0  0
 33 52  1  0  0  0
 34 35  2  0  0  0
 34 53  1  0  0  0
 35 36  1  0  0  0
 35 54  1  0  0  0
 36 55  1  0  0  0
M  END
> <i_i_glide_confnum>
34

> <i_i_glide_lignum>
2078

> <i_i_glide_posenum>
204

> <i_i_glide_rotatable_bonds>
7

> <i_m_Source_File_Index>
4611

> <b_m_subgroup_collapsed>
0

> <r_i_docking_score>
-3.57006

> <r_i_glide_ecoul>
-4.09377

> <r_i_glide_eff_state_penalty>
0

> <r_i_glide_einternal>
7.93703

> <r_i_glide_emodel>
-42.0147

> <r_i_glide_energy>
-36.4691

> <r_i_glide_erotb>
0.461653

> <r_i_glide_esite>
-0.103119

> <r_i_glide_evdw>
-32.3753

> <r_i_glide_gscore>
-3.57006

> <r_i_glide_hbond>
-0.116845

> <r_i_glide_ligand_efficiency>
-0.105002

> <r_i_glide_ligand_efficiency_ln>
-0.788726

> <r_i_glide_ligand_efficiency_sa>
-0.340165

> <r_i_glide_lipo>
-1.35811

> <r_i_glide_metal>
0

> <r_i_glide_rewards>
-0.220809

> <s_i_glide_gridfile>
wee1_glide-grid

> <s_m_Source_File>
wee1_decoys_glide_SP.sdf

> <s_m_Source_Path>
/Users/zhangxujun/Desktop

> <s_m_entry_id>
4886

> <s_m_entry_name>
wee1_decoys_glide_SP.4611

> <s_m_subgroup_title>
wee1_decoys_glide_SP

> <s_m_subgroupid>
wee1_decoys_glide_SP


$$$$
