ZINC55166298_1607
                    3D
 Schrodinger Suite 2024-2.
 33 34  0  0  1  0            999 V2000
    6.6261   53.7042   28.1264 C   0  0  0  0  0  0
    5.3446   54.4457   27.6829 C   0  0  2  0  0  0
    5.5269   55.4976   27.8985 H   0  0  0  0  0  0
    4.1006   54.0430   28.4877 C   0  0  0  0  0  0
    3.1566   55.0068   28.8707 C   0  0  0  0  0  0
    2.0410   54.6587   29.6266 C   0  0  0  0  0  0
    1.8484   53.3278   30.0146 C   0  0  0  0  0  0
    2.7714   52.3589   29.6145 C   0  0  0  0  0  0
    3.8981   52.7157   28.8807 C   0  0  0  0  0  0
    0.6642   52.9206   30.8870 C   0  0  0  0  0  0
    0.0721   53.9791   31.4423 F   0  0  0  0  0  0
   -0.2274   52.2755   30.1371 F   0  0  0  0  0  0
    1.0895   52.1117   31.8591 F   0  0  0  0  0  0
    5.0973   54.3204   26.2443 N   0  0  0  0  0  0
    5.9078   54.7604   25.2609 C   0  0  0  0  0  0
    6.9749   55.3371   25.4819 O   0  0  0  0  0  0
    5.4487   54.4960   23.9024 C   0  0  0  0  0  0
    6.2317   54.7022   22.8344 N   0  0  0  0  0  0
    5.4474   54.4517   21.8190 C   0  0  0  0  0  0
    4.2206   54.0777   22.2707 N   0  0  0  0  0  0
    3.4162   53.8431   21.7063 H   0  0  0  0  0  0
    4.2140   54.0978   23.6020 N   0  0  0  0  0  0
    5.7472   54.5675   20.4955 N   0  0  0  0  0  0
    6.7913   53.8191   29.1969 H   0  0  0  0  0  0
    6.5942   52.6380   27.8980 H   0  0  0  0  0  0
    7.5116   54.1154   27.6425 H   0  0  0  0  0  0
    3.2703   56.0396   28.5863 H   0  0  0  0  0  0
    1.3396   55.4301   29.9152 H   0  0  0  0  0  0
    2.6154   51.3214   29.8710 H   0  0  0  0  0  0
    4.6009   51.9497   28.5928 H   0  0  0  0  0  0
    4.1678   54.0334   25.9797 H   0  0  0  0  0  0
    6.6617   54.8723   20.1920 H   0  0  0  0  0  0
    5.1095   54.2722   19.7706 H   0  0  0  0  0  0
  1  2  1  0  0  0
  1 24  1  0  0  0
  1 25  1  0  0  0
  1 26  1  0  0  0
  2  3  1  0  0  0
  2  4  1  0  0  0
  2 14  1  0  0  0
  4  9  2  0  0  0
  4  5  1  0  0  0
  5  6  2  0  0  0
  5 27  1  0  0  0
  6  7  1  0  0  0
  6 28  1  0  0  0
  7  8  2  0  0  0
  7 10  1  0  0  0
  8  9  1  0  0  0
  8 29  1  0  0  0
  9 30  1  0  0  0
 10 11  1  0  0  0
 10 12  1  0  0  0
 10 13  1  0  0  0
 14 15  1  0  0  0
 14 31  1  0  0  0
 15 16  2  0  0  0
 15 17  1  0  0  0
 17 22  2  0  0  0
 17 18  1  0  0  0
 18 19  2  0  0  0
 19 20  1  0  0  0
 19 23  1  0  0  0
 20 21  1  0  0  0
 20 22  1  0  0  0
 23 32  1  0  0  0
 23 33  1  0  0  0
M  END
> <i_i_glide_confnum>
43

> <i_i_glide_lignum>
1608

> <i_i_glide_posenum>
185

> <i_i_glide_rotatable_bonds>
5

> <i_m_Source_File_Index>
1948

> <b_m_subgroup_collapsed>
0

> <r_i_docking_score>
-6.20723

> <r_i_glide_ecoul>
-3.27762

> <r_i_glide_eff_state_penalty>
0

> <r_i_glide_einternal>
5.12774

> <r_i_glide_emodel>
-56.0541

> <r_i_glide_energy>
-41.1484

> <r_i_glide_erotb>
0.820243

> <r_i_glide_esite>
-0.166478

> <r_i_glide_evdw>
-37.8708

> <r_i_glide_gscore>
-6.20723

> <r_i_glide_hbond>
-0.32

> <r_i_glide_ligand_efficiency>
-0.295582

> <r_i_glide_ligand_efficiency_ln>
-1.53472

> <r_i_glide_ligand_efficiency_sa>
-0.815489

> <r_i_glide_lipo>
-1.75807

> <r_i_glide_metal>
0

> <r_i_glide_rewards>
-2.39774

> <s_i_glide_gridfile>
wee1_glide-grid

> <s_m_Source_File>
wee1_decoys_glide_SP.sdf

> <s_m_Source_Path>
/Users/zhangxujun/Desktop

> <s_m_entry_id>
2223

> <s_m_entry_name>
wee1_decoys_glide_SP.1948

> <s_m_subgroup_title>
wee1_decoys_glide_SP

> <s_m_subgroupid>
wee1_decoys_glide_SP


$$$$
