ZINC53546460_4595
                    3D
 Schrodinger Suite 2024-2.
 53 54  0  0  1  0            999 V2000
    3.6040   54.0964   28.0550 C   0  0  0  0  0  0
    4.0096   54.0992   26.5932 C   0  0  0  0  0  0
    5.2906   54.4970   26.2148 C   0  0  0  0  0  0
    5.6527   54.4989   24.8703 C   0  0  0  0  0  0
    4.7425   54.0992   23.8792 C   0  0  0  0  0  0
    3.4465   53.6968   24.2585 C   0  0  0  0  0  0
    3.0958   53.7011   25.6174 C   0  0  0  0  0  0
    2.5652   53.3016   23.2650 O   0  0  0  0  0  0
    1.7277   52.1487   23.4624 C   0  0  2  0  0  0
    2.2390   51.3937   24.0632 H   0  0  0  0  0  0
    1.4779   51.5594   22.0596 C   0  0  0  0  0  0
    0.3829   52.5304   24.1159 C   0  0  0  0  0  0
   -0.0014   53.6966   24.0817 O   0  0  0  0  0  0
   -0.2909   51.5302   24.7249 N   0  0  0  0  0  0
   -1.4731   51.6396   25.4837 C   0  0  0  0  0  0
   -1.4376   50.9880   26.7186 C   0  0  0  0  0  0
   -2.5376   51.0138   27.5661 C   0  0  0  0  0  0
   -3.6862   51.6963   27.1945 C   0  0  0  0  0  0
   -3.7586   52.3524   25.9619 C   0  0  0  0  0  0
   -2.6605   52.2976   25.0714 C   0  0  0  0  0  0
   -2.7954   52.8700   23.6624 C   0  0  0  0  0  0
   -5.2736   53.2673   25.6060 S   0  0  0  0  0  0
   -6.0621   53.3296   26.8413 O   0  0  0  0  0  0
   -4.8990   54.4967   24.9016 O   0  0  0  0  0  0
   -6.1675   52.2639   24.4920 N   0  0  0  0  0  0
    5.1493   54.0654   22.3947 C   0  0  0  0  0  0
    6.4011   54.8970   22.0336 C   0  0  0  0  0  0
    5.3158   52.6154   21.9019 C   0  0  0  0  0  0
    2.7691   54.7799   28.2131 H   0  0  0  0  0  0
    3.2716   53.0995   28.3480 H   0  0  0  0  0  0
    4.4239   54.3899   28.7121 H   0  0  0  0  0  0
    6.0089   54.8035   26.9615 H   0  0  0  0  0  0
    6.6565   54.8023   24.6154 H   0  0  0  0  0  0
    2.1075   53.4080   25.9321 H   0  0  0  0  0  0
    0.8184   50.6912   22.0933 H   0  0  0  0  0  0
    1.0276   52.2961   21.3918 H   0  0  0  0  0  0
    2.4058   51.2297   21.5949 H   0  0  0  0  0  0
    0.1852   50.6440   24.8032 H   0  0  0  0  0  0
   -0.5578   50.4464   27.0396 H   0  0  0  0  0  0
   -2.4959   50.4968   28.5152 H   0  0  0  0  0  0
   -4.5202   51.7073   27.8809 H   0  0  0  0  0  0
   -2.5881   53.9404   23.6560 H   0  0  0  0  0  0
   -2.1441   52.3688   22.9481 H   0  0  0  0  0  0
   -3.7989   52.7111   23.2820 H   0  0  0  0  0  0
   -5.7796   52.2183   23.5481 H   0  0  0  0  0  0
   -6.4514   51.3608   24.8770 H   0  0  0  0  0  0
    4.3217   54.5158   21.8416 H   0  0  0  0  0  0
    6.3057   55.9307   22.3642 H   0  0  0  0  0  0
    7.3102   54.4880   22.4770 H   0  0  0  0  0  0
    6.5538   54.9205   20.9541 H   0  0  0  0  0  0
    4.4254   52.0203   22.0812 H   0  0  0  0  0  0
    5.5043   52.5761   20.8284 H   0  0  0  0  0  0
    6.1360   52.1163   22.4168 H   0  0  0  0  0  0
  1  2  1  0  0  0
  1 29  1  0  0  0
  1 30  1  0  0  0
  1 31  1  0  0  0
  2  7  2  0  0  0
  2  3  1  0  0  0
  3  4  2  0  0  0
  3 32  1  0  0  0
  4  5  1  0  0  0
  4 33  1  0  0  0
  5  6  2  0  0  0
  5 26  1  0  0  0
  6  7  1  0  0  0
  6  8  1  0  0  0
  7 34  1  0  0  0
  8  9  1  0  0  0
  9 10  1  0  0  0
  9 11  1  0  0  0
  9 12  1  0  0  0
 11 35  1  0  0  0
 11 36  1  0  0  0
 11 37  1  0  0  0
 12 13  2  0  0  0
 12 14  1  0  0  0
 14 15  1  0  0  0
 14 38  1  0  0  0
 15 20  2  0  0  0
 15 16  1  0  0  0
 16 17  2  0  0  0
 16 39  1  0  0  0
 17 18  1  0  0  0
 17 40  1  0  0  0
 18 19  2  0  0  0
 18 41  1  0  0  0
 19 20  1  0  0  0
 19 22  1  0  0  0
 20 21  1  0  0  0
 21 42  1  0  0  0
 21 43  1  0  0  0
 21 44  1  0  0  0
 22 23  2  0  0  0
 22 24  2  0  0  0
 22 25  1  0  0  0
 25 45  1  0  0  0
 25 46  1  0  0  0
 26 27  1  0  0  0
 26 28  1  0  0  0
 26 47  1  0  0  0
 27 48  1  0  0  0
 27 49  1  0  0  0
 27 50  1  0  0  0
 28 51  1  0  0  0
 28 52  1  0  0  0
 28 53  1  0  0  0
M  END
> <i_i_glide_confnum>
9

> <i_i_glide_lignum>
4596

> <i_i_glide_posenum>
385

> <i_i_glide_rotatable_bonds>
7

> <i_m_Source_File_Index>
4890

> <b_m_subgroup_collapsed>
0

> <r_i_docking_score>
-5.31839

> <r_i_glide_ecoul>
-3.26117

> <r_i_glide_eff_state_penalty>
0

> <r_i_glide_einternal>
5.61697

> <r_i_glide_emodel>
-49.8145

> <r_i_glide_energy>
-37.5886

> <r_i_glide_erotb>
0.63956

> <r_i_glide_esite>
-0.013084

> <r_i_glide_evdw>
-34.3275

> <r_i_glide_gscore>
-5.31839

> <r_i_glide_hbond>
-0.0140329

> <r_i_glide_ligand_efficiency>
-0.196977

> <r_i_glide_ligand_efficiency_ln>
-1.23803

> <r_i_glide_ligand_efficiency_sa>
-0.590932

> <r_i_glide_lipo>
-2.70891

> <r_i_glide_metal>
0

> <r_i_glide_rewards>
-1.01638

> <s_i_glide_gridfile>
wee1_glide-grid

> <s_m_Source_File>
wee1_decoys_glide_SP.sdf

> <s_m_Source_Path>
/Users/zhangxujun/Desktop

> <s_m_entry_id>
5165

> <s_m_entry_name>
wee1_decoys_glide_SP.4890

> <s_m_subgroup_title>
wee1_decoys_glide_SP

> <s_m_subgroupid>
wee1_decoys_glide_SP


$$$$
