ZINC35351268_4191
                    3D
 Schrodinger Suite 2024-2.
 58 62  0  0  1  0            999 V2000
   -2.8505   51.2940   27.6906 C   0  0  0  0  0  0
   -2.3173   51.8690   26.5430 C   0  0  0  0  0  0
   -1.0583   52.4569   26.5937 C   0  0  0  0  0  0
   -0.3186   52.4742   27.7876 C   0  0  0  0  0  0
   -0.8688   51.8804   28.9312 C   0  0  0  0  0  0
   -2.1297   51.2966   28.8815 C   0  0  0  0  0  0
    1.0576   53.1567   27.8619 C   0  0  2  0  0  0
    0.8325   54.1972   28.1055 H   0  0  0  0  0  0
    1.8407   53.1244   26.5218 C   0  0  0  0  0  0
    3.2531   53.6564   26.6942 C   0  0  0  0  0  0
    3.9835   54.0967   25.5901 C   0  0  0  0  0  0
    5.3221   54.4930   25.7064 C   0  0  0  0  0  0
    5.9059   54.4962   26.9807 C   0  0  0  0  0  0
    5.1784   54.0902   28.0972 C   0  0  0  0  0  0
    3.8525   53.6592   27.9648 C   0  0  0  0  0  0
    3.0787   53.1850   29.1513 C   0  0  0  0  0  0
    3.5050   53.1437   30.3059 O   0  0  0  0  0  0
    1.8593   52.6264   28.9331 O   0  0  0  0  0  0
    6.1217   54.9295   24.5006 C   0  0  0  0  0  0
    7.1022   55.6528   24.6697 O   0  0  0  0  0  0
    5.6632   54.4967   23.2976 N   0  0  0  0  0  0
    6.0731   54.8518   21.9932 C   0  0  0  0  0  0
    7.2665   55.5296   21.7018 C   0  0  0  0  0  0
    7.6307   55.8057   20.3854 C   0  0  0  0  0  0
    6.7834   55.4510   19.3418 C   0  0  0  0  0  0
    5.5718   54.8110   19.6109 C   0  0  0  0  0  0
    5.2270   54.4967   20.9326 C   0  0  0  0  0  0
    4.4764   54.4338   18.2411 S   0  0  0  0  0  0
    3.5044   53.4856   18.7948 O   0  0  0  0  0  0
    5.3831   53.8779   17.2285 O   0  0  0  0  0  0
    3.9045   56.0920   18.0101 N   0  0  0  0  0  0
    4.1740   56.6948   16.9248 C   0  0  0  0  0  0
    4.9030   56.2514   15.8358 N   0  0  0  0  0  0
    4.6256   56.9773   14.6136 C   0  0  0  0  0  0
    4.4254   58.3610   15.2035 C   0  0  0  0  0  0
    3.7255   58.0977   16.5377 C   0  0  0  0  0  0
   -3.8184   50.8178   27.6559 H   0  0  0  0  0  0
   -2.8763   51.8528   25.6190 H   0  0  0  0  0  0
   -0.6779   52.8965   25.6869 H   0  0  0  0  0  0
   -0.3322   51.8676   29.8692 H   0  0  0  0  0  0
   -2.5328   50.8171   29.7628 H   0  0  0  0  0  0
    1.3308   53.6970   25.7481 H   0  0  0  0  0  0
    1.9038   52.0968   26.1662 H   0  0  0  0  0  0
    3.4884   54.0925   24.6302 H   0  0  0  0  0  0
    6.9311   54.8080   27.1207 H   0  0  0  0  0  0
    5.6645   54.1053   29.0629 H   0  0  0  0  0  0
    4.8592   53.8919   23.3331 H   0  0  0  0  0  0
    7.9311   55.8439   22.4818 H   0  0  0  0  0  0
    8.5673   56.3022   20.1758 H   0  0  0  0  0  0
    7.0612   55.6850   18.3243 H   0  0  0  0  0  0
    4.2912   53.9908   21.1273 H   0  0  0  0  0  0
    3.7085   56.5799   14.1726 H   0  0  0  0  0  0
    5.4569   56.9095   13.9095 H   0  0  0  0  0  0
    5.3889   58.8481   15.3742 H   0  0  0  0  0  0
    3.8643   59.0155   14.5370 H   0  0  0  0  0  0
    4.0166   58.8403   17.2817 H   0  0  0  0  0  0
    2.6414   58.1280   16.4268 H   0  0  0  0  0  0
    5.2512   55.3112   15.6855 H   0  0  0  0  0  0
  1  6  2  0  0  0
  1  2  1  0  0  0
  1 37  1  0  0  0
  2  3  2  0  0  0
  2 38  1  0  0  0
  3  4  1  0  0  0
  3 39  1  0  0  0
  4  5  2  0  0  0
  4  7  1  0  0  0
  5  6  1  0  0  0
  5 40  1  0  0  0
  6 41  1  0  0  0
  7  8  1  0  0  0
  7 18  1  0  0  0
  7  9  1  0  0  0
  9 10  1  0  0  0
  9 42  1  0  0  0
  9 43  1  0  0  0
 10 15  2  0  0  0
 10 11  1  0  0  0
 11 12  2  0  0  0
 11 44  1  0  0  0
 12 13  1  0  0  0
 12 19  1  0  0  0
 13 14  2  0  0  0
 13 45  1  0  0  0
 14 15  1  0  0  0
 14 46  1  0  0  0
 15 16  1  0  0  0
 16 17  2  0  0  0
 16 18  1  0  0  0
 19 20  2  0  0  0
 19 21  1  0  0  0
 21 22  1  0  0  0
 21 47  1  0  0  0
 22 27  2  0  0  0
 22 23  1  0  0  0
 23 24  2  0  0  0
 23 48  1  0  0  0
 24 25  1  0  0  0
 24 49  1  0  0  0
 25 26  2  0  0  0
 25 50  1  0  0  0
 26 27  1  0  0  0
 26 28  1  0  0  0
 27 51  1  0  0  0
 28 29  2  0  0  0
 28 30  2  0  0  0
 28 31  1  0  0  0
 31 32  2  0  0  0
 32 36  1  0  0  0
 32 33  1  0  0  0
 33 34  1  0  0  0
 33 58  1  0  0  0
 34 35  1  0  0  0
 34 52  1  0  0  0
 34 53  1  0  0  0
 35 36  1  0  0  0
 35 54  1  0  0  0
 35 55  1  0  0  0
 36 56  1  0  0  0
 36 57  1  0  0  0
M  END
> <i_i_glide_confnum>
84

> <i_i_glide_lignum>
4192

> <i_i_glide_posenum>
391

> <i_i_glide_rotatable_bonds>
6

> <i_m_Source_File_Index>
4508

> <b_m_subgroup_collapsed>
0

> <r_i_docking_score>
-6.43932

> <r_i_glide_ecoul>
-2.97731

> <r_i_glide_eff_state_penalty>
0

> <r_i_glide_einternal>
9.81949

> <r_i_glide_emodel>
-67.8842

> <r_i_glide_energy>
-51.4208

> <r_i_glide_erotb>
0.509342

> <r_i_glide_esite>
-0.0493377

> <r_i_glide_evdw>
-48.4435

> <r_i_glide_gscore>
-6.43932

> <r_i_glide_hbond>
-0.519842

> <r_i_glide_ligand_efficiency>
-0.183981

> <r_i_glide_ligand_efficiency_ln>
-1.41357

> <r_i_glide_ligand_efficiency_sa>
-0.601813

> <r_i_glide_lipo>
-2.68564

> <r_i_glide_metal>
0

> <r_i_glide_rewards>
-0.825071

> <s_i_glide_gridfile>
wee1_glide-grid

> <s_m_Source_File>
wee1_decoys_glide_SP.sdf

> <s_m_Source_Path>
/Users/zhangxujun/Desktop

> <s_m_entry_id>
4783

> <s_m_entry_name>
wee1_decoys_glide_SP.4508

> <s_m_subgroup_title>
wee1_decoys_glide_SP

> <s_m_subgroupid>
wee1_decoys_glide_SP


$$$$
