ZINC20745141_1232
                    3D
 Schrodinger Suite 2024-2.
 51 53  0  0  1  0            999 V2000
    1.6507   56.2055   29.5644 C   0  0  0  0  0  0
    2.3988   55.5080   28.5776 O   0  0  0  0  0  0
    3.2716   54.5268   28.9278 C   0  0  0  0  0  0
    3.5014   54.1691   30.0816 O   0  0  0  0  0  0
    4.0161   53.9039   27.7536 C   0  0  2  0  0  0
    4.2954   52.8840   28.0254 H   0  0  0  0  0  0
    5.3225   54.6753   27.4355 C   0  0  0  0  0  0
    6.1718   54.0426   26.3164 C   0  0  0  0  0  0
    6.3041   55.0818   24.8390 S   0  0  0  0  0  0
    7.0306   53.9176   23.6531 C   0  0  0  0  0  0
    3.1463   53.8185   26.5638 N   0  0  0  0  0  0
    2.1164   52.9583   26.4231 C   0  0  0  0  0  0
    1.7460   52.2498   27.3610 O   0  0  0  0  0  0
    1.5615   52.8977   25.1820 N   0  0  0  0  0  0
    1.8209   53.8987   24.1093 C   0  0  0  0  0  0
    2.7043   53.2441   23.0085 C   0  0  0  0  0  0
    2.0992   51.8959   22.6331 C   0  0  0  0  0  0
    1.1821   51.2562   23.4635 C   0  0  0  0  0  0
    0.8915   50.0820   22.8258 N   0  0  0  0  0  0
    0.2687   49.3545   23.1510 H   0  0  0  0  0  0
    1.6266   50.1039   21.6682 C   0  0  0  0  0  0
    2.3524   51.1933   21.5404 N   0  0  0  0  0  0
    0.6626   51.7687   24.8086 C   0  0  2  0  0  0
    0.7719   50.9734   25.5500 H   0  0  0  0  0  0
   -0.8296   52.1222   24.8517 C   0  0  0  0  0  0
   -1.5037   52.4995   23.6820 C   0  0  0  0  0  0
   -2.8357   52.8972   23.7329 C   0  0  0  0  0  0
   -3.5260   52.8943   24.9400 C   0  0  0  0  0  0
   -2.8836   52.4757   26.1017 C   0  0  0  0  0  0
   -1.5400   52.0974   26.0640 C   0  0  0  0  0  0
   -0.9451   51.7027   27.2110 F   0  0  0  0  0  0
   -5.3366   53.4810   25.0048 Br  0  0  0  0  0  0
    1.0848   55.5186   30.1980 H   0  0  0  0  0  0
    2.3039   56.8053   30.2017 H   0  0  0  0  0  0
    0.9460   56.8857   29.0852 H   0  0  0  0  0  0
    5.0879   55.6964   27.1450 H   0  0  0  0  0  0
    5.9328   54.7683   28.3376 H   0  0  0  0  0  0
    7.1778   53.8412   26.6870 H   0  0  0  0  0  0
    5.7556   53.0789   26.0342 H   0  0  0  0  0  0
    7.3502   54.4572   22.7582 H   0  0  0  0  0  0
    7.9016   53.4205   24.0798 H   0  0  0  0  0  0
    6.3008   53.1664   23.3507 H   0  0  0  0  0  0
    3.4779   54.3121   25.7474 H   0  0  0  0  0  0
    0.8469   54.1637   23.6909 H   0  0  0  0  0  0
    2.1898   54.8557   24.4797 H   0  0  0  0  0  0
    2.7639   53.9012   22.1388 H   0  0  0  0  0  0
    3.7249   53.1336   23.3702 H   0  0  0  0  0  0
    1.5681   49.2810   20.9704 H   0  0  0  0  0  0
   -0.9855   52.5280   22.7340 H   0  0  0  0  0  0
   -3.3224   53.2279   22.8348 H   0  0  0  0  0  0
   -3.4143   52.4549   27.0412 H   0  0  0  0  0  0
  1  2  1  0  0  0
  1 33  1  0  0  0
  1 34  1  0  0  0
  1 35  1  0  0  0
  2  3  1  0  0  0
  3  4  2  0  0  0
  3  5  1  0  0  0
  5  6  1  0  0  0
  5  7  1  0  0  0
  5 11  1  0  0  0
  7  8  1  0  0  0
  7 36  1  0  0  0
  7 37  1  0  0  0
  8  9  1  0  0  0
  8 38  1  0  0  0
  8 39  1  0  0  0
  9 10  1  0  0  0
 10 40  1  0  0  0
 10 41  1  0  0  0
 10 42  1  0  0  0
 11 12  1  0  0  0
 11 43  1  0  0  0
 12 13  2  0  0  0
 12 14  1  0  0  0
 14 23  1  0  0  0
 14 15  1  0  0  0
 15 16  1  0  0  0
 15 44  1  0  0  0
 15 45  1  0  0  0
 16 17  1  0  0  0
 16 46  1  0  0  0
 16 47  1  0  0  0
 17 22  1  0  0  0
 17 18  2  0  0  0
 18 19  1  0  0  0
 18 23  1  0  0  0
 19 20  1  0  0  0
 19 21  1  0  0  0
 21 22  2  0  0  0
 21 48  1  0  0  0
 23 24  1  0  0  0
 23 25  1  0  0  0
 25 30  2  0  0  0
 25 26  1  0  0  0
 26 27  2  0  0  0
 26 49  1  0  0  0
 27 28  1  0  0  0
 27 50  1  0  0  0
 28 29  2  0  0  0
 28 32  1  0  0  0
 29 30  1  0  0  0
 29 51  1  0  0  0
 30 31  1  0  0  0
M  END
> <i_i_glide_confnum>
53

> <i_i_glide_lignum>
1233

> <i_i_glide_posenum>
361

> <i_i_glide_rotatable_bonds>
9

> <i_m_Source_File_Index>
5577

> <b_m_subgroup_collapsed>
0

> <r_i_docking_score>
-6.34434

> <r_i_glide_ecoul>
-3.3513

> <r_i_glide_eff_state_penalty>
0

> <r_i_glide_einternal>
9.223

> <r_i_glide_emodel>
-60.6384

> <r_i_glide_energy>
-47.3164

> <r_i_glide_erotb>
0.603613

> <r_i_glide_esite>
-0.0475158

> <r_i_glide_evdw>
-43.9651

> <r_i_glide_gscore>
-6.34434

> <r_i_glide_hbond>
-0.32

> <r_i_glide_ligand_efficiency>
-0.21877

> <r_i_glide_ligand_efficiency_ln>
-1.45269

> <r_i_glide_ligand_efficiency_sa>
-0.672132

> <r_i_glide_lipo>
-2.78198

> <r_i_glide_metal>
0

> <r_i_glide_rewards>
-1.09751

> <s_i_glide_gridfile>
wee1_glide-grid

> <s_m_Source_File>
wee1_decoys_glide_SP.sdf

> <s_m_Source_Path>
/Users/zhangxujun/Desktop

> <s_m_entry_id>
5852

> <s_m_entry_name>
wee1_decoys_glide_SP.5577

> <s_m_subgroup_title>
wee1_decoys_glide_SP

> <s_m_subgroupid>
wee1_decoys_glide_SP


$$$$
