ZINC09335516_1981
                    3D
 Schrodinger Suite 2024-2.
 44 46  0  0  1  0            999 V2000
    6.1613   54.8963   26.8560 C   0  0  0  0  0  0
    5.7922   54.8914   25.5175 C   0  0  0  0  0  0
    4.5593   54.3662   25.1418 C   0  0  0  0  0  0
    3.6724   53.8316   26.0883 C   0  0  0  0  0  0
    4.0429   53.8427   27.4662 C   0  0  0  0  0  0
    5.2947   54.3851   27.8151 C   0  0  0  0  0  0
    3.1669   53.3042   28.5768 C   0  0  0  0  0  0
    3.4822   53.5706   29.7638 O   0  0  0  0  0  0
    2.4483   53.2689   25.6667 N   0  0  0  0  0  0
    1.6118   53.5313   24.1127 S   0  0  0  0  0  0
    0.2284   53.0924   24.3246 O   0  0  0  0  0  0
    1.9022   54.8967   23.6821 O   0  0  0  0  0  0
    2.3047   52.4417   22.8703 C   0  0  0  0  0  0
    1.8350   51.1327   22.7475 C   0  0  0  0  0  0
    2.3037   50.3223   21.7144 C   0  0  0  0  0  0
    3.2544   50.8095   20.8158 C   0  0  0  0  0  0
    3.7741   52.0979   20.9561 C   0  0  0  0  0  0
    3.2754   52.9183   21.9772 C   0  0  0  0  0  0
    4.7999   52.4960   20.0827 N   0  0  0  0  0  0
    5.1216   54.1865   19.6483 S   0  0  0  0  0  0
    3.9960   54.6382   18.8253 O   0  0  0  0  0  0
    5.5023   54.8973   20.8759 O   0  0  0  0  0  0
    6.5583   54.1297   18.5855 C   0  0  0  0  0  0
    6.5479   53.2968   17.4653 C   0  0  0  0  0  0
    7.6781   53.2152   16.6566 C   0  0  0  0  0  0
    8.8075   53.9694   16.9661 C   0  0  0  0  0  0
    8.8165   54.8108   18.0767 C   0  0  0  0  0  0
    7.6874   54.8964   18.8878 C   0  0  0  0  0  0
    9.9069   53.8843   16.1835 F   0  0  0  0  0  0
    7.1108   55.3025   27.1645 H   0  0  0  0  0  0
    6.4592   55.2914   24.7674 H   0  0  0  0  0  0
    4.3153   54.3724   24.0937 H   0  0  0  0  0  0
    5.6185   54.4149   28.8476 H   0  0  0  0  0  0
    1.9456   52.7597   26.3884 H   0  0  0  0  0  0
    1.0875   50.7551   23.4318 H   0  0  0  0  0  0
    1.9289   49.3154   21.6063 H   0  0  0  0  0  0
    3.5985   50.1693   20.0155 H   0  0  0  0  0  0
    3.6237   53.9344   22.0700 H   0  0  0  0  0  0
    5.0660   51.8185   19.3738 H   0  0  0  0  0  0
    5.6774   52.6976   17.2352 H   0  0  0  0  0  0
    7.6821   52.5636   15.7959 H   0  0  0  0  0  0
    9.7005   55.3848   18.3131 H   0  0  0  0  0  0
    7.7017   55.5426   19.7544 H   0  0  0  0  0  0
    2.1649   52.6173   28.2706 O   0  5  0  0  0  0
  1  6  2  0  0  0
  1  2  1  0  0  0
  1 30  1  0  0  0
  2  3  2  0  0  0
  2 31  1  0  0  0
  3  4  1  0  0  0
  3 32  1  0  0  0
  4  5  2  0  0  0
  4  9  1  0  0  0
  5  6  1  0  0  0
  5  7  1  0  0  0
  6 33  1  0  0  0
  7  8  2  0  0  0
  7 44  1  0  0  0
  9 10  1  0  0  0
  9 34  1  0  0  0
 10 11  2  0  0  0
 10 12  2  0  0  0
 10 13  1  0  0  0
 13 18  2  0  0  0
 13 14  1  0  0  0
 14 15  2  0  0  0
 14 35  1  0  0  0
 15 16  1  0  0  0
 15 36  1  0  0  0
 16 17  2  0  0  0
 16 37  1  0  0  0
 17 18  1  0  0  0
 17 19  1  0  0  0
 18 38  1  0  0  0
 19 20  1  0  0  0
 19 39  1  0  0  0
 20 21  2  0  0  0
 20 22  2  0  0  0
 20 23  1  0  0  0
 23 28  2  0  0  0
 23 24  1  0  0  0
 24 25  2  0  0  0
 24 40  1  0  0  0
 25 26  1  0  0  0
 25 41  1  0  0  0
 26 27  2  0  0  0
 26 29  1  0  0  0
 27 28  1  0  0  0
 27 42  1  0  0  0
 28 43  1  0  0  0
M  CHG  1  44  -1
M  END
> <i_i_glide_confnum>
27

> <i_i_glide_lignum>
1982

> <i_i_glide_posenum>
89

> <i_i_glide_rotatable_bonds>
7

> <i_m_Source_File_Index>
4658

> <b_m_subgroup_collapsed>
0

> <r_i_docking_score>
-2.54301

> <r_i_glide_ecoul>
-6.08562

> <r_i_glide_eff_state_penalty>
0

> <r_i_glide_einternal>
7.37929

> <r_i_glide_emodel>
-42.3843

> <r_i_glide_energy>
-47.057

> <r_i_glide_erotb>
0.59525

> <r_i_glide_esite>
-0.0853749

> <r_i_glide_evdw>
-40.9713

> <r_i_glide_gscore>
-2.54301

> <r_i_glide_hbond>
-0.222719

> <r_i_glide_ligand_efficiency>
-0.084767

> <r_i_glide_ligand_efficiency_ln>
-0.5778

> <r_i_glide_ligand_efficiency_sa>
-0.263391

> <r_i_glide_lipo>
-2.42524

> <r_i_glide_metal>
0

> <r_i_glide_rewards>
2.55648

> <s_i_glide_gridfile>
wee1_glide-grid

> <s_m_Source_File>
wee1_decoys_glide_SP.sdf

> <s_m_Source_Path>
/Users/zhangxujun/Desktop

> <s_m_entry_id>
4933

> <s_m_entry_name>
wee1_decoys_glide_SP.4658

> <s_m_subgroup_title>
wee1_decoys_glide_SP

> <s_m_subgroupid>
wee1_decoys_glide_SP


$$$$
