ZINC59102288_3845
                    3D
 Schrodinger Suite 2024-2.
 45 48  0  0  1  0            999 V2000
    6.4826   54.5956   26.9806 C   0  0  0  0  0  0
    5.9795   53.5196   27.6984 C   0  0  0  0  0  0
    4.6644   53.1135   27.4939 C   0  0  0  0  0  0
    3.8180   53.7846   26.5973 C   0  0  0  0  0  0
    4.3427   54.8997   25.9335 C   0  0  0  0  0  0
    5.6737   55.2822   26.0822 C   0  0  0  0  0  0
    2.4773   53.3379   26.3417 N   0  0  0  0  0  0
    1.6295   53.0142   27.4302 C   0  0  0  0  0  0
    0.4245   52.3821   27.2314 C   0  0  0  0  0  0
   -0.1119   52.0466   25.8112 C   0  0  1  0  0  0
   -1.0031   52.6643   25.6787 H   0  0  0  0  0  0
    0.8513   52.5321   24.7336 C   0  0  0  0  0  0
    2.0385   53.1085   25.0144 C   0  0  0  0  0  0
    2.8912   53.4350   23.9802 N   0  0  0  0  0  0
    0.4541   52.3024   23.3759 C   0  0  0  0  0  0
    0.1215   52.0973   22.2868 N   0  0  0  0  0  0
   -0.6401   50.6209   25.5498 C   0  0  0  0  0  0
    0.2432   49.5940   25.1938 C   0  0  0  0  0  0
   -0.2379   48.3282   24.8820 C   0  0  0  0  0  0
   -1.6048   48.0733   24.9327 C   0  0  0  0  0  0
   -2.4971   49.0830   25.2836 C   0  0  0  0  0  0
   -2.0156   50.3540   25.5871 C   0  0  0  0  0  0
   -2.1947   46.4967   24.5567 Cl  0  0  0  0  0  0
   -0.4959   52.0967   28.3647 C   0  0  0  0  0  0
   -1.6469   51.6965   28.2110 O   0  0  0  0  0  0
   -0.0013   52.4233   29.7740 C   0  0  0  0  0  0
    0.8058   53.7211   29.7543 C   0  0  0  0  0  0
    2.0223   53.5420   28.8375 C   0  0  0  0  0  0
    7.5044   54.8993   27.1390 H   0  0  0  0  0  0
    6.6148   52.9845   28.3886 H   0  0  0  0  0  0
    4.3203   52.2334   28.0129 H   0  0  0  0  0  0
    3.7073   55.4725   25.2800 H   0  0  0  0  0  0
    6.0635   56.1223   25.5284 H   0  0  0  0  0  0
    2.6062   53.2966   23.0203 H   0  0  0  0  0  0
    3.8808   53.5363   24.1529 H   0  0  0  0  0  0
    1.3028   49.7694   25.1282 H   0  0  0  0  0  0
    0.4558   47.5457   24.6160 H   0  0  0  0  0  0
   -3.5569   48.8825   25.3296 H   0  0  0  0  0  0
   -2.7183   51.1294   25.8539 H   0  0  0  0  0  0
    0.6334   51.5963   30.0861 H   0  0  0  0  0  0
   -0.8438   52.4527   30.4661 H   0  0  0  0  0  0
    1.1183   53.9887   30.7643 H   0  0  0  0  0  0
    0.1802   54.5412   29.4025 H   0  0  0  0  0  0
    2.7822   52.9311   29.3212 H   0  0  0  0  0  0
    2.4382   54.5470   28.7449 H   0  0  0  0  0  0
  1  6  2  0  0  0
  1  2  1  0  0  0
  1 29  1  0  0  0
  2  3  2  0  0  0
  2 30  1  0  0  0
  3  4  1  0  0  0
  3 31  1  0  0  0
  4  5  2  0  0  0
  4  7  1  0  0  0
  5  6  1  0  0  0
  5 32  1  0  0  0
  6 33  1  0  0  0
  7 13  1  0  0  0
  7  8  1  0  0  0
  8 28  1  0  0  0
  8  9  2  0  0  0
  9 10  1  0  0  0
  9 24  1  0  0  0
 10 11  1  0  0  0
 10 12  1  0  0  0
 10 17  1  0  0  0
 12 13  2  0  0  0
 12 15  1  0  0  0
 13 14  1  0  0  0
 14 34  1  0  0  0
 14 35  1  0  0  0
 15 16  3  0  0  0
 17 22  2  0  0  0
 17 18  1  0  0  0
 18 19  2  0  0  0
 18 36  1  0  0  0
 19 20  1  0  0  0
 19 37  1  0  0  0
 20 21  2  0  0  0
 20 23  1  0  0  0
 21 22  1  0  0  0
 21 38  1  0  0  0
 22 39  1  0  0  0
 24 25  2  0  0  0
 24 26  1  0  0  0
 26 27  1  0  0  0
 26 40  1  0  0  0
 26 41  1  0  0  0
 27 28  1  0  0  0
 27 42  1  0  0  0
 27 43  1  0  0  0
 28 44  1  0  0  0
 28 45  1  0  0  0
M  END
> <i_i_glide_confnum>
2

> <i_i_glide_lignum>
3846

> <i_i_glide_posenum>
362

> <i_i_glide_rotatable_bonds>
3

> <i_m_Source_File_Index>
598

> <b_m_subgroup_collapsed>
0

> <r_i_docking_score>
-4.8887

> <r_i_glide_ecoul>
2.16285

> <r_i_glide_eff_state_penalty>
0

> <r_i_glide_einternal>
7.09712

> <r_i_glide_emodel>
-42.0432

> <r_i_glide_energy>
-34.9954

> <r_i_glide_erotb>
0.273975

> <r_i_glide_esite>
-0.0289706

> <r_i_glide_evdw>
-37.1583

> <r_i_glide_gscore>
-4.8887

> <r_i_glide_hbond>
0

> <r_i_glide_ligand_efficiency>
-0.181063

> <r_i_glide_ligand_efficiency_ln>
-1.13801

> <r_i_glide_ligand_efficiency_sa>
-0.543188

> <r_i_glide_lipo>
-2.39686

> <r_i_glide_metal>
0

> <r_i_glide_rewards>
-1.20336

> <s_i_glide_gridfile>
wee1_glide-grid

> <s_m_Source_File>
wee1_decoys_glide_SP.sdf

> <s_m_Source_Path>
/Users/zhangxujun/Desktop

> <s_m_entry_id>
873

> <s_m_entry_name>
wee1_decoys_glide_SP.598

> <s_m_subgroup_title>
wee1_decoys_glide_SP

> <s_m_subgroupid>
wee1_decoys_glide_SP


$$$$
