ZINC01004141_2373
                    3D
 Schrodinger Suite 2024-2.
 48 51  0  0  1  0            999 V2000
   -3.0374   48.3143   25.0648 C   0  0  0  0  0  0
   -3.7853   49.4019   24.6235 C   0  0  0  0  0  0
   -3.1619   50.6295   24.4143 C   0  0  0  0  0  0
   -1.7870   50.7791   24.6557 C   0  0  0  0  0  0
   -1.0428   49.6606   25.0634 C   0  0  0  0  0  0
   -1.6678   48.4375   25.2813 C   0  0  0  0  0  0
   -1.1334   52.1082   24.4068 C   0  0  0  0  0  0
   -1.6708   52.9493   23.6827 O   0  0  0  0  0  0
    0.1269   52.4476   25.0773 C   0  0  0  0  0  0
    0.5834   52.2014   26.3789 C   0  0  0  0  0  0
    1.8740   52.6985   26.6340 C   0  0  0  0  0  0
    2.4317   53.3042   25.5084 C   0  0  0  0  0  0
    1.3125   53.3451   24.1780 S   0  0  0  0  0  0
    3.6938   53.8554   25.4613 N   0  0  0  0  0  0
    4.5640   54.1883   24.4100 C   0  0  0  0  0  0
    5.7099   54.9007   24.7719 C   0  0  0  0  0  0
    6.6448   55.2625   23.8088 C   0  0  0  0  0  0
    6.4448   54.8950   22.4800 C   0  0  0  0  0  0
    5.3186   54.1633   22.1104 C   0  0  0  0  0  0
    4.3771   53.8099   23.0734 C   0  0  0  0  0  0
    2.7184   52.5738   28.2433 S   0  0  0  0  0  0
    2.3005   51.3221   28.8832 O   0  0  0  0  0  0
    4.1384   52.8931   28.0535 O   0  0  0  0  0  0
    2.0352   53.9291   29.1515 C   0  0  0  0  0  0
    2.4689   55.2126   28.8248 C   0  0  0  0  0  0
    1.9882   56.3005   29.5318 C   0  0  0  0  0  0
    1.1038   56.0957   30.5787 C   0  0  0  0  0  0
    0.6360   54.8175   30.8816 C   0  0  0  0  0  0
    1.0991   53.7205   30.1637 C   0  0  0  0  0  0
   -0.1484   51.5606   27.3385 N   0  0  0  0  0  0
   -3.5210   47.3648   25.2455 H   0  0  0  0  0  0
   -4.8450   49.2934   24.4514 H   0  0  0  0  0  0
   -3.7612   51.4635   24.0791 H   0  0  0  0  0  0
    0.0240   49.7222   25.2290 H   0  0  0  0  0  0
   -1.0903   47.5952   25.6366 H   0  0  0  0  0  0
    4.1864   53.8962   26.3471 H   0  0  0  0  0  0
    5.8761   55.1898   25.8008 H   0  0  0  0  0  0
    7.5098   55.8397   24.0873 H   0  0  0  0  0  0
    7.1719   55.1774   21.7334 H   0  0  0  0  0  0
    5.1730   53.8744   21.0795 H   0  0  0  0  0  0
    3.5335   53.2230   22.7583 H   0  0  0  0  0  0
    3.1865   55.3579   28.0280 H   0  0  0  0  0  0
    2.3108   57.2955   29.2826 H   0  0  0  0  0  0
    0.7502   56.9404   31.1449 H   0  0  0  0  0  0
   -0.0705   54.6726   31.6854 H   0  0  0  0  0  0
    0.7497   52.7278   30.4106 H   0  0  0  0  0  0
    0.2930   51.2635   28.2003 H   0  0  0  0  0  0
   -1.0379   51.1239   27.1305 H   0  0  0  0  0  0
  1  6  2  0  0  0
  1  2  1  0  0  0
  1 31  1  0  0  0
  2  3  2  0  0  0
  2 32  1  0  0  0
  3  4  1  0  0  0
  3 33  1  0  0  0
  4  5  2  0  0  0
  4  7  1  0  0  0
  5  6  1  0  0  0
  5 34  1  0  0  0
  6 35  1  0  0  0
  7  8  2  0  0  0
  7  9  1  0  0  0
  9 13  1  0  0  0
  9 10  2  0  0  0
 10 11  1  0  0  0
 10 30  1  0  0  0
 11 12  2  0  0  0
 11 21  1  0  0  0
 12 13  1  0  0  0
 12 14  1  0  0  0
 14 15  1  0  0  0
 14 36  1  0  0  0
 15 20  2  0  0  0
 15 16  1  0  0  0
 16 17  2  0  0  0
 16 37  1  0  0  0
 17 18  1  0  0  0
 17 38  1  0  0  0
 18 19  2  0  0  0
 18 39  1  0  0  0
 19 20  1  0  0  0
 19 40  1  0  0  0
 20 41  1  0  0  0
 21 22  2  0  0  0
 21 23  2  0  0  0
 21 24  1  0  0  0
 24 29  2  0  0  0
 24 25  1  0  0  0
 25 26  2  0  0  0
 25 42  1  0  0  0
 26 27  1  0  0  0
 26 43  1  0  0  0
 27 28  2  0  0  0
 27 44  1  0  0  0
 28 29  1  0  0  0
 28 45  1  0  0  0
 29 46  1  0  0  0
 30 47  1  0  0  0
 30 48  1  0  0  0
M  END
> <i_i_glide_confnum>
130

> <i_i_glide_lignum>
2374

> <i_i_glide_posenum>
289

> <i_i_glide_rotatable_bonds>
6

> <i_m_Source_File_Index>
5782

> <b_m_subgroup_collapsed>
0

> <r_i_docking_score>
-6.63728

> <r_i_glide_ecoul>
-3.68497

> <r_i_glide_eff_state_penalty>
0

> <r_i_glide_einternal>
2.6354

> <r_i_glide_emodel>
-64.9083

> <r_i_glide_energy>
-47.8388

> <r_i_glide_erotb>
0.632879

> <r_i_glide_esite>
-0.0337532

> <r_i_glide_evdw>
-44.1539

> <r_i_glide_gscore>
-6.63728

> <r_i_glide_hbond>
0

> <r_i_glide_ligand_efficiency>
-0.221243

> <r_i_glide_ligand_efficiency_ln>
-1.50806

> <r_i_glide_ligand_efficiency_sa>
-0.687453

> <r_i_glide_lipo>
-3.68764

> <r_i_glide_metal>
0

> <r_i_glide_rewards>
-0.788326

> <s_i_glide_gridfile>
wee1_glide-grid

> <s_m_Source_File>
wee1_decoys_glide_SP.sdf

> <s_m_Source_Path>
/Users/zhangxujun/Desktop

> <s_m_entry_id>
6057

> <s_m_entry_name>
wee1_decoys_glide_SP.5782

> <s_m_subgroup_title>
wee1_decoys_glide_SP

> <s_m_subgroupid>
wee1_decoys_glide_SP


$$$$
