ZINC33264493_5853
                    3D
 Schrodinger Suite 2024-2.
 57 59  0  0  1  0            999 V2000
    2.6593   52.2186   16.3423 C   0  0  0  0  0  0
    3.4696   53.4631   16.7632 C   0  0  0  0  0  0
    2.7155   54.7521   16.3798 C   0  0  0  0  0  0
    3.9056   53.4891   18.2357 C   0  0  0  0  0  0
    3.3549   52.6277   19.1929 C   0  0  0  0  0  0
    3.7435   52.7171   20.5259 C   0  0  0  0  0  0
    4.6858   53.6665   20.9229 C   0  0  0  0  0  0
    5.2624   54.5113   19.9643 C   0  0  0  0  0  0
    4.8726   54.4175   18.6321 C   0  0  0  0  0  0
    4.9440   53.7301   22.3023 N   0  0  0  0  0  0
    5.8176   54.4965   22.9899 C   0  0  0  0  0  0
    6.7056   55.1817   22.4789 O   0  0  0  0  0  0
    5.6516   54.4626   24.4936 C   0  0  0  0  0  0
    6.7380   54.7748   25.3181 C   0  0  0  0  0  0
    6.6407   54.6826   26.7041 C   0  0  0  0  0  0
    5.4409   54.2801   27.2846 C   0  0  0  0  0  0
    4.3252   53.9833   26.4909 C   0  0  0  0  0  0
    4.4336   54.1053   25.0994 C   0  0  0  0  0  0
    3.0661   53.4331   27.1712 C   0  0  2  0  0  0
    3.4719   52.5739   27.7116 H   0  0  0  0  0  0
    1.9394   52.8959   26.2465 C   0  0  0  0  0  0
    0.8114   52.2665   27.0933 C   0  0  0  0  0  0
    0.2994   53.2241   28.1942 C   0  0  0  0  0  0
    1.4603   53.6908   28.9871 N   0  0  0  0  0  0
    2.4579   54.4330   28.1894 C   0  0  0  0  0  0
    1.8837   53.0353   30.1026 C   0  0  0  0  0  0
    3.0604   53.0406   30.4801 O   0  0  0  0  0  0
    0.9054   52.4968   30.8505 N   0  0  0  0  0  0
    1.0740   52.0754   32.2320 C   0  0  0  0  0  0
    3.1724   51.2974   16.6189 H   0  0  0  0  0  0
    2.5140   52.1912   15.2618 H   0  0  0  0  0  0
    1.6713   52.2036   16.8047 H   0  0  0  0  0  0
    4.3924   53.4306   16.1813 H   0  0  0  0  0  0
    3.3159   55.6425   16.5683 H   0  0  0  0  0  0
    2.4554   54.7589   15.3209 H   0  0  0  0  0  0
    1.7904   54.8528   16.9490 H   0  0  0  0  0  0
    2.6150   51.8905   18.9207 H   0  0  0  0  0  0
    3.2877   52.0533   21.2459 H   0  0  0  0  0  0
    5.9891   55.2639   20.2223 H   0  0  0  0  0  0
    5.3135   55.0844   17.9061 H   0  0  0  0  0  0
    4.3384   53.1536   22.8625 H   0  0  0  0  0  0
    7.6844   55.0596   24.8817 H   0  0  0  0  0  0
    7.5024   54.8953   27.3245 H   0  0  0  0  0  0
    5.3877   54.1752   28.3590 H   0  0  0  0  0  0
    3.5755   53.8760   24.4871 H   0  0  0  0  0  0
    1.5210   53.7087   25.6505 H   0  0  0  0  0  0
    2.3039   52.1367   25.5565 H   0  0  0  0  0  0
   -0.0193   51.9785   26.4481 H   0  0  0  0  0  0
    1.1583   51.3378   27.5501 H   0  0  0  0  0  0
   -0.1400   54.1023   27.7332 H   0  0  0  0  0  0
   -0.5100   52.8171   28.8008 H   0  0  0  0  0  0
    3.1822   54.9353   28.8327 H   0  0  0  0  0  0
    1.9420   55.2477   27.6818 H   0  0  0  0  0  0
   -0.0451   52.5288   30.5148 H   0  0  0  0  0  0
    0.3565   51.2953   32.4825 H   0  0  0  0  0  0
    2.0761   51.6989   32.4419 H   0  0  0  0  0  0
    0.8705   52.9245   32.8812 H   0  0  0  0  0  0
  1  2  1  0  0  0
  1 30  1  0  0  0
  1 31  1  0  0  0
  1 32  1  0  0  0
  2  3  1  0  0  0
  2  4  1  0  0  0
  2 33  1  0  0  0
  3 34  1  0  0  0
  3 35  1  0  0  0
  3 36  1  0  0  0
  4  9  2  0  0  0
  4  5  1  0  0  0
  5  6  2  0  0  0
  5 37  1  0  0  0
  6  7  1  0  0  0
  6 38  1  0  0  0
  7  8  2  0  0  0
  7 10  1  0  0  0
  8  9  1  0  0  0
  8 39  1  0  0  0
  9 40  1  0  0  0
 10 11  1  0  0  0
 10 41  1  0  0  0
 11 12  2  0  0  0
 11 13  1  0  0  0
 13 18  2  0  0  0
 13 14  1  0  0  0
 14 15  2  0  0  0
 14 42  1  0  0  0
 15 16  1  0  0  0
 15 43  1  0  0  0
 16 17  2  0  0  0
 16 44  1  0  0  0
 17 18  1  0  0  0
 17 19  1  0  0  0
 18 45  1  0  0  0
 19 20  1  0  0  0
 19 25  1  0  0  0
 19 21  1  0  0  0
 21 22  1  0  0  0
 21 46  1  0  0  0
 21 47  1  0  0  0
 22 23  1  0  0  0
 22 48  1  0  0  0
 22 49  1  0  0  0
 23 24  1  0  0  0
 23 50  1  0  0  0
 23 51  1  0  0  0
 24 25  1  0  0  0
 24 26  1  0  0  0
 25 52  1  0  0  0
 25 53  1  0  0  0
 26 27  2  0  0  0
 26 28  1  0  0  0
 28 29  1  0  0  0
 28 54  1  0  0  0
 29 55  1  0  0  0
 29 56  1  0  0  0
 29 57  1  0  0  0
M  END
> <i_i_glide_confnum>
57

> <i_i_glide_lignum>
5854

> <i_i_glide_posenum>
76

> <i_i_glide_rotatable_bonds>
7

> <i_m_Source_File_Index>
2053

> <b_m_subgroup_collapsed>
0

> <r_i_docking_score>
-6.40243

> <r_i_glide_ecoul>
-3.17174

> <r_i_glide_eff_state_penalty>
0

> <r_i_glide_einternal>
7.2313

> <r_i_glide_emodel>
-52.3081

> <r_i_glide_energy>
-44.8393

> <r_i_glide_erotb>
0.673202

> <r_i_glide_esite>
-0.0509668

> <r_i_glide_evdw>
-41.6676

> <r_i_glide_gscore>
-6.40243

> <r_i_glide_hbond>
-0.32

> <r_i_glide_ligand_efficiency>
-0.228658

> <r_i_glide_ligand_efficiency_ln>
-1.47787

> <r_i_glide_ligand_efficiency_sa>
-0.694341

> <r_i_glide_lipo>
-2.54974

> <r_i_glide_metal>
0

> <r_i_glide_rewards>
-1.59579

> <s_i_glide_gridfile>
wee1_glide-grid

> <s_m_Source_File>
wee1_decoys_glide_SP.sdf

> <s_m_Source_Path>
/Users/zhangxujun/Desktop

> <s_m_entry_id>
2328

> <s_m_entry_name>
wee1_decoys_glide_SP.2053

> <s_m_subgroup_title>
wee1_decoys_glide_SP

> <s_m_subgroupid>
wee1_decoys_glide_SP


$$$$
