ZINC59198309_1002
                    3D
 Schrodinger Suite 2024-2.
 41 43  0  0  1  0            999 V2000
    3.3453   52.6154   15.8424 C   0  0  0  0  0  0
    4.2461   53.6048   15.9646 C   0  0  0  0  0  0
    5.6701   53.4219   16.4615 C   0  0  0  0  0  0
    6.0206   54.3809   17.4586 O   0  0  0  0  0  0
    5.5347   54.2660   18.7487 C   0  0  0  0  0  0
    4.6598   53.2545   19.1773 C   0  0  0  0  0  0
    4.2182   53.1982   20.4985 C   0  0  0  0  0  0
    4.6489   54.1407   21.4344 C   0  0  0  0  0  0
    5.5155   55.1512   21.0036 C   0  0  0  0  0  0
    5.9560   55.2159   19.6833 C   0  0  0  0  0  0
    7.1430   56.6240   19.1885 Br  0  0  0  0  0  0
    4.1361   54.0602   22.8253 C   0  0  0  0  0  0
    4.7670   54.1654   24.0371 C   0  0  0  0  0  0
    6.2290   54.3038   24.1898 C   0  0  0  0  0  0
    6.9565   54.0968   23.2240 O   0  0  0  0  0  0
    6.7045   54.5981   25.3822 N   0  5  0  0  0  0
    5.9925   54.6047   26.4941 C   0  0  0  0  0  0
    6.4845   54.8915   27.5833 O   0  0  0  0  0  0
    4.6503   54.2676   26.4406 N   0  0  0  0  0  0
    3.9447   54.0967   25.2643 C   0  0  0  0  0  0
    2.7245   53.8903   25.2341 O   0  0  0  0  0  0
    3.9717   54.0099   27.6702 C   0  0  0  0  0  0
    4.3255   52.8964   28.4417 C   0  0  0  0  0  0
    3.6545   52.6045   29.6280 C   0  0  0  0  0  0
    2.6486   53.4555   30.0817 C   0  0  0  0  0  0
    2.3419   54.6117   29.3649 C   0  0  0  0  0  0
    2.9747   54.8671   28.1493 C   0  0  0  0  0  0
    1.1043   55.8669   30.0754 Br  0  0  0  0  0  0
    3.5955   51.5942   16.0995 H   0  0  0  0  0  0
    2.3444   52.8111   15.4876 H   0  0  0  0  0  0
    3.9632   54.6149   15.7067 H   0  0  0  0  0  0
    5.8524   52.4034   16.8105 H   0  0  0  0  0  0
    6.3422   53.5665   15.6146 H   0  0  0  0  0  0
    4.3146   52.4941   18.4970 H   0  0  0  0  0  0
    3.5427   52.4075   20.7928 H   0  0  0  0  0  0
    5.8825   55.8967   21.6918 H   0  0  0  0  0  0
    3.0617   53.9278   22.8291 H   0  0  0  0  0  0
    5.1130   52.2390   28.1025 H   0  0  0  0  0  0
    3.9242   51.7275   30.1951 H   0  0  0  0  0  0
    2.1238   53.2330   30.9985 H   0  0  0  0  0  0
    2.7036   55.7321   27.5767 H   0  0  0  0  0  0
  1  2  2  0  0  0
  1 29  1  0  0  0
  1 30  1  0  0  0
  2  3  1  0  0  0
  2 31  1  0  0  0
  3  4  1  0  0  0
  3 32  1  0  0  0
  3 33  1  0  0  0
  4  5  1  0  0  0
  5 10  2  0  0  0
  5  6  1  0  0  0
  6  7  2  0  0  0
  6 34  1  0  0  0
  7  8  1  0  0  0
  7 35  1  0  0  0
  8  9  2  0  0  0
  8 12  1  0  0  0
  9 10  1  0  0  0
  9 36  1  0  0  0
 10 11  1  0  0  0
 12 13  2  0  0  0
 12 37  1  0  0  0
 13 20  1  0  0  0
 13 14  1  0  0  0
 14 15  2  0  0  0
 14 16  1  0  0  0
 16 17  1  0  0  0
 17 18  2  0  0  0
 17 19  1  0  0  0
 19 20  1  0  0  0
 19 22  1  0  0  0
 20 21  2  0  0  0
 22 27  2  0  0  0
 22 23  1  0  0  0
 23 24  2  0  0  0
 23 38  1  0  0  0
 24 25  1  0  0  0
 24 39  1  0  0  0
 25 26  2  0  0  0
 25 40  1  0  0  0
 26 27  1  0  0  0
 26 28  1  0  0  0
 27 41  1  0  0  0
M  CHG  1  16  -1
M  END
> <i_i_glide_confnum>
20

> <i_i_glide_lignum>
1003

> <i_i_glide_posenum>
45

> <i_i_glide_rotatable_bonds>
5

> <i_m_Source_File_Index>
3388

> <b_m_subgroup_collapsed>
0

> <r_i_docking_score>
-5.55646

> <r_i_glide_ecoul>
-0.261984

> <r_i_glide_eff_state_penalty>
0

> <r_i_glide_einternal>
1.30106

> <r_i_glide_emodel>
-58.4656

> <r_i_glide_energy>
-43.133

> <r_i_glide_erotb>
0.400751

> <r_i_glide_esite>
0

> <r_i_glide_evdw>
-42.871

> <r_i_glide_gscore>
-5.55646

> <r_i_glide_hbond>
-0.0195584

> <r_i_glide_ligand_efficiency>
-0.198445

> <r_i_glide_ligand_efficiency_ln>
-1.28259

> <r_i_glide_ligand_efficiency_sa>
-0.602595

> <r_i_glide_lipo>
-2.19924

> <r_i_glide_metal>
0

> <r_i_glide_rewards>
-1.55556

> <s_i_glide_gridfile>
wee1_glide-grid

> <s_m_Source_File>
wee1_decoys_glide_SP.sdf

> <s_m_Source_Path>
/Users/zhangxujun/Desktop

> <s_m_entry_id>
3663

> <s_m_entry_name>
wee1_decoys_glide_SP.3388

> <s_m_subgroup_title>
wee1_decoys_glide_SP

> <s_m_subgroupid>
wee1_decoys_glide_SP


$$$$
