ZINC12642276_5515
                    3D
 Schrodinger Suite 2024-2.
 68 72  0  0  1  0            999 V2000
    6.1606   54.4967   23.8732 C   0  0  0  0  0  0
    5.8693   54.9423   25.3020 C   0  0  0  0  0  0
    6.7044   55.6474   25.8672 O   0  0  0  0  0  0
    4.6307   54.4221   25.9676 C   0  0  0  0  0  0
    4.5258   54.4960   27.3624 C   0  0  0  0  0  0
    3.3907   54.0191   28.0099 C   0  0  0  0  0  0
    2.3616   53.4359   27.2770 C   0  0  0  0  0  0
    2.4402   53.3210   25.8755 C   0  0  0  0  0  0
    3.5679   53.8643   25.2381 C   0  0  0  0  0  0
    1.4027   52.6817   25.1203 N   0  0  0  0  0  0
    1.0934   52.9676   23.6858 C   0  0  2  0  0  0
    1.0532   54.0406   23.5003 H   0  0  0  0  0  0
   -0.2881   52.3370   23.5167 C   0  0  2  0  0  0
   -0.9211   52.0641   22.1625 C   0  0  0  0  0  0
   -2.2321   51.9766   22.4282 C   0  0  0  0  0  0
   -2.3746   52.2365   23.9311 C   0  0  2  0  0  0
   -1.3086   53.1459   24.0816 O   0  0  0  0  0  0
   -1.8047   51.0863   24.8322 C   0  0  2  0  0  0
   -1.9879   51.2983   25.8863 H   0  0  0  0  0  0
   -0.2941   51.1772   24.4790 C   0  0  2  0  0  0
    0.1120   50.2596   24.0471 H   0  0  0  0  0  0
    0.6382   51.6432   25.6036 C   0  0  0  0  0  0
    0.6698   51.1133   26.7167 O   0  0  0  0  0  0
   -2.4161   49.6863   24.5310 C   0  0  0  0  0  0
   -2.5354   49.3043   23.3620 O   0  0  0  0  0  0
   -2.7877   48.9246   25.5843 N   0  0  0  0  0  0
   -3.5379   47.7303   25.5247 C   0  0  0  0  0  0
   -4.5639   47.5223   24.5860 C   0  0  0  0  0  0
   -5.3111   46.3465   24.6165 C   0  0  0  0  0  0
   -5.0453   45.3806   25.5834 C   0  0  0  0  0  0
   -4.0347   45.5797   26.5203 C   0  0  0  0  0  0
   -3.2844   46.7529   26.4890 C   0  0  0  0  0  0
   -3.6947   52.8906   24.3630 C   0  0  0  0  0  0
    2.0908   52.3297   22.6778 C   0  0  0  0  0  0
    2.2648   51.1108   22.6842 O   0  0  0  0  0  0
    2.7109   53.1585   21.8122 N   0  0  0  0  0  0
    3.6333   52.8005   20.7199 C   0  0  0  0  0  0
    4.7737   51.8754   21.1878 C   0  0  0  0  0  0
    4.2914   54.0891   20.1834 C   0  0  0  0  0  0
    2.8526   52.1183   19.5738 C   0  0  0  0  0  0
    5.4126   54.8962   23.1880 H   0  0  0  0  0  0
    7.1465   54.8297   23.5542 H   0  0  0  0  0  0
    6.1309   53.4105   23.8165 H   0  0  0  0  0  0
    5.3222   54.9287   27.9558 H   0  0  0  0  0  0
    3.3162   54.0933   29.0846 H   0  0  0  0  0  0
    1.4992   53.0814   27.8247 H   0  0  0  0  0  0
    3.6492   53.8186   24.1679 H   0  0  0  0  0  0
   -0.3912   51.8875   21.2387 H   0  0  0  0  0  0
   -3.0400   51.6999   21.7714 H   0  0  0  0  0  0
   -2.4151   49.1513   26.5015 H   0  0  0  0  0  0
   -4.8016   48.2747   23.8460 H   0  0  0  0  0  0
   -6.1095   46.1959   23.9010 H   0  0  0  0  0  0
   -5.6385   44.4763   25.6164 H   0  0  0  0  0  0
   -3.8331   44.8378   27.2810 H   0  0  0  0  0  0
   -2.5012   46.8939   27.2228 H   0  0  0  0  0  0
   -4.5283   52.1963   24.2444 H   0  0  0  0  0  0
   -3.6559   53.1966   25.4072 H   0  0  0  0  0  0
   -3.9092   53.7760   23.7656 H   0  0  0  0  0  0
    2.4168   54.1245   21.7990 H   0  0  0  0  0  0
    5.5018   51.7052   20.3924 H   0  0  0  0  0  0
    4.4066   50.8965   21.4792 H   0  0  0  0  0  0
    5.3097   52.2910   22.0387 H   0  0  0  0  0  0
    3.5511   54.7705   19.7608 H   0  0  0  0  0  0
    4.8246   54.6303   20.9647 H   0  0  0  0  0  0
    5.0075   53.8734   19.3892 H   0  0  0  0  0  0
    2.0558   52.7608   19.1951 H   0  0  0  0  0  0
    3.5048   51.8732   18.7322 H   0  0  0  0  0  0
    2.3912   51.1845   19.8980 H   0  0  0  0  0  0
  1  2  1  0  0  0
  1 41  1  0  0  0
  1 42  1  0  0  0
  1 43  1  0  0  0
  2  3  2  0  0  0
  2  4  1  0  0  0
  4  9  2  0  0  0
  4  5  1  0  0  0
  5  6  2  0  0  0
  5 44  1  0  0  0
  6  7  1  0  0  0
  6 45  1  0  0  0
  7  8  2  0  0  0
  7 46  1  0  0  0
  8  9  1  0  0  0
  8 10  1  0  0  0
  9 47  1  0  0  0
 10 22  1  0  0  0
 10 11  1  0  0  0
 11 12  1  0  0  0
 11 13  1  0  0  0
 11 34  1  0  0  0
 13 17  1  0  0  0
 13 20  1  0  0  0
 13 14  1  0  0  0
 14 15  2  0  0  0
 14 48  1  0  0  0
 15 16  1  0  0  0
 15 49  1  0  0  0
 16 17  1  0  0  0
 16 18  1  0  0  0
 16 33  1  0  0  0
 18 19  1  0  0  0
 18 20  1  0  0  0
 18 24  1  0  0  0
 20 21  1  0  0  0
 20 22  1  0  0  0
 22 23  2  0  0  0
 24 25  2  0  0  0
 24 26  1  0  0  0
 26 27  1  0  0  0
 26 50  1  0  0  0
 27 32  2  0  0  0
 27 28  1  0  0  0
 28 29  2  0  0  0
 28 51  1  0  0  0
 29 30  1  0  0  0
 29 52  1  0  0  0
 30 31  2  0  0  0
 30 53  1  0  0  0
 31 32  1  0  0  0
 31 54  1  0  0  0
 32 55  1  0  0  0
 33 56  1  0  0  0
 33 57  1  0  0  0
 33 58  1  0  0  0
 34 35  2  0  0  0
 34 36  1  0  0  0
 36 37  1  0  0  0
 36 59  1  0  0  0
 37 38  1  0  0  0
 37 39  1  0  0  0
 37 40  1  0  0  0
 38 60  1  0  0  0
 38 61  1  0  0  0
 38 62  1  0  0  0
 39 63  1  0  0  0
 39 64  1  0  0  0
 39 65  1  0  0  0
 40 66  1  0  0  0
 40 67  1  0  0  0
 40 68  1  0  0  0
M  END
> <i_i_glide_confnum>
89

> <i_i_glide_lignum>
5516

> <i_i_glide_posenum>
203

> <i_i_glide_rotatable_bonds>
8

> <i_m_Source_File_Index>
2207

> <b_m_subgroup_collapsed>
0

> <r_i_docking_score>
-6.82789

> <r_i_glide_ecoul>
-6.58788

> <r_i_glide_eff_state_penalty>
0

> <r_i_glide_einternal>
8.76635

> <r_i_glide_emodel>
-70.3628

> <r_i_glide_energy>
-52.5657

> <r_i_glide_erotb>
0.487185

> <r_i_glide_esite>
-0.101827

> <r_i_glide_evdw>
-45.9778

> <r_i_glide_gscore>
-6.82789

> <r_i_glide_hbond>
-0.453474

> <r_i_glide_ligand_efficiency>
-0.184537

> <r_i_glide_ligand_efficiency_ln>
-1.48081

> <r_i_glide_ligand_efficiency_sa>
-0.61492

> <r_i_glide_lipo>
-2.14444

> <r_i_glide_metal>
0

> <r_i_glide_rewards>
-1.32826

> <s_i_glide_gridfile>
wee1_glide-grid

> <s_m_Source_File>
wee1_decoys_glide_SP.sdf

> <s_m_Source_Path>
/Users/zhangxujun/Desktop

> <s_m_entry_id>
2482

> <s_m_entry_name>
wee1_decoys_glide_SP.2207

> <s_m_subgroup_title>
wee1_decoys_glide_SP

> <s_m_subgroupid>
wee1_decoys_glide_SP


$$$$
