ZINC39691147_1304
                    3D
 Schrodinger Suite 2024-2.
 69 72  0  0  1  0            999 V2000
    8.3972   54.6232   18.6272 C   0  0  0  0  0  0
    7.6777   55.9101   18.2565 C   0  0  0  0  0  0
    8.4513   57.0331   17.9430 C   0  0  0  0  0  0
    7.8424   58.2399   17.6042 C   0  0  0  0  0  0
    6.4530   58.3337   17.5715 C   0  0  0  0  0  0
    5.6746   57.2201   17.8791 C   0  0  0  0  0  0
    6.2705   56.0022   18.2263 C   0  0  0  0  0  0
    5.3609   54.8321   18.6022 C   0  0  0  0  0  0
    5.2438   54.6494   20.1236 C   0  0  0  0  0  0
    4.0566   53.9182   20.5493 N   0  0  0  0  0  0
    4.0210   52.6348   20.9463 C   0  0  0  0  0  0
    4.9973   51.8920   20.8770 O   0  0  0  0  0  0
    2.7067   52.0740   21.5400 C   0  0  1  0  0  0
    2.9999   51.2787   22.2271 H   0  0  0  0  0  0
    2.0659   53.1315   22.4587 C   0  0  0  0  0  0
    0.7078   52.6252   22.6139 N   0  0  0  0  0  0
    0.2764   52.0486   21.3333 C   0  0  0  0  0  0
    1.5657   51.5994   20.5843 C   0  0  0  0  0  0
    1.5376   50.0457   20.4670 C   0  0  0  0  0  0
    2.5604   49.4749   19.4709 C   0  0  0  0  0  0
    2.3021   50.0818   18.0815 N   0  3  0  0  0  0
    2.4569   51.6103   18.1060 C   0  0  0  0  0  0
    1.4923   52.2126   19.1475 C   0  0  0  0  0  0
    0.2205   52.1846   23.8008 C   0  0  0  0  0  0
   -0.6620   51.3186   23.8502 O   0  0  0  0  0  0
    0.6590   52.8967   25.1125 C   0  0  1  0  0  0
    0.7125   53.9603   24.8712 H   0  0  0  0  0  0
   -0.3285   52.6616   26.2884 C   0  0  0  0  0  0
    1.9852   52.4912   25.4345 O   0  0  0  0  0  0
    2.6834   53.2173   26.3739 C   0  0  0  0  0  0
    3.6824   54.0949   25.9469 C   0  0  0  0  0  0
    4.4993   54.7226   26.8813 C   0  0  0  0  0  0
    4.2980   54.4971   28.2421 C   0  0  0  0  0  0
    3.3024   53.6231   28.6741 C   0  0  0  0  0  0
    2.5064   52.9709   27.7378 C   0  0  0  0  0  0
    9.4199   54.6066   18.2522 H   0  0  0  0  0  0
    8.4321   54.5239   19.7095 H   0  0  0  0  0  0
    7.9056   53.7446   18.2089 H   0  0  0  0  0  0
    9.5316   56.9756   17.9658 H   0  0  0  0  0  0
    8.4453   59.1029   17.3646 H   0  0  0  0  0  0
    5.9832   59.2710   17.3077 H   0  0  0  0  0  0
    4.5977   57.3106   17.8551 H   0  0  0  0  0  0
    5.6841   53.9065   18.1269 H   0  0  0  0  0  0
    4.3705   55.0050   18.1757 H   0  0  0  0  0  0
    5.1233   55.6376   20.5656 H   0  0  0  0  0  0
    6.1785   54.3014   20.5636 H   0  0  0  0  0  0
    3.1923   54.4481   20.5530 H   0  0  0  0  0  0
    1.9601   54.0844   21.9421 H   0  0  0  0  0  0
    2.6357   53.3182   23.3685 H   0  0  0  0  0  0
   -0.4865   51.2608   21.4108 H   0  0  0  0  0  0
   -0.1409   52.9062   20.7930 H   0  0  0  0  0  0
    1.6201   49.5685   21.4466 H   0  0  0  0  0  0
    0.5575   49.7317   20.1033 H   0  0  0  0  0  0
    3.5879   49.7455   19.7027 H   0  0  0  0  0  0
    2.4930   48.3920   19.3563 H   0  0  0  0  0  0
    3.0035   49.6956   17.4332 H   0  0  0  0  0  0
    3.5037   51.8067   18.3281 H   0  0  0  0  0  0
    2.2533   51.9512   17.0905 H   0  0  0  0  0  0
    0.4918   52.0393   18.7501 H   0  0  0  0  0  0
    1.5825   53.2960   19.1831 H   0  0  0  0  0  0
   -1.3577   52.8979   26.0067 H   0  0  0  0  0  0
   -0.3072   51.6228   26.6200 H   0  0  0  0  0  0
   -0.0945   53.2933   27.1468 H   0  0  0  0  0  0
    3.8580   54.2592   24.8957 H   0  0  0  0  0  0
    5.2924   55.3777   26.5533 H   0  0  0  0  0  0
    4.9355   54.9871   28.9653 H   0  0  0  0  0  0
    3.1615   53.4342   29.7265 H   0  0  0  0  0  0
    1.7700   52.2539   28.0685 H   0  0  0  0  0  0
    1.3972   49.8145   17.7269 H   0  0  0  0  0  0
  1  2  1  0  0  0
  1 36  1  0  0  0
  1 37  1  0  0  0
  1 38  1  0  0  0
  2  7  2  0  0  0
  2  3  1  0  0  0
  3  4  2  0  0  0
  3 39  1  0  0  0
  4  5  1  0  0  0
  4 40  1  0  0  0
  5  6  2  0  0  0
  5 41  1  0  0  0
  6  7  1  0  0  0
  6 42  1  0  0  0
  7  8  1  0  0  0
  8  9  1  0  0  0
  8 43  1  0  0  0
  8 44  1  0  0  0
  9 10  1  0  0  0
  9 45  1  0  0  0
  9 46  1  0  0  0
 10 11  1  0  0  0
 10 47  1  0  0  0
 11 12  2  0  0  0
 11 13  1  0  0  0
 13 14  1  0  0  0
 13 18  1  0  0  0
 13 15  1  0  0  0
 15 16  1  0  0  0
 15 48  1  0  0  0
 15 49  1  0  0  0
 16 17  1  0  0  0
 16 24  1  0  0  0
 17 18  1  0  0  0
 17 50  1  0  0  0
 17 51  1  0  0  0
 18 23  1  0  0  0
 18 19  1  0  0  0
 19 20  1  0  0  0
 19 52  1  0  0  0
 19 53  1  0  0  0
 20 21  1  0  0  0
 20 54  1  0  0  0
 20 55  1  0  0  0
 21 22  1  0  0  0
 21 56  1  0  0  0
 21 69  1  0  0  0
 22 23  1  0  0  0
 22 57  1  0  0  0
 22 58  1  0  0  0
 23 59  1  0  0  0
 23 60  1  0  0  0
 24 25  2  0  0  0
 24 26  1  0  0  0
 26 27  1  0  0  0
 26 28  1  0  0  0
 26 29  1  0  0  0
 28 61  1  0  0  0
 28 62  1  0  0  0
 28 63  1  0  0  0
 29 30  1  0  0  0
 30 35  2  0  0  0
 30 31  1  0  0  0
 31 32  2  0  0  0
 31 64  1  0  0  0
 32 33  1  0  0  0
 32 65  1  0  0  0
 33 34  2  0  0  0
 33 66  1  0  0  0
 34 35  1  0  0  0
 34 67  1  0  0  0
 35 68  1  0  0  0
M  CHG  1  21   1
M  END
> <i_i_glide_confnum>
47

> <i_i_glide_lignum>
1305

> <i_i_glide_posenum>
221

> <i_i_glide_rotatable_bonds>
9

> <i_m_Source_File_Index>
5714

> <b_m_subgroup_collapsed>
0

> <r_i_docking_score>
-2.93793

> <r_i_glide_ecoul>
-8.5369

> <r_i_glide_eff_state_penalty>
0

> <r_i_glide_einternal>
16.0378

> <r_i_glide_emodel>
-34.2363

> <r_i_glide_energy>
-39.3334

> <r_i_glide_erotb>
0.790025

> <r_i_glide_esite>
-0.104363

> <r_i_glide_evdw>
-30.7965

> <r_i_glide_gscore>
-2.93793

> <r_i_glide_hbond>
-0.509868

> <r_i_glide_ligand_efficiency>
-0.0890283

> <r_i_glide_ligand_efficiency_ln>
-0.653381

> <r_i_glide_ligand_efficiency_sa>
-0.285561

> <r_i_glide_lipo>
-1.79971

> <r_i_glide_metal>
0

> <r_i_glide_rewards>
1.50634

> <s_i_glide_gridfile>
wee1_glide-grid

> <s_m_Source_File>
wee1_decoys_glide_SP.sdf

> <s_m_Source_Path>
/Users/zhangxujun/Desktop

> <s_m_entry_id>
5989

> <s_m_entry_name>
wee1_decoys_glide_SP.5714

> <s_m_subgroup_title>
wee1_decoys_glide_SP

> <s_m_subgroupid>
wee1_decoys_glide_SP


$$$$
