ZINC39325362_1101
                    3D
 Schrodinger Suite 2024-2.
 66 70  0  0  1  0            999 V2000
    1.8828   53.5178   27.6413 C   0  0  0  0  0  0
    3.2386   53.9107   27.0737 C   0  0  0  0  0  0
    4.3196   54.0153   27.9581 C   0  0  0  0  0  0
    5.5815   54.3888   27.5011 C   0  0  0  0  0  0
    5.7730   54.6653   26.1511 C   0  0  0  0  0  0
    4.7043   54.5667   25.2631 C   0  0  0  0  0  0
    3.4276   54.1864   25.7031 C   0  0  0  0  0  0
    2.2928   54.0884   24.6715 C   0  0  0  0  0  0
    1.8506   52.6431   24.3574 C   0  0  0  0  0  0
    0.9720   52.5117   23.1663 N   0  0  0  0  0  0
    1.4665   53.0134   21.8577 C   0  0  0  0  0  0
    2.7579   52.2979   21.3643 C   0  0  2  0  0  0
    2.9020   51.3491   21.8847 H   0  0  0  0  0  0
    3.9696   53.2082   21.6109 C   0  0  0  0  0  0
    4.7514   53.7417   20.6436 C   0  0  0  0  0  0
    5.8583   54.6749   20.9028 C   0  0  0  0  0  0
    6.6501   55.1458   19.9176 C   0  0  0  0  0  0
    6.3468   54.6847   18.5581 C   0  0  0  0  0  0
    5.3238   53.8340   18.2862 C   0  0  0  0  0  0
    4.4991   53.3493   19.3088 C   0  0  0  0  0  0
    3.5088   52.5127   18.9940 N   0  3  0  0  0  0
    2.5869   51.9001   19.8720 C   0  0  0  0  0  0
    1.7205   51.1188   19.4887 O   0  0  0  0  0  0
    7.6947   55.9482   20.2593 O   0  0  0  0  0  0
    8.6908   56.2121   19.2773 C   0  0  0  0  0  0
   -0.0869   51.0921   23.1252 S   0  0  0  0  0  0
    0.7044   49.9329   23.5549 O   0  0  0  0  0  0
   -0.7956   51.0814   21.8390 O   0  0  0  0  0  0
   -1.3278   51.4144   24.3685 C   0  0  0  0  0  0
   -1.3654   50.6815   25.5623 C   0  0  0  0  0  0
   -2.3813   50.9125   26.4923 C   0  0  0  0  0  0
   -3.3535   51.8777   26.2289 C   0  0  0  0  0  0
   -3.2941   52.6380   25.0492 C   0  0  0  0  0  0
   -2.2896   52.3974   24.1159 C   0  0  0  0  0  0
   -4.2537   53.5777   24.7257 O   0  0  0  0  0  0
   -5.0976   53.9612   25.8176 C   0  0  0  0  0  0
   -5.5011   52.7315   26.6665 C   0  0  0  0  0  0
   -4.3317   52.0861   27.1792 O   0  0  0  0  0  0
    1.8468   53.6264   28.7246 H   0  0  0  0  0  0
    1.1040   54.1630   27.2422 H   0  0  0  0  0  0
    1.6415   52.4857   27.3911 H   0  0  0  0  0  0
    4.1841   53.8065   29.0090 H   0  0  0  0  0  0
    6.4059   54.4697   28.1965 H   0  0  0  0  0  0
    6.7466   54.9602   25.7901 H   0  0  0  0  0  0
    4.8792   54.8050   24.2261 H   0  0  0  0  0  0
    2.6460   54.5729   23.7639 H   0  0  0  0  0  0
    1.4191   54.6998   24.8816 H   0  0  0  0  0  0
    1.3464   52.2149   25.2230 H   0  0  0  0  0  0
    2.7041   51.9896   24.2189 H   0  0  0  0  0  0
    0.6534   52.9044   21.1385 H   0  0  0  0  0  0
    1.6039   54.0916   21.9407 H   0  0  0  0  0  0
    4.1968   53.4699   22.6290 H   0  0  0  0  0  0
    6.0735   54.9788   21.9171 H   0  0  0  0  0  0
    6.9472   55.0259   17.7283 H   0  0  0  0  0  0
    5.1440   53.5168   17.2679 H   0  0  0  0  0  0
    9.4910   56.8006   19.7221 H   0  0  0  0  0  0
    9.1397   55.2915   18.9026 H   0  0  0  0  0  0
    8.2962   56.7879   18.4403 H   0  0  0  0  0  0
   -0.6286   49.9163   25.7677 H   0  0  0  0  0  0
   -2.4181   50.3308   27.4037 H   0  0  0  0  0  0
   -2.2714   52.9609   23.1944 H   0  0  0  0  0  0
   -4.5684   54.6768   26.4495 H   0  0  0  0  0  0
   -5.9865   54.4540   25.4229 H   0  0  0  0  0  0
   -6.1483   53.0254   27.4929 H   0  0  0  0  0  0
   -6.0564   52.0295   26.0406 H   0  0  0  0  0  0
    3.4101   52.2319   18.0241 H   0  0  0  0  0  0
  1  2  1  0  0  0
  1 39  1  0  0  0
  1 40  1  0  0  0
  1 41  1  0  0  0
  2  7  2  0  0  0
  2  3  1  0  0  0
  3  4  2  0  0  0
  3 42  1  0  0  0
  4  5  1  0  0  0
  4 43  1  0  0  0
  5  6  2  0  0  0
  5 44  1  0  0  0
  6  7  1  0  0  0
  6 45  1  0  0  0
  7  8  1  0  0  0
  8  9  1  0  0  0
  8 46  1  0  0  0
  8 47  1  0  0  0
  9 10  1  0  0  0
  9 48  1  0  0  0
  9 49  1  0  0  0
 10 11  1  0  0  0
 10 26  1  0  0  0
 11 12  1  0  0  0
 11 50  1  0  0  0
 11 51  1  0  0  0
 12 13  1  0  0  0
 12 22  1  0  0  0
 12 14  1  0  0  0
 14 15  2  0  0  0
 14 52  1  0  0  0
 15 20  1  0  0  0
 15 16  1  0  0  0
 16 17  2  0  0  0
 16 53  1  0  0  0
 17 18  1  0  0  0
 17 24  1  0  0  0
 18 19  2  0  0  0
 18 54  1  0  0  0
 19 20  1  0  0  0
 19 55  1  0  0  0
 20 21  2  0  0  0
 21 22  1  0  0  0
 21 66  1  0  0  0
 22 23  2  0  0  0
 24 25  1  0  0  0
 25 56  1  0  0  0
 25 57  1  0  0  0
 25 58  1  0  0  0
 26 27  2  0  0  0
 26 28  2  0  0  0
 26 29  1  0  0  0
 29 34  2  0  0  0
 29 30  1  0  0  0
 30 31  2  0  0  0
 30 59  1  0  0  0
 31 32  1  0  0  0
 31 60  1  0  0  0
 32 38  1  0  0  0
 32 33  2  0  0  0
 33 34  1  0  0  0
 33 35  1  0  0  0
 34 61  1  0  0  0
 35 36  1  0  0  0
 36 37  1  0  0  0
 36 62  1  0  0  0
 36 63  1  0  0  0
 37 38  1  0  0  0
 37 64  1  0  0  0
 37 65  1  0  0  0
M  CHG  1  21   1
M  END
> <i_i_glide_confnum>
182

> <i_i_glide_lignum>
1102

> <i_i_glide_posenum>
126

> <i_i_glide_rotatable_bonds>
8

> <i_m_Source_File_Index>
3643

> <b_m_subgroup_collapsed>
0

> <r_i_docking_score>
-4.12486

> <r_i_glide_ecoul>
-0.807979

> <r_i_glide_eff_state_penalty>
0

> <r_i_glide_einternal>
12.6558

> <r_i_glide_emodel>
-50.2629

> <r_i_glide_energy>
-45.0968

> <r_i_glide_erotb>
0.453378

> <r_i_glide_esite>
-0.088776

> <r_i_glide_evdw>
-44.2888

> <r_i_glide_gscore>
-4.12486

> <r_i_glide_hbond>
-0.000622115

> <r_i_glide_ligand_efficiency>
-0.111483

> <r_i_glide_ligand_efficiency_ln>
-0.894586

> <r_i_glide_ligand_efficiency_sa>
-0.371485

> <r_i_glide_lipo>
-2.95505

> <r_i_glide_metal>
0

> <r_i_glide_rewards>
0.801849

> <s_i_glide_gridfile>
wee1_glide-grid

> <s_m_Source_File>
wee1_decoys_glide_SP.sdf

> <s_m_Source_Path>
/Users/zhangxujun/Desktop

> <s_m_entry_id>
3918

> <s_m_entry_name>
wee1_decoys_glide_SP.3643

> <s_m_subgroup_title>
wee1_decoys_glide_SP

> <s_m_subgroupid>
wee1_decoys_glide_SP


$$$$
