ZINC30961647_5392
                    3D
 Schrodinger Suite 2024-2.
 47 48  0  0  1  0            999 V2000
    2.8407   52.1486   21.8438 C   0  0  0  0  0  0
    4.2228   52.7754   21.5622 C   0  0  0  0  0  0
    4.4461   52.7473   20.0376 C   0  0  0  0  0  0
    4.4068   54.1802   22.2448 C   0  0  2  0  0  0
    3.6482   54.8777   21.8791 H   0  0  0  0  0  0
    5.8136   54.7467   21.9168 C   0  0  0  0  0  0
    6.7568   54.5011   22.6769 O   0  0  0  0  0  0
    5.9046   55.4768   20.7876 N   0  0  0  0  0  0
    7.0730   55.9626   20.3202 N   0  0  0  0  0  0
    7.0434   56.6188   19.2227 C   0  0  0  0  0  0
    5.9237   56.9060   18.2972 C   0  0  0  0  0  0
    5.9161   58.1299   17.6181 C   0  0  0  0  0  0
    4.8898   58.4563   16.7361 C   0  0  0  0  0  0
    3.8365   57.5734   16.5168 C   0  0  0  0  0  0
    3.8130   56.3306   17.1798 C   0  0  0  0  0  0
    4.8785   56.0055   18.0352 C   0  0  0  0  0  0
    2.7279   55.3458   16.9701 N   0  3  0  0  0  0
    3.0315   54.1586   16.9311 O   0  0  0  0  0  0
    1.5721   55.7469   16.8814 O   0  5  0  0  0  0
    2.4819   58.1081   15.2818 Br  0  0  0  0  0  0
    4.2912   54.0721   23.7002 N   0  0  0  0  0  0
    3.1960   54.2317   24.4560 C   0  0  0  0  0  0
    2.0873   54.4961   23.9907 O   0  0  0  0  0  0
    3.3949   53.9910   25.9354 C   0  0  0  0  0  0
    2.2939   53.6943   26.7491 C   0  0  0  0  0  0
    2.4667   53.4158   28.1036 C   0  0  0  0  0  0
    3.7429   53.4157   28.6675 C   0  0  0  0  0  0
    4.8528   53.7177   27.8678 C   0  0  0  0  0  0
    4.6714   54.0247   26.5208 C   0  0  0  0  0  0
    6.4683   53.6986   28.4829 Cl  0  0  0  0  0  0
    3.9037   53.0309   30.3458 Cl  0  0  0  0  0  0
    2.0356   52.8141   21.5245 H   0  0  0  0  0  0
    2.7131   51.2013   21.3159 H   0  0  0  0  0  0
    2.6996   51.9361   22.9014 H   0  0  0  0  0  0
    4.9597   52.0924   21.9921 H   0  0  0  0  0  0
    3.7481   53.4159   19.5336 H   0  0  0  0  0  0
    5.4639   53.0215   19.7547 H   0  0  0  0  0  0
    4.2775   51.7457   19.6425 H   0  0  0  0  0  0
    5.0925   55.6680   20.2187 H   0  0  0  0  0  0
    7.9771   57.0568   18.8810 H   0  0  0  0  0  0
    6.7018   58.8586   17.7716 H   0  0  0  0  0  0
    4.9095   59.4094   16.2217 H   0  0  0  0  0  0
    4.8852   55.0280   18.4948 H   0  0  0  0  0  0
    5.1694   53.8653   24.1553 H   0  0  0  0  0  0
    1.2960   53.6636   26.3336 H   0  0  0  0  0  0
    1.6050   53.1806   28.7156 H   0  0  0  0  0  0
    5.5510   54.2545   25.9354 H   0  0  0  0  0  0
  1  2  1  0  0  0
  1 32  1  0  0  0
  1 33  1  0  0  0
  1 34  1  0  0  0
  2  3  1  0  0  0
  2  4  1  0  0  0
  2 35  1  0  0  0
  3 36  1  0  0  0
  3 37  1  0  0  0
  3 38  1  0  0  0
  4  5  1  0  0  0
  4  6  1  0  0  0
  4 21  1  0  0  0
  6  7  2  0  0  0
  6  8  1  0  0  0
  8  9  1  0  0  0
  8 39  1  0  0  0
  9 10  2  0  0  0
 10 11  1  0  0  0
 10 40  1  0  0  0
 11 16  2  0  0  0
 11 12  1  0  0  0
 12 13  2  0  0  0
 12 41  1  0  0  0
 13 14  1  0  0  0
 13 42  1  0  0  0
 14 15  2  0  0  0
 14 20  1  0  0  0
 15 16  1  0  0  0
 15 17  1  0  0  0
 16 43  1  0  0  0
 17 18  2  0  0  0
 17 19  1  0  0  0
 21 22  1  0  0  0
 21 44  1  0  0  0
 22 23  2  0  0  0
 22 24  1  0  0  0
 24 29  2  0  0  0
 24 25  1  0  0  0
 25 26  2  0  0  0
 25 45  1  0  0  0
 26 27  1  0  0  0
 26 46  1  0  0  0
 27 28  2  0  0  0
 27 31  1  0  0  0
 28 29  1  0  0  0
 28 30  1  0  0  0
 29 47  1  0  0  0
M  CHG  2  17   1  19  -1
M  END
> <i_i_glide_confnum>
108

> <i_i_glide_lignum>
5393

> <i_i_glide_posenum>
297

> <i_i_glide_rotatable_bonds>
9

> <i_m_Source_File_Index>
440

> <b_m_subgroup_collapsed>
0

> <r_i_docking_score>
-4.90478

> <r_i_glide_ecoul>
-2.34157

> <r_i_glide_eff_state_penalty>
0

> <r_i_glide_einternal>
6.17822

> <r_i_glide_emodel>
-56.1317

> <r_i_glide_energy>
-45.1839

> <r_i_glide_erotb>
0.46219

> <r_i_glide_esite>
-0.00508482

> <r_i_glide_evdw>
-42.8423

> <r_i_glide_gscore>
-4.90478

> <r_i_glide_hbond>
0

> <r_i_glide_ligand_efficiency>
-0.163493

> <r_i_glide_ligand_efficiency_ln>
-1.11442

> <r_i_glide_ligand_efficiency_sa>
-0.508009

> <r_i_glide_lipo>
-2.2001

> <r_i_glide_metal>
0

> <r_i_glide_rewards>
-0.668435

> <s_i_glide_gridfile>
wee1_glide-grid

> <s_m_Source_File>
wee1_decoys_glide_SP.sdf

> <s_m_Source_Path>
/Users/zhangxujun/Desktop

> <s_m_entry_id>
715

> <s_m_entry_name>
wee1_decoys_glide_SP.440

> <s_m_subgroup_title>
wee1_decoys_glide_SP

> <s_m_subgroupid>
wee1_decoys_glide_SP


$$$$
