ZINC35664213_1079
                    3D
 Schrodinger Suite 2024-2.
 74 77  0  0  1  0            999 V2000
   -0.4486   48.0822   23.6394 C   0  0  0  0  0  0
   -1.0382   48.1833   25.0541 C   0  0  0  0  0  0
   -2.4160   48.7390   25.0586 N   0  0  0  0  0  0
   -2.7071   50.1100   25.0657 C   0  0  0  0  0  0
   -3.9987   50.5632   25.0119 C   0  0  0  0  0  0
   -5.1237   49.5390   24.7413 C   0  0  2  0  0  0
   -6.0170   49.7731   25.3232 H   0  0  0  0  0  0
   -4.6583   48.2109   25.1849 N   0  0  0  0  0  0
   -3.3891   47.7609   25.0777 C   0  0  0  0  0  0
   -3.2292   46.5500   24.9011 O   0  0  0  0  0  0
   -5.6103   49.5669   23.2838 C   0  0  0  0  0  0
   -6.8999   50.0217   22.9745 C   0  0  0  0  0  0
   -7.3331   50.0898   21.6516 C   0  0  0  0  0  0
   -6.4816   49.6971   20.6191 C   0  0  0  0  0  0
   -5.1972   49.2418   20.9103 C   0  0  0  0  0  0
   -4.7630   49.1779   22.2352 C   0  0  0  0  0  0
   -4.3691   48.8681   19.9112 F   0  0  0  0  0  0
   -4.4104   52.0056   25.0492 C   0  0  0  0  0  0
   -3.6392   52.9540   25.2078 O   0  0  0  0  0  0
   -5.7460   52.1956   24.9137 O   0  0  0  0  0  0
   -6.3107   53.5016   24.9085 C   0  0  0  0  0  0
   -7.8284   53.3925   24.7391 C   0  0  0  0  0  0
   -1.4587   51.0250   25.1525 C   0  0  0  0  0  0
   -0.8032   51.0829   26.5541 N   0  3  2  0  0  0
   -1.7585   51.6889   27.5973 C   0  0  0  0  0  0
   -1.2266   51.5867   29.0293 C   0  0  0  0  0  0
   -0.2397   52.6780   29.4913 C   0  0  0  0  0  0
    1.0295   52.7957   28.7469 N   0  0  0  0  0  0
    1.3738   51.7245   27.7898 C   0  0  0  0  0  0
    0.5718   51.7788   26.4755 C   0  0  0  0  0  0
    1.8546   53.8461   29.0348 C   0  0  0  0  0  0
    1.6299   54.6313   29.9637 O   0  0  0  0  0  0
    3.1011   54.0687   28.2113 C   0  0  0  0  0  0
    3.0389   54.1368   26.8121 C   0  0  0  0  0  0
    4.1890   54.3536   26.0627 C   0  0  0  0  0  0
    5.4115   54.5175   26.7072 C   0  0  0  0  0  0
    5.4825   54.4851   28.1002 C   0  0  0  0  0  0
    4.3286   54.2651   28.8505 C   0  0  0  0  0  0
    6.6637   54.7305   25.8875 C   0  0  0  0  0  0
    0.6235   47.9051   23.7015 H   0  0  0  0  0  0
   -0.8957   47.2520   23.0900 H   0  0  0  0  0  0
   -0.6031   48.9821   23.0473 H   0  0  0  0  0  0
   -0.3775   48.7436   25.7129 H   0  0  0  0  0  0
   -1.0108   47.1794   25.4875 H   0  0  0  0  0  0
   -5.3431   47.4728   25.1894 H   0  0  0  0  0  0
   -7.5709   50.3384   23.7599 H   0  0  0  0  0  0
   -8.3256   50.4496   21.4267 H   0  0  0  0  0  0
   -6.8142   49.7472   19.5935 H   0  0  0  0  0  0
   -3.7604   48.8363   22.4363 H   0  0  0  0  0  0
   -6.0739   54.0140   25.8433 H   0  0  0  0  0  0
   -5.8869   54.0885   24.0916 H   0  0  0  0  0  0
   -8.2880   54.3814   24.7146 H   0  0  0  0  0  0
   -8.0839   52.8861   23.8065 H   0  0  0  0  0  0
   -8.2773   52.8320   25.5610 H   0  0  0  0  0  0
   -1.5836   52.0533   24.8281 H   0  0  0  0  0  0
   -0.6923   50.6410   24.4864 H   0  0  0  0  0  0
   -2.6634   51.0840   27.5247 H   0  0  0  0  0  0
   -1.9768   52.7049   27.2657 H   0  0  0  0  0  0
   -0.7715   50.6111   29.1794 H   0  0  0  0  0  0
   -2.0930   51.5828   29.6840 H   0  0  0  0  0  0
   -0.0028   52.4842   30.5409 H   0  0  0  0  0  0
   -0.7410   53.6458   29.4605 H   0  0  0  0  0  0
    2.4402   51.7450   27.5633 H   0  0  0  0  0  0
    1.2423   50.7547   28.2661 H   0  0  0  0  0  0
    0.3757   52.7907   26.1216 H   0  0  0  0  0  0
    1.1045   51.2431   25.6918 H   0  0  0  0  0  0
    2.1004   54.0551   26.2928 H   0  0  0  0  0  0
    4.1277   54.4005   24.9858 H   0  0  0  0  0  0
    6.4278   54.6072   28.6050 H   0  0  0  0  0  0
    4.3998   54.2402   29.9276 H   0  0  0  0  0  0
    6.6582   54.1021   24.9958 H   0  0  0  0  0  0
    6.7553   55.7730   25.5789 H   0  0  0  0  0  0
    7.5307   54.4422   26.4727 H   0  0  0  0  0  0
   -0.6533   50.1256   26.8517 H   0  0  0  0  0  0
  1  2  1  0  0  0
  1 40  1  0  0  0
  1 41  1  0  0  0
  1 42  1  0  0  0
  2  3  1  0  0  0
  2 43  1  0  0  0
  2 44  1  0  0  0
  3  9  1  0  0  0
  3  4  1  0  0  0
  4  5  2  0  0  0
  4 23  1  0  0  0
  5  6  1  0  0  0
  5 18  1  0  0  0
  6  7  1  0  0  0
  6  8  1  0  0  0
  6 11  1  0  0  0
  8  9  1  0  0  0
  8 45  1  0  0  0
  9 10  2  0  0  0
 11 16  2  0  0  0
 11 12  1  0  0  0
 12 13  2  0  0  0
 12 46  1  0  0  0
 13 14  1  0  0  0
 13 47  1  0  0  0
 14 15  2  0  0  0
 14 48  1  0  0  0
 15 16  1  0  0  0
 15 17  1  0  0  0
 16 49  1  0  0  0
 18 19  2  0  0  0
 18 20  1  0  0  0
 20 21  1  0  0  0
 21 22  1  0  0  0
 21 50  1  0  0  0
 21 51  1  0  0  0
 22 52  1  0  0  0
 22 53  1  0  0  0
 22 54  1  0  0  0
 23 24  1  0  0  0
 23 55  1  0  0  0
 23 56  1  0  0  0
 24 30  1  0  0  0
 24 25  1  0  0  0
 24 74  1  0  0  0
 25 26  1  0  0  0
 25 57  1  0  0  0
 25 58  1  0  0  0
 26 27  1  0  0  0
 26 59  1  0  0  0
 26 60  1  0  0  0
 27 28  1  0  0  0
 27 61  1  0  0  0
 27 62  1  0  0  0
 28 29  1  0  0  0
 28 31  1  0  0  0
 29 30  1  0  0  0
 29 63  1  0  0  0
 29 64  1  0  0  0
 30 65  1  0  0  0
 30 66  1  0  0  0
 31 32  2  0  0  0
 31 33  1  0  0  0
 33 38  2  0  0  0
 33 34  1  0  0  0
 34 35  2  0  0  0
 34 67  1  0  0  0
 35 36  1  0  0  0
 35 68  1  0  0  0
 36 37  2  0  0  0
 36 39  1  0  0  0
 37 38  1  0  0  0
 37 69  1  0  0  0
 38 70  1  0  0  0
 39 71  1  0  0  0
 39 72  1  0  0  0
 39 73  1  0  0  0
M  CHG  1  24   1
M  END
> <i_i_glide_confnum>
332

> <i_i_glide_lignum>
1080

> <i_i_glide_posenum>
118

> <i_i_glide_rotatable_bonds>
9

> <i_m_Source_File_Index>
4227

> <b_m_subgroup_collapsed>
0

> <r_i_docking_score>
-4.58227

> <r_i_glide_ecoul>
-2.59425

> <r_i_glide_eff_state_penalty>
0

> <r_i_glide_einternal>
2.28278

> <r_i_glide_emodel>
-54.2514

> <r_i_glide_energy>
-41.4094

> <r_i_glide_erotb>
0.525206

> <r_i_glide_esite>
-0.150025

> <r_i_glide_evdw>
-38.8151

> <r_i_glide_gscore>
-4.58227

> <r_i_glide_hbond>
-0.0705706

> <r_i_glide_ligand_efficiency>
-0.120586

> <r_i_glide_ligand_efficiency_ln>
-0.988071

> <r_i_glide_ligand_efficiency_sa>
-0.405407

> <r_i_glide_lipo>
-2.01655

> <r_i_glide_metal>
0

> <r_i_glide_rewards>
-0.540433

> <s_i_glide_gridfile>
wee1_glide-grid

> <s_m_Source_File>
wee1_decoys_glide_SP.sdf

> <s_m_Source_Path>
/Users/zhangxujun/Desktop

> <s_m_entry_id>
4502

> <s_m_entry_name>
wee1_decoys_glide_SP.4227

> <s_m_subgroup_title>
wee1_decoys_glide_SP

> <s_m_subgroupid>
wee1_decoys_glide_SP


$$$$
