ZINC38547894_4893
                    3D
 Schrodinger Suite 2024-2.
 55 58  0  0  1  0            999 V2000
    5.6974   54.6452   26.5394 C   0  0  0  0  0  0
    6.6442   54.2774   25.3880 C   0  0  0  0  0  0
    5.9520   54.2358   24.0408 C   0  0  0  0  0  0
    4.7188   53.7051   23.6778 C   0  0  0  0  0  0
    4.3855   53.7382   22.3082 C   0  0  0  0  0  0
    5.3468   54.4914   21.6220 C   0  0  0  0  0  0
    6.7044   54.8972   22.6383 S   0  0  0  0  0  0
    5.2662   54.8949   20.2922 N   0  0  0  0  0  0
    5.9045   55.9407   19.7140 C   0  0  0  0  0  0
    6.7469   56.6650   20.2507 O   0  0  0  0  0  0
    5.4557   56.2075   18.3733 C   0  0  0  0  0  0
    4.3164   55.8121   17.6697 C   0  0  0  0  0  0
    4.3266   56.5049   16.4580 C   0  0  0  0  0  0
    5.4448   57.3204   16.4847 C   0  0  0  0  0  0
    6.1227   57.1469   17.6478 O   0  0  0  0  0  0
    3.1106   53.1383   21.6918 C   0  0  2  0  0  0
    2.5459   53.9829   21.3092 H   0  0  0  0  0  0
    2.1597   52.4576   22.6975 C   0  0  0  0  0  0
    1.9806   51.0674   22.7231 C   0  0  0  0  0  0
    1.1232   50.4837   23.6514 C   0  0  0  0  0  0
    0.4389   51.2693   24.5753 C   0  0  0  0  0  0
    0.6021   52.6610   24.5404 C   0  0  0  0  0  0
    1.4513   53.2496   23.6062 C   0  0  0  0  0  0
   -0.3711   50.5976   25.4705 O   0  0  0  0  0  0
   -0.7836   51.2317   26.6812 C   0  0  0  0  0  0
    0.2483   51.6757   27.4025 F   0  0  0  0  0  0
   -1.6737   52.2027   26.4676 F   0  0  0  0  0  0
    3.3585   52.3558   20.4592 N   0  0  0  0  0  0
    2.3421   51.9386   19.5452 C   0  0  0  0  0  0
    0.9862   52.2764   19.6726 C   0  0  0  0  0  0
    0.0604   51.8229   18.7277 C   0  0  0  0  0  0
    0.4962   51.0311   17.6622 C   0  0  0  0  0  0
    1.8510   50.7081   17.5675 C   0  0  0  0  0  0
    2.7045   51.1666   18.5019 N   0  3  0  0  0  0
    6.2404   54.7366   27.4811 H   0  0  0  0  0  0
    5.1994   55.5962   26.3496 H   0  0  0  0  0  0
    4.9242   53.8885   26.6764 H   0  0  0  0  0  0
    7.1036   53.3111   25.5987 H   0  0  0  0  0  0
    7.4651   54.9938   25.3644 H   0  0  0  0  0  0
    4.0752   53.2648   24.4220 H   0  0  0  0  0  0
    4.5365   54.4617   19.7472 H   0  0  0  0  0  0
    3.5561   55.1181   17.9981 H   0  0  0  0  0  0
    3.5927   56.4424   15.6675 H   0  0  0  0  0  0
    5.8555   58.0474   15.7993 H   0  0  0  0  0  0
    2.5170   50.4266   22.0385 H   0  0  0  0  0  0
    1.0084   49.4093   23.6739 H   0  0  0  0  0  0
    0.0813   53.2964   25.2363 H   0  0  0  0  0  0
    1.5696   54.3240   23.5985 H   0  0  0  0  0  0
   -1.2922   50.4963   27.3041 H   0  0  0  0  0  0
    4.3101   52.0661   20.2811 H   0  0  0  0  0  0
    0.6492   52.8962   20.4891 H   0  0  0  0  0  0
   -0.9836   52.0840   18.8186 H   0  0  0  0  0  0
   -0.2046   50.6718   16.9218 H   0  0  0  0  0  0
    2.3002   50.0976   16.7923 H   0  0  0  0  0  0
    3.6856   50.8966   18.4075 H   0  0  0  0  0  0
  1  2  1  0  0  0
  1 35  1  0  0  0
  1 36  1  0  0  0
  1 37  1  0  0  0
  2  3  1  0  0  0
  2 38  1  0  0  0
  2 39  1  0  0  0
  3  7  1  0  0  0
  3  4  2  0  0  0
  4  5  1  0  0  0
  4 40  1  0  0  0
  5  6  2  0  0  0
  5 16  1  0  0  0
  6  7  1  0  0  0
  6  8  1  0  0  0
  8  9  1  0  0  0
  8 41  1  0  0  0
  9 10  2  0  0  0
  9 11  1  0  0  0
 11 15  1  0  0  0
 11 12  2  0  0  0
 12 13  1  0  0  0
 12 42  1  0  0  0
 13 14  2  0  0  0
 13 43  1  0  0  0
 14 15  1  0  0  0
 14 44  1  0  0  0
 16 17  1  0  0  0
 16 18  1  0  0  0
 16 28  1  0  0  0
 18 23  2  0  0  0
 18 19  1  0  0  0
 19 20  2  0  0  0
 19 45  1  0  0  0
 20 21  1  0  0  0
 20 46  1  0  0  0
 21 22  2  0  0  0
 21 24  1  0  0  0
 22 23  1  0  0  0
 22 47  1  0  0  0
 23 48  1  0  0  0
 24 25  1  0  0  0
 25 26  1  0  0  0
 25 27  1  0  0  0
 25 49  1  0  0  0
 28 29  1  0  0  0
 28 50  1  0  0  0
 29 34  2  0  0  0
 29 30  1  0  0  0
 30 31  2  0  0  0
 30 51  1  0  0  0
 31 32  1  0  0  0
 31 52  1  0  0  0
 32 33  2  0  0  0
 32 53  1  0  0  0
 33 34  1  0  0  0
 33 54  1  0  0  0
 34 55  1  0  0  0
M  CHG  1  34   1
M  END
> <i_i_glide_confnum>
175

> <i_i_glide_lignum>
4894

> <i_i_glide_posenum>
165

> <i_i_glide_rotatable_bonds>
10

> <i_m_Source_File_Index>
205

> <b_m_subgroup_collapsed>
0

> <r_i_docking_score>
-5.72664

> <r_i_glide_ecoul>
-7.90639

> <r_i_glide_eff_state_penalty>
0

> <r_i_glide_einternal>
4.76242

> <r_i_glide_emodel>
-60.8319

> <r_i_glide_energy>
-43.5787

> <r_i_glide_erotb>
0.730163

> <r_i_glide_esite>
-0.134682

> <r_i_glide_evdw>
-35.6724

> <r_i_glide_gscore>
-5.72664

> <r_i_glide_hbond>
-0.430121

> <r_i_glide_ligand_efficiency>
-0.173535

> <r_i_glide_ligand_efficiency_ln>
-1.27358

> <r_i_glide_ligand_efficiency_sa>
-0.556618

> <r_i_glide_lipo>
-2.62051

> <r_i_glide_metal>
0

> <r_i_glide_rewards>
-0.301921

> <s_i_glide_gridfile>
wee1_glide-grid

> <s_m_Source_File>
wee1_decoys_glide_SP.sdf

> <s_m_Source_Path>
/Users/zhangxujun/Desktop

> <s_m_entry_id>
480

> <s_m_entry_name>
wee1_decoys_glide_SP.205

> <s_m_subgroup_title>
wee1_decoys_glide_SP

> <s_m_subgroupid>
wee1_decoys_glide_SP


$$$$
