ZINC20811438_878
                    3D
 Schrodinger Suite 2024-2.
 64 67  0  0  1  0            999 V2000
    0.1172   52.5536   24.1630 C   0  0  0  0  0  0
    1.0185   52.8018   25.2324 O   0  0  0  0  0  0
    2.1208   53.5561   25.0481 C   0  0  0  0  0  0
    2.4421   54.0519   23.9628 O   0  0  0  0  0  0
    2.9298   53.6969   26.2834 C   0  0  0  0  0  0
    2.5196   53.4019   27.6247 C   0  0  0  0  0  0
    3.5310   53.6358   28.5715 C   0  0  0  0  0  0
    5.0028   54.1567   27.8556 S   0  0  0  0  0  0
    4.2744   54.1347   26.2741 C   0  0  0  0  0  0
    4.9912   54.4667   25.1243 N   0  0  0  0  0  0
    6.3045   54.7313   24.9641 C   0  0  0  0  0  0
    7.1027   54.8965   25.8862 O   0  0  0  0  0  0
    6.8620   54.8083   23.5224 C   0  0  0  0  0  0
    5.8605   54.6576   22.4381 N   0  0  0  0  0  0
    5.4238   53.2560   22.2807 C   0  0  0  0  0  0
    4.3766   53.1219   21.1540 C   0  0  0  0  0  0
    5.0043   53.5684   19.8144 N   0  3  0  0  0  0
    5.5557   55.0113   19.9573 C   0  0  0  0  0  0
    6.4879   55.1179   21.1848 C   0  0  0  0  0  0
    3.9552   53.4374   18.6718 C   0  0  0  0  0  0
    4.5857   53.8081   17.3252 C   0  0  0  0  0  0
    4.3434   54.9161   16.8494 O   0  0  0  0  0  0
    5.4256   52.8967   16.7946 N   0  0  0  0  0  0
    6.2213   52.9973   15.6378 C   0  0  0  0  0  0
    5.9903   53.9120   14.5968 C   0  0  0  0  0  0
    6.8272   53.9230   13.4837 C   0  0  0  0  0  0
    7.8862   53.0234   13.4024 C   0  0  0  0  0  0
    8.1179   52.1096   14.4261 C   0  0  0  0  0  0
    7.2851   52.0972   15.5418 C   0  0  0  0  0  0
    8.6937   53.0336   12.3186 F   0  0  0  0  0  0
    3.3843   53.5373   30.0815 C   0  0  0  0  0  0
    2.1005   52.7610   30.4320 C   0  0  0  0  0  0
    0.9061   53.2234   29.5872 C   0  0  0  0  0  0
    1.1254   52.9388   28.0857 C   0  0  0  0  0  0
   -0.7052   51.9280   24.5100 H   0  0  0  0  0  0
   -0.3024   53.4856   23.7808 H   0  0  0  0  0  0
    0.6154   52.0355   23.3421 H   0  0  0  0  0  0
    4.4530   54.4299   24.2678 H   0  0  0  0  0  0
    7.3837   55.7634   23.4307 H   0  0  0  0  0  0
    7.6423   54.0534   23.4107 H   0  0  0  0  0  0
    6.2820   52.6170   22.0820 H   0  0  0  0  0  0
    4.9587   52.8969   23.1948 H   0  0  0  0  0  0
    3.4894   53.7362   21.3307 H   0  0  0  0  0  0
    4.0860   52.0771   21.0291 H   0  0  0  0  0  0
    4.7053   55.6860   19.9990 H   0  0  0  0  0  0
    6.1329   55.2174   19.0541 H   0  0  0  0  0  0
    6.8160   56.1544   21.2769 H   0  0  0  0  0  0
    7.3632   54.4967   21.0020 H   0  0  0  0  0  0
    3.6136   52.3996   18.6824 H   0  0  0  0  0  0
    3.1164   54.0927   18.9170 H   0  0  0  0  0  0
    5.5045   52.0079   17.2890 H   0  0  0  0  0  0
    5.1656   54.6074   14.6208 H   0  0  0  0  0  0
    6.6532   54.6230   12.6805 H   0  0  0  0  0  0
    8.9400   51.4118   14.3508 H   0  0  0  0  0  0
    7.4739   51.3803   16.3297 H   0  0  0  0  0  0
    3.3262   54.5482   30.4818 H   0  0  0  0  0  0
    4.2504   53.0572   30.5379 H   0  0  0  0  0  0
    1.8726   52.8693   31.4933 H   0  0  0  0  0  0
    2.2611   51.6963   30.2678 H   0  0  0  0  0  0
    0.7386   54.2911   29.7431 H   0  0  0  0  0  0
   -0.0040   52.7238   29.9252 H   0  0  0  0  0  0
    1.0213   51.8687   27.8984 H   0  0  0  0  0  0
    0.3220   53.4150   27.5277 H   0  0  0  0  0  0
    5.7852   52.9567   19.6153 H   0  0  0  0  0  0
  1  2  1  0  0  0
  1 35  1  0  0  0
  1 36  1  0  0  0
  1 37  1  0  0  0
  2  3  1  0  0  0
  3  4  2  0  0  0
  3  5  1  0  0  0
  5  9  2  0  0  0
  5  6  1  0  0  0
  6 34  1  0  0  0
  6  7  2  0  0  0
  7  8  1  0  0  0
  7 31  1  0  0  0
  8  9  1  0  0  0
  9 10  1  0  0  0
 10 11  1  0  0  0
 10 38  1  0  0  0
 11 12  2  0  0  0
 11 13  1  0  0  0
 13 14  1  0  0  0
 13 39  1  0  0  0
 13 40  1  0  0  0
 14 19  1  0  0  0
 14 15  1  0  0  0
 15 16  1  0  0  0
 15 41  1  0  0  0
 15 42  1  0  0  0
 16 17  1  0  0  0
 16 43  1  0  0  0
 16 44  1  0  0  0
 17 18  1  0  0  0
 17 20  1  0  0  0
 17 64  1  0  0  0
 18 19  1  0  0  0
 18 45  1  0  0  0
 18 46  1  0  0  0
 19 47  1  0  0  0
 19 48  1  0  0  0
 20 21  1  0  0  0
 20 49  1  0  0  0
 20 50  1  0  0  0
 21 22  2  0  0  0
 21 23  1  0  0  0
 23 24  1  0  0  0
 23 51  1  0  0  0
 24 29  2  0  0  0
 24 25  1  0  0  0
 25 26  2  0  0  0
 25 52  1  0  0  0
 26 27  1  0  0  0
 26 53  1  0  0  0
 27 28  2  0  0  0
 27 30  1  0  0  0
 28 29  1  0  0  0
 28 54  1  0  0  0
 29 55  1  0  0  0
 31 32  1  0  0  0
 31 56  1  0  0  0
 31 57  1  0  0  0
 32 33  1  0  0  0
 32 58  1  0  0  0
 32 59  1  0  0  0
 33 34  1  0  0  0
 33 60  1  0  0  0
 33 61  1  0  0  0
 34 62  1  0  0  0
 34 63  1  0  0  0
M  CHG  1  17   1
M  END
> <i_i_glide_confnum>
164

> <i_i_glide_lignum>
879

> <i_i_glide_posenum>
220

> <i_i_glide_rotatable_bonds>
10

> <i_m_Source_File_Index>
411

> <b_m_subgroup_collapsed>
0

> <r_i_docking_score>
-5.87564

> <r_i_glide_ecoul>
-5.05462

> <r_i_glide_eff_state_penalty>
0

> <r_i_glide_einternal>
12.0228

> <r_i_glide_emodel>
-60.9365

> <r_i_glide_energy>
-45.2677

> <r_i_glide_erotb>
0.679021

> <r_i_glide_esite>
-0.127468

> <r_i_glide_evdw>
-40.2131

> <r_i_glide_gscore>
-5.87564

> <r_i_glide_hbond>
-0.456

> <r_i_glide_ligand_efficiency>
-0.172813

> <r_i_glide_ligand_efficiency_ln>
-1.29809

> <r_i_glide_ligand_efficiency_sa>
-0.559847

> <r_i_glide_lipo>
-2.33529

> <r_i_glide_metal>
0

> <r_i_glide_rewards>
-0.867056

> <s_i_glide_gridfile>
wee1_glide-grid

> <s_m_Source_File>
wee1_decoys_glide_SP.sdf

> <s_m_Source_Path>
/Users/zhangxujun/Desktop

> <s_m_entry_id>
686

> <s_m_entry_name>
wee1_decoys_glide_SP.411

> <s_m_subgroup_title>
wee1_decoys_glide_SP

> <s_m_subgroupid>
wee1_decoys_glide_SP


$$$$
