ZINC38745157_2418
                    3D
 Schrodinger Suite 2024-2.
 53 58  0  0  1  0            999 V2000
    5.8639   54.4977   21.7961 C   0  0  0  0  0  0
    6.7043   54.7615   22.8740 C   0  0  0  0  0  0
    6.2356   54.6248   24.1785 C   0  0  0  0  0  0
    4.9098   54.2373   24.4143 C   0  0  0  0  0  0
    4.0787   53.9817   23.3126 C   0  0  0  0  0  0
    4.5502   54.0970   22.0106 C   0  0  0  0  0  0
    4.3604   54.1250   25.7903 C   0  0  0  0  0  0
    3.0673   54.0958   26.1121 C   0  0  0  0  0  0
    3.0475   53.9102   27.5995 C   0  0  2  0  0  0
    2.6204   54.7939   28.0782 H   0  0  0  0  0  0
    4.4502   53.8497   27.9239 N   0  0  0  0  0  0
    5.1611   53.9731   26.8695 N   0  0  0  0  0  0
    2.3017   52.6258   28.0726 C   0  0  2  0  0  0
    2.9948   51.7870   28.0817 H   0  0  0  0  0  0
    1.2254   52.2057   27.1641 N   0  0  0  0  0  0
    0.1142   51.8894   27.9135 N   0  0  0  0  0  0
   -1.1663   51.4073   27.6823 C   0  0  0  0  0  0
   -1.7671   51.3058   28.8532 N   0  0  0  0  0  0
   -0.8955   51.7381   29.8534 N   0  0  0  0  0  0
    0.1994   52.0959   29.2519 C   0  0  0  0  0  0
    1.7127   52.7449   29.7934 S   0  0  0  0  0  0
   -1.8216   51.0218   26.3134 C   0  0  0  0  0  0
   -3.1086   51.8723   26.0306 C   0  0  0  0  0  0
   -4.1587   51.8521   26.9689 C   0  0  0  0  0  0
   -5.3436   52.5523   26.7570 C   0  0  0  0  0  0
   -5.5013   53.2992   25.5953 C   0  0  0  0  0  0
   -4.5014   53.3075   24.6319 C   0  0  0  0  0  0
   -3.3366   52.5726   24.8320 C   0  0  0  0  0  0
   -0.7555   51.0482   25.1678 C   0  0  0  0  0  0
   -0.3254   52.2619   24.6006 C   0  0  0  0  0  0
    0.6111   52.2884   23.5725 C   0  0  0  0  0  0
    1.1720   51.0987   23.1222 C   0  0  0  0  0  0
    0.7956   49.8852   23.6887 C   0  0  0  0  0  0
   -0.1619   49.8598   24.7011 C   0  0  0  0  0  0
   -2.3155   49.6967   26.4811 O   0  0  0  0  0  0
    6.2321   54.5996   20.7869 H   0  0  0  0  0  0
    7.7217   55.0686   22.6855 H   0  0  0  0  0  0
    6.9029   54.8335   25.0013 H   0  0  0  0  0  0
    3.0560   53.6768   23.4538 H   0  0  0  0  0  0
    3.8988   53.8878   21.1739 H   0  0  0  0  0  0
    2.1990   54.1795   25.4766 H   0  0  0  0  0  0
    0.9549   53.0003   26.6040 H   0  0  0  0  0  0
   -4.0776   51.2637   27.8676 H   0  0  0  0  0  0
   -6.1343   52.5147   27.4933 H   0  0  0  0  0  0
   -6.4174   53.8481   25.4277 H   0  0  0  0  0  0
   -4.6411   53.8584   23.7138 H   0  0  0  0  0  0
   -2.6461   52.5546   24.0090 H   0  0  0  0  0  0
   -0.7342   53.1990   24.9501 H   0  0  0  0  0  0
    0.8956   53.2294   23.1254 H   0  0  0  0  0  0
    1.9053   51.1168   22.3281 H   0  0  0  0  0  0
    1.2441   48.9641   23.3457 H   0  0  0  0  0  0
   -0.4313   48.9021   25.1215 H   0  0  0  0  0  0
   -1.8232   49.2182   27.1831 H   0  0  0  0  0  0
  1  6  2  0  0  0
  1  2  1  0  0  0
  1 36  1  0  0  0
  2  3  2  0  0  0
  2 37  1  0  0  0
  3  4  1  0  0  0
  3 38  1  0  0  0
  4  5  2  0  0  0
  4  7  1  0  0  0
  5  6  1  0  0  0
  5 39  1  0  0  0
  6 40  1  0  0  0
  7 12  1  0  0  0
  7  8  2  0  0  0
  8  9  1  0  0  0
  8 41  1  0  0  0
  9 10  1  0  0  0
  9 11  1  0  0  0
  9 13  1  0  0  0
 11 12  2  0  0  0
 13 14  1  0  0  0
 13 21  1  0  0  0
 13 15  1  0  0  0
 15 16  1  0  0  0
 15 42  1  0  0  0
 16 20  1  0  0  0
 16 17  1  0  0  0
 17 18  2  0  0  0
 17 22  1  0  0  0
 18 19  1  0  0  0
 19 20  2  0  0  0
 20 21  1  0  0  0
 22 23  1  0  0  0
 22 29  1  0  0  0
 22 35  1  0  0  0
 23 28  2  0  0  0
 23 24  1  0  0  0
 24 25  2  0  0  0
 24 43  1  0  0  0
 25 26  1  0  0  0
 25 44  1  0  0  0
 26 27  2  0  0  0
 26 45  1  0  0  0
 27 28  1  0  0  0
 27 46  1  0  0  0
 28 47  1  0  0  0
 29 34  2  0  0  0
 29 30  1  0  0  0
 30 31  2  0  0  0
 30 48  1  0  0  0
 31 32  1  0  0  0
 31 49  1  0  0  0
 32 33  2  0  0  0
 32 50  1  0  0  0
 33 34  1  0  0  0
 33 51  1  0  0  0
 34 52  1  0  0  0
 35 53  1  0  0  0
M  END
> <i_i_glide_confnum>
117

> <i_i_glide_lignum>
2419

> <i_i_glide_posenum>
241

> <i_i_glide_rotatable_bonds>
6

> <i_m_Source_File_Index>
1009

> <b_m_subgroup_collapsed>
0

> <r_i_docking_score>
-6.36796

> <r_i_glide_ecoul>
-6.56406

> <r_i_glide_eff_state_penalty>
0

> <r_i_glide_einternal>
16.1952

> <r_i_glide_emodel>
-60.4725

> <r_i_glide_energy>
-49.5092

> <r_i_glide_erotb>
0.489925

> <r_i_glide_esite>
-0.249062

> <r_i_glide_evdw>
-42.9451

> <r_i_glide_gscore>
-6.36796

> <r_i_glide_hbond>
-0.155304

> <r_i_glide_ligand_efficiency>
-0.192969

> <r_i_glide_ligand_efficiency_ln>
-1.4162

> <r_i_glide_ligand_efficiency_sa>
-0.618953

> <r_i_glide_lipo>
-2.8246

> <r_i_glide_metal>
0

> <r_i_glide_rewards>
-0.497061

> <s_i_glide_gridfile>
wee1_glide-grid

> <s_m_Source_File>
wee1_decoys_glide_SP.sdf

> <s_m_Source_Path>
/Users/zhangxujun/Desktop

> <s_m_entry_id>
1284

> <s_m_entry_name>
wee1_decoys_glide_SP.1009

> <s_m_subgroup_title>
wee1_decoys_glide_SP

> <s_m_subgroupid>
wee1_decoys_glide_SP


$$$$
