ZINC20101738_3007
                    3D
 Schrodinger Suite 2024-2.
 63 65  0  0  1  0            999 V2000
    0.8297   44.7437   12.3191 C   0  0  0  0  0  0
    1.1009   45.5037   13.6034 C   0  0  0  0  0  0
    0.5240   45.0754   14.8001 C   0  0  0  0  0  0
    0.7598   45.7767   15.9793 C   0  0  0  0  0  0
    1.5843   46.9142   15.9649 C   0  0  0  0  0  0
    2.1556   47.3368   14.7616 C   0  0  0  0  0  0
    1.9084   46.6426   13.5820 C   0  0  0  0  0  0
    1.9044   47.6956   17.0902 N   0  0  0  0  0  0
    1.5423   47.5511   18.3836 C   0  0  0  0  0  0
    0.8220   46.6532   18.8193 O   0  0  0  0  0  0
    2.1137   48.5650   19.3805 C   0  0  0  0  0  0
    2.2939   50.2654   18.7523 S   0  0  0  0  0  0
    2.2359   51.2185   20.2494 C   0  0  0  0  0  0
    1.1326   51.4968   20.9749 C   0  0  0  0  0  0
    1.1911   52.3891   22.2250 C   0  0  2  0  0  0
    0.6636   53.2968   21.9429 H   0  0  0  0  0  0
    2.6368   52.8984   22.4954 C   0  0  0  0  0  0
    3.6791   52.5509   21.6810 C   0  0  0  0  0  0
    3.4586   51.7409   20.5825 N   0  0  0  0  0  0
    5.1201   53.0412   21.7387 C   0  0  0  0  0  0
    2.7700   53.7862   23.6775 C   0  0  0  0  0  0
    1.8416   54.4967   24.0666 O   0  0  0  0  0  0
    3.9581   53.6968   24.3296 O   0  0  0  0  0  0
    4.3004   54.5152   25.4535 C   0  0  0  0  0  0
    3.5830   54.2057   26.7654 C   0  0  0  0  0  0
    2.6165   53.2955   26.9755 C   0  0  0  0  0  0
    0.3945   51.8131   23.4105 C   0  0  0  0  0  0
    0.8494   50.6783   24.0907 C   0  0  0  0  0  0
    0.0979   50.1251   25.1315 C   0  0  0  0  0  0
   -1.1310   50.6863   25.4862 C   0  0  0  0  0  0
   -1.6121   51.8169   24.8062 C   0  0  0  0  0  0
   -0.8282   52.3812   23.7862 C   0  0  0  0  0  0
   -2.8411   52.3321   25.1820 O   0  0  0  0  0  0
   -3.5647   53.1347   24.2548 C   0  0  0  0  0  0
   -1.8897   50.1153   26.4817 O   0  0  0  0  0  0
   -0.1413   50.9924   20.5741 C   0  0  0  0  0  0
   -1.1899   50.6129   20.2656 N   0  0  0  0  0  0
   -0.1988   44.3789   12.2987 H   0  0  0  0  0  0
    0.9525   45.3815   11.4418 H   0  0  0  0  0  0
    1.4988   43.8848   12.2348 H   0  0  0  0  0  0
   -0.1109   44.1996   14.8179 H   0  0  0  0  0  0
    0.2958   45.4153   16.8821 H   0  0  0  0  0  0
    2.7942   48.2113   14.7388 H   0  0  0  0  0  0
    2.3429   46.9911   12.6565 H   0  0  0  0  0  0
    2.5726   48.4399   16.8961 H   0  0  0  0  0  0
    3.1007   48.2153   19.6820 H   0  0  0  0  0  0
    1.4853   48.5723   20.2714 H   0  0  0  0  0  0
    4.2236   51.5647   19.9422 H   0  0  0  0  0  0
    5.7527   52.2962   22.2206 H   0  0  0  0  0  0
    5.5042   53.2228   20.7331 H   0  0  0  0  0  0
    5.2292   53.9857   22.2691 H   0  0  0  0  0  0
    4.1410   55.5639   25.2145 H   0  0  0  0  0  0
    5.3707   54.3985   25.6254 H   0  0  0  0  0  0
    3.9082   54.8043   27.6049 H   0  0  0  0  0  0
    2.2424   52.6628   26.1828 H   0  0  0  0  0  0
    2.1786   53.1681   27.9539 H   0  0  0  0  0  0
    1.7863   50.2169   23.8101 H   0  0  0  0  0  0
    0.4616   49.2451   25.6457 H   0  0  0  0  0  0
   -1.1718   53.2647   23.2740 H   0  0  0  0  0  0
   -4.5616   53.3340   24.6484 H   0  0  0  0  0  0
   -3.0839   54.0965   24.0816 H   0  0  0  0  0  0
   -3.6826   52.6227   23.2987 H   0  0  0  0  0  0
   -1.4963   49.4173   27.0343 H   0  0  0  0  0  0
  1  2  1  0  0  0
  1 38  1  0  0  0
  1 39  1  0  0  0
  1 40  1  0  0  0
  2  7  2  0  0  0
  2  3  1  0  0  0
  3  4  2  0  0  0
  3 41  1  0  0  0
  4  5  1  0  0  0
  4 42  1  0  0  0
  5  6  2  0  0  0
  5  8  1  0  0  0
  6  7  1  0  0  0
  6 43  1  0  0  0
  7 44  1  0  0  0
  8  9  1  0  0  0
  8 45  1  0  0  0
  9 10  2  0  0  0
  9 11  1  0  0  0
 11 12  1  0  0  0
 11 46  1  0  0  0
 11 47  1  0  0  0
 12 13  1  0  0  0
 13 19  1  0  0  0
 13 14  2  0  0  0
 14 15  1  0  0  0
 14 36  1  0  0  0
 15 16  1  0  0  0
 15 17  1  0  0  0
 15 27  1  0  0  0
 17 18  2  0  0  0
 17 21  1  0  0  0
 18 19  1  0  0  0
 18 20  1  0  0  0
 19 48  1  0  0  0
 20 49  1  0  0  0
 20 50  1  0  0  0
 20 51  1  0  0  0
 21 22  2  0  0  0
 21 23  1  0  0  0
 23 24  1  0  0  0
 24 25  1  0  0  0
 24 52  1  0  0  0
 24 53  1  0  0  0
 25 26  2  0  0  0
 25 54  1  0  0  0
 26 55  1  0  0  0
 26 56  1  0  0  0
 27 32  2  0  0  0
 27 28  1  0  0  0
 28 29  2  0  0  0
 28 57  1  0  0  0
 29 30  1  0  0  0
 29 58  1  0  0  0
 30 31  2  0  0  0
 30 35  1  0  0  0
 31 32  1  0  0  0
 31 33  1  0  0  0
 32 59  1  0  0  0
 33 34  1  0  0  0
 34 60  1  0  0  0
 34 61  1  0  0  0
 34 62  1  0  0  0
 35 63  1  0  0  0
 36 37  3  0  0  0
M  END
> <i_i_glide_confnum>
307

> <i_i_glide_lignum>
3008

> <i_i_glide_posenum>
297

> <i_i_glide_rotatable_bonds>
13

> <i_m_Source_File_Index>
529

> <b_m_subgroup_collapsed>
0

> <r_i_docking_score>
-4.44872

> <r_i_glide_ecoul>
-8.98501

> <r_i_glide_eff_state_penalty>
0

> <r_i_glide_einternal>
10.6102

> <r_i_glide_emodel>
-57.4712

> <r_i_glide_energy>
-46.7477

> <r_i_glide_erotb>
0.800193

> <r_i_glide_esite>
-0.182985

> <r_i_glide_evdw>
-37.7627

> <r_i_glide_gscore>
-4.44872

> <r_i_glide_hbond>
-0.152

> <r_i_glide_ligand_efficiency>
-0.123576

> <r_i_glide_ligand_efficiency_ln>
-0.970591

> <r_i_glide_ligand_efficiency_sa>
-0.408038

> <r_i_glide_lipo>
-1.34517

> <r_i_glide_metal>
0

> <r_i_glide_rewards>
-0.332871

> <s_i_glide_gridfile>
wee1_glide-grid

> <s_m_Source_File>
wee1_decoys_glide_SP.sdf

> <s_m_Source_Path>
/Users/zhangxujun/Desktop

> <s_m_entry_id>
804

> <s_m_entry_name>
wee1_decoys_glide_SP.529

> <s_m_subgroup_title>
wee1_decoys_glide_SP

> <s_m_subgroupid>
wee1_decoys_glide_SP


$$$$
