ZINC39675240_3078
                    3D
 Schrodinger Suite 2024-2.
 76 79  0  0  1  0            999 V2000
    2.7065   47.0830   13.5805 C   0  0  0  0  0  0
    2.5852   46.5916   15.0254 C   0  0  0  0  0  0
    1.1949   46.4359   15.3064 O   0  0  0  0  0  0
    0.7098   46.6302   16.5852 C   0  0  0  0  0  0
   -0.6757   46.5776   16.7296 C   0  0  0  0  0  0
   -1.2709   46.7949   17.9696 C   0  0  0  0  0  0
   -0.4846   47.0825   19.0912 C   0  0  0  0  0  0
    0.9109   47.0837   18.9548 C   0  0  0  0  0  0
    1.5031   46.8692   17.7151 C   0  0  0  0  0  0
   -1.1589   47.3470   20.4235 C   0  0  0  0  0  0
   -2.1265   46.6532   20.7459 O   0  0  0  0  0  0
   -0.6941   48.3441   21.2215 N   0  0  0  0  0  0
    0.3017   49.3503   20.8344 C   0  0  0  0  0  0
    0.0431   50.4986   21.8262 C   0  0  1  0  0  0
   -0.7342   51.1517   21.4250 H   0  0  0  0  0  0
   -0.4625   49.7916   23.1213 C   0  0  0  0  0  0
   -1.3217   48.6603   22.5110 C   0  0  0  0  0  0
   -1.2278   50.7451   24.0773 C   0  0  0  0  0  0
   -1.8219   50.0032   25.2968 C   0  0  0  0  0  0
   -0.6613   49.3507   26.0817 N   0  3  0  0  0  0
    0.1994   48.4075   25.2150 C   0  0  0  0  0  0
    0.6919   49.1875   23.9861 C   0  0  0  0  0  0
    1.3468   51.3126   22.0106 C   0  0  0  0  0  0
    2.4415   50.7520   22.0791 O   0  0  0  0  0  0
    1.1990   52.6465   22.0982 N   0  0  0  0  0  0
    2.1958   53.5963   22.6079 C   0  0  2  0  0  0
    1.7483   54.5838   22.4814 H   0  0  0  0  0  0
    3.5201   53.5993   21.8136 C   0  0  0  0  0  0
    2.3509   53.3687   24.1314 C   0  0  0  0  0  0
    3.3653   54.2530   24.8804 C   0  0  0  0  0  0
    3.4503   54.0050   26.3892 C   0  0  0  0  0  0
    4.5537   54.4968   27.0894 C   0  0  0  0  0  0
    4.6722   54.2737   28.4590 C   0  0  0  0  0  0
    3.7043   53.5346   29.1374 C   0  0  0  0  0  0
    2.5919   53.0513   28.4431 C   0  0  0  0  0  0
    2.4611   53.2947   27.0826 C   0  0  0  0  0  0
    3.9040   53.3284   30.4838 O   0  0  0  0  0  0
    3.2657   52.2234   31.1123 C   0  0  0  0  0  0
    3.7440   47.2960   13.3185 H   0  0  0  0  0  0
    2.3052   46.3539   12.8768 H   0  0  0  0  0  0
    2.1496   48.0102   13.4457 H   0  0  0  0  0  0
    3.0862   47.3165   15.6633 H   0  0  0  0  0  0
    3.0957   45.6370   15.1576 H   0  0  0  0  0  0
   -1.2932   46.3811   15.8655 H   0  0  0  0  0  0
   -2.3497   46.7623   18.0458 H   0  0  0  0  0  0
    1.5599   47.2433   19.8029 H   0  0  0  0  0  0
    2.5805   46.8960   17.6612 H   0  0  0  0  0  0
    0.2052   49.7073   19.8078 H   0  0  0  0  0  0
    1.2780   48.9103   21.0439 H   0  0  0  0  0  0
   -1.5071   47.8105   23.1672 H   0  0  0  0  0  0
   -2.3076   49.0701   22.2819 H   0  0  0  0  0  0
   -0.5904   51.5721   24.3965 H   0  0  0  0  0  0
   -2.0528   51.2129   23.5364 H   0  0  0  0  0  0
   -2.3151   50.6765   25.9997 H   0  0  0  0  0  0
   -2.5138   49.2010   25.0316 H   0  0  0  0  0  0
   -0.0639   50.0815   26.4378 H   0  0  0  0  0  0
    1.0400   48.0994   25.8358 H   0  0  0  0  0  0
   -0.4114   47.5326   24.9912 H   0  0  0  0  0  0
    1.2767   48.5078   23.3642 H   0  0  0  0  0  0
    1.3985   49.9482   24.3211 H   0  0  0  0  0  0
    0.2940   53.0355   21.8911 H   0  0  0  0  0  0
    4.1625   54.4221   22.1244 H   0  0  0  0  0  0
    4.0937   52.6869   21.9773 H   0  0  0  0  0  0
    3.3428   53.7040   20.7419 H   0  0  0  0  0  0
    2.6003   52.3240   24.3268 H   0  0  0  0  0  0
    1.3622   53.5281   24.5647 H   0  0  0  0  0  0
    3.1156   55.2966   24.7155 H   0  0  0  0  0  0
    4.3582   54.0898   24.4576 H   0  0  0  0  0  0
    5.3242   55.0514   26.5733 H   0  0  0  0  0  0
    5.5319   54.6570   28.9918 H   0  0  0  0  0  0
    1.8174   52.4916   28.9451 H   0  0  0  0  0  0
    1.5888   52.9005   26.5891 H   0  0  0  0  0  0
    3.6472   52.1173   32.1265 H   0  0  0  0  0  0
    3.4920   51.2971   30.5824 H   0  0  0  0  0  0
    2.1840   52.3544   31.1766 H   0  0  0  0  0  0
   -1.0096   48.8730   26.9286 H   0  0  0  0  0  0
  1  2  1  0  0  0
  1 39  1  0  0  0
  1 40  1  0  0  0
  1 41  1  0  0  0
  2  3  1  0  0  0
  2 42  1  0  0  0
  2 43  1  0  0  0
  3  4  1  0  0  0
  4  9  2  0  0  0
  4  5  1  0  0  0
  5  6  2  0  0  0
  5 44  1  0  0  0
  6  7  1  0  0  0
  6 45  1  0  0  0
  7  8  2  0  0  0
  7 10  1  0  0  0
  8  9  1  0  0  0
  8 46  1  0  0  0
  9 47  1  0  0  0
 10 11  2  0  0  0
 10 12  1  0  0  0
 12 17  1  0  0  0
 12 13  1  0  0  0
 13 14  1  0  0  0
 13 48  1  0  0  0
 13 49  1  0  0  0
 14 15  1  0  0  0
 14 16  1  0  0  0
 14 23  1  0  0  0
 16 22  1  0  0  0
 16 17  1  0  0  0
 16 18  1  0  0  0
 17 50  1  0  0  0
 17 51  1  0  0  0
 18 19  1  0  0  0
 18 52  1  0  0  0
 18 53  1  0  0  0
 19 20  1  0  0  0
 19 54  1  0  0  0
 19 55  1  0  0  0
 20 21  1  0  0  0
 20 56  1  0  0  0
 20 76  1  0  0  0
 21 22  1  0  0  0
 21 57  1  0  0  0
 21 58  1  0  0  0
 22 59  1  0  0  0
 22 60  1  0  0  0
 23 24  2  0  0  0
 23 25  1  0  0  0
 25 26  1  0  0  0
 25 61  1  0  0  0
 26 27  1  0  0  0
 26 28  1  0  0  0
 26 29  1  0  0  0
 28 62  1  0  0  0
 28 63  1  0  0  0
 28 64  1  0  0  0
 29 30  1  0  0  0
 29 65  1  0  0  0
 29 66  1  0  0  0
 30 31  1  0  0  0
 30 67  1  0  0  0
 30 68  1  0  0  0
 31 36  2  0  0  0
 31 32  1  0  0  0
 32 33  2  0  0  0
 32 69  1  0  0  0
 33 34  1  0  0  0
 33 70  1  0  0  0
 34 35  2  0  0  0
 34 37  1  0  0  0
 35 36  1  0  0  0
 35 71  1  0  0  0
 36 72  1  0  0  0
 37 38  1  0  0  0
 38 73  1  0  0  0
 38 74  1  0  0  0
 38 75  1  0  0  0
M  CHG  1  20   1
M  END
> <i_i_glide_confnum>
11

> <i_i_glide_lignum>
3079

> <i_i_glide_posenum>
335

> <i_i_glide_rotatable_bonds>
11

> <i_m_Source_File_Index>
4692

> <b_m_subgroup_collapsed>
0

> <r_i_docking_score>
-4.53615

> <r_i_glide_ecoul>
-5.25699

> <r_i_glide_eff_state_penalty>
0

> <r_i_glide_einternal>
9.64226

> <r_i_glide_emodel>
-52.5146

> <r_i_glide_energy>
-42.2369

> <r_i_glide_erotb>
0.749646

> <r_i_glide_esite>
-0.1

> <r_i_glide_evdw>
-36.9799

> <r_i_glide_gscore>
-4.53615

> <r_i_glide_hbond>
-0.510095

> <r_i_glide_ligand_efficiency>
-0.126004

> <r_i_glide_ligand_efficiency_ln>
-0.989665

> <r_i_glide_ligand_efficiency_sa>
-0.416056

> <r_i_glide_lipo>
-1.99168

> <r_i_glide_metal>
0

> <r_i_glide_rewards>
-0.046473

> <s_i_glide_gridfile>
wee1_glide-grid

> <s_m_Source_File>
wee1_decoys_glide_SP.sdf

> <s_m_Source_Path>
/Users/zhangxujun/Desktop

> <s_m_entry_id>
4967

> <s_m_entry_name>
wee1_decoys_glide_SP.4692

> <s_m_subgroup_title>
wee1_decoys_glide_SP

> <s_m_subgroupid>
wee1_decoys_glide_SP


$$$$
