ZINC44729768_4734
                    3D
 Schrodinger Suite 2024-2.
 40 42  0  0  1  0            999 V2000
    1.2973   56.8407   30.8814 C   0  0  0  0  0  0
    1.5001   55.5782   30.0857 C   0  0  0  0  0  0
    2.3496   55.1961   29.0720 C   0  0  0  0  0  0
    2.1145   53.8456   28.7750 C   0  0  0  0  0  0
    1.0879   53.4733   29.6477 C   0  0  0  0  0  0
    0.7194   54.5255   30.4222 O   0  0  0  0  0  0
    0.3316   52.1899   29.9036 C   0  0  0  0  0  0
    2.8411   52.9878   27.7502 C   0  0  2  0  0  0
    2.6457   51.9413   27.9742 H   0  0  0  0  0  0
    4.3623   53.1832   27.8829 C   0  0  0  0  0  0
    2.3978   53.2952   26.3908 N   0  0  0  0  0  0
    1.3001   52.6794   25.7473 C   0  0  0  0  0  0
    0.5532   51.6568   26.3615 C   0  0  0  0  0  0
   -0.5085   51.0663   25.6823 C   0  0  0  0  0  0
   -0.8536   51.4715   24.4132 C   0  0  0  0  0  0
   -0.1364   52.4849   23.7816 C   0  0  0  0  0  0
    0.9459   53.0840   24.4356 C   0  0  0  0  0  0
    1.6583   54.0655   23.7309 N   0  0  0  0  0  0
   -2.0171   50.6457   23.9631 C   0  0  0  0  0  0
   -2.2529   49.7022   25.1410 C   0  0  0  0  0  0
   -3.1055   48.8189   25.1915 O   0  0  0  0  0  0
   -1.3490   50.0333   26.0815 N   0  0  0  0  0  0
    1.9046   57.6679   30.5257 H   0  0  0  0  0  0
    1.5065   56.6975   31.9398 H   0  0  0  0  0  0
    0.2736   57.1784   30.8321 H   0  0  0  0  0  0
    3.0891   55.8233   28.6052 H   0  0  0  0  0  0
    0.9266   51.3060   29.6777 H   0  0  0  0  0  0
    0.0166   52.0998   30.9444 H   0  0  0  0  0  0
   -0.5732   52.1324   29.2976 H   0  0  0  0  0  0
    4.6986   52.9949   28.9029 H   0  0  0  0  0  0
    4.9062   52.4986   27.2329 H   0  0  0  0  0  0
    4.6703   54.1950   27.6181 H   0  0  0  0  0  0
    2.6416   54.2126   26.0484 H   0  0  0  0  0  0
    0.7918   51.2990   27.3477 H   0  0  0  0  0  0
   -0.4013   52.7918   22.7812 H   0  0  0  0  0  0
    1.4708   54.1783   22.7436 H   0  0  0  0  0  0
    2.5576   54.3486   24.0896 H   0  0  0  0  0  0
   -2.9098   51.2457   23.7908 H   0  0  0  0  0  0
   -1.7857   50.0663   23.0702 H   0  0  0  0  0  0
   -1.2961   49.5284   26.9672 H   0  0  0  0  0  0
  1  2  1  0  0  0
  1 23  1  0  0  0
  1 24  1  0  0  0
  1 25  1  0  0  0
  2  6  1  0  0  0
  2  3  2  0  0  0
  3  4  1  0  0  0
  3 26  1  0  0  0
  4  5  2  0  0  0
  4  8  1  0  0  0
  5  6  1  0  0  0
  5  7  1  0  0  0
  7 27  1  0  0  0
  7 28  1  0  0  0
  7 29  1  0  0  0
  8  9  1  0  0  0
  8 10  1  0  0  0
  8 11  1  0  0  0
 10 30  1  0  0  0
 10 31  1  0  0  0
 10 32  1  0  0  0
 11 12  1  0  0  0
 11 33  1  0  0  0
 12 17  2  0  0  0
 12 13  1  0  0  0
 13 14  2  0  0  0
 13 34  1  0  0  0
 14 22  1  0  0  0
 14 15  1  0  0  0
 15 16  2  0  0  0
 15 19  1  0  0  0
 16 17  1  0  0  0
 16 35  1  0  0  0
 17 18  1  0  0  0
 18 36  1  0  0  0
 18 37  1  0  0  0
 19 20  1  0  0  0
 19 38  1  0  0  0
 19 39  1  0  0  0
 20 21  2  0  0  0
 20 22  1  0  0  0
 22 40  1  0  0  0
M  END
> <i_i_glide_confnum>
5

> <i_i_glide_lignum>
4735

> <i_i_glide_posenum>
163

> <i_i_glide_rotatable_bonds>
3

> <i_m_Source_File_Index>
4007

> <b_m_subgroup_collapsed>
0

> <r_i_docking_score>
-5.17493

> <r_i_glide_ecoul>
-3.07081

> <r_i_glide_eff_state_penalty>
0

> <r_i_glide_einternal>
3.44447

> <r_i_glide_emodel>
-43.0155

> <r_i_glide_energy>
-32.7544

> <r_i_glide_erotb>
0.668464

> <r_i_glide_esite>
-0.139507

> <r_i_glide_evdw>
-29.6836

> <r_i_glide_gscore>
-5.17493

> <r_i_glide_hbond>
-0.16

> <r_i_glide_ligand_efficiency>
-0.246425

> <r_i_glide_ligand_efficiency_ln>
-1.27949

> <r_i_glide_ligand_efficiency_sa>
-0.679869

> <r_i_glide_lipo>
-2.1355

> <r_i_glide_metal>
0

> <r_i_glide_rewards>
-1.46358

> <s_i_glide_gridfile>
wee1_glide-grid

> <s_m_Source_File>
wee1_decoys_glide_SP.sdf

> <s_m_Source_Path>
/Users/zhangxujun/Desktop

> <s_m_entry_id>
4282

> <s_m_entry_name>
wee1_decoys_glide_SP.4007

> <s_m_subgroup_title>
wee1_decoys_glide_SP

> <s_m_subgroupid>
wee1_decoys_glide_SP


$$$$
