ZINC51318354_292
                    3D
 Schrodinger Suite 2024-2.
 66 69  0  0  1  0            999 V2000
    7.2160   57.5061   12.3804 C   0  0  0  0  0  0
    6.4816   57.2902   13.6898 C   0  0  0  0  0  0
    6.3798   56.0053   14.2270 C   0  0  0  0  0  0
    5.7023   55.8031   15.4254 C   0  0  0  0  0  0
    5.1187   56.8878   16.0921 C   0  0  0  0  0  0
    5.2190   58.1743   15.5492 C   0  0  0  0  0  0
    5.8979   58.3741   14.3508 C   0  0  0  0  0  0
    4.3935   56.6668   17.4261 C   0  0  2  0  0  0
    3.9599   57.6377   17.6798 H   0  0  0  0  0  0
    5.2880   56.1953   18.6065 C   0  0  0  0  0  0
    5.0931   54.9522   19.1265 C   0  0  0  0  0  0
    4.1154   54.1334   18.6415 N   0  0  0  0  0  0
    3.2147   54.4437   17.6810 C   0  0  0  0  0  0
    2.4984   53.6098   17.1440 O   0  0  0  0  0  0
    3.2412   55.7398   17.2816 N   0  0  0  0  0  0
    5.9039   54.2750   20.2335 C   0  0  0  0  0  0
    5.5173   54.6233   21.6124 N   0  0  0  0  0  0
    6.7021   54.6879   22.4804 C   0  0  0  0  0  0
    6.3735   55.0439   23.9456 C   0  0  0  0  0  0
    5.2759   54.1048   24.5176 N   0  3  0  0  0  0
    4.0516   54.0843   23.5620 C   0  0  0  0  0  0
    4.4934   53.7076   22.1298 C   0  0  0  0  0  0
    4.9638   54.5056   25.9919 C   0  0  0  0  0  0
    3.5882   53.9688   26.4771 C   0  0  0  0  0  0
    3.3506   54.1792   27.9894 C   0  0  0  0  0  0
    4.5062   53.6226   28.8408 C   0  0  0  0  0  0
    5.8652   54.1957   28.3971 C   0  0  0  0  0  0
    6.1136   53.9766   26.8946 C   0  0  0  0  0  0
    6.3770   57.1089   19.0609 C   0  0  0  0  0  0
    7.1037   56.8970   20.0360 O   0  0  0  0  0  0
    6.4880   58.2250   18.3135 O   0  0  0  0  0  0
    7.5042   59.1910   18.5450 C   0  0  0  0  0  0
    6.8977   58.4245   11.8876 H   0  0  0  0  0  0
    7.0113   56.6880   11.6864 H   0  0  0  0  0  0
    8.2920   57.5456   12.5536 H   0  0  0  0  0  0
    6.8277   55.1645   13.7204 H   0  0  0  0  0  0
    5.6357   54.8074   15.8400 H   0  0  0  0  0  0
    4.7927   59.0302   16.0591 H   0  0  0  0  0  0
    5.9743   59.3721   13.9437 H   0  0  0  0  0  0
    4.0049   53.2004   19.0070 H   0  0  0  0  0  0
    2.5589   55.9720   16.5753 H   0  0  0  0  0  0
    5.8972   53.1947   20.0783 H   0  0  0  0  0  0
    6.9525   54.5060   20.0450 H   0  0  0  0  0  0
    7.1415   53.6965   22.4845 H   0  0  0  0  0  0
    7.4381   55.3968   22.1006 H   0  0  0  0  0  0
    6.0399   56.0735   24.0821 H   0  0  0  0  0  0
    7.2758   54.8791   24.5315 H   0  0  0  0  0  0
    3.5561   55.0560   23.6148 H   0  0  0  0  0  0
    3.3857   53.3025   23.9282 H   0  0  0  0  0  0
    3.6194   53.6999   21.4736 H   0  0  0  0  0  0
    4.9283   52.7050   22.1554 H   0  0  0  0  0  0
    4.9294   55.5939   26.0884 H   0  0  0  0  0  0
    2.7664   54.3882   25.8972 H   0  0  0  0  0  0
    3.5425   52.8972   26.2839 H   0  0  0  0  0  0
    3.2341   55.2464   28.1923 H   0  0  0  0  0  0
    2.4091   53.7124   28.2874 H   0  0  0  0  0  0
    4.3315   53.8399   29.8964 H   0  0  0  0  0  0
    4.5301   52.5349   28.7539 H   0  0  0  0  0  0
    5.9059   55.2641   28.6208 H   0  0  0  0  0  0
    6.6754   53.7404   28.9668 H   0  0  0  0  0  0
    6.2125   52.8993   26.7334 H   0  0  0  0  0  0
    7.0848   54.3790   26.6105 H   0  0  0  0  0  0
    7.6125   59.8163   17.6585 H   0  0  0  0  0  0
    7.2405   59.8334   19.3857 H   0  0  0  0  0  0
    8.4707   58.7245   18.7410 H   0  0  0  0  0  0
    5.6484   53.1653   24.5212 H   0  0  0  0  0  0
  1  2  1  0  0  0
  1 33  1  0  0  0
  1 34  1  0  0  0
  1 35  1  0  0  0
  2  7  2  0  0  0
  2  3  1  0  0  0
  3  4  2  0  0  0
  3 36  1  0  0  0
  4  5  1  0  0  0
  4 37  1  0  0  0
  5  6  2  0  0  0
  5  8  1  0  0  0
  6  7  1  0  0  0
  6 38  1  0  0  0
  7 39  1  0  0  0
  8  9  1  0  0  0
  8 15  1  0  0  0
  8 10  1  0  0  0
 10 11  2  0  0  0
 10 29  1  0  0  0
 11 12  1  0  0  0
 11 16  1  0  0  0
 12 13  1  0  0  0
 12 40  1  0  0  0
 13 14  2  0  0  0
 13 15  1  0  0  0
 15 41  1  0  0  0
 16 17  1  0  0  0
 16 42  1  0  0  0
 16 43  1  0  0  0
 17 22  1  0  0  0
 17 18  1  0  0  0
 18 19  1  0  0  0
 18 44  1  0  0  0
 18 45  1  0  0  0
 19 20  1  0  0  0
 19 46  1  0  0  0
 19 47  1  0  0  0
 20 21  1  0  0  0
 20 23  1  0  0  0
 20 66  1  0  0  0
 21 22  1  0  0  0
 21 48  1  0  0  0
 21 49  1  0  0  0
 22 50  1  0  0  0
 22 51  1  0  0  0
 23 28  1  0  0  0
 23 24  1  0  0  0
 23 52  1  0  0  0
 24 25  1  0  0  0
 24 53  1  0  0  0
 24 54  1  0  0  0
 25 26  1  0  0  0
 25 55  1  0  0  0
 25 56  1  0  0  0
 26 27  1  0  0  0
 26 57  1  0  0  0
 26 58  1  0  0  0
 27 28  1  0  0  0
 27 59  1  0  0  0
 27 60  1  0  0  0
 28 61  1  0  0  0
 28 62  1  0  0  0
 29 30  2  0  0  0
 29 31  1  0  0  0
 31 32  1  0  0  0
 32 63  1  0  0  0
 32 64  1  0  0  0
 32 65  1  0  0  0
M  CHG  1  20   1
M  END
> <i_i_glide_confnum>
69

> <i_i_glide_lignum>
293

> <i_i_glide_posenum>
379

> <i_i_glide_rotatable_bonds>
6

> <i_m_Source_File_Index>
5861

> <b_m_subgroup_collapsed>
0

> <r_i_docking_score>
-5.17665

> <r_i_glide_ecoul>
-2.90672

> <r_i_glide_eff_state_penalty>
0

> <r_i_glide_einternal>
6.83456

> <r_i_glide_emodel>
-44.3659

> <r_i_glide_energy>
-34.4849

> <r_i_glide_erotb>
0.543085

> <r_i_glide_esite>
-0.0216662

> <r_i_glide_evdw>
-31.5781

> <r_i_glide_gscore>
-5.17665

> <r_i_glide_hbond>
-0.295982

> <r_i_glide_ligand_efficiency>
-0.166989

> <r_i_glide_ligand_efficiency_ln>
-1.16749

> <r_i_glide_ligand_efficiency_sa>
-0.524575

> <r_i_glide_lipo>
-2.75803

> <r_i_glide_metal>
0

> <r_i_glide_rewards>
-0.629135

> <s_i_glide_gridfile>
wee1_glide-grid

> <s_m_Source_File>
wee1_decoys_glide_SP.sdf

> <s_m_Source_Path>
/Users/zhangxujun/Desktop

> <s_m_entry_id>
6136

> <s_m_entry_name>
wee1_decoys_glide_SP.5861

> <s_m_subgroup_title>
wee1_decoys_glide_SP

> <s_m_subgroupid>
wee1_decoys_glide_SP


$$$$
