ZINC44973616_2376
                    3D
 Schrodinger Suite 2024-2.
 55 59  0  0  1  0            999 V2000
    2.3136   54.4344   16.8734 C   0  0  0  0  0  0
    2.7967   52.9592   16.9098 C   0  0  0  0  0  0
    2.8726   52.4402   18.3726 C   0  0  0  0  0  0
    3.9747   53.1580   19.1551 C   0  0  0  0  0  0
    5.0861   53.6887   18.5791 C   0  0  0  0  0  0
    6.1631   54.4470   19.4078 C   0  0  2  0  0  0
    7.0626   53.8393   19.3107 H   0  0  0  0  0  0
    5.7854   54.4971   20.9201 C   0  0  0  0  0  0
    6.6271   54.9589   21.9529 C   0  0  0  0  0  0
    6.3047   54.8987   23.2686 N   0  0  0  0  0  0
    5.0823   54.4149   23.5800 C   0  0  0  0  0  0
    4.1885   53.9328   22.6858 N   0  0  0  0  0  0
    4.5744   53.9548   21.3870 C   0  0  0  0  0  0
    3.7080   53.3424   20.4869 N   0  0  0  0  0  0
    4.6162   54.4919   25.2870 S   0  0  0  0  0  0
    2.9159   53.8360   25.4162 C   0  0  0  0  0  0
    2.4010   53.6471   26.8454 C   0  0  0  0  0  0
    2.7935   54.4965   27.8863 C   0  0  0  0  0  0
    2.2854   54.3188   29.1699 C   0  0  0  0  0  0
    1.3940   53.2762   29.4204 C   0  0  0  0  0  0
    1.0031   52.4185   28.3965 C   0  0  0  0  0  0
    1.5006   52.6084   27.1092 C   0  0  0  0  0  0
    7.8825   55.4897   21.6816 N   0  0  0  0  0  0
    6.5019   55.8151   18.8227 C   0  0  0  0  0  0
    7.7570   56.3874   18.5946 C   0  0  0  0  0  0
    7.7220   57.6716   18.0523 C   0  0  0  0  0  0
    6.4298   58.0986   17.8066 C   0  0  0  0  0  0
    5.2669   56.8967   18.2396 S   0  0  0  0  0  0
    5.3386   53.4907   17.1297 C   0  0  0  0  0  0
    6.4445   53.6791   16.6246 O   0  0  0  0  0  0
    4.2197   52.8310   16.2991 C   0  0  0  0  0  0
    1.8648   52.0152   16.1177 C   0  0  0  0  0  0
    1.2957   54.5232   17.2586 H   0  0  0  0  0  0
    2.9326   55.1040   17.4704 H   0  0  0  0  0  0
    2.3022   54.8241   15.8541 H   0  0  0  0  0  0
    3.0744   51.3696   18.4348 H   0  0  0  0  0  0
    1.8940   52.6472   18.8082 H   0  0  0  0  0  0
    2.8355   52.9990   20.8566 H   0  0  0  0  0  0
    2.9065   52.8721   24.9071 H   0  0  0  0  0  0
    2.2333   54.4948   24.8785 H   0  0  0  0  0  0
    3.4905   55.2967   27.7056 H   0  0  0  0  0  0
    2.5799   54.9890   29.9620 H   0  0  0  0  0  0
    1.0021   53.1313   30.4185 H   0  0  0  0  0  0
    0.3132   51.6078   28.5984 H   0  0  0  0  0  0
    1.1793   51.9460   26.3189 H   0  0  0  0  0  0
    8.2011   55.5493   20.7291 H   0  0  0  0  0  0
    8.4963   55.6967   22.4659 H   0  0  0  0  0  0
    8.6845   55.8836   18.8231 H   0  0  0  0  0  0
    8.5994   58.2642   17.8373 H   0  0  0  0  0  0
    6.1105   59.0474   17.3944 H   0  0  0  0  0  0
    4.2748   53.1853   15.2685 H   0  0  0  0  0  0
    4.4756   51.7690   16.2854 H   0  0  0  0  0  0
    0.8516   52.0243   16.5232 H   0  0  0  0  0  0
    1.7970   52.3064   15.0682 H   0  0  0  0  0  0
    2.2164   50.9811   16.1472 H   0  0  0  0  0  0
  1  2  1  0  0  0
  1 33  1  0  0  0
  1 34  1  0  0  0
  1 35  1  0  0  0
  2 31  1  0  0  0
  2  3  1  0  0  0
  2 32  1  0  0  0
  3  4  1  0  0  0
  3 36  1  0  0  0
  3 37  1  0  0  0
  4 14  1  0  0  0
  4  5  2  0  0  0
  5  6  1  0  0  0
  5 29  1  0  0  0
  6  7  1  0  0  0
  6  8  1  0  0  0
  6 24  1  0  0  0
  8 13  2  0  0  0
  8  9  1  0  0  0
  9 10  2  0  0  0
  9 23  1  0  0  0
 10 11  1  0  0  0
 11 12  2  0  0  0
 11 15  1  0  0  0
 12 13  1  0  0  0
 13 14  1  0  0  0
 14 38  1  0  0  0
 15 16  1  0  0  0
 16 17  1  0  0  0
 16 39  1  0  0  0
 16 40  1  0  0  0
 17 22  2  0  0  0
 17 18  1  0  0  0
 18 19  2  0  0  0
 18 41  1  0  0  0
 19 20  1  0  0  0
 19 42  1  0  0  0
 20 21  2  0  0  0
 20 43  1  0  0  0
 21 22  1  0  0  0
 21 44  1  0  0  0
 22 45  1  0  0  0
 23 46  1  0  0  0
 23 47  1  0  0  0
 24 28  1  0  0  0
 24 25  2  0  0  0
 25 26  1  0  0  0
 25 48  1  0  0  0
 26 27  2  0  0  0
 26 49  1  0  0  0
 27 28  1  0  0  0
 27 50  1  0  0  0
 29 30  2  0  0  0
 29 31  1  0  0  0
 31 51  1  0  0  0
 31 52  1  0  0  0
 32 53  1  0  0  0
 32 54  1  0  0  0
 32 55  1  0  0  0
M  END
> <i_i_glide_confnum>
31

> <i_i_glide_lignum>
2377

> <i_i_glide_posenum>
25

> <i_i_glide_rotatable_bonds>
4

> <i_m_Source_File_Index>
2404

> <b_m_subgroup_collapsed>
0

> <r_i_docking_score>
-5.55246

> <r_i_glide_ecoul>
-5.13282

> <r_i_glide_eff_state_penalty>
0

> <r_i_glide_einternal>
5.49374

> <r_i_glide_emodel>
-56.1585

> <r_i_glide_energy>
-42.7668

> <r_i_glide_erotb>
0.3982

> <r_i_glide_esite>
-0.0564952

> <r_i_glide_evdw>
-37.6339

> <r_i_glide_gscore>
-5.55246

> <r_i_glide_hbond>
-0.32

> <r_i_glide_ligand_efficiency>
-0.179112

> <r_i_glide_ligand_efficiency_ln>
-1.25225

> <r_i_glide_ligand_efficiency_sa>
-0.562658

> <r_i_glide_lipo>
-2.24924

> <r_i_glide_metal>
0

> <r_i_glide_rewards>
-0.67331

> <s_i_glide_gridfile>
wee1_glide-grid

> <s_m_Source_File>
wee1_decoys_glide_SP.sdf

> <s_m_Source_Path>
/Users/zhangxujun/Desktop

> <s_m_entry_id>
2679

> <s_m_entry_name>
wee1_decoys_glide_SP.2404

> <s_m_subgroup_title>
wee1_decoys_glide_SP

> <s_m_subgroupid>
wee1_decoys_glide_SP


$$$$
