ZINC66671379_1454
                    3D
 Schrodinger Suite 2024-2.
 45 48  0  0  1  0            999 V2000
    0.5278   54.0505   30.1757 C   0  0  0  0  0  0
   -0.0961   52.8174   30.3650 C   0  0  0  0  0  0
   -0.0730   51.8839   29.3311 C   0  0  0  0  0  0
    0.5597   52.1123   28.1566 N   0  0  0  0  0  0
    1.1818   53.3130   27.9784 C   0  0  0  0  0  0
    1.1690   54.3113   28.9637 C   0  0  0  0  0  0
    1.9062   53.5474   26.6428 C   0  0  1  0  0  0
    1.5065   54.4924   26.3072 H   0  0  0  0  0  0
    3.4284   53.7578   26.7899 C   0  0  0  0  0  0
    4.1279   53.2232   27.8814 C   0  0  0  0  0  0
    5.4853   53.4749   28.0430 C   0  0  0  0  0  0
    6.1564   54.2619   27.1143 C   0  0  0  0  0  0
    5.4780   54.8126   26.0319 C   0  0  0  0  0  0
    4.1145   54.5724   25.8788 C   0  0  0  0  0  0
    7.4763   54.4966   27.2703 F   0  0  0  0  0  0
    1.5046   52.5928   25.5976 N   0  0  0  0  0  0
    1.6674   52.7088   24.2705 C   0  0  0  0  0  0
    1.9606   53.7574   23.6955 O   0  0  0  0  0  0
    1.5044   51.5121   23.6829 N   0  0  0  0  0  0
    1.8053   51.1148   22.3643 C   0  0  0  0  0  0
    2.7711   51.7656   21.5769 C   0  0  0  0  0  0
    3.0668   51.2837   20.2997 C   0  0  0  0  0  0
    2.3842   50.1613   19.8328 C   0  0  0  0  0  0
    1.4467   49.5145   20.5670 N   0  0  0  0  0  0
    1.1630   49.9849   21.8164 C   0  0  0  0  0  0
    0.1884   49.2463   22.5304 N   0  0  0  0  0  0
    0.2285   48.7439   23.8072 C   0  0  0  0  0  0
   -0.8757   48.1034   24.0915 N   0  0  0  0  0  0
   -1.5644   48.2478   22.9719 C   0  0  0  0  0  0
   -0.9939   48.9149   21.9925 N   0  0  0  0  0  0
    0.5089   54.7961   30.9569 H   0  0  0  0  0  0
   -0.6090   52.5843   31.2829 H   0  0  0  0  0  0
   -0.5635   50.9262   29.4380 H   0  0  0  0  0  0
    1.6608   55.2591   28.7989 H   0  0  0  0  0  0
    3.6243   52.6003   28.6067 H   0  0  0  0  0  0
    6.0195   53.0565   28.8815 H   0  0  0  0  0  0
    6.0028   55.4286   25.3198 H   0  0  0  0  0  0
    3.5949   55.0243   25.0496 H   0  0  0  0  0  0
    1.0496   51.7646   25.9498 H   0  0  0  0  0  0
    1.0675   50.7991   24.2445 H   0  0  0  0  0  0
    3.3111   52.6250   21.9429 H   0  0  0  0  0  0
    3.8184   51.7563   19.6829 H   0  0  0  0  0  0
    2.6025   49.7576   18.8515 H   0  0  0  0  0  0
    1.1038   48.8529   24.4322 H   0  0  0  0  0  0
   -2.5545   47.8305   22.8687 H   0  0  0  0  0  0
  1  6  2  0  0  0
  1  2  1  0  0  0
  1 31  1  0  0  0
  2  3  2  0  0  0
  2 32  1  0  0  0
  3  4  1  0  0  0
  3 33  1  0  0  0
  4  5  2  0  0  0
  5  6  1  0  0  0
  5  7  1  0  0  0
  6 34  1  0  0  0
  7  8  1  0  0  0
  7  9  1  0  0  0
  7 16  1  0  0  0
  9 14  2  0  0  0
  9 10  1  0  0  0
 10 11  2  0  0  0
 10 35  1  0  0  0
 11 12  1  0  0  0
 11 36  1  0  0  0
 12 13  2  0  0  0
 12 15  1  0  0  0
 13 14  1  0  0  0
 13 37  1  0  0  0
 14 38  1  0  0  0
 16 17  1  0  0  0
 16 39  1  0  0  0
 17 18  2  0  0  0
 17 19  1  0  0  0
 19 20  1  0  0  0
 19 40  1  0  0  0
 20 25  2  0  0  0
 20 21  1  0  0  0
 21 22  2  0  0  0
 21 41  1  0  0  0
 22 23  1  0  0  0
 22 42  1  0  0  0
 23 24  2  0  0  0
 23 43  1  0  0  0
 24 25  1  0  0  0
 25 26  1  0  0  0
 26 30  1  0  0  0
 26 27  1  0  0  0
 27 28  2  0  0  0
 27 44  1  0  0  0
 28 29  1  0  0  0
 29 30  2  0  0  0
 29 45  1  0  0  0
M  END
> <i_i_glide_confnum>
199

> <i_i_glide_lignum>
1455

> <i_i_glide_posenum>
174

> <i_i_glide_rotatable_bonds>
7

> <i_m_Source_File_Index>
3177

> <b_m_subgroup_collapsed>
0

> <r_i_docking_score>
-5.48215

> <r_i_glide_ecoul>
-3.28453

> <r_i_glide_eff_state_penalty>
0

> <r_i_glide_einternal>
4.70313

> <r_i_glide_emodel>
-58.6832

> <r_i_glide_energy>
-45.0808

> <r_i_glide_erotb>
0.89998

> <r_i_glide_esite>
-0.0711809

> <r_i_glide_evdw>
-41.7962

> <r_i_glide_gscore>
-5.48215

> <r_i_glide_hbond>
0

> <r_i_glide_ligand_efficiency>
-0.18904

> <r_i_glide_ligand_efficiency_ln>
-1.25527

> <r_i_glide_ligand_efficiency_sa>
-0.58079

> <r_i_glide_lipo>
-2.51738

> <r_i_glide_metal>
0

> <r_i_glide_rewards>
-1.21108

> <s_i_glide_gridfile>
wee1_glide-grid

> <s_m_Source_File>
wee1_decoys_glide_SP.sdf

> <s_m_Source_Path>
/Users/zhangxujun/Desktop

> <s_m_entry_id>
3452

> <s_m_entry_name>
wee1_decoys_glide_SP.3177

> <s_m_subgroup_title>
wee1_decoys_glide_SP

> <s_m_subgroupid>
wee1_decoys_glide_SP


$$$$
