ZINC20130547_3167
                    3D
 Schrodinger Suite 2024-2.
 65 67  0  0  1  0            999 V2000
    6.8355   55.5507   24.9238 C   0  0  0  0  0  0
    5.9064   54.8883   25.9304 C   0  0  0  0  0  0
    6.3223   54.8564   27.2637 C   0  0  0  0  0  0
    5.4961   54.3434   28.2540 C   0  0  0  0  0  0
    4.2340   53.8609   27.9251 C   0  0  0  0  0  0
    3.7924   53.8725   26.5996 C   0  0  0  0  0  0
    4.6381   54.3649   25.5847 C   0  0  0  0  0  0
    4.1530   54.3283   24.2612 N   0  0  0  0  0  0
    4.7695   53.7842   23.1920 C   0  0  0  0  0  0
    5.9006   53.2979   23.2168 O   0  0  0  0  0  0
    3.9412   53.7573   21.9065 C   0  0  0  0  0  0
    4.7032   52.8145   20.5428 S   0  0  0  0  0  0
    4.7510   54.0181   19.2387 C   0  0  0  0  0  0
    5.2855   55.2583   19.2769 C   0  0  0  0  0  0
    5.1656   56.2242   18.0843 C   0  0  2  0  0  0
    4.5653   57.0611   18.4454 H   0  0  0  0  0  0
    4.3383   55.5884   16.9211 C   0  0  0  0  0  0
    3.9100   54.2918   16.9773 C   0  0  0  0  0  0
    4.1225   53.5480   18.1170 N   0  0  0  0  0  0
    3.0874   53.5194   15.9483 C   0  0  0  0  0  0
    4.1120   56.4346   15.7205 C   0  0  0  0  0  0
    3.8909   55.9870   14.5913 O   0  0  0  0  0  0
    4.1713   57.7667   15.9888 O   0  0  0  0  0  0
    3.9241   58.7535   14.9910 C   0  0  0  0  0  0
    2.4391   58.9472   14.7559 C   0  0  0  0  0  0
    1.7854   60.1028   14.9499 C   0  0  0  0  0  0
    6.5118   56.8530   17.6837 C   0  0  0  0  0  0
    6.7134   58.2280   17.8568 C   0  0  0  0  0  0
    7.9193   58.8197   17.4934 C   0  0  0  0  0  0
    8.9388   58.0444   16.9518 C   0  0  0  0  0  0
    8.7539   56.6742   16.7815 C   0  0  0  0  0  0
    7.5444   56.0593   17.1514 C   0  0  0  0  0  0
    7.3078   54.7026   17.0244 O   0  0  0  0  0  0
    8.2981   53.8589   16.4523 C   0  0  0  0  0  0
    6.0471   55.6968   20.4044 C   0  0  0  0  0  0
    6.6920   56.0966   21.2793 N   0  0  0  0  0  0
    2.4115   53.2985   26.2932 C   0  0  0  0  0  0
    7.4336   56.3196   25.4017 H   0  0  0  0  0  0
    7.4952   54.8180   24.4627 H   0  0  0  0  0  0
    6.2888   56.0735   24.1397 H   0  0  0  0  0  0
    7.2946   55.2279   27.5527 H   0  0  0  0  0  0
    5.8374   54.3367   29.2769 H   0  0  0  0  0  0
    3.6015   53.4686   28.7079 H   0  0  0  0  0  0
    3.1834   54.5794   24.1524 H   0  0  0  0  0  0
    3.7403   54.7822   21.5959 H   0  0  0  0  0  0
    2.9705   53.3050   22.1092 H   0  0  0  0  0  0
    3.8976   52.5616   18.0958 H   0  0  0  0  0  0
    3.7526   52.9722   15.2811 H   0  0  0  0  0  0
    2.4226   52.7990   16.4235 H   0  0  0  0  0  0
    2.4488   54.1631   15.3462 H   0  0  0  0  0  0
    4.4089   58.4891   14.0505 H   0  0  0  0  0  0
    4.3711   59.6939   15.3160 H   0  0  0  0  0  0
    1.8928   58.0798   14.4167 H   0  0  0  0  0  0
    2.3039   60.9844   15.3011 H   0  0  0  0  0  0
    0.7257   60.1843   14.7711 H   0  0  0  0  0  0
    5.9299   58.8530   18.2572 H   0  0  0  0  0  0
    8.0488   59.8846   17.6175 H   0  0  0  0  0  0
    9.8699   58.5043   16.6559 H   0  0  0  0  0  0
    9.5633   56.1046   16.3557 H   0  0  0  0  0  0
    7.9485   52.8275   16.4789 H   0  0  0  0  0  0
    8.4598   54.1254   15.4051 H   0  0  0  0  0  0
    9.2426   53.9033   16.9942 H   0  0  0  0  0  0
    2.0025   52.7365   27.1340 H   0  0  0  0  0  0
    1.7141   54.0922   26.0239 H   0  0  0  0  0  0
    2.4637   52.6110   25.4482 H   0  0  0  0  0  0
  1  2  1  0  0  0
  1 38  1  0  0  0
  1 39  1  0  0  0
  1 40  1  0  0  0
  2  7  2  0  0  0
  2  3  1  0  0  0
  3  4  2  0  0  0
  3 41  1  0  0  0
  4  5  1  0  0  0
  4 42  1  0  0  0
  5  6  2  0  0  0
  5 43  1  0  0  0
  6  7  1  0  0  0
  6 37  1  0  0  0
  7  8  1  0  0  0
  8  9  1  0  0  0
  8 44  1  0  0  0
  9 10  2  0  0  0
  9 11  1  0  0  0
 11 12  1  0  0  0
 11 45  1  0  0  0
 11 46  1  0  0  0
 12 13  1  0  0  0
 13 19  1  0  0  0
 13 14  2  0  0  0
 14 15  1  0  0  0
 14 35  1  0  0  0
 15 16  1  0  0  0
 15 17  1  0  0  0
 15 27  1  0  0  0
 17 18  2  0  0  0
 17 21  1  0  0  0
 18 19  1  0  0  0
 18 20  1  0  0  0
 19 47  1  0  0  0
 20 48  1  0  0  0
 20 49  1  0  0  0
 20 50  1  0  0  0
 21 22  2  0  0  0
 21 23  1  0  0  0
 23 24  1  0  0  0
 24 25  1  0  0  0
 24 51  1  0  0  0
 24 52  1  0  0  0
 25 26  2  0  0  0
 25 53  1  0  0  0
 26 54  1  0  0  0
 26 55  1  0  0  0
 27 32  2  0  0  0
 27 28  1  0  0  0
 28 29  2  0  0  0
 28 56  1  0  0  0
 29 30  1  0  0  0
 29 57  1  0  0  0
 30 31  2  0  0  0
 30 58  1  0  0  0
 31 32  1  0  0  0
 31 59  1  0  0  0
 32 33  1  0  0  0
 33 34  1  0  0  0
 34 60  1  0  0  0
 34 61  1  0  0  0
 34 62  1  0  0  0
 35 36  3  0  0  0
 37 63  1  0  0  0
 37 64  1  0  0  0
 37 65  1  0  0  0
M  END
> <i_i_glide_confnum>
304

> <i_i_glide_lignum>
3168

> <i_i_glide_posenum>
153

> <i_i_glide_rotatable_bonds>
12

> <i_m_Source_File_Index>
3642

> <b_m_subgroup_collapsed>
0

> <r_i_docking_score>
-4.6338

> <r_i_glide_ecoul>
-3.08243

> <r_i_glide_eff_state_penalty>
0

> <r_i_glide_einternal>
18.2063

> <r_i_glide_emodel>
-50.6995

> <r_i_glide_energy>
-45.8692

> <r_i_glide_erotb>
0.805953

> <r_i_glide_esite>
-0.0402246

> <r_i_glide_evdw>
-42.7868

> <r_i_glide_gscore>
-4.6338

> <r_i_glide_hbond>
0

> <r_i_glide_ligand_efficiency>
-0.128717

> <r_i_glide_ligand_efficiency_ln>
-1.01097

> <r_i_glide_ligand_efficiency_sa>
-0.425013

> <r_i_glide_lipo>
-2.32985

> <r_i_glide_metal>
0

> <r_i_glide_rewards>
-0.467983

> <s_i_glide_gridfile>
wee1_glide-grid

> <s_m_Source_File>
wee1_decoys_glide_SP.sdf

> <s_m_Source_Path>
/Users/zhangxujun/Desktop

> <s_m_entry_id>
3917

> <s_m_entry_name>
wee1_decoys_glide_SP.3642

> <s_m_subgroup_title>
wee1_decoys_glide_SP

> <s_m_subgroupid>
wee1_decoys_glide_SP


$$$$
