ZINC35136177_5595
                    3D
 Schrodinger Suite 2024-2.
 67 70  0  0  1  0            999 V2000
    1.8254   47.8297   19.7071 C   0  0  0  0  0  0
    0.9501   49.0875   19.6231 C   0  0  0  0  0  0
    0.4053   49.5278   20.9954 C   0  0  0  0  0  0
   -0.3044   50.8198   20.9462 N   0  0  0  0  0  0
    0.4967   52.0002   21.3091 C   0  0  0  0  0  0
    0.4917   52.2690   22.8229 C   0  0  0  0  0  0
   -0.5739   52.4262   23.4211 O   0  0  0  0  0  0
    1.7082   52.4591   23.3625 N   0  0  0  0  0  0
    1.9667   52.9760   24.6192 C   0  0  0  0  0  0
    1.2483   52.8866   25.8002 C   0  0  0  0  0  0
    1.9973   53.5449   26.7838 C   0  0  0  0  0  0
    3.0937   54.0420   26.2444 N   0  0  0  0  0  0
    3.1135   53.6885   24.9398 N   0  0  0  0  0  0
    4.2129   54.0964   24.1136 C   0  0  0  0  0  0
    4.1096   54.1274   22.7109 C   0  0  0  0  0  0
    5.1947   54.4967   21.9254 C   0  0  0  0  0  0
    6.3865   54.8943   22.5270 C   0  0  0  0  0  0
    6.5118   54.8673   23.9151 C   0  0  0  0  0  0
    5.4371   54.4650   24.7027 C   0  0  0  0  0  0
    7.5378   55.3927   21.6754 C   0  0  0  0  0  0
    1.7059   53.7196   28.2833 C   0  0  0  0  0  0
    1.6941   55.2205   28.6547 C   0  0  0  0  0  0
    2.7955   52.9960   29.1094 C   0  0  0  0  0  0
    0.3276   53.1206   28.6546 C   0  0  0  0  0  0
   -1.5932   50.9841   20.5195 C   0  0  0  0  0  0
   -2.0951   52.0948   20.3128 O   0  0  0  0  0  0
   -2.4489   49.7657   20.2660 C   0  0  0  0  0  0
   -3.0857   49.6141   19.0153 C   0  0  0  0  0  0
   -3.9061   48.5097   18.7475 C   0  0  0  0  0  0
   -4.0720   47.5724   19.7601 C   0  0  0  0  0  0
   -3.4795   47.7179   20.9807 C   0  0  0  0  0  0
   -2.6723   48.8103   21.2787 C   0  0  0  0  0  0
   -3.8420   46.6834   21.7852 O   0  0  0  0  0  0
   -4.5428   45.7870   20.9636 C   0  0  0  0  0  0
   -4.8286   46.4441   19.7566 O   0  0  0  0  0  0
    2.2393   47.5829   18.7283 H   0  0  0  0  0  0
    2.6665   47.9723   20.3888 H   0  0  0  0  0  0
    1.2508   46.9692   20.0510 H   0  0  0  0  0  0
    0.1255   48.8998   18.9343 H   0  0  0  0  0  0
    1.5434   49.8940   19.1871 H   0  0  0  0  0  0
    1.2582   49.6265   21.6690 H   0  0  0  0  0  0
   -0.1881   48.7317   21.4398 H   0  0  0  0  0  0
    0.2070   52.9013   20.7709 H   0  0  0  0  0  0
    1.5226   51.8441   20.9713 H   0  0  0  0  0  0
    2.5058   52.3524   22.7552 H   0  0  0  0  0  0
    0.3033   52.3805   25.9358 H   0  0  0  0  0  0
    3.1928   53.9268   22.1836 H   0  0  0  0  0  0
    5.0851   54.5301   20.8502 H   0  0  0  0  0  0
    7.4404   55.1636   24.3828 H   0  0  0  0  0  0
    5.5679   54.4437   25.7756 H   0  0  0  0  0  0
    7.9281   56.3253   22.0816 H   0  0  0  0  0  0
    7.2377   55.5852   20.6442 H   0  0  0  0  0  0
    8.3524   54.6741   21.6811 H   0  0  0  0  0  0
    0.9384   55.7592   28.0826 H   0  0  0  0  0  0
    1.4736   55.3759   29.7112 H   0  0  0  0  0  0
    2.6529   55.6965   28.4479 H   0  0  0  0  0  0
    2.8469   51.9359   28.8545 H   0  0  0  0  0  0
    3.7862   53.4132   28.9239 H   0  0  0  0  0  0
    2.6041   53.0660   30.1802 H   0  0  0  0  0  0
    0.2806   52.0523   28.4367 H   0  0  0  0  0  0
    0.1036   53.2447   29.7147 H   0  0  0  0  0  0
   -0.4789   53.5958   28.0944 H   0  0  0  0  0  0
   -2.9450   50.3551   18.2402 H   0  0  0  0  0  0
   -4.3911   48.4006   17.7888 H   0  0  0  0  0  0
   -2.2416   48.9231   22.2637 H   0  0  0  0  0  0
   -5.4688   45.4729   21.4484 H   0  0  0  0  0  0
   -3.9120   44.9212   20.7540 H   0  0  0  0  0  0
  1  2  1  0  0  0
  1 36  1  0  0  0
  1 37  1  0  0  0
  1 38  1  0  0  0
  2  3  1  0  0  0
  2 39  1  0  0  0
  2 40  1  0  0  0
  3  4  1  0  0  0
  3 41  1  0  0  0
  3 42  1  0  0  0
  4  5  1  0  0  0
  4 25  1  0  0  0
  5  6  1  0  0  0
  5 43  1  0  0  0
  5 44  1  0  0  0
  6  7  2  0  0  0
  6  8  1  0  0  0
  8  9  1  0  0  0
  8 45  1  0  0  0
  9 13  1  0  0  0
  9 10  2  0  0  0
 10 11  1  0  0  0
 10 46  1  0  0  0
 11 12  2  0  0  0
 11 21  1  0  0  0
 12 13  1  0  0  0
 13 14  1  0  0  0
 14 19  2  0  0  0
 14 15  1  0  0  0
 15 16  2  0  0  0
 15 47  1  0  0  0
 16 17  1  0  0  0
 16 48  1  0  0  0
 17 18  2  0  0  0
 17 20  1  0  0  0
 18 19  1  0  0  0
 18 49  1  0  0  0
 19 50  1  0  0  0
 20 51  1  0  0  0
 20 52  1  0  0  0
 20 53  1  0  0  0
 21 22  1  0  0  0
 21 23  1  0  0  0
 21 24  1  0  0  0
 22 54  1  0  0  0
 22 55  1  0  0  0
 22 56  1  0  0  0
 23 57  1  0  0  0
 23 58  1  0  0  0
 23 59  1  0  0  0
 24 60  1  0  0  0
 24 61  1  0  0  0
 24 62  1  0  0  0
 25 26  2  0  0  0
 25 27  1  0  0  0
 27 32  2  0  0  0
 27 28  1  0  0  0
 28 29  2  0  0  0
 28 63  1  0  0  0
 29 30  1  0  0  0
 29 64  1  0  0  0
 30 35  1  0  0  0
 30 31  2  0  0  0
 31 32  1  0  0  0
 31 33  1  0  0  0
 32 65  1  0  0  0
 33 34  1  0  0  0
 34 35  1  0  0  0
 34 66  1  0  0  0
 34 67  1  0  0  0
M  END
> <i_i_glide_confnum>
163

> <i_i_glide_lignum>
5596

> <i_i_glide_posenum>
328

> <i_i_glide_rotatable_bonds>
10

> <i_m_Source_File_Index>
1044

> <b_m_subgroup_collapsed>
0

> <r_i_docking_score>
-5.83312

> <r_i_glide_ecoul>
-5.17896

> <r_i_glide_eff_state_penalty>
0

> <r_i_glide_einternal>
3.89035

> <r_i_glide_emodel>
-58.4087

> <r_i_glide_energy>
-43.2965

> <r_i_glide_erotb>
0.624151

> <r_i_glide_esite>
-0.00340524

> <r_i_glide_evdw>
-38.1175

> <r_i_glide_gscore>
-5.83312

> <r_i_glide_hbond>
-0.32

> <r_i_glide_ligand_efficiency>
-0.166661

> <r_i_glide_ligand_efficiency_ln>
-1.2805

> <r_i_glide_ligand_efficiency_sa>
-0.545158

> <r_i_glide_lipo>
-2.88889

> <r_i_glide_metal>
0

> <r_i_glide_rewards>
-0.562257

> <s_i_glide_gridfile>
wee1_glide-grid

> <s_m_Source_File>
wee1_decoys_glide_SP.sdf

> <s_m_Source_Path>
/Users/zhangxujun/Desktop

> <s_m_entry_id>
1319

> <s_m_entry_name>
wee1_decoys_glide_SP.1044

> <s_m_subgroup_title>
wee1_decoys_glide_SP

> <s_m_subgroupid>
wee1_decoys_glide_SP


$$$$
