ZINC19961918_1220
                    3D
 Schrodinger Suite 2024-2.
 62 65  0  0  1  0            999 V2000
    4.6044   54.0967   23.4434 C   0  0  0  0  0  0
    5.8157   54.5579   23.9549 C   0  0  0  0  0  0
    5.9483   54.7690   25.3226 C   0  0  0  0  0  0
    4.8943   54.4953   26.1850 C   0  0  0  0  0  0
    3.6909   54.0174   25.6742 C   0  0  0  0  0  0
    3.5262   53.8128   24.2947 C   0  0  0  0  0  0
    2.3216   53.3384   23.7721 N   0  0  0  0  0  0
    1.0302   53.4493   24.4694 C   0  0  0  0  0  0
    0.4649   52.0970   24.9376 C   0  0  0  0  0  0
    0.2931   51.1957   23.6983 N   0  3  0  0  0  0
    1.6651   51.0041   23.0173 C   0  0  0  0  0  0
    2.2484   52.3880   22.6444 C   0  0  0  0  0  0
   -0.3769   49.8405   24.0613 C   0  0  0  0  0  0
   -1.9130   49.9981   24.1756 C   0  0  0  0  0  0
   -2.4211   51.0901   23.8994 O   0  0  0  0  0  0
   -2.6605   48.9380   24.5931 N   0  0  0  0  0  0
   -4.1242   49.0789   24.6596 C   0  0  0  0  0  0
   -4.7050   48.5567   23.3244 C   0  0  0  0  0  0
   -4.1397   47.2494   22.9428 N   0  0  0  0  0  0
   -2.9681   46.7321   23.3685 C   0  0  0  0  0  0
   -2.5313   45.6964   22.8790 O   0  0  0  0  0  0
   -2.2019   47.5316   24.4639 C   0  0  2  0  0  0
   -1.2064   47.5141   24.0264 H   0  0  0  0  0  0
   -2.0468   46.7151   25.7882 C   0  0  0  0  0  0
   -3.3388   46.2393   26.4808 C   0  0  0  0  0  0
   -3.9561   45.2968   25.9842 O   0  0  0  0  0  0
   -3.6955   46.8967   27.6053 N   0  0  0  0  0  0
   -4.8705   46.7952   28.3742 C   0  0  0  0  0  0
   -6.0077   46.0613   27.9938 C   0  0  0  0  0  0
   -7.1462   46.0559   28.8002 C   0  0  0  0  0  0
   -7.1663   46.7870   29.9862 C   0  0  0  0  0  0
   -6.0454   47.5197   30.3723 C   0  0  0  0  0  0
   -4.8994   47.5200   29.5724 C   0  0  0  0  0  0
   -6.0957   48.4333   31.8355 Cl  0  0  0  0  0  0
   -8.5305   45.1424   28.3268 Cl  0  0  0  0  0  0
    7.1044   55.2558   25.8187 F   0  0  0  0  0  0
    4.5111   53.9724   22.3744 H   0  0  0  0  0  0
    6.6416   54.7777   23.2946 H   0  0  0  0  0  0
    5.0139   54.6517   27.2464 H   0  0  0  0  0  0
    2.9017   53.7923   26.3736 H   0  0  0  0  0  0
    0.3445   53.9311   23.7698 H   0  0  0  0  0  0
    1.1045   54.1127   25.3255 H   0  0  0  0  0  0
   -0.5299   52.2423   25.3622 H   0  0  0  0  0  0
    1.1048   51.5824   25.6571 H   0  0  0  0  0  0
    2.3037   50.4313   23.6928 H   0  0  0  0  0  0
    1.4760   50.4304   22.1078 H   0  0  0  0  0  0
    3.2199   52.2367   22.1735 H   0  0  0  0  0  0
    1.6149   52.8735   21.8992 H   0  0  0  0  0  0
    0.0981   49.4547   24.9672 H   0  0  0  0  0  0
   -0.1429   49.1897   23.2179 H   0  0  0  0  0  0
   -4.4511   50.0833   24.9372 H   0  0  0  0  0  0
   -4.4820   48.4291   25.4572 H   0  0  0  0  0  0
   -4.4952   49.2609   22.5174 H   0  0  0  0  0  0
   -5.7874   48.4562   23.4124 H   0  0  0  0  0  0
   -4.6226   46.7145   22.2359 H   0  0  0  0  0  0
   -1.4534   47.3068   26.4816 H   0  0  0  0  0  0
   -1.4297   45.8365   25.6075 H   0  0  0  0  0  0
   -2.9951   47.5424   27.9757 H   0  0  0  0  0  0
   -6.0402   45.4996   27.0742 H   0  0  0  0  0  0
   -8.0521   46.7861   30.6050 H   0  0  0  0  0  0
   -4.0376   48.0982   29.8811 H   0  0  0  0  0  0
   -0.3227   51.6708   23.0497 H   0  0  0  0  0  0
  1  6  2  0  0  0
  1  2  1  0  0  0
  1 37  1  0  0  0
  2  3  2  0  0  0
  2 38  1  0  0  0
  3  4  1  0  0  0
  3 36  1  0  0  0
  4  5  2  0  0  0
  4 39  1  0  0  0
  5  6  1  0  0  0
  5 40  1  0  0  0
  6  7  1  0  0  0
  7 12  1  0  0  0
  7  8  1  0  0  0
  8  9  1  0  0  0
  8 41  1  0  0  0
  8 42  1  0  0  0
  9 10  1  0  0  0
  9 43  1  0  0  0
  9 44  1  0  0  0
 10 11  1  0  0  0
 10 13  1  0  0  0
 10 62  1  0  0  0
 11 12  1  0  0  0
 11 45  1  0  0  0
 11 46  1  0  0  0
 12 47  1  0  0  0
 12 48  1  0  0  0
 13 14  1  0  0  0
 13 49  1  0  0  0
 13 50  1  0  0  0
 14 15  2  0  0  0
 14 16  1  0  0  0
 16 22  1  0  0  0
 16 17  1  0  0  0
 17 18  1  0  0  0
 17 51  1  0  0  0
 17 52  1  0  0  0
 18 19  1  0  0  0
 18 53  1  0  0  0
 18 54  1  0  0  0
 19 20  1  0  0  0
 19 55  1  0  0  0
 20 21  2  0  0  0
 20 22  1  0  0  0
 22 23  1  0  0  0
 22 24  1  0  0  0
 24 25  1  0  0  0
 24 56  1  0  0  0
 24 57  1  0  0  0
 25 26  2  0  0  0
 25 27  1  0  0  0
 27 28  1  0  0  0
 27 58  1  0  0  0
 28 33  2  0  0  0
 28 29  1  0  0  0
 29 30  2  0  0  0
 29 59  1  0  0  0
 30 31  1  0  0  0
 30 35  1  0  0  0
 31 32  2  0  0  0
 31 60  1  0  0  0
 32 33  1  0  0  0
 32 34  1  0  0  0
 33 61  1  0  0  0
M  CHG  1  10   1
M  END
> <i_i_glide_confnum>
32

> <i_i_glide_lignum>
1221

> <i_i_glide_posenum>
267

> <i_i_glide_rotatable_bonds>
8

> <i_m_Source_File_Index>
2258

> <b_m_subgroup_collapsed>
0

> <r_i_docking_score>
-6.08887

> <r_i_glide_ecoul>
-11.9497

> <r_i_glide_eff_state_penalty>
0

> <r_i_glide_einternal>
7.97312

> <r_i_glide_emodel>
-62.0742

> <r_i_glide_energy>
-46.1692

> <r_i_glide_erotb>
0.525598

> <r_i_glide_esite>
-0.277574

> <r_i_glide_evdw>
-34.2195

> <r_i_glide_gscore>
-6.08887

> <r_i_glide_hbond>
-0.362902

> <r_i_glide_ligand_efficiency>
-0.173968

> <r_i_glide_ligand_efficiency_ln>
-1.33664

> <r_i_glide_ligand_efficiency_sa>
-0.569059

> <r_i_glide_lipo>
-2.13711

> <r_i_glide_metal>
0

> <r_i_glide_rewards>
-0.333454

> <s_i_glide_gridfile>
wee1_glide-grid

> <s_m_Source_File>
wee1_decoys_glide_SP.sdf

> <s_m_Source_Path>
/Users/zhangxujun/Desktop

> <s_m_entry_id>
2533

> <s_m_entry_name>
wee1_decoys_glide_SP.2258

> <s_m_subgroup_title>
wee1_decoys_glide_SP

> <s_m_subgroupid>
wee1_decoys_glide_SP


$$$$
