ZINC04123007_814
                    3D
 Schrodinger Suite 2024-2.
 56 59  0  0  1  0            999 V2000
    0.5646   53.6119   31.5411 C   0  0  0  0  0  0
    1.0559   53.4034   30.1222 C   0  0  0  0  0  0
    0.5213   52.3541   29.3605 C   0  0  0  0  0  0
    0.9358   52.1036   28.0462 C   0  0  0  0  0  0
    1.9189   52.9659   27.5475 C   0  0  0  0  0  0
    2.4802   54.0177   28.2847 C   0  0  0  0  0  0
    2.0288   54.2623   29.5885 C   0  0  0  0  0  0
    3.4370   54.6416   27.5344 N   0  0  0  0  0  0
    3.4174   53.9822   26.3922 C   0  0  0  0  0  0
    2.5050   52.9640   26.3224 O   0  0  0  0  0  0
    4.2896   54.2095   25.2014 C   0  0  0  0  0  0
    3.8993   53.6970   23.9627 C   0  0  0  0  0  0
    4.7121   53.8555   22.8471 C   0  0  0  0  0  0
    5.9034   54.5901   22.9355 C   0  0  0  0  0  0
    6.3047   55.0842   24.1806 C   0  0  0  0  0  0
    5.5021   54.8971   25.3062 C   0  0  0  0  0  0
    6.7496   54.8968   21.8458 N   0  0  0  0  0  0
    6.5835   54.9525   20.4823 C   0  0  0  0  0  0
    5.1345   54.6819   19.6586 S   0  0  0  0  0  0
    7.7598   55.2974   19.8607 N   0  0  0  0  0  0
    8.1841   55.0578   18.5914 C   0  0  0  0  0  0
    7.8041   54.1153   17.8919 O   0  0  0  0  0  0
    9.2395   56.0004   18.0678 C   0  0  0  0  0  0
    9.0076   57.3927   18.0567 C   0  0  0  0  0  0
    9.9888   58.2413   17.5223 C   0  0  0  0  0  0
   11.1676   57.7265   16.9983 C   0  0  0  0  0  0
   11.3896   56.3554   17.0058 C   0  0  0  0  0  0
   10.4376   55.4744   17.5422 C   0  0  0  0  0  0
   10.6365   54.1044   17.5991 O   0  0  0  0  0  0
   11.8548   53.5388   17.1299 C   0  0  0  0  0  0
    7.8105   57.8691   18.5689 O   0  0  0  0  0  0
    7.5010   59.2581   18.4825 C   0  0  0  0  0  0
    0.3420   50.9578   27.2499 C   0  0  0  0  0  0
    0.6859   54.6477   31.8604 H   0  0  0  0  0  0
   -0.4949   53.3754   31.6227 H   0  0  0  0  0  0
    1.0976   52.9573   32.2313 H   0  0  0  0  0  0
   -0.2300   51.7137   29.8042 H   0  0  0  0  0  0
    2.4311   55.0893   30.1516 H   0  0  0  0  0  0
    2.9756   53.1458   23.8622 H   0  0  0  0  0  0
    4.3839   53.3924   21.9340 H   0  0  0  0  0  0
    7.2276   55.6381   24.2793 H   0  0  0  0  0  0
    5.8199   55.2895   26.2616 H   0  0  0  0  0  0
    7.6734   55.1560   22.1602 H   0  0  0  0  0  0
    8.3081   55.9934   20.3413 H   0  0  0  0  0  0
    9.8496   59.3093   17.4943 H   0  0  0  0  0  0
   11.9125   58.3895   16.5841 H   0  0  0  0  0  0
   12.3185   55.9920   16.5958 H   0  0  0  0  0  0
   11.8281   52.4595   17.2833 H   0  0  0  0  0  0
   11.9954   53.7193   16.0635 H   0  0  0  0  0  0
   12.7125   53.9298   17.6797 H   0  0  0  0  0  0
    6.5018   59.4189   18.8855 H   0  0  0  0  0  0
    7.5036   59.6072   17.4483 H   0  0  0  0  0  0
    8.1930   59.8619   19.0692 H   0  0  0  0  0  0
   -0.5017   50.4972   27.7646 H   0  0  0  0  0  0
   -0.0134   51.3163   26.2830 H   0  0  0  0  0  0
    1.1012   50.1959   27.0598 H   0  0  0  0  0  0
  1  2  1  0  0  0
  1 34  1  0  0  0
  1 35  1  0  0  0
  1 36  1  0  0  0
  2  7  2  0  0  0
  2  3  1  0  0  0
  3  4  2  0  0  0
  3 37  1  0  0  0
  4  5  1  0  0  0
  4 33  1  0  0  0
  5 10  1  0  0  0
  5  6  2  0  0  0
  6  7  1  0  0  0
  6  8  1  0  0  0
  7 38  1  0  0  0
  8  9  2  0  0  0
  9 10  1  0  0  0
  9 11  1  0  0  0
 11 16  2  0  0  0
 11 12  1  0  0  0
 12 13  2  0  0  0
 12 39  1  0  0  0
 13 14  1  0  0  0
 13 40  1  0  0  0
 14 15  2  0  0  0
 14 17  1  0  0  0
 15 16  1  0  0  0
 15 41  1  0  0  0
 16 42  1  0  0  0
 17 18  1  0  0  0
 17 43  1  0  0  0
 18 19  2  0  0  0
 18 20  1  0  0  0
 20 21  1  0  0  0
 20 44  1  0  0  0
 21 22  2  0  0  0
 21 23  1  0  0  0
 23 28  2  0  0  0
 23 24  1  0  0  0
 24 25  2  0  0  0
 24 31  1  0  0  0
 25 26  1  0  0  0
 25 45  1  0  0  0
 26 27  2  0  0  0
 26 46  1  0  0  0
 27 28  1  0  0  0
 27 47  1  0  0  0
 28 29  1  0  0  0
 29 30  1  0  0  0
 30 48  1  0  0  0
 30 49  1  0  0  0
 30 50  1  0  0  0
 31 32  1  0  0  0
 32 51  1  0  0  0
 32 52  1  0  0  0
 32 53  1  0  0  0
 33 54  1  0  0  0
 33 55  1  0  0  0
 33 56  1  0  0  0
M  END
> <i_i_glide_confnum>
8

> <i_i_glide_lignum>
815

> <i_i_glide_posenum>
7

> <i_i_glide_rotatable_bonds>
8

> <i_m_Source_File_Index>
5413

> <b_m_subgroup_collapsed>
0

> <r_i_docking_score>
-4.97136

> <r_i_glide_ecoul>
-0.208993

> <r_i_glide_eff_state_penalty>
0

> <r_i_glide_einternal>
8.24448

> <r_i_glide_emodel>
-56.2597

> <r_i_glide_energy>
-43.9118

> <r_i_glide_erotb>
0.567202

> <r_i_glide_esite>
0

> <r_i_glide_evdw>
-43.7028

> <r_i_glide_gscore>
-4.97136

> <r_i_glide_hbond>
0

> <r_i_glide_ligand_efficiency>
-0.150647

> <r_i_glide_ligand_efficiency_ln>
-1.1056

> <r_i_glide_ligand_efficiency_sa>
-0.483206

> <r_i_glide_lipo>
-2.72486

> <r_i_glide_metal>
0

> <r_i_glide_rewards>
-0.597211

> <s_i_glide_gridfile>
wee1_glide-grid

> <s_m_Source_File>
wee1_decoys_glide_SP.sdf

> <s_m_Source_Path>
/Users/zhangxujun/Desktop

> <s_m_entry_id>
5688

> <s_m_entry_name>
wee1_decoys_glide_SP.5413

> <s_m_subgroup_title>
wee1_decoys_glide_SP

> <s_m_subgroupid>
wee1_decoys_glide_SP


$$$$
