ZINC59489626_6024
                    3D
 Schrodinger Suite 2024-2.
 57 60  0  0  1  0            999 V2000
    4.4980   52.2512   29.2742 C   0  0  0  0  0  0
    3.5996   52.8396   28.1771 C   0  0  1  0  0  0
    3.7214   52.2121   27.2975 H   0  0  0  0  0  0
    2.1112   52.8023   28.5690 C   0  0  0  0  0  0
    1.7799   53.0445   29.7321 O   0  0  0  0  0  0
    1.2600   52.4820   27.5714 N   0  0  0  0  0  0
   -0.0782   52.1360   27.6719 C   0  0  0  0  0  0
   -0.8120   51.9975   26.5954 N   0  0  0  0  0  0
   -2.0194   51.5483   26.8786 C   0  0  0  0  0  0
   -2.2839   51.2967   28.2213 C   0  0  0  0  0  0
   -0.8784   51.6968   29.1613 S   0  0  0  0  0  0
    4.1886   54.4968   27.7452 S   0  0  0  0  0  0
    4.3408   54.3437   25.9990 C   0  0  0  0  0  0
    5.4406   54.6334   25.3614 N   0  0  0  0  0  0
    5.2947   54.4959   24.0177 C   0  0  0  0  0  0
    6.2942   54.7546   23.0699 C   0  0  0  0  0  0
    5.9636   54.6424   21.7173 C   0  0  0  0  0  0
    4.6866   54.2363   21.2964 C   0  0  0  0  0  0
    3.6886   53.9626   22.2335 C   0  0  0  0  0  0
    4.0010   54.0972   23.5912 C   0  0  0  0  0  0
    2.9804   53.8771   24.9979 S   0  0  0  0  0  0
    4.3046   54.1270   19.9467 N   0  0  0  0  0  0
    5.0816   53.9589   18.8545 C   0  0  0  0  0  0
    6.3049   53.8135   18.8821 O   0  0  0  0  0  0
    4.3393   53.9138   17.5405 C   0  0  0  0  0  0
    4.8047   53.0887   16.5124 C   0  0  0  0  0  0
    4.1296   53.0203   15.2976 C   0  0  0  0  0  0
    2.9768   53.7880   15.0722 C   0  0  0  0  0  0
    2.5247   54.6258   16.1014 C   0  0  0  0  0  0
    3.1938   54.6900   17.3196 C   0  0  0  0  0  0
    2.1961   53.7366   13.7337 C   0  0  0  0  0  0
    0.7427   53.2715   13.9948 C   0  0  0  0  0  0
    2.8147   52.7592   12.6993 C   0  0  0  0  0  0
    2.1756   55.1436   13.0873 C   0  0  0  0  0  0
    4.1282   51.2965   29.6380 H   0  0  0  0  0  0
    5.5043   52.0983   28.8829 H   0  0  0  0  0  0
    4.5600   52.9212   30.1290 H   0  0  0  0  0  0
    1.6250   52.5001   26.6317 H   0  0  0  0  0  0
   -2.7116   51.3685   26.0693 H   0  0  0  0  0  0
   -3.1640   50.8732   28.6838 H   0  0  0  0  0  0
    7.2822   55.0694   23.3738 H   0  0  0  0  0  0
    6.7271   54.8938   20.9963 H   0  0  0  0  0  0
    2.6943   53.6734   21.9215 H   0  0  0  0  0  0
    3.3087   54.1395   19.7763 H   0  0  0  0  0  0
    5.6816   52.4721   16.6592 H   0  0  0  0  0  0
    4.5228   52.3518   14.5481 H   0  0  0  0  0  0
    1.6450   55.2362   15.9636 H   0  0  0  0  0  0
    2.8117   55.3538   18.0817 H   0  0  0  0  0  0
    0.1706   53.2024   13.0687 H   0  0  0  0  0  0
    0.2016   53.9554   14.6488 H   0  0  0  0  0  0
    0.7196   52.2867   14.4638 H   0  0  0  0  0  0
    3.8338   53.0432   12.4339 H   0  0  0  0  0  0
    2.8389   51.7353   13.0752 H   0  0  0  0  0  0
    2.2415   52.7411   11.7710 H   0  0  0  0  0  0
    3.1864   55.5120   12.9061 H   0  0  0  0  0  0
    1.6552   55.1378   12.1284 H   0  0  0  0  0  0
    1.6714   55.8787   13.7152 H   0  0  0  0  0  0
  1  2  1  0  0  0
  1 35  1  0  0  0
  1 36  1  0  0  0
  1 37  1  0  0  0
  2  3  1  0  0  0
  2  4  1  0  0  0
  2 12  1  0  0  0
  4  5  2  0  0  0
  4  6  1  0  0  0
  6  7  1  0  0  0
  6 38  1  0  0  0
  7 11  1  0  0  0
  7  8  2  0  0  0
  8  9  1  0  0  0
  9 10  2  0  0  0
  9 39  1  0  0  0
 10 11  1  0  0  0
 10 40  1  0  0  0
 12 13  1  0  0  0
 13 21  1  0  0  0
 13 14  2  0  0  0
 14 15  1  0  0  0
 15 20  2  0  0  0
 15 16  1  0  0  0
 16 17  2  0  0  0
 16 41  1  0  0  0
 17 18  1  0  0  0
 17 42  1  0  0  0
 18 19  2  0  0  0
 18 22  1  0  0  0
 19 20  1  0  0  0
 19 43  1  0  0  0
 20 21  1  0  0  0
 22 23  1  0  0  0
 22 44  1  0  0  0
 23 24  2  0  0  0
 23 25  1  0  0  0
 25 30  2  0  0  0
 25 26  1  0  0  0
 26 27  2  0  0  0
 26 45  1  0  0  0
 27 28  1  0  0  0
 27 46  1  0  0  0
 28 29  2  0  0  0
 28 31  1  0  0  0
 29 30  1  0  0  0
 29 47  1  0  0  0
 30 48  1  0  0  0
 31 32  1  0  0  0
 31 33  1  0  0  0
 31 34  1  0  0  0
 32 49  1  0  0  0
 32 50  1  0  0  0
 32 51  1  0  0  0
 33 52  1  0  0  0
 33 53  1  0  0  0
 33 54  1  0  0  0
 34 55  1  0  0  0
 34 56  1  0  0  0
 34 57  1  0  0  0
M  END
> <i_i_glide_confnum>
103

> <i_i_glide_lignum>
6025

> <i_i_glide_posenum>
392

> <i_i_glide_rotatable_bonds>
9

> <i_m_Source_File_Index>
5328

> <b_m_subgroup_collapsed>
0

> <r_i_docking_score>
-4.95502

> <r_i_glide_ecoul>
-5.11238

> <r_i_glide_eff_state_penalty>
0

> <r_i_glide_einternal>
12.2741

> <r_i_glide_emodel>
-53.9492

> <r_i_glide_energy>
-46.6258

> <r_i_glide_erotb>
0.578709

> <r_i_glide_esite>
-0.021151

> <r_i_glide_evdw>
-41.5135

> <r_i_glide_gscore>
-4.95502

> <r_i_glide_hbond>
-0.150869

> <r_i_glide_ligand_efficiency>
-0.150152

> <r_i_glide_ligand_efficiency_ln>
-1.10197

> <r_i_glide_ligand_efficiency_sa>
-0.481618

> <r_i_glide_lipo>
-2.19253

> <r_i_glide_metal>
0

> <r_i_glide_rewards>
-0.326647

> <s_i_glide_gridfile>
wee1_glide-grid

> <s_m_Source_File>
wee1_decoys_glide_SP.sdf

> <s_m_Source_Path>
/Users/zhangxujun/Desktop

> <s_m_entry_id>
5603

> <s_m_entry_name>
wee1_decoys_glide_SP.5328

> <s_m_subgroup_title>
wee1_decoys_glide_SP

> <s_m_subgroupid>
wee1_decoys_glide_SP


$$$$
