ZINC14468144_5140
                    3D
 Schrodinger Suite 2024-2.
 67 71  0  0  1  0            999 V2000
    6.2307   53.2962   23.0765 C   0  0  0  0  0  0
    5.9495   54.4970   22.1658 C   0  0  0  0  0  0
    6.7055   55.4669   22.1961 O   0  0  0  0  0  0
    4.8830   54.4237   21.3139 O   0  0  0  0  0  0
    3.9680   53.3960   21.3646 C   0  0  0  0  0  0
    3.9273   52.5061   20.2863 C   0  0  0  0  0  0
    3.0387   51.4342   20.2840 C   0  0  0  0  0  0
    2.1667   51.2491   21.3580 C   0  0  0  0  0  0
    2.1872   52.1545   22.4229 C   0  0  0  0  0  0
    3.0875   53.2304   22.4500 C   0  0  0  0  0  0
    3.1658   54.1215   23.5054 O   0  0  0  0  0  0
    2.4721   53.8234   24.7148 C   0  0  0  0  0  0
    1.1884   50.0809   21.3714 C   0  0  2  0  0  0
    1.5651   49.3449   20.6595 H   0  0  0  0  0  0
   -0.2328   50.5242   20.9457 C   0  0  1  0  0  0
   -0.5619   51.2567   21.6907 H   0  0  0  0  0  0
   -0.4801   51.1739   19.5873 C   0  0  0  0  0  0
   -1.9635   50.8847   19.4040 C   0  0  0  0  0  0
   -2.3765   49.9130   20.2445 C   0  0  0  0  0  0
   -1.1779   49.3335   20.9684 C   0  0  2  0  0  0
   -0.7796   48.5029   20.3796 H   0  0  0  0  0  0
   -1.2622   48.8371   22.4053 C   0  0  0  0  0  0
   -2.4211   48.2890   22.9686 C   0  0  0  0  0  0
   -2.4219   47.8156   24.2841 C   0  0  0  0  0  0
   -1.2635   47.8996   25.0571 C   0  0  0  0  0  0
   -0.0994   48.4335   24.5113 C   0  0  0  0  0  0
   -0.0878   48.8787   23.1911 C   0  0  0  0  0  0
    1.1180   49.4107   22.6854 N   0  0  0  0  0  0
   -3.8922   47.0961   24.9987 S   0  0  0  0  0  0
   -5.0230   47.4334   24.1274 O   0  0  0  0  0  0
   -3.5616   45.6973   25.2909 O   0  0  0  0  0  0
   -4.0896   47.9324   26.5288 N   0  0  0  0  0  0
   -4.5075   49.3467   26.4747 C   0  0  0  0  0  0
   -6.0257   49.3605   26.7609 C   0  0  0  0  0  0
   -6.5460   50.8124   26.7838 C   0  0  0  0  0  0
   -5.7674   51.6706   27.8111 C   0  0  0  0  0  0
   -4.2343   51.5810   27.6153 C   0  0  0  0  0  0
   -3.7439   50.1214   27.5633 C   0  0  0  0  0  0
    5.5603   53.3019   23.9355 H   0  0  0  0  0  0
    7.2558   53.3345   23.4477 H   0  0  0  0  0  0
    6.0988   52.3644   22.5289 H   0  0  0  0  0  0
    4.5986   52.6312   19.4493 H   0  0  0  0  0  0
    3.0404   50.7505   19.4462 H   0  0  0  0  0  0
    1.4949   52.0003   23.2374 H   0  0  0  0  0  0
    2.7995   54.4974   25.5016 H   0  0  0  0  0  0
    1.3947   53.9502   24.5926 H   0  0  0  0  0  0
    2.6775   52.8125   25.0655 H   0  0  0  0  0  0
   -0.2649   52.2440   19.6248 H   0  0  0  0  0  0
    0.1386   50.7459   18.7960 H   0  0  0  0  0  0
   -2.5761   51.4203   18.6926 H   0  0  0  0  0  0
   -3.3715   49.4924   20.3105 H   0  0  0  0  0  0
   -3.3220   48.2195   22.3733 H   0  0  0  0  0  0
   -1.2556   47.5503   26.0816 H   0  0  0  0  0  0
    0.7912   48.4859   25.1204 H   0  0  0  0  0  0
    1.9995   49.2475   23.1533 H   0  0  0  0  0  0
   -3.3054   47.7746   27.1763 H   0  0  0  0  0  0
   -4.3954   49.7700   25.4732 H   0  0  0  0  0  0
   -6.5652   48.7745   26.0141 H   0  0  0  0  0  0
   -6.2321   48.8876   27.7259 H   0  0  0  0  0  0
   -6.4482   51.2524   25.7897 H   0  0  0  0  0  0
   -7.6114   50.8220   27.0206 H   0  0  0  0  0  0
   -6.0955   52.7104   27.7470 H   0  0  0  0  0  0
   -6.0194   51.3314   28.8168 H   0  0  0  0  0  0
   -3.9528   52.0975   26.6957 H   0  0  0  0  0  0
   -3.7219   52.0960   28.4279 H   0  0  0  0  0  0
   -3.8837   49.6552   28.5424 H   0  0  0  0  0  0
   -2.6714   50.0958   27.3638 H   0  0  0  0  0  0
  1  2  1  0  0  0
  1 39  1  0  0  0
  1 40  1  0  0  0
  1 41  1  0  0  0
  2  3  2  0  0  0
  2  4  1  0  0  0
  4  5  1  0  0  0
  5 10  2  0  0  0
  5  6  1  0  0  0
  6  7  2  0  0  0
  6 42  1  0  0  0
  7  8  1  0  0  0
  7 43  1  0  0  0
  8  9  2  0  0  0
  8 13  1  0  0  0
  9 10  1  0  0  0
  9 44  1  0  0  0
 10 11  1  0  0  0
 11 12  1  0  0  0
 12 45  1  0  0  0
 12 46  1  0  0  0
 12 47  1  0  0  0
 13 14  1  0  0  0
 13 28  1  0  0  0
 13 15  1  0  0  0
 15 16  1  0  0  0
 15 20  1  0  0  0
 15 17  1  0  0  0
 17 18  1  0  0  0
 17 48  1  0  0  0
 17 49  1  0  0  0
 18 19  2  0  0  0
 18 50  1  0  0  0
 19 20  1  0  0  0
 19 51  1  0  0  0
 20 21  1  0  0  0
 20 22  1  0  0  0
 22 27  2  0  0  0
 22 23  1  0  0  0
 23 24  2  0  0  0
 23 52  1  0  0  0
 24 25  1  0  0  0
 24 29  1  0  0  0
 25 26  2  0  0  0
 25 53  1  0  0  0
 26 27  1  0  0  0
 26 54  1  0  0  0
 27 28  1  0  0  0
 28 55  1  0  0  0
 29 30  2  0  0  0
 29 31  2  0  0  0
 29 32  1  0  0  0
 32 33  1  0  0  0
 32 56  1  0  0  0
 33 38  1  0  0  0
 33 34  1  0  0  0
 33 57  1  0  0  0
 34 35  1  0  0  0
 34 58  1  0  0  0
 34 59  1  0  0  0
 35 36  1  0  0  0
 35 60  1  0  0  0
 35 61  1  0  0  0
 36 37  1  0  0  0
 36 62  1  0  0  0
 36 63  1  0  0  0
 37 38  1  0  0  0
 37 64  1  0  0  0
 37 65  1  0  0  0
 38 66  1  0  0  0
 38 67  1  0  0  0
M  END
> <i_i_glide_confnum>
146

> <i_i_glide_lignum>
5141

> <i_i_glide_posenum>
261

> <i_i_glide_rotatable_bonds>
7

> <i_m_Source_File_Index>
5804

> <b_m_subgroup_collapsed>
0

> <r_i_docking_score>
-0.193443

> <r_i_glide_ecoul>
-8.16569

> <r_i_glide_eff_state_penalty>
0

> <r_i_glide_einternal>
5.53956

> <r_i_glide_emodel>
-28.1628

> <r_i_glide_energy>
-40.7485

> <r_i_glide_erotb>
0.413442

> <r_i_glide_esite>
-0.199406

> <r_i_glide_evdw>
-32.5828

> <r_i_glide_gscore>
-0.193443

> <r_i_glide_hbond>
-0.111976

> <r_i_glide_ligand_efficiency>
-0.00552695

> <r_i_glide_ligand_efficiency_ln>
-0.0424651

> <r_i_glide_ligand_efficiency_sa>
-0.018079

> <r_i_glide_lipo>
-0.776429

> <r_i_glide_metal>
0

> <r_i_glide_rewards>
3.33492

> <s_i_glide_gridfile>
wee1_glide-grid

> <s_m_Source_File>
wee1_decoys_glide_SP.sdf

> <s_m_Source_Path>
/Users/zhangxujun/Desktop

> <s_m_entry_id>
6079

> <s_m_entry_name>
wee1_decoys_glide_SP.5804

> <s_m_subgroup_title>
wee1_decoys_glide_SP

> <s_m_subgroupid>
wee1_decoys_glide_SP


$$$$
