ZINC13865323_4952
                    3D
 Schrodinger Suite 2024-2.
 64 68  0  0  1  0            999 V2000
    5.0757   54.7750   29.5483 C   0  0  0  0  0  0
    4.3043   53.7054   30.0813 O   0  0  0  0  0  0
    3.1106   53.4298   29.4703 C   0  0  0  0  0  0
    2.3416   54.4053   28.8280 C   0  0  0  0  0  0
    1.1725   54.0414   28.1888 C   0  0  0  0  0  0
    0.7609   52.7097   28.1769 C   0  0  0  0  0  0
    1.4894   51.7511   28.8817 C   0  0  0  0  0  0
    2.6690   52.1118   29.5223 C   0  0  0  0  0  0
   -0.4341   52.3918   27.3918 C   0  0  0  0  0  0
   -0.6138   51.4096   26.4723 C   0  0  0  0  0  0
    0.4569   50.3835   26.0545 C   0  0  0  0  0  0
   -0.1045   49.0765   25.4555 C   0  0  0  0  0  0
   -1.1707   49.3673   24.3927 C   0  0  0  0  0  0
   -2.3381   50.1785   25.0067 C   0  0  1  0  0  0
   -2.8193   49.5318   25.7408 H   0  0  0  0  0  0
   -1.8603   51.4165   25.7370 C   0  0  0  0  0  0
   -2.6846   52.3823   25.6261 N   0  0  0  0  0  0
   -3.7011   52.0323   24.8078 N   0  0  0  0  0  0
   -3.4129   50.7769   24.0932 C   0  0  1  0  0  0
   -4.2768   50.1113   24.0798 H   0  0  0  0  0  0
   -2.9773   51.0167   22.6349 C   0  0  0  0  0  0
   -1.9594   51.9317   22.3338 C   0  0  0  0  0  0
   -1.5172   52.0920   21.0249 C   0  0  0  0  0  0
   -2.1137   51.3627   19.9867 C   0  0  0  0  0  0
   -3.1529   50.4811   20.2840 C   0  0  0  0  0  0
   -3.5766   50.2976   21.5974 C   0  0  0  0  0  0
   -1.7380   51.4489   18.6600 O   0  0  0  0  0  0
   -0.6046   52.2356   18.3031 C   0  0  0  0  0  0
   -4.8721   52.7043   24.8897 C   0  0  0  0  0  0
   -4.9401   53.9327   24.7833 O   0  0  0  0  0  0
   -6.1366   51.9160   25.2600 C   0  0  0  0  0  0
   -6.6485   52.2236   26.9911 S   0  0  0  0  0  0
   -5.5527   51.1867   27.9226 C   0  0  0  0  0  0
   -5.4924   51.2779   29.2485 N   0  0  0  0  0  0
   -4.5616   50.4131   29.5596 C   0  0  0  0  0  0
   -4.0956   49.8128   28.4323 N   0  0  0  0  0  0
   -3.3544   49.1189   28.3883 H   0  0  0  0  0  0
   -4.7460   50.2965   27.3736 N   0  0  0  0  0  0
   -4.0924   50.0964   30.7968 N   0  0  0  0  0  0
    6.0133   54.8968   30.0807 H   0  0  0  0  0  0
    5.3000   54.6328   28.4897 H   0  0  0  0  0  0
    4.5384   55.6967   29.6816 H   0  0  0  0  0  0
    2.6327   55.4434   28.8005 H   0  0  0  0  0  0
    0.6159   54.8110   27.6818 H   0  0  0  0  0  0
    1.1520   50.7318   28.9306 H   0  0  0  0  0  0
    3.2669   51.3744   30.0335 H   0  0  0  0  0  0
   -1.2550   53.0644   27.5988 H   0  0  0  0  0  0
    1.1042   50.8562   25.3138 H   0  0  0  0  0  0
    1.1048   50.1147   26.8817 H   0  0  0  0  0  0
    0.7039   48.4882   25.0217 H   0  0  0  0  0  0
   -0.5278   48.4596   26.2486 H   0  0  0  0  0  0
   -1.5486   48.4333   23.9746 H   0  0  0  0  0  0
   -0.6954   49.8984   23.5679 H   0  0  0  0  0  0
   -1.4767   52.4930   23.1204 H   0  0  0  0  0  0
   -0.6930   52.7638   20.8411 H   0  0  0  0  0  0
   -3.6176   49.9166   19.4890 H   0  0  0  0  0  0
   -4.3655   49.5898   21.8036 H   0  0  0  0  0  0
   -0.4048   52.1126   17.2392 H   0  0  0  0  0  0
    0.2932   51.9261   18.8413 H   0  0  0  0  0  0
   -0.7809   53.2970   18.4813 H   0  0  0  0  0  0
   -6.9347   52.2573   24.6011 H   0  0  0  0  0  0
   -6.0511   50.8476   25.0789 H   0  0  0  0  0  0
   -4.4193   50.5436   31.6413 H   0  0  0  0  0  0
   -3.2233   49.5600   30.8819 H   0  0  0  0  0  0
  1  2  1  0  0  0
  1 40  1  0  0  0
  1 41  1  0  0  0
  1 42  1  0  0  0
  2  3  1  0  0  0
  3  8  2  0  0  0
  3  4  1  0  0  0
  4  5  2  0  0  0
  4 43  1  0  0  0
  5  6  1  0  0  0
  5 44  1  0  0  0
  6  7  2  0  0  0
  6  9  1  0  0  0
  7  8  1  0  0  0
  7 45  1  0  0  0
  8 46  1  0  0  0
  9 10  2  0  0  0
  9 47  1  0  0  0
 10 16  1  0  0  0
 10 11  1  0  0  0
 11 12  1  0  0  0
 11 48  1  0  0  0
 11 49  1  0  0  0
 12 13  1  0  0  0
 12 50  1  0  0  0
 12 51  1  0  0  0
 13 14  1  0  0  0
 13 52  1  0  0  0
 13 53  1  0  0  0
 14 15  1  0  0  0
 14 19  1  0  0  0
 14 16  1  0  0  0
 16 17  2  0  0  0
 17 18  1  0  0  0
 18 19  1  0  0  0
 18 29  1  0  0  0
 19 20  1  0  0  0
 19 21  1  0  0  0
 21 26  2  0  0  0
 21 22  1  0  0  0
 22 23  2  0  0  0
 22 54  1  0  0  0
 23 24  1  0  0  0
 23 55  1  0  0  0
 24 25  2  0  0  0
 24 27  1  0  0  0
 25 26  1  0  0  0
 25 56  1  0  0  0
 26 57  1  0  0  0
 27 28  1  0  0  0
 28 58  1  0  0  0
 28 59  1  0  0  0
 28 60  1  0  0  0
 29 30  2  0  0  0
 29 31  1  0  0  0
 31 32  1  0  0  0
 31 61  1  0  0  0
 31 62  1  0  0  0
 32 33  1  0  0  0
 33 38  2  0  0  0
 33 34  1  0  0  0
 34 35  2  0  0  0
 35 36  1  0  0  0
 35 39  1  0  0  0
 36 37  1  0  0  0
 36 38  1  0  0  0
 39 63  1  0  0  0
 39 64  1  0  0  0
M  END
> <i_i_glide_confnum>
146

> <i_i_glide_lignum>
4953

> <i_i_glide_posenum>
39

> <i_i_glide_rotatable_bonds>
8

> <i_m_Source_File_Index>
3275

> <b_m_subgroup_collapsed>
0

> <r_i_docking_score>
-4.40373

> <r_i_glide_ecoul>
-10.1086

> <r_i_glide_eff_state_penalty>
0

> <r_i_glide_einternal>
17.509

> <r_i_glide_emodel>
-49.3851

> <r_i_glide_energy>
-44.0513

> <r_i_glide_erotb>
0.48183

> <r_i_glide_esite>
-0.303653

> <r_i_glide_evdw>
-33.9428

> <r_i_glide_gscore>
-4.40373

> <r_i_glide_hbond>
-0.423262

> <r_i_glide_ligand_efficiency>
-0.122326

> <r_i_glide_ligand_efficiency_ln>
-0.960776

> <r_i_glide_ligand_efficiency_sa>
-0.403911

> <r_i_glide_lipo>
-0.965471

> <r_i_glide_metal>
0

> <r_i_glide_rewards>
0.0202449

> <s_i_glide_gridfile>
wee1_glide-grid

> <s_m_Source_File>
wee1_decoys_glide_SP.sdf

> <s_m_Source_Path>
/Users/zhangxujun/Desktop

> <s_m_entry_id>
3550

> <s_m_entry_name>
wee1_decoys_glide_SP.3275

> <s_m_subgroup_title>
wee1_decoys_glide_SP

> <s_m_subgroupid>
wee1_decoys_glide_SP


$$$$
