ZINC17857125_427
                    3D
 Schrodinger Suite 2024-2.
 54 56  0  0  1  0            999 V2000
   -3.1748   52.6424   25.4174 C   0  0  0  0  0  0
   -4.1809   51.7605   26.1492 C   0  0  0  0  0  0
   -5.4562   52.2874   26.3734 C   0  0  0  0  0  0
   -6.3983   51.5790   27.1127 C   0  0  0  0  0  0
   -6.0697   50.3389   27.6505 C   0  0  0  0  0  0
   -4.8031   49.7861   27.4425 C   0  0  0  0  0  0
   -3.8562   50.4817   26.6629 C   0  0  0  0  0  0
   -2.5899   49.8912   26.4817 N   0  0  0  0  0  0
   -1.9596   49.6717   25.3112 C   0  0  0  0  0  0
   -2.4727   49.8654   24.2052 O   0  0  0  0  0  0
   -0.5324   49.0966   25.4310 C   0  0  0  0  0  0
    0.3542   49.5030   24.3279 N   0  0  0  0  0  0
    0.6332   50.7697   23.9583 C   0  0  0  0  0  0
    0.1860   51.7584   24.5443 O   0  0  0  0  0  0
    1.5958   50.9407   22.8055 C   0  0  0  0  0  0
    1.7742   49.9546   21.8228 C   0  0  0  0  0  0
    2.7045   50.1393   20.7994 C   0  0  0  0  0  0
    3.5017   51.2851   20.7672 C   0  0  0  0  0  0
    3.3349   52.2800   21.7345 C   0  0  0  0  0  0
    2.3460   52.1196   22.7120 C   0  0  0  0  0  0
    4.3612   53.7609   21.7104 S   0  0  0  0  0  0
    5.1649   53.7247   20.4851 O   0  0  0  0  0  0
    3.4995   54.8967   22.0088 O   0  0  0  0  0  0
    5.5203   53.6973   23.0496 N   0  0  0  0  0  0
    5.2736   54.0948   24.3776 C   0  0  0  0  0  0
    4.0029   54.3865   24.8969 C   0  0  0  0  0  0
    3.8153   54.5679   26.2660 C   0  0  0  0  0  0
    4.9002   54.4967   27.1314 C   0  0  0  0  0  0
    6.1729   54.2739   26.6182 C   0  0  0  0  0  0
    6.3634   54.0967   25.2491 C   0  0  0  0  0  0
    7.5043   54.1603   27.6889 Cl  0  0  0  0  0  0
   -4.4950   48.4268   28.0634 C   0  0  0  0  0  0
   -3.1655   52.4204   24.3503 H   0  0  0  0  0  0
   -3.4092   53.6973   25.5503 H   0  0  0  0  0  0
   -2.1689   52.5086   25.8147 H   0  0  0  0  0  0
   -5.7196   53.2596   25.9830 H   0  0  0  0  0  0
   -7.3797   51.9972   27.2807 H   0  0  0  0  0  0
   -6.8066   49.8070   28.2354 H   0  0  0  0  0  0
   -2.1593   49.4818   27.3154 H   0  0  0  0  0  0
   -0.0758   49.4031   26.3744 H   0  0  0  0  0  0
   -0.5957   48.0086   25.4527 H   0  0  0  0  0  0
    0.8551   48.7586   23.8695 H   0  0  0  0  0  0
    1.1944   49.0434   21.8313 H   0  0  0  0  0  0
    2.8312   49.3819   20.0383 H   0  0  0  0  0  0
    4.2348   51.3962   19.9789 H   0  0  0  0  0  0
    2.1822   52.8948   23.4385 H   0  0  0  0  0  0
    6.4542   53.4022   22.8139 H   0  0  0  0  0  0
    3.1326   54.4626   24.2747 H   0  0  0  0  0  0
    2.8273   54.7561   26.6585 H   0  0  0  0  0  0
    4.7576   54.6244   28.1946 H   0  0  0  0  0  0
    7.3549   53.8839   24.8762 H   0  0  0  0  0  0
   -4.0461   47.7615   27.3243 H   0  0  0  0  0  0
   -3.7795   48.5378   28.8810 H   0  0  0  0  0  0
   -5.3901   47.9307   28.4431 H   0  0  0  0  0  0
  1  2  1  0  0  0
  1 33  1  0  0  0
  1 34  1  0  0  0
  1 35  1  0  0  0
  2  7  2  0  0  0
  2  3  1  0  0  0
  3  4  2  0  0  0
  3 36  1  0  0  0
  4  5  1  0  0  0
  4 37  1  0  0  0
  5  6  2  0  0  0
  5 38  1  0  0  0
  6  7  1  0  0  0
  6 32  1  0  0  0
  7  8  1  0  0  0
  8  9  1  0  0  0
  8 39  1  0  0  0
  9 10  2  0  0  0
  9 11  1  0  0  0
 11 12  1  0  0  0
 11 40  1  0  0  0
 11 41  1  0  0  0
 12 13  1  0  0  0
 12 42  1  0  0  0
 13 14  2  0  0  0
 13 15  1  0  0  0
 15 20  2  0  0  0
 15 16  1  0  0  0
 16 17  2  0  0  0
 16 43  1  0  0  0
 17 18  1  0  0  0
 17 44  1  0  0  0
 18 19  2  0  0  0
 18 45  1  0  0  0
 19 20  1  0  0  0
 19 21  1  0  0  0
 20 46  1  0  0  0
 21 22  2  0  0  0
 21 23  2  0  0  0
 21 24  1  0  0  0
 24 25  1  0  0  0
 24 47  1  0  0  0
 25 30  2  0  0  0
 25 26  1  0  0  0
 26 27  2  0  0  0
 26 48  1  0  0  0
 27 28  1  0  0  0
 27 49  1  0  0  0
 28 29  2  0  0  0
 28 50  1  0  0  0
 29 30  1  0  0  0
 29 31  1  0  0  0
 30 51  1  0  0  0
 32 52  1  0  0  0
 32 53  1  0  0  0
 32 54  1  0  0  0
M  END
> <i_i_glide_confnum>
279

> <i_i_glide_lignum>
428

> <i_i_glide_posenum>
264

> <i_i_glide_rotatable_bonds>
9

> <i_m_Source_File_Index>
4695

> <b_m_subgroup_collapsed>
0

> <r_i_docking_score>
-4.70083

> <r_i_glide_ecoul>
-6.15978

> <r_i_glide_eff_state_penalty>
0

> <r_i_glide_einternal>
6.53117

> <r_i_glide_emodel>
-52.9724

> <r_i_glide_energy>
-42.8518

> <r_i_glide_erotb>
0.81685

> <r_i_glide_esite>
-0.193374

> <r_i_glide_evdw>
-36.692

> <r_i_glide_gscore>
-4.70083

> <r_i_glide_hbond>
-0.16

> <r_i_glide_ligand_efficiency>
-0.146901

> <r_i_glide_ligand_efficiency_ln>
-1.05264

> <r_i_glide_ligand_efficiency_sa>
-0.466381

> <r_i_glide_lipo>
-2.10842

> <r_i_glide_metal>
0

> <r_i_glide_rewards>
-0.297321

> <s_i_glide_gridfile>
wee1_glide-grid

> <s_m_Source_File>
wee1_decoys_glide_SP.sdf

> <s_m_Source_Path>
/Users/zhangxujun/Desktop

> <s_m_entry_id>
4970

> <s_m_entry_name>
wee1_decoys_glide_SP.4695

> <s_m_subgroup_title>
wee1_decoys_glide_SP

> <s_m_subgroupid>
wee1_decoys_glide_SP


$$$$
