ZINC61079799_3903
                    3D
 Schrodinger Suite 2024-2.
 41 43  0  0  1  0            999 V2000
    3.4225   54.2986   25.2740 C   0  0  0  0  0  0
    3.7100   54.2610   26.6509 C   0  0  0  0  0  0
    5.0623   54.1600   27.0464 C   0  0  0  0  0  0
    6.0735   54.0963   26.0861 C   0  0  0  0  0  0
    5.7650   54.0972   24.7279 C   0  0  0  0  0  0
    4.4324   54.1743   24.3202 C   0  0  0  0  0  0
    4.0972   54.1197   22.9645 N   0  0  0  0  0  0
    6.7634   54.0017   23.8162 F   0  0  0  0  0  0
    5.6028   54.0977   28.8800 Br  0  0  0  0  0  0
    2.5959   54.3704   27.6813 C   0  0  0  0  0  0
    2.7139   55.2378   28.5531 O   0  0  0  0  0  0
    1.5007   53.5495   27.6137 N   0  0  0  0  0  0
    0.4060   53.7691   28.5978 C   0  0  0  0  0  0
   -0.0321   52.4073   29.1615 C   0  0  0  0  0  0
   -0.4830   51.4572   28.0470 C   0  0  1  0  0  0
   -0.7040   50.4973   28.5072 H   0  0  0  0  0  0
   -1.7583   51.8785   27.2771 C   0  0  0  0  0  0
   -2.1475   50.8599   26.1913 C   0  0  0  0  0  0
   -0.9715   50.5828   25.2377 C   0  0  0  0  0  0
    0.3026   50.1901   26.0086 C   0  0  0  0  0  0
    0.7029   51.2297   27.0924 C   0  0  1  0  0  0
    1.4976   50.7786   27.6893 H   0  0  0  0  0  0
    1.2724   52.5561   26.5256 C   0  0  0  0  0  0
    2.4057   54.4258   24.9290 H   0  0  0  0  0  0
    7.1040   54.0155   26.4037 H   0  0  0  0  0  0
    4.8414   54.0526   22.2821 H   0  0  0  0  0  0
    3.1314   54.1765   22.6734 H   0  0  0  0  0  0
    0.7077   54.3743   29.4542 H   0  0  0  0  0  0
   -0.4263   54.2522   28.0890 H   0  0  0  0  0  0
    0.7763   51.9683   29.7486 H   0  0  0  0  0  0
   -0.8563   52.5726   29.8550 H   0  0  0  0  0  0
   -2.5820   52.0033   27.9764 H   0  0  0  0  0  0
   -1.6216   52.8576   26.8194 H   0  0  0  0  0  0
   -3.0116   51.2220   25.6332 H   0  0  0  0  0  0
   -2.4566   49.9277   26.6671 H   0  0  0  0  0  0
   -0.7726   51.4652   24.6292 H   0  0  0  0  0  0
   -1.2421   49.7888   24.5408 H   0  0  0  0  0  0
    1.1044   50.0384   25.2903 H   0  0  0  0  0  0
    0.1371   49.2220   26.4812 H   0  0  0  0  0  0
    0.5758   52.9753   25.7979 H   0  0  0  0  0  0
    2.2060   52.2604   26.0495 H   0  0  0  0  0  0
  1  6  2  0  0  0
  1  2  1  0  0  0
  1 24  1  0  0  0
  2  3  2  0  0  0
  2 10  1  0  0  0
  3  4  1  0  0  0
  3  9  1  0  0  0
  4  5  2  0  0  0
  4 25  1  0  0  0
  5  6  1  0  0  0
  5  8  1  0  0  0
  6  7  1  0  0  0
  7 26  1  0  0  0
  7 27  1  0  0  0
 10 11  2  0  0  0
 10 12  1  0  0  0
 12 23  1  0  0  0
 12 13  1  0  0  0
 13 14  1  0  0  0
 13 28  1  0  0  0
 13 29  1  0  0  0
 14 15  1  0  0  0
 14 30  1  0  0  0
 14 31  1  0  0  0
 15 16  1  0  0  0
 15 21  1  0  0  0
 15 17  1  0  0  0
 17 18  1  0  0  0
 17 32  1  0  0  0
 17 33  1  0  0  0
 18 19  1  0  0  0
 18 34  1  0  0  0
 18 35  1  0  0  0
 19 20  1  0  0  0
 19 36  1  0  0  0
 19 37  1  0  0  0
 20 21  1  0  0  0
 20 38  1  0  0  0
 20 39  1  0  0  0
 21 22  1  0  0  0
 21 23  1  0  0  0
 23 40  1  0  0  0
 23 41  1  0  0  0
M  END
> <i_i_glide_confnum>
6

> <i_i_glide_lignum>
3904

> <i_i_glide_posenum>
249

> <i_i_glide_rotatable_bonds>
2

> <i_m_Source_File_Index>
4698

> <b_m_subgroup_collapsed>
0

> <r_i_docking_score>
-5.37302

> <r_i_glide_ecoul>
-0.23756

> <r_i_glide_eff_state_penalty>
0

> <r_i_glide_einternal>
2.56089

> <r_i_glide_emodel>
-42.7095

> <r_i_glide_energy>
-33.5425

> <r_i_glide_erotb>
0.302986

> <r_i_glide_esite>
0

> <r_i_glide_evdw>
-33.3049

> <r_i_glide_gscore>
-5.37302

> <r_i_glide_hbond>
0

> <r_i_glide_ligand_efficiency>
-0.255858

> <r_i_glide_ligand_efficiency_ln>
-1.32847

> <r_i_glide_ligand_efficiency_sa>
-0.705893

> <r_i_glide_lipo>
-2.00916

> <r_i_glide_metal>
0

> <r_i_glide_rewards>
-1.96596

> <s_i_glide_gridfile>
wee1_glide-grid

> <s_m_Source_File>
wee1_decoys_glide_SP.sdf

> <s_m_Source_Path>
/Users/zhangxujun/Desktop

> <s_m_entry_id>
4973

> <s_m_entry_name>
wee1_decoys_glide_SP.4698

> <s_m_subgroup_title>
wee1_decoys_glide_SP

> <s_m_subgroupid>
wee1_decoys_glide_SP


$$$$
