ZINC39596177_368
                    3D
 Schrodinger Suite 2024-2.
 69 72  0  0  1  0            999 V2000
    2.8499   53.2085   22.0801 C   0  0  0  0  0  0
    3.4864   53.8624   23.3109 C   0  0  0  0  0  0
    2.3878   53.8875   24.7580 S   0  0  0  0  0  0
    3.3671   53.9026   26.2511 C   0  0  0  0  0  0
    2.7989   53.8061   27.5490 C   0  0  0  0  0  0
    3.6716   53.9271   28.6434 C   0  0  0  0  0  0
    5.0409   54.0951   28.4456 C   0  0  0  0  0  0
    5.5177   54.1514   27.1413 C   0  0  0  0  0  0
    4.7044   54.0688   26.0621 N   0  0  0  0  0  0
    1.3134   53.6965   27.8391 C   0  0  0  0  0  0
    0.8142   54.5202   28.6086 O   0  0  0  0  0  0
    0.5642   52.7246   27.2572 N   0  0  0  0  0  0
    1.1019   51.4973   26.6702 C   0  0  0  0  0  0
   -0.1120   50.5470   26.6714 C   0  0  1  0  0  0
   -0.0956   50.0065   27.6149 H   0  0  0  0  0  0
   -1.3672   51.4598   26.5995 C   0  0  0  0  0  0
   -0.8905   52.6567   27.4434 C   0  0  0  0  0  0
   -1.7209   51.9198   25.1415 C   0  0  0  0  0  0
   -2.9746   52.8069   25.0726 C   0  0  0  0  0  0
   -4.1626   52.0115   25.6451 N   0  3  0  0  0  0
   -3.9160   51.5819   27.1037 C   0  0  0  0  0  0
   -2.6267   50.7490   27.1705 C   0  0  0  0  0  0
   -0.0202   49.5321   25.5041 C   0  0  0  0  0  0
    0.6398   49.7515   24.4871 O   0  0  0  0  0  0
   -0.7450   48.4224   25.6817 N   0  0  0  0  0  0
   -0.9371   47.3452   24.7177 C   0  0  0  0  0  0
   -2.2893   47.4530   23.9726 C   0  0  2  0  0  0
   -2.4662   48.4819   23.6529 H   0  0  0  0  0  0
   -3.4800   47.0771   24.8695 C   0  0  0  0  0  0
   -2.3248   46.5641   22.8549 O   0  0  0  0  0  0
   -1.6951   46.9013   21.6700 C   0  0  0  0  0  0
   -0.9895   48.0972   21.4477 C   0  0  0  0  0  0
   -0.3736   48.3281   20.2206 C   0  0  0  0  0  0
   -0.4629   47.3743   19.2103 C   0  0  0  0  0  0
   -1.1660   46.1918   19.4159 C   0  0  0  0  0  0
   -1.7792   45.9594   20.6435 C   0  0  0  0  0  0
    0.1343   47.5976   18.0196 F   0  0  0  0  0  0
    3.5158   53.2592   21.2177 H   0  0  0  0  0  0
    2.6288   52.1563   22.2645 H   0  0  0  0  0  0
    1.9148   53.6964   21.8067 H   0  0  0  0  0  0
    3.7860   54.8871   23.0875 H   0  0  0  0  0  0
    4.3984   53.3204   23.5596 H   0  0  0  0  0  0
    3.2914   53.8925   29.6544 H   0  0  0  0  0  0
    5.7184   54.1886   29.2812 H   0  0  0  0  0  0
    6.5725   54.2761   26.9452 H   0  0  0  0  0  0
    1.9008   51.0705   27.2814 H   0  0  0  0  0  0
    1.3782   51.7088   25.6405 H   0  0  0  0  0  0
   -1.4232   53.5894   27.2792 H   0  0  0  0  0  0
   -1.0446   52.4170   28.4975 H   0  0  0  0  0  0
   -0.8734   52.4544   24.7069 H   0  0  0  0  0  0
   -1.8815   51.0695   24.4781 H   0  0  0  0  0  0
   -2.9012   53.6965   25.6882 H   0  0  0  0  0  0
   -3.2388   53.0867   24.0511 H   0  0  0  0  0  0
   -5.0079   52.5640   25.5909 H   0  0  0  0  0  0
   -3.8528   52.4966   27.6811 H   0  0  0  0  0  0
   -4.7934   51.0140   27.4207 H   0  0  0  0  0  0
   -2.7928   49.7929   26.6763 H   0  0  0  0  0  0
   -2.4438   50.4934   28.2157 H   0  0  0  0  0  0
   -1.1042   48.2564   26.6246 H   0  0  0  0  0  0
   -0.8957   46.4004   25.2594 H   0  0  0  0  0  0
   -0.1038   47.3005   24.0150 H   0  0  0  0  0  0
   -3.5368   47.7163   25.7502 H   0  0  0  0  0  0
   -4.4216   47.1785   24.3306 H   0  0  0  0  0  0
   -3.4099   46.0483   25.2191 H   0  0  0  0  0  0
   -0.8879   48.8516   22.2126 H   0  0  0  0  0  0
    0.1784   49.2408   20.0518 H   0  0  0  0  0  0
   -1.2301   45.4600   18.6240 H   0  0  0  0  0  0
   -2.3231   45.0409   20.8040 H   0  0  0  0  0  0
   -4.3170   51.1877   25.0799 H   0  0  0  0  0  0
  1  2  1  0  0  0
  1 38  1  0  0  0
  1 39  1  0  0  0
  1 40  1  0  0  0
  2  3  1  0  0  0
  2 41  1  0  0  0
  2 42  1  0  0  0
  3  4  1  0  0  0
  4  9  2  0  0  0
  4  5  1  0  0  0
  5  6  2  0  0  0
  5 10  1  0  0  0
  6  7  1  0  0  0
  6 43  1  0  0  0
  7  8  2  0  0  0
  7 44  1  0  0  0
  8  9  1  0  0  0
  8 45  1  0  0  0
 10 11  2  0  0  0
 10 12  1  0  0  0
 12 17  1  0  0  0
 12 13  1  0  0  0
 13 14  1  0  0  0
 13 46  1  0  0  0
 13 47  1  0  0  0
 14 15  1  0  0  0
 14 16  1  0  0  0
 14 23  1  0  0  0
 16 22  1  0  0  0
 16 17  1  0  0  0
 16 18  1  0  0  0
 17 48  1  0  0  0
 17 49  1  0  0  0
 18 19  1  0  0  0
 18 50  1  0  0  0
 18 51  1  0  0  0
 19 20  1  0  0  0
 19 52  1  0  0  0
 19 53  1  0  0  0
 20 21  1  0  0  0
 20 54  1  0  0  0
 20 69  1  0  0  0
 21 22  1  0  0  0
 21 55  1  0  0  0
 21 56  1  0  0  0
 22 57  1  0  0  0
 22 58  1  0  0  0
 23 24  2  0  0  0
 23 25  1  0  0  0
 25 26  1  0  0  0
 25 59  1  0  0  0
 26 27  1  0  0  0
 26 60  1  0  0  0
 26 61  1  0  0  0
 27 28  1  0  0  0
 27 29  1  0  0  0
 27 30  1  0  0  0
 29 62  1  0  0  0
 29 63  1  0  0  0
 29 64  1  0  0  0
 30 31  1  0  0  0
 31 36  2  0  0  0
 31 32  1  0  0  0
 32 33  2  0  0  0
 32 65  1  0  0  0
 33 34  1  0  0  0
 33 66  1  0  0  0
 34 35  2  0  0  0
 34 37  1  0  0  0
 35 36  1  0  0  0
 35 67  1  0  0  0
 36 68  1  0  0  0
M  CHG  1  20   1
M  END
> <i_i_glide_confnum>
206

> <i_i_glide_lignum>
369

> <i_i_glide_posenum>
178

> <i_i_glide_rotatable_bonds>
10

> <i_m_Source_File_Index>
4397

> <b_m_subgroup_collapsed>
0

> <r_i_docking_score>
-4.16867

> <r_i_glide_ecoul>
-2.73647

> <r_i_glide_eff_state_penalty>
0

> <r_i_glide_einternal>
11.6489

> <r_i_glide_emodel>
-46.649

> <r_i_glide_energy>
-39.2319

> <r_i_glide_erotb>
0.649428

> <r_i_glide_esite>
-0.169217

> <r_i_glide_evdw>
-36.4955

> <r_i_glide_gscore>
-4.16867

> <r_i_glide_hbond>
-0.16

> <r_i_glide_ligand_efficiency>
-0.119105

> <r_i_glide_ligand_efficiency_ln>
-0.915116

> <r_i_glide_ligand_efficiency_sa>
-0.3896

> <r_i_glide_lipo>
-1.92608

> <r_i_glide_metal>
0

> <r_i_glide_rewards>
-0.327555

> <s_i_glide_gridfile>
wee1_glide-grid

> <s_m_Source_File>
wee1_decoys_glide_SP.sdf

> <s_m_Source_Path>
/Users/zhangxujun/Desktop

> <s_m_entry_id>
4672

> <s_m_entry_name>
wee1_decoys_glide_SP.4397

> <s_m_subgroup_title>
wee1_decoys_glide_SP

> <s_m_subgroupid>
wee1_decoys_glide_SP


$$$$
