ZINC05275965_1773
                    3D
 Schrodinger Suite 2024-2.
 54 57  0  0  1  0            999 V2000
   -0.0632   54.0840   28.4817 C   0  0  0  0  0  0
    1.0642   53.0600   28.1869 C   0  0  1  0  0  0
    0.4763   51.5871   28.1580 C   0  0  0  0  0  0
   -0.2136   51.0589   26.8573 C   0  0  1  0  0  0
   -1.2614   50.9069   27.1240 H   0  0  0  0  0  0
   -0.1921   52.0836   25.6936 C   0  0  1  0  0  0
   -0.7825   52.9031   26.0670 H   0  0  0  0  0  0
    1.2715   52.5913   25.5467 C   0  0  2  0  0  0
    1.9043   51.7124   25.4483 H   0  0  0  0  0  0
    1.7370   53.4142   26.7995 C   0  0  2  0  0  0
    1.5090   54.4584   26.5744 H   0  0  0  0  0  0
    3.2646   53.3939   27.0390 C   0  0  0  0  0  0
    3.4794   52.8111   28.4374 C   0  0  0  0  0  0
    2.2427   53.2680   29.2313 C   0  0  2  0  0  0
    2.0900   52.4966   30.5787 C   0  0  0  0  0  0
    3.0184   51.7999   31.0061 O   0  0  0  0  0  0
    0.7737   52.6694   31.3809 C   0  0  0  0  0  0
    0.7044   51.7809   32.4817 O   0  0  0  0  0  0
    2.4448   54.6151   29.6506 O   0  0  0  0  0  0
    1.4146   53.3755   24.2311 C   0  0  0  0  0  0
    1.1928   52.4734   22.9943 C   0  0  0  0  0  0
    0.1202   51.3967   23.2275 C   0  0  0  0  0  0
    0.1111   50.2498   22.5049 C   0  0  0  0  0  0
   -0.8695   49.1699   22.6395 C   0  0  0  0  0  0
   -0.8955   48.1788   21.9134 O   0  0  0  0  0  0
   -1.8325   49.3825   23.7117 C   0  0  0  0  0  0
   -1.8737   50.4922   24.4720 C   0  0  0  0  0  0
   -0.9284   51.6981   24.3367 C   0  0  1  0  0  0
   -1.8385   52.8551   23.8372 C   0  0  0  0  0  0
    0.2547   49.7721   26.4817 O   0  0  0  0  0  0
   -0.8957   53.9596   27.8115 H   0  0  0  0  0  0
   -0.4675   54.0304   29.4880 H   0  0  0  0  0  0
    0.3044   55.1003   28.3445 H   0  0  0  0  0  0
    1.3428   50.9354   28.2750 H   0  0  0  0  0  0
   -0.1134   51.3257   29.0338 H   0  0  0  0  0  0
    3.6379   54.4201   27.0487 H   0  0  0  0  0  0
    3.8324   52.8965   26.2542 H   0  0  0  0  0  0
    4.4234   53.1335   28.8816 H   0  0  0  0  0  0
    3.5109   51.7235   28.3771 H   0  0  0  0  0  0
   -0.0933   52.4570   30.7642 H   0  0  0  0  0  0
    0.6935   53.6955   31.7404 H   0  0  0  0  0  0
   -0.2419   51.6967   32.7715 H   0  0  0  0  0  0
    2.6726   55.1354   28.8769 H   0  0  0  0  0  0
    0.7738   54.2573   24.2337 H   0  0  0  0  0  0
    2.4210   53.7924   24.1715 H   0  0  0  0  0  0
    2.1326   51.9773   22.7448 H   0  0  0  0  0  0
    0.9482   53.0870   22.1261 H   0  0  0  0  0  0
    0.8845   50.1249   21.7613 H   0  0  0  0  0  0
   -2.5564   48.6071   23.9153 H   0  0  0  0  0  0
   -2.6412   50.5314   25.2315 H   0  0  0  0  0  0
   -2.3162   52.6101   22.8869 H   0  0  0  0  0  0
   -2.6366   53.0712   24.5488 H   0  0  0  0  0  0
   -1.2964   53.7846   23.6827 H   0  0  0  0  0  0
   -0.1933   49.1195   27.0423 H   0  0  0  0  0  0
  1  2  1  0  0  0
  1 31  1  0  0  0
  1 32  1  0  0  0
  1 33  1  0  0  0
  2 10  1  0  0  0
  2 14  1  0  0  0
  2  3  1  0  0  0
  3  4  1  0  0  0
  3 34  1  0  0  0
  3 35  1  0  0  0
  4  5  1  0  0  0
  4  6  1  0  0  0
  4 30  1  0  0  0
  6  7  1  0  0  0
  6 28  1  0  0  0
  6  8  1  0  0  0
  8  9  1  0  0  0
  8 10  1  0  0  0
  8 20  1  0  0  0
 10 11  1  0  0  0
 10 12  1  0  0  0
 12 13  1  0  0  0
 12 36  1  0  0  0
 12 37  1  0  0  0
 13 14  1  0  0  0
 13 38  1  0  0  0
 13 39  1  0  0  0
 14 15  1  0  0  0
 14 19  1  0  0  0
 15 16  2  0  0  0
 15 17  1  0  0  0
 17 18  1  0  0  0
 17 40  1  0  0  0
 17 41  1  0  0  0
 18 42  1  0  0  0
 19 43  1  0  0  0
 20 21  1  0  0  0
 20 44  1  0  0  0
 20 45  1  0  0  0
 21 22  1  0  0  0
 21 46  1  0  0  0
 21 47  1  0  0  0
 22 28  1  0  0  0
 22 23  2  0  0  0
 23 24  1  0  0  0
 23 48  1  0  0  0
 24 25  2  0  0  0
 24 26  1  0  0  0
 26 27  2  0  0  0
 26 49  1  0  0  0
 27 28  1  0  0  0
 27 50  1  0  0  0
 28 29  1  0  0  0
 29 51  1  0  0  0
 29 52  1  0  0  0
 29 53  1  0  0  0
 30 54  1  0  0  0
M  END
> <i_i_glide_confnum>
2

> <i_i_glide_lignum>
1774

> <i_i_glide_posenum>
381

> <i_i_glide_rotatable_bonds>
5

> <i_m_Source_File_Index>
4052

> <b_m_subgroup_collapsed>
0

> <r_i_docking_score>
-6.09695

> <r_i_glide_ecoul>
-15.7801

> <r_i_glide_eff_state_penalty>
0

> <r_i_glide_einternal>
2.88142

> <r_i_glide_emodel>
-48.7521

> <r_i_glide_energy>
-36.4139

> <r_i_glide_erotb>
0.295244

> <r_i_glide_esite>
-0.0277599

> <r_i_glide_evdw>
-20.6338

> <r_i_glide_gscore>
-6.09695

> <r_i_glide_hbond>
-0.48

> <r_i_glide_ligand_efficiency>
-0.234498

> <r_i_glide_ligand_efficiency_ln>
-1.43185

> <r_i_glide_ligand_efficiency_sa>
-0.6947

> <r_i_glide_lipo>
-1.51947

> <r_i_glide_metal>
0

> <r_i_glide_rewards>
-0.966257

> <s_i_glide_gridfile>
wee1_glide-grid

> <s_m_Source_File>
wee1_decoys_glide_SP.sdf

> <s_m_Source_Path>
/Users/zhangxujun/Desktop

> <s_m_entry_id>
4327

> <s_m_entry_name>
wee1_decoys_glide_SP.4052

> <s_m_subgroup_title>
wee1_decoys_glide_SP

> <s_m_subgroupid>
wee1_decoys_glide_SP


$$$$
