ZINC59170529_5004
                    3D
 Schrodinger Suite 2024-2.
 48 51  0  0  1  0            999 V2000
    2.9559   55.0923   29.2708 C   0  0  0  0  0  0
    1.8172   54.6502   29.9392 C   0  0  0  0  0  0
    1.5903   53.2822   30.0826 C   0  0  0  0  0  0
    2.5035   52.3534   29.5863 C   0  0  0  0  0  0
    3.6417   52.7953   28.9172 C   0  0  0  0  0  0
    3.8373   54.1596   28.7139 C   0  0  0  0  0  0
    4.8876   54.5811   27.8972 N   0  0  0  0  0  0
    5.0403   54.5452   26.5451 C   0  0  0  0  0  0
    6.1386   54.9424   26.1507 O   0  0  0  0  0  0
    4.0027   54.1064   25.5731 C   0  0  0  0  0  0
    2.7451   53.6965   25.9308 C   0  0  0  0  0  0
    1.7293   53.1692   25.0126 C   0  0  0  0  0  0
    0.5661   52.4981   25.3999 C   0  0  0  0  0  0
   -0.2939   51.9994   24.4183 C   0  0  0  0  0  0
    0.0204   52.1479   23.0634 C   0  0  0  0  0  0
    1.2040   52.7860   22.6819 C   0  0  0  0  0  0
    2.0552   53.2764   23.6694 C   0  0  0  0  0  0
    3.2634   53.8393   23.3198 O   0  0  0  0  0  0
    4.2296   54.0970   24.1593 C   0  0  0  0  0  0
    5.3982   54.3671   23.5575 N   0  3  0  0  0  0
    5.7045   54.3811   22.1517 C   0  0  0  0  0  0
    6.6524   55.2959   21.6822 C   0  0  0  0  0  0
    6.9490   55.3596   20.3195 C   0  0  0  0  0  0
    6.3064   54.4973   19.4261 C   0  0  0  0  0  0
    5.3824   53.5638   19.8874 C   0  0  0  0  0  0
    5.1002   53.4944   21.2453 C   0  0  0  0  0  0
    6.6678   54.5325   17.6783 S   0  0  0  0  0  0
    5.4011   54.7875   16.9882 O   0  0  0  0  0  0
    7.8373   55.3942   17.4801 O   0  0  0  0  0  0
    7.1461   52.8970   17.2982 N   0  0  0  0  0  0
   -1.7476   51.1932   24.8807 Cl  0  0  0  0  0  0
    0.1642   52.7350   30.8815 Cl  0  0  0  0  0  0
    3.1047   56.1514   29.1308 H   0  0  0  0  0  0
    1.1077   55.3642   30.3344 H   0  0  0  0  0  0
    2.3110   51.2965   29.6861 H   0  0  0  0  0  0
    4.3424   52.0952   28.4939 H   0  0  0  0  0  0
    5.6756   54.9717   28.3955 H   0  0  0  0  0  0
    2.3927   53.7272   26.9386 H   0  0  0  0  0  0
    0.3198   52.3696   26.4456 H   0  0  0  0  0  0
   -0.6417   51.7527   22.3076 H   0  0  0  0  0  0
    1.4674   52.8853   21.6383 H   0  0  0  0  0  0
    7.1542   55.9665   22.3662 H   0  0  0  0  0  0
    7.6807   56.0701   19.9618 H   0  0  0  0  0  0
    4.9044   52.8747   19.2026 H   0  0  0  0  0  0
    4.4059   52.7361   21.5743 H   0  0  0  0  0  0
    6.3781   52.2668   17.0405 H   0  0  0  0  0  0
    7.9820   52.8107   16.7139 H   0  0  0  0  0  0
    6.1631   54.6450   24.1675 H   0  0  0  0  0  0
  1  6  2  0  0  0
  1  2  1  0  0  0
  1 33  1  0  0  0
  2  3  2  0  0  0
  2 34  1  0  0  0
  3  4  1  0  0  0
  3 32  1  0  0  0
  4  5  2  0  0  0
  4 35  1  0  0  0
  5  6  1  0  0  0
  5 36  1  0  0  0
  6  7  1  0  0  0
  7  8  1  0  0  0
  7 37  1  0  0  0
  8  9  2  0  0  0
  8 10  1  0  0  0
 10 19  1  0  0  0
 10 11  2  0  0  0
 11 12  1  0  0  0
 11 38  1  0  0  0
 12 17  2  0  0  0
 12 13  1  0  0  0
 13 14  2  0  0  0
 13 39  1  0  0  0
 14 15  1  0  0  0
 14 31  1  0  0  0
 15 16  2  0  0  0
 15 40  1  0  0  0
 16 17  1  0  0  0
 16 41  1  0  0  0
 17 18  1  0  0  0
 18 19  1  0  0  0
 19 20  2  0  0  0
 20 21  1  0  0  0
 20 48  1  0  0  0
 21 26  2  0  0  0
 21 22  1  0  0  0
 22 23  2  0  0  0
 22 42  1  0  0  0
 23 24  1  0  0  0
 23 43  1  0  0  0
 24 25  2  0  0  0
 24 27  1  0  0  0
 25 26  1  0  0  0
 25 44  1  0  0  0
 26 45  1  0  0  0
 27 28  2  0  0  0
 27 29  2  0  0  0
 27 30  1  0  0  0
 30 46  1  0  0  0
 30 47  1  0  0  0
M  CHG  1  20   1
M  END
> <i_i_glide_confnum>
37

> <i_i_glide_lignum>
5005

> <i_i_glide_posenum>
254

> <i_i_glide_rotatable_bonds>
5

> <i_m_Source_File_Index>
1731

> <b_m_subgroup_collapsed>
0

> <r_i_docking_score>
-1.76497

> <r_i_glide_ecoul>
-1.30784

> <r_i_glide_eff_state_penalty>
0

> <r_i_glide_einternal>
10.2735

> <r_i_glide_emodel>
-35.9378

> <r_i_glide_energy>
-47.061

> <r_i_glide_erotb>
0.339806

> <r_i_glide_esite>
-0.0436978

> <r_i_glide_evdw>
-45.7531

> <r_i_glide_gscore>
-1.76497

> <r_i_glide_hbond>
-0.0181584

> <r_i_glide_ligand_efficiency>
-0.0551554

> <r_i_glide_ligand_efficiency_ln>
-0.395225

> <r_i_glide_ligand_efficiency_sa>
-0.175107

> <r_i_glide_lipo>
-3.03632

> <r_i_glide_metal>
0

> <r_i_glide_rewards>
3.47723

> <s_i_glide_gridfile>
wee1_glide-grid

> <s_m_Source_File>
wee1_decoys_glide_SP.sdf

> <s_m_Source_Path>
/Users/zhangxujun/Desktop

> <s_m_entry_id>
2006

> <s_m_entry_name>
wee1_decoys_glide_SP.1731

> <s_m_subgroup_title>
wee1_decoys_glide_SP

> <s_m_subgroupid>
wee1_decoys_glide_SP


$$$$
