ZINC03618800_2334
                    3D
 Schrodinger Suite 2024-2.
 60 63  0  0  1  0            999 V2000
    2.5747   52.2978   29.3831 C   0  0  0  0  0  0
    3.4144   52.9303   28.2880 C   0  0  0  0  0  0
    4.7885   53.0588   28.4314 C   0  0  0  0  0  0
    5.5676   53.6186   27.4186 C   0  0  0  0  0  0
    4.9766   54.0963   26.2174 C   0  0  0  0  0  0
    3.5678   53.9317   26.0752 C   0  0  0  0  0  0
    2.8176   53.3587   27.1099 C   0  0  0  0  0  0
    2.7540   54.3724   24.8635 C   0  0  0  0  0  0
    5.8572   54.8557   25.2276 C   0  0  0  0  0  0
    6.6485   55.6908   25.6810 O   0  0  0  0  0  0
    5.8895   54.5945   23.7387 C   0  0  0  0  0  0
    6.7045   55.3822   22.9157 C   0  0  0  0  0  0
    6.6097   55.3183   21.5287 C   0  0  0  0  0  0
    5.7126   54.4332   20.9203 C   0  0  0  0  0  0
    4.9974   53.5472   21.7378 C   0  0  0  0  0  0
    5.1187   53.6142   23.1211 C   0  0  0  0  0  0
    5.5723   54.4136   19.4122 C   0  0  0  0  0  0
    6.0713   55.3208   18.7373 O   0  0  0  0  0  0
    4.8854   53.3707   18.8905 N   0  0  0  0  0  0
    4.7743   53.2970   17.5069 N   0  0  0  0  0  0
    3.5258   53.2783   17.0002 C   0  0  0  0  0  0
    2.4798   53.2942   17.6574 O   0  0  0  0  0  0
    3.5565   53.3523   15.6604 N   0  0  0  0  0  0
    2.5328   54.0101   14.8478 C   0  0  0  0  0  0
    2.2482   53.4181   13.4805 C   0  0  0  0  0  0
    1.2853   53.1647   14.6029 C   0  0  0  0  0  0
    2.3667   55.5063   15.1225 C   0  0  0  0  0  0
    1.2436   55.9987   15.7969 C   0  0  0  0  0  0
    1.1403   57.3592   16.0750 C   0  0  0  0  0  0
    2.1603   58.2238   15.6828 C   0  0  0  0  0  0
    3.2831   57.7413   15.0150 C   0  0  0  0  0  0
    3.3866   56.3808   14.7355 C   0  0  0  0  0  0
    7.0738   53.5731   27.6344 C   0  0  0  0  0  0
    1.7525   52.9626   29.6549 H   0  0  0  0  0  0
    2.1358   51.3633   29.0277 H   0  0  0  0  0  0
    3.1576   52.0986   30.2839 H   0  0  0  0  0  0
    5.2709   52.6812   29.3192 H   0  0  0  0  0  0
    1.7488   53.2385   27.0018 H   0  0  0  0  0  0
    3.1442   55.2965   24.4368 H   0  0  0  0  0  0
    2.7087   53.6049   24.0963 H   0  0  0  0  0  0
    1.7052   54.4968   25.1258 H   0  0  0  0  0  0
    7.3932   56.0961   23.3429 H   0  0  0  0  0  0
    7.2256   55.9780   20.9332 H   0  0  0  0  0  0
    4.3295   52.8054   21.3232 H   0  0  0  0  0  0
    4.5783   52.9002   23.7112 H   0  0  0  0  0  0
    4.8972   52.4511   19.3087 H   0  0  0  0  0  0
    5.4787   52.6761   17.1337 H   0  0  0  0  0  0
    4.3616   52.9953   15.1680 H   0  0  0  0  0  0
    1.9626   54.0976   12.6783 H   0  0  0  0  0  0
    2.8728   52.5997   13.1222 H   0  0  0  0  0  0
    1.2332   52.1699   15.0454 H   0  0  0  0  0  0
    0.3074   53.6404   14.5628 H   0  0  0  0  0  0
    0.4660   55.3293   16.1324 H   0  0  0  0  0  0
    0.2843   57.7438   16.6102 H   0  0  0  0  0  0
    2.0873   59.2773   15.9159 H   0  0  0  0  0  0
    4.0733   58.4197   14.7280 H   0  0  0  0  0  0
    4.2641   56.0039   14.2298 H   0  0  0  0  0  0
    7.4957   54.5621   27.8130 H   0  0  0  0  0  0
    7.5045   53.1621   26.7265 H   0  0  0  0  0  0
    7.3698   52.9050   28.4433 H   0  0  0  0  0  0
  1  2  1  0  0  0
  1 34  1  0  0  0
  1 35  1  0  0  0
  1 36  1  0  0  0
  2  7  2  0  0  0
  2  3  1  0  0  0
  3  4  2  0  0  0
  3 37  1  0  0  0
  4  5  1  0  0  0
  4 33  1  0  0  0
  5  6  2  0  0  0
  5  9  1  0  0  0
  6  7  1  0  0  0
  6  8  1  0  0  0
  7 38  1  0  0  0
  8 39  1  0  0  0
  8 40  1  0  0  0
  8 41  1  0  0  0
  9 10  2  0  0  0
  9 11  1  0  0  0
 11 16  2  0  0  0
 11 12  1  0  0  0
 12 13  2  0  0  0
 12 42  1  0  0  0
 13 14  1  0  0  0
 13 43  1  0  0  0
 14 15  2  0  0  0
 14 17  1  0  0  0
 15 16  1  0  0  0
 15 44  1  0  0  0
 16 45  1  0  0  0
 17 18  2  0  0  0
 17 19  1  0  0  0
 19 20  1  0  0  0
 19 46  1  0  0  0
 20 21  1  0  0  0
 20 47  1  0  0  0
 21 22  2  0  0  0
 21 23  1  0  0  0
 23 24  1  0  0  0
 23 48  1  0  0  0
 24 26  1  0  0  0
 24 25  1  0  0  0
 24 27  1  0  0  0
 25 26  1  0  0  0
 25 49  1  0  0  0
 25 50  1  0  0  0
 26 51  1  0  0  0
 26 52  1  0  0  0
 27 32  2  0  0  0
 27 28  1  0  0  0
 28 29  2  0  0  0
 28 53  1  0  0  0
 29 30  1  0  0  0
 29 54  1  0  0  0
 30 31  2  0  0  0
 30 55  1  0  0  0
 31 32  1  0  0  0
 31 56  1  0  0  0
 32 57  1  0  0  0
 33 58  1  0  0  0
 33 59  1  0  0  0
 33 60  1  0  0  0
M  END
> <i_i_glide_confnum>
216

> <i_i_glide_lignum>
2335

> <i_i_glide_posenum>
252

> <i_i_glide_rotatable_bonds>
9

> <i_m_Source_File_Index>
2884

> <b_m_subgroup_collapsed>
0

> <r_i_docking_score>
-5.97651

> <r_i_glide_ecoul>
-2.14779

> <r_i_glide_eff_state_penalty>
0

> <r_i_glide_einternal>
7.52489

> <r_i_glide_emodel>
-48.7002

> <r_i_glide_energy>
-40.5498

> <r_i_glide_erotb>
0.922233

> <r_i_glide_esite>
-0.174161

> <r_i_glide_evdw>
-38.402

> <r_i_glide_gscore>
-5.97651

> <r_i_glide_hbond>
-0.316058

> <r_i_glide_ligand_efficiency>
-0.181106

> <r_i_glide_ligand_efficiency_ln>
-1.32915

> <r_i_glide_ligand_efficiency_sa>
-0.580905

> <r_i_glide_lipo>
-2.97376

> <r_i_glide_metal>
0

> <r_i_glide_rewards>
-1.1925

> <s_i_glide_gridfile>
wee1_glide-grid

> <s_m_Source_File>
wee1_decoys_glide_SP.sdf

> <s_m_Source_Path>
/Users/zhangxujun/Desktop

> <s_m_entry_id>
3159

> <s_m_entry_name>
wee1_decoys_glide_SP.2884

> <s_m_subgroup_title>
wee1_decoys_glide_SP

> <s_m_subgroupid>
wee1_decoys_glide_SP


$$$$
