ZINC03266985_5173
                    3D
 Schrodinger Suite 2024-2.
 44 46  0  0  1  0            999 V2000
    1.3178   49.6923   22.8160 C   0  0  0  0  0  0
    2.1430   50.7563   22.4651 C   0  0  0  0  0  0
    1.8456   52.0645   22.8887 C   0  0  0  0  0  0
    0.6949   52.2751   23.6621 C   0  0  0  0  0  0
   -0.1283   51.2019   24.0154 C   0  0  0  0  0  0
    0.1856   49.9091   23.5943 C   0  0  0  0  0  0
   -1.5657   51.4540   25.0440 S   0  0  0  0  0  0
   -1.7984   52.8956   25.1682 O   0  0  0  0  0  0
   -2.6138   50.5575   24.5450 O   0  0  0  0  0  0
   -1.1137   50.8450   26.6411 N   0  0  0  0  0  0
   -0.4613   51.6152   27.6098 C   0  0  0  0  0  0
    0.7317   52.2843   27.3212 C   0  0  0  0  0  0
    1.4043   53.0091   28.3168 C   0  0  0  0  0  0
    0.8626   53.0576   29.6073 C   0  0  0  0  0  0
   -0.3316   52.4047   29.8975 C   0  0  0  0  0  0
   -1.0022   51.6947   28.8997 C   0  0  0  0  0  0
   -2.5041   50.9173   29.2831 Cl  0  0  0  0  0  0
    2.7211   53.7269   28.0223 C   0  0  0  0  0  0
    3.0166   53.7378   26.7208 F   0  0  0  0  0  0
    2.6565   54.9905   28.4454 F   0  0  0  0  0  0
    3.7079   53.1090   28.6726 F   0  0  0  0  0  0
    2.7743   53.2190   22.5875 C   0  0  0  0  0  0
    2.7722   54.2234   23.3048 O   0  0  0  0  0  0
    3.5752   53.0585   21.5139 N   0  0  0  0  0  0
    4.6524   53.8648   21.1288 C   0  0  0  0  0  0
    4.8976   53.9760   19.7611 C   0  0  0  0  0  0
    5.9517   54.7624   19.3083 C   0  0  0  0  0  0
    6.7674   55.4232   20.2257 C   0  0  0  0  0  0
    6.5465   55.2964   21.5967 C   0  0  0  0  0  0
    5.4964   54.4998   22.0527 C   0  0  0  0  0  0
    8.0721   56.3961   19.6589 Cl  0  0  0  0  0  0
    1.5783   48.6906   22.5077 H   0  0  0  0  0  0
    3.0290   50.5335   21.8889 H   0  0  0  0  0  0
    0.4483   53.2715   24.0049 H   0  0  0  0  0  0
   -0.4396   49.0752   23.8768 H   0  0  0  0  0  0
   -1.5167   49.9638   26.9449 H   0  0  0  0  0  0
    1.1507   52.2182   26.3300 H   0  0  0  0  0  0
    1.3720   53.6005   30.3906 H   0  0  0  0  0  0
   -0.7369   52.4361   30.9011 H   0  0  0  0  0  0
    3.3512   52.3015   20.8855 H   0  0  0  0  0  0
    4.2670   53.4662   19.0443 H   0  0  0  0  0  0
    6.1342   54.8563   18.2468 H   0  0  0  0  0  0
    7.1950   55.7938   22.3020 H   0  0  0  0  0  0
    5.3379   54.3974   23.1157 H   0  0  0  0  0  0
  1  6  2  0  0  0
  1  2  1  0  0  0
  1 32  1  0  0  0
  2  3  2  0  0  0
  2 33  1  0  0  0
  3  4  1  0  0  0
  3 22  1  0  0  0
  4  5  2  0  0  0
  4 34  1  0  0  0
  5  6  1  0  0  0
  5  7  1  0  0  0
  6 35  1  0  0  0
  7  8  2  0  0  0
  7  9  2  0  0  0
  7 10  1  0  0  0
 10 11  1  0  0  0
 10 36  1  0  0  0
 11 16  2  0  0  0
 11 12  1  0  0  0
 12 13  2  0  0  0
 12 37  1  0  0  0
 13 14  1  0  0  0
 13 18  1  0  0  0
 14 15  2  0  0  0
 14 38  1  0  0  0
 15 16  1  0  0  0
 15 39  1  0  0  0
 16 17  1  0  0  0
 18 19  1  0  0  0
 18 20  1  0  0  0
 18 21  1  0  0  0
 22 23  2  0  0  0
 22 24  1  0  0  0
 24 25  1  0  0  0
 24 40  1  0  0  0
 25 30  2  0  0  0
 25 26  1  0  0  0
 26 27  2  0  0  0
 26 41  1  0  0  0
 27 28  1  0  0  0
 27 42  1  0  0  0
 28 29  2  0  0  0
 28 31  1  0  0  0
 29 30  1  0  0  0
 29 43  1  0  0  0
 30 44  1  0  0  0
M  END
> <i_i_glide_confnum>
150

> <i_i_glide_lignum>
5174

> <i_i_glide_posenum>
296

> <i_i_glide_rotatable_bonds>
7

> <i_m_Source_File_Index>
4941

> <b_m_subgroup_collapsed>
0

> <r_i_docking_score>
-4.86476

> <r_i_glide_ecoul>
-2.93645

> <r_i_glide_eff_state_penalty>
0

> <r_i_glide_einternal>
7.57362

> <r_i_glide_emodel>
-52.4996

> <r_i_glide_energy>
-43.157

> <r_i_glide_erotb>
0.509816

> <r_i_glide_esite>
-0.0958673

> <r_i_glide_evdw>
-40.2206

> <r_i_glide_gscore>
-4.86476

> <r_i_glide_hbond>
-0.102243

> <r_i_glide_ligand_efficiency>
-0.156928

> <r_i_glide_ligand_efficiency_ln>
-1.09715

> <r_i_glide_ligand_efficiency_sa>
-0.49297

> <r_i_glide_lipo>
-1.78384

> <r_i_glide_metal>
0

> <r_i_glide_rewards>
-0.941133

> <s_i_glide_gridfile>
wee1_glide-grid

> <s_m_Source_File>
wee1_decoys_glide_SP.sdf

> <s_m_Source_Path>
/Users/zhangxujun/Desktop

> <s_m_entry_id>
5216

> <s_m_entry_name>
wee1_decoys_glide_SP.4941

> <s_m_subgroup_title>
wee1_decoys_glide_SP

> <s_m_subgroupid>
wee1_decoys_glide_SP


$$$$
