ZINC13191173_5932
                    3D
 Schrodinger Suite 2024-2.
 48 50  0  0  1  0            999 V2000
    3.6827   51.8488   31.5523 C   0  0  0  0  0  0
    3.6141   52.0984   30.1554 O   0  0  0  0  0  0
    2.4444   52.3604   29.5342 C   0  0  0  0  0  0
    1.3317   52.1447   30.0225 O   0  0  0  0  0  0
    2.6492   52.8952   28.1736 C   0  0  0  0  0  0
    3.7529   53.7091   27.7559 C   0  0  0  0  0  0
    3.7089   54.0662   26.3988 C   0  0  0  0  0  0
    2.3044   53.4208   25.6394 S   0  0  0  0  0  0
    1.7521   52.6835   27.1118 C   0  0  0  0  0  0
    0.5955   51.8958   27.1561 N   0  0  0  0  0  0
   -0.3404   51.7238   26.1928 C   0  0  0  0  0  0
   -0.3977   52.3736   25.1463 O   0  0  0  0  0  0
   -1.3835   50.6348   26.4827 C   0  0  0  0  0  0
   -2.3541   50.5772   25.4268 O   0  0  0  0  0  0
   -2.3180   49.4735   24.6012 C   0  0  0  0  0  0
   -2.4061   48.1801   25.1242 C   0  0  0  0  0  0
   -2.3853   47.0715   24.2807 C   0  0  0  0  0  0
   -2.2830   47.2236   22.8891 C   0  0  0  0  0  0
   -2.1854   48.5270   22.3738 C   0  0  0  0  0  0
   -2.2046   49.6411   23.2158 C   0  0  0  0  0  0
   -2.0962   51.3835   22.4475 Br  0  0  0  0  0  0
   -2.2881   46.0296   21.9749 C   0  0  0  0  0  0
   -2.4952   44.8972   22.4743 O   0  0  0  0  0  0
    4.7181   54.8988   25.6298 C   0  0  0  0  0  0
    6.1525   54.3369   25.6563 C   0  0  0  0  0  0
    6.8903   54.4614   27.0056 C   0  0  0  0  0  0
    6.2850   53.7126   28.2047 C   0  0  0  0  0  0
    4.8964   54.2201   28.6241 C   0  0  0  0  0  0
    4.5906   51.2968   31.7811 H   0  0  0  0  0  0
    3.7542   52.7956   32.0826 H   0  0  0  0  0  0
    2.8274   51.2969   31.9441 H   0  0  0  0  0  0
    0.4319   51.4281   28.0374 H   0  0  0  0  0  0
   -1.9055   50.8595   27.4135 H   0  0  0  0  0  0
   -0.8464   49.6968   26.6241 H   0  0  0  0  0  0
   -2.4968   48.0343   26.1916 H   0  0  0  0  0  0
   -2.4587   46.0931   24.7278 H   0  0  0  0  0  0
   -2.1026   48.6839   21.3069 H   0  0  0  0  0  0
    4.4066   55.0065   24.5898 H   0  0  0  0  0  0
    4.7472   55.9073   26.0356 H   0  0  0  0  0  0
    6.1453   53.2968   25.3359 H   0  0  0  0  0  0
    6.7426   54.8666   24.9070 H   0  0  0  0  0  0
    7.9042   54.0971   26.8819 H   0  0  0  0  0  0
    6.9929   55.5166   27.2630 H   0  0  0  0  0  0
    6.2553   52.6387   28.0117 H   0  0  0  0  0  0
    6.9662   53.8403   29.0475 H   0  0  0  0  0  0
    4.9110   55.2970   28.5520 H   0  0  0  0  0  0
    4.7481   54.0787   29.6885 H   0  0  0  0  0  0
   -2.0826   46.2235   20.7547 O   0  5  0  0  0  0
  1  2  1  0  0  0
  1 29  1  0  0  0
  1 30  1  0  0  0
  1 31  1  0  0  0
  2  3  1  0  0  0
  3  4  2  0  0  0
  3  5  1  0  0  0
  5  9  2  0  0  0
  5  6  1  0  0  0
  6 28  1  0  0  0
  6  7  2  0  0  0
  7  8  1  0  0  0
  7 24  1  0  0  0
  8  9  1  0  0  0
  9 10  1  0  0  0
 10 11  1  0  0  0
 10 32  1  0  0  0
 11 12  2  0  0  0
 11 13  1  0  0  0
 13 14  1  0  0  0
 13 33  1  0  0  0
 13 34  1  0  0  0
 14 15  1  0  0  0
 15 20  2  0  0  0
 15 16  1  0  0  0
 16 17  2  0  0  0
 16 35  1  0  0  0
 17 18  1  0  0  0
 17 36  1  0  0  0
 18 19  2  0  0  0
 18 22  1  0  0  0
 19 20  1  0  0  0
 19 37  1  0  0  0
 20 21  1  0  0  0
 22 23  2  0  0  0
 22 48  1  0  0  0
 24 25  1  0  0  0
 24 38  1  0  0  0
 24 39  1  0  0  0
 25 26  1  0  0  0
 25 40  1  0  0  0
 25 41  1  0  0  0
 26 27  1  0  0  0
 26 42  1  0  0  0
 26 43  1  0  0  0
 27 28  1  0  0  0
 27 44  1  0  0  0
 27 45  1  0  0  0
 28 46  1  0  0  0
 28 47  1  0  0  0
M  CHG  1  48  -1
M  END
> <i_i_glide_confnum>
157

> <i_i_glide_lignum>
5933

> <i_i_glide_posenum>
365

> <i_i_glide_rotatable_bonds>
8

> <i_m_Source_File_Index>
5778

> <b_m_subgroup_collapsed>
0

> <r_i_docking_score>
-5.3558

> <r_i_glide_ecoul>
-4.4994

> <r_i_glide_eff_state_penalty>
0

> <r_i_glide_einternal>
5.27426

> <r_i_glide_emodel>
-58.3078

> <r_i_glide_energy>
-43.32

> <r_i_glide_erotb>
0.525338

> <r_i_glide_esite>
-0.0334688

> <r_i_glide_evdw>
-38.8206

> <r_i_glide_gscore>
-5.3558

> <r_i_glide_hbond>
-0.348293

> <r_i_glide_ligand_efficiency>
-0.184683

> <r_i_glide_ligand_efficiency_ln>
-1.22634

> <r_i_glide_ligand_efficiency_sa>
-0.567404

> <r_i_glide_lipo>
-2.54548

> <r_i_glide_metal>
0

> <r_i_glide_rewards>
-0.337953

> <s_i_glide_gridfile>
wee1_glide-grid

> <s_m_Source_File>
wee1_decoys_glide_SP.sdf

> <s_m_Source_Path>
/Users/zhangxujun/Desktop

> <s_m_entry_id>
6053

> <s_m_entry_name>
wee1_decoys_glide_SP.5778

> <s_m_subgroup_title>
wee1_decoys_glide_SP

> <s_m_subgroupid>
wee1_decoys_glide_SP


$$$$
