ZINC27549385_1108
                    3D
 Schrodinger Suite 2024-2.
 69 72  0  0  1  0            999 V2000
   10.8421   53.8433   16.8119 C   0  0  0  0  0  0
    9.9971   54.4872   17.9190 C   0  0  0  0  0  0
    9.7863   56.0044   17.7167 C   0  0  0  0  0  0
    9.0794   56.7442   18.8818 C   0  0  0  0  0  0
    7.7675   56.0945   19.2949 C   0  0  0  0  0  0
    7.5365   55.6981   20.4859 N   0  0  0  0  0  0
    6.2904   55.0618   20.5722 N   0  0  0  0  0  0
    5.7744   54.4969   21.7894 C   0  0  0  0  0  0
    6.4231   54.5949   22.8738 N   0  0  0  0  0  0
    4.4667   53.8297   21.6270 C   0  0  0  0  0  0
    3.7364   53.5524   22.7514 C   0  0  0  0  0  0
    2.4300   52.8852   22.9539 C   0  0  0  0  0  0
    1.4393   53.5474   23.6818 C   0  0  0  0  0  0
    0.2239   52.9221   23.9374 C   0  0  0  0  0  0
   -0.0213   51.6283   23.4778 C   0  0  0  0  0  0
    0.9523   50.9486   22.7240 C   0  0  0  0  0  0
    2.1884   51.5791   22.5083 C   0  0  0  0  0  0
    0.6434   49.6927   22.2260 O   0  0  0  0  0  0
    1.5541   49.0616   21.3255 C   0  0  0  0  0  0
   -1.2550   51.0873   23.7488 O   0  0  0  0  0  0
   -1.2687   49.9366   24.5948 C   0  0  0  0  0  0
   -1.9367   50.2448   25.9448 C   0  0  0  0  0  0
   -3.2055   50.8642   25.7365 O   0  0  0  0  0  0
   -4.0635   51.0349   26.8048 C   0  0  0  0  0  0
   -3.8157   50.6032   28.1192 C   0  0  0  0  0  0
   -4.7695   50.7920   29.1241 C   0  0  0  0  0  0
   -5.9785   51.4235   28.8240 C   0  0  0  0  0  0
   -6.2294   51.8795   27.5264 C   0  0  0  0  0  0
   -5.2713   51.6789   26.5285 C   0  0  0  0  0  0
   -7.5364   52.5855   27.2011 C   0  0  0  0  0  0
   -7.5509   54.0425   27.6838 C   0  0  0  0  0  0
   -4.5000   50.2755   30.5263 C   0  0  0  0  0  0
    3.9417   53.5405   20.2572 C   0  0  0  0  0  0
    3.1063   52.6606   20.0823 O   0  0  0  0  0  0
    4.4908   54.2967   19.2066 N   0  0  0  0  0  0
    5.5794   54.9333   19.3635 C   0  0  0  0  0  0
    6.4560   55.8013   18.0964 S   0  0  0  0  0  0
   10.9619   52.7727   16.9906 H   0  0  0  0  0  0
   11.8396   54.2863   16.7594 H   0  0  0  0  0  0
   10.3692   53.9626   15.8351 H   0  0  0  0  0  0
    9.0404   53.9696   17.9641 H   0  0  0  0  0  0
   10.4764   54.3076   18.8812 H   0  0  0  0  0  0
   10.7579   56.4759   17.5643 H   0  0  0  0  0  0
    9.2371   56.1671   16.7897 H   0  0  0  0  0  0
    9.7567   56.8108   19.7355 H   0  0  0  0  0  0
    8.8905   57.7755   18.5843 H   0  0  0  0  0  0
    7.2908   55.0941   22.7188 H   0  0  0  0  0  0
    4.1635   53.8339   23.7031 H   0  0  0  0  0  0
    1.6086   54.5470   24.0501 H   0  0  0  0  0  0
   -0.5452   53.4391   24.4907 H   0  0  0  0  0  0
    2.9807   51.0589   21.9886 H   0  0  0  0  0  0
    1.0777   48.1893   20.8818 H   0  0  0  0  0  0
    1.8403   49.7130   20.5001 H   0  0  0  0  0  0
    2.4545   48.7294   21.8415 H   0  0  0  0  0  0
   -1.8374   49.1602   24.0820 H   0  0  0  0  0  0
   -0.2747   49.5156   24.7656 H   0  0  0  0  0  0
   -2.0466   49.2993   26.4808 H   0  0  0  0  0  0
   -1.2987   50.9002   26.5430 H   0  0  0  0  0  0
   -2.8961   50.0965   28.3735 H   0  0  0  0  0  0
   -6.7236   51.5648   29.5926 H   0  0  0  0  0  0
   -5.4619   52.0189   25.5197 H   0  0  0  0  0  0
   -7.7217   52.5483   26.1257 H   0  0  0  0  0  0
   -8.3596   52.0302   27.6544 H   0  0  0  0  0  0
   -8.4972   54.5259   27.4387 H   0  0  0  0  0  0
   -7.4189   54.0917   28.7637 H   0  0  0  0  0  0
   -6.7496   54.6235   27.2208 H   0  0  0  0  0  0
   -5.4098   50.2193   31.1288 H   0  0  0  0  0  0
   -4.0936   49.2621   30.4763 H   0  0  0  0  0  0
   -3.7668   50.8964   31.0515 H   0  0  0  0  0  0
  1  2  1  0  0  0
  1 38  1  0  0  0
  1 39  1  0  0  0
  1 40  1  0  0  0
  2  3  1  0  0  0
  2 41  1  0  0  0
  2 42  1  0  0  0
  3  4  1  0  0  0
  3 43  1  0  0  0
  3 44  1  0  0  0
  4  5  1  0  0  0
  4 45  1  0  0  0
  4 46  1  0  0  0
  5 37  1  0  0  0
  5  6  2  0  0  0
  6  7  1  0  0  0
  7 36  1  0  0  0
  7  8  1  0  0  0
  8  9  2  0  0  0
  8 10  1  0  0  0
  9 47  1  0  0  0
 10 11  2  0  0  0
 10 33  1  0  0  0
 11 12  1  0  0  0
 11 48  1  0  0  0
 12 17  2  0  0  0
 12 13  1  0  0  0
 13 14  2  0  0  0
 13 49  1  0  0  0
 14 15  1  0  0  0
 14 50  1  0  0  0
 15 16  2  0  0  0
 15 20  1  0  0  0
 16 17  1  0  0  0
 16 18  1  0  0  0
 17 51  1  0  0  0
 18 19  1  0  0  0
 19 52  1  0  0  0
 19 53  1  0  0  0
 19 54  1  0  0  0
 20 21  1  0  0  0
 21 22  1  0  0  0
 21 55  1  0  0  0
 21 56  1  0  0  0
 22 23  1  0  0  0
 22 57  1  0  0  0
 22 58  1  0  0  0
 23 24  1  0  0  0
 24 29  2  0  0  0
 24 25  1  0  0  0
 25 26  2  0  0  0
 25 59  1  0  0  0
 26 27  1  0  0  0
 26 32  1  0  0  0
 27 28  2  0  0  0
 27 60  1  0  0  0
 28 29  1  0  0  0
 28 30  1  0  0  0
 29 61  1  0  0  0
 30 31  1  0  0  0
 30 62  1  0  0  0
 30 63  1  0  0  0
 31 64  1  0  0  0
 31 65  1  0  0  0
 31 66  1  0  0  0
 32 67  1  0  0  0
 32 68  1  0  0  0
 32 69  1  0  0  0
 33 34  2  0  0  0
 33 35  1  0  0  0
 35 36  2  0  0  0
 36 37  1  0  0  0
M  END
> <i_i_glide_confnum>
213

> <i_i_glide_lignum>
1109

> <i_i_glide_posenum>
203

> <i_i_glide_rotatable_bonds>
11

> <i_m_Source_File_Index>
3185

> <b_m_subgroup_collapsed>
0

> <r_i_docking_score>
-3.74902

> <r_i_glide_ecoul>
-2.62156

> <r_i_glide_eff_state_penalty>
0

> <r_i_glide_einternal>
10.4137

> <r_i_glide_emodel>
-49.2333

> <r_i_glide_energy>
-43.6381

> <r_i_glide_erotb>
0.606558

> <r_i_glide_esite>
-0.00966715

> <r_i_glide_evdw>
-41.0166

> <r_i_glide_gscore>
-3.74902

> <r_i_glide_hbond>
0

> <r_i_glide_ligand_efficiency>
-0.101325

> <r_i_glide_ligand_efficiency_ln>
-0.813075

> <r_i_glide_ligand_efficiency_sa>
-0.337637

> <r_i_glide_lipo>
-1.27474

> <r_i_glide_metal>
0

> <r_i_glide_rewards>
-0.627109

> <s_i_glide_gridfile>
wee1_glide-grid

> <s_m_Source_File>
wee1_decoys_glide_SP.sdf

> <s_m_Source_Path>
/Users/zhangxujun/Desktop

> <s_m_entry_id>
3460

> <s_m_entry_name>
wee1_decoys_glide_SP.3185

> <s_m_subgroup_title>
wee1_decoys_glide_SP

> <s_m_subgroupid>
wee1_decoys_glide_SP


$$$$
