ZINC33264252_5852
                    3D
 Schrodinger Suite 2024-2.
 57 59  0  0  1  0            999 V2000
    3.2800   53.4757   22.3257 C   0  0  0  0  0  0
    4.6302   54.0962   21.9701 C   0  0  0  0  0  0
    4.9349   54.2966   20.6189 C   0  0  0  0  0  0
    6.1331   54.8967   20.2445 C   0  0  0  0  0  0
    7.0422   55.2988   21.2186 C   0  0  0  0  0  0
    6.7564   55.0940   22.5676 C   0  0  0  0  0  0
    5.5493   54.4957   22.9596 C   0  0  0  0  0  0
    5.1876   54.2864   24.3049 N   0  0  0  0  0  0
    5.7054   54.7835   25.4527 C   0  0  0  0  0  0
    6.7043   55.5050   25.5164 O   0  0  0  0  0  0
    4.9538   54.4115   26.7190 C   0  0  0  0  0  0
    5.4597   54.7897   27.9652 C   0  0  0  0  0  0
    4.7712   54.4956   29.1361 C   0  0  0  0  0  0
    3.5975   53.7547   29.0917 C   0  0  0  0  0  0
    3.0652   53.3321   27.8693 C   0  0  0  0  0  0
    3.7426   53.6961   26.6931 C   0  0  0  0  0  0
    1.8222   52.4125   27.8301 C   0  0  1  0  0  0
    2.2762   51.4312   27.9864 H   0  0  0  0  0  0
    0.8118   52.6501   28.9841 C   0  0  0  0  0  0
   -0.3956   51.7056   28.8858 C   0  0  0  0  0  0
   -1.0576   51.7122   27.4964 C   0  0  0  0  0  0
    0.0032   51.3898   26.5185 N   0  0  0  0  0  0
    1.1035   52.3735   26.4487 C   0  0  0  0  0  0
   -0.2432   50.5941   25.4412 C   0  0  0  0  0  0
    0.2736   50.7820   24.3371 O   0  0  0  0  0  0
   -1.0411   49.5339   25.6818 N   0  0  0  0  0  0
   -1.5628   48.5975   24.6858 C   0  0  0  0  0  0
   -0.4686   47.6913   24.0975 C   0  0  0  0  0  0
   -2.7085   47.7707   25.2875 C   0  0  0  0  0  0
    2.6714   53.2773   21.4421 H   0  0  0  0  0  0
    3.4135   52.5396   22.8667 H   0  0  0  0  0  0
    2.7146   54.1509   22.9715 H   0  0  0  0  0  0
    4.2348   53.9938   19.8529 H   0  0  0  0  0  0
    6.3574   55.0467   19.1980 H   0  0  0  0  0  0
    7.9828   55.7493   20.9307 H   0  0  0  0  0  0
    7.5028   55.4039   23.2831 H   0  0  0  0  0  0
    4.3647   53.7177   24.4142 H   0  0  0  0  0  0
    6.3879   55.3374   28.0412 H   0  0  0  0  0  0
    5.1661   54.8384   30.0817 H   0  0  0  0  0  0
    3.1259   53.4962   30.0278 H   0  0  0  0  0  0
    3.3486   53.3748   25.7447 H   0  0  0  0  0  0
    0.4664   53.6850   28.9766 H   0  0  0  0  0  0
    1.2633   52.4427   29.9527 H   0  0  0  0  0  0
   -1.1364   51.9683   29.6419 H   0  0  0  0  0  0
   -0.0938   50.6886   29.1288 H   0  0  0  0  0  0
   -1.4532   52.7018   27.2687 H   0  0  0  0  0  0
   -1.8776   50.9919   27.5012 H   0  0  0  0  0  0
    1.8159   52.0712   25.6855 H   0  0  0  0  0  0
    0.6969   53.3479   26.1991 H   0  0  0  0  0  0
   -1.2962   49.3322   26.6426 H   0  0  0  0  0  0
   -1.9854   49.1863   23.8666 H   0  0  0  0  0  0
   -0.8954   46.9757   23.3932 H   0  0  0  0  0  0
    0.0258   47.1144   24.8815 H   0  0  0  0  0  0
    0.2892   48.2609   23.5545 H   0  0  0  0  0  0
   -3.0912   47.0516   24.5650 H   0  0  0  0  0  0
   -2.3739   47.1986   26.1541 H   0  0  0  0  0  0
   -3.5455   48.4035   25.5855 H   0  0  0  0  0  0
  1  2  1  0  0  0
  1 30  1  0  0  0
  1 31  1  0  0  0
  1 32  1  0  0  0
  2  7  2  0  0  0
  2  3  1  0  0  0
  3  4  2  0  0  0
  3 33  1  0  0  0
  4  5  1  0  0  0
  4 34  1  0  0  0
  5  6  2  0  0  0
  5 35  1  0  0  0
  6  7  1  0  0  0
  6 36  1  0  0  0
  7  8  1  0  0  0
  8  9  1  0  0  0
  8 37  1  0  0  0
  9 10  2  0  0  0
  9 11  1  0  0  0
 11 16  2  0  0  0
 11 12  1  0  0  0
 12 13  2  0  0  0
 12 38  1  0  0  0
 13 14  1  0  0  0
 13 39  1  0  0  0
 14 15  2  0  0  0
 14 40  1  0  0  0
 15 16  1  0  0  0
 15 17  1  0  0  0
 16 41  1  0  0  0
 17 18  1  0  0  0
 17 23  1  0  0  0
 17 19  1  0  0  0
 19 20  1  0  0  0
 19 42  1  0  0  0
 19 43  1  0  0  0
 20 21  1  0  0  0
 20 44  1  0  0  0
 20 45  1  0  0  0
 21 22  1  0  0  0
 21 46  1  0  0  0
 21 47  1  0  0  0
 22 23  1  0  0  0
 22 24  1  0  0  0
 23 48  1  0  0  0
 23 49  1  0  0  0
 24 25  2  0  0  0
 24 26  1  0  0  0
 26 27  1  0  0  0
 26 50  1  0  0  0
 27 28  1  0  0  0
 27 29  1  0  0  0
 27 51  1  0  0  0
 28 52  1  0  0  0
 28 53  1  0  0  0
 28 54  1  0  0  0
 29 55  1  0  0  0
 29 56  1  0  0  0
 29 57  1  0  0  0
M  END
> <i_i_glide_confnum>
66

> <i_i_glide_lignum>
5853

> <i_i_glide_posenum>
261

> <i_i_glide_rotatable_bonds>
7

> <i_m_Source_File_Index>
4898

> <b_m_subgroup_collapsed>
0

> <r_i_docking_score>
-6.51473

> <r_i_glide_ecoul>
-5.04516

> <r_i_glide_eff_state_penalty>
0

> <r_i_glide_einternal>
5.61144

> <r_i_glide_emodel>
-61.9697

> <r_i_glide_energy>
-46.3758

> <r_i_glide_erotb>
0.807842

> <r_i_glide_esite>
-0.143062

> <r_i_glide_evdw>
-41.3307

> <r_i_glide_gscore>
-6.51473

> <r_i_glide_hbond>
-0.446339

> <r_i_glide_ligand_efficiency>
-0.232669

> <r_i_glide_ligand_efficiency_ln>
-1.50379

> <r_i_glide_ligand_efficiency_sa>
-0.70652

> <r_i_glide_lipo>
-2.64684

> <r_i_glide_metal>
0

> <r_i_glide_rewards>
-1.26303

> <s_i_glide_gridfile>
wee1_glide-grid

> <s_m_Source_File>
wee1_decoys_glide_SP.sdf

> <s_m_Source_Path>
/Users/zhangxujun/Desktop

> <s_m_entry_id>
5173

> <s_m_entry_name>
wee1_decoys_glide_SP.4898

> <s_m_subgroup_title>
wee1_decoys_glide_SP

> <s_m_subgroupid>
wee1_decoys_glide_SP


$$$$
