ZINC41949126_1590
                    3D
 Schrodinger Suite 2024-2.
 37 38  0  0  1  0            999 V2000
    6.4914   54.6658   26.5697 C   0  0  0  0  0  0
    5.2980   54.4676   25.6595 C   0  0  0  0  0  0
    3.9864   54.3391   26.1422 C   0  0  0  0  0  0
    3.0472   54.0967   25.1589 C   0  0  0  0  0  0
    3.7688   54.0723   23.5967 S   0  0  0  0  0  0
    5.3701   54.2695   24.2691 C   0  0  0  0  0  0
    6.5977   54.1784   23.3729 C   0  0  0  0  0  0
    6.5873   55.1347   22.2643 N   0  0  0  0  0  0
    6.0618   54.9065   21.0417 C   0  0  0  0  0  0
    5.5037   53.8496   20.7276 O   0  0  0  0  0  0
    6.2095   56.0589   20.1004 C   0  0  0  0  0  0
    6.7042   57.1391   20.4435 O   0  0  0  0  0  0
    5.7178   55.7669   18.8719 N   0  0  0  0  0  0
    5.5900   56.5691   17.7215 C   0  0  0  0  0  0
    5.0938   55.9299   16.5843 C   0  0  0  0  0  0
    4.9056   56.6413   15.4010 C   0  0  0  0  0  0
    5.1963   58.0096   15.3324 C   0  0  0  0  0  0
    5.7035   58.6429   16.4770 C   0  0  0  0  0  0
    5.9000   57.9330   17.6609 C   0  0  0  0  0  0
    4.9745   58.7607   14.0352 C   0  0  0  0  0  0
    4.9206   58.1740   12.9563 O   0  0  0  0  0  0
    4.8236   60.0868   14.0918 N   0  0  0  0  0  0
    6.8398   55.6983   26.5476 H   0  0  0  0  0  0
    6.2755   54.4020   27.6047 H   0  0  0  0  0  0
    7.3314   54.0393   26.2772 H   0  0  0  0  0  0
    3.7338   54.4133   27.1903 H   0  0  0  0  0  0
    1.9817   53.9628   25.2721 H   0  0  0  0  0  0
    7.5043   54.3653   23.9487 H   0  0  0  0  0  0
    6.7121   53.1618   22.9896 H   0  0  0  0  0  0
    7.0423   56.0226   22.4253 H   0  0  0  0  0  0
    5.3615   54.8243   18.7788 H   0  0  0  0  0  0
    4.8477   54.8779   16.6041 H   0  0  0  0  0  0
    4.5186   56.1179   14.5380 H   0  0  0  0  0  0
    5.9449   59.6961   16.4761 H   0  0  0  0  0  0
    6.2829   58.4724   18.5121 H   0  0  0  0  0  0
    4.7041   60.5567   14.9890 H   0  0  0  0  0  0
    4.6973   60.6046   13.2382 H   0  0  0  0  0  0
  1  2  1  0  0  0
  1 23  1  0  0  0
  1 24  1  0  0  0
  1 25  1  0  0  0
  2  6  2  0  0  0
  2  3  1  0  0  0
  3  4  2  0  0  0
  3 26  1  0  0  0
  4  5  1  0  0  0
  4 27  1  0  0  0
  5  6  1  0  0  0
  6  7  1  0  0  0
  7  8  1  0  0  0
  7 28  1  0  0  0
  7 29  1  0  0  0
  8  9  1  0  0  0
  8 30  1  0  0  0
  9 10  2  0  0  0
  9 11  1  0  0  0
 11 12  2  0  0  0
 11 13  1  0  0  0
 13 14  1  0  0  0
 13 31  1  0  0  0
 14 19  2  0  0  0
 14 15  1  0  0  0
 15 16  2  0  0  0
 15 32  1  0  0  0
 16 17  1  0  0  0
 16 33  1  0  0  0
 17 18  2  0  0  0
 17 20  1  0  0  0
 18 19  1  0  0  0
 18 34  1  0  0  0
 19 35  1  0  0  0
 20 21  2  0  0  0
 20 22  1  0  0  0
 22 36  1  0  0  0
 22 37  1  0  0  0
M  END
> <i_i_glide_confnum>
64

> <i_i_glide_lignum>
1591

> <i_i_glide_posenum>
305

> <i_i_glide_rotatable_bonds>
7

> <i_m_Source_File_Index>
3347

> <b_m_subgroup_collapsed>
0

> <r_i_docking_score>
-5.57036

> <r_i_glide_ecoul>
-7.53041

> <r_i_glide_eff_state_penalty>
0

> <r_i_glide_einternal>
6.61821

> <r_i_glide_emodel>
-47.5379

> <r_i_glide_energy>
-34.8188

> <r_i_glide_erotb>
1.1098

> <r_i_glide_esite>
-0.0965556

> <r_i_glide_evdw>
-27.2884

> <r_i_glide_gscore>
-5.57036

> <r_i_glide_hbond>
-0.456

> <r_i_glide_ligand_efficiency>
-0.253198

> <r_i_glide_ligand_efficiency_ln>
-1.3616

> <r_i_glide_ligand_efficiency_sa>
-0.709471

> <r_i_glide_lipo>
-1.94245

> <r_i_glide_metal>
0

> <r_i_glide_rewards>
-1.69117

> <s_i_glide_gridfile>
wee1_glide-grid

> <s_m_Source_File>
wee1_decoys_glide_SP.sdf

> <s_m_Source_Path>
/Users/zhangxujun/Desktop

> <s_m_entry_id>
3622

> <s_m_entry_name>
wee1_decoys_glide_SP.3347

> <s_m_subgroup_title>
wee1_decoys_glide_SP

> <s_m_subgroupid>
wee1_decoys_glide_SP


$$$$
