ZINC35702017_5652
                    3D
 Schrodinger Suite 2024-2.
 57 60  0  0  1  0            999 V2000
    4.2522   53.8400   27.8318 C   0  0  0  0  0  0
    2.9707   53.2509   27.2379 C   0  0  0  0  0  0
    2.5079   53.3636   25.9484 C   0  0  0  0  0  0
    1.0813   52.8157   25.5760 C   0  0  2  0  0  0
    0.5476   53.6485   25.1191 H   0  0  0  0  0  0
    0.3287   52.4969   26.8317 N   0  0  0  0  0  0
   -1.0345   52.2351   26.9286 C   0  0  0  0  0  0
   -1.3476   51.6966   28.1227 C   0  0  0  0  0  0
   -0.0191   51.6967   29.2700 S   0  0  0  0  0  0
    1.0352   52.3709   28.0256 C   0  0  0  0  0  0
    2.2608   52.6494   28.2344 N   0  0  0  0  0  0
   -2.0111   52.4968   25.8730 C   0  0  0  0  0  0
   -3.2713   52.0339   25.7557 C   0  0  0  0  0  0
   -3.9331   51.1984   26.4734 O   0  5  0  0  0  0
   -4.0535   52.4869   24.7164 N   0  0  0  0  0  0
   -5.4869   52.7908   24.6623 C   0  0  0  0  0  0
   -6.1196   53.4015   25.9353 C   0  0  2  0  0  0
   -6.0853   52.6565   26.7320 H   0  0  0  0  0  0
   -7.5331   53.9529   25.7359 C   0  0  0  0  0  0
   -7.6721   55.0591   26.7634 C   0  0  0  0  0  0
   -6.2420   55.2926   27.2505 C   0  0  0  0  0  0
   -5.4091   54.5666   26.3486 O   0  0  0  0  0  0
    1.0694   51.6668   24.5418 C   0  0  0  0  0  0
    1.4958   51.6673   23.2063 C   0  0  0  0  0  0
    1.3089   50.4691   22.5139 C   0  0  0  0  0  0
    0.7054   49.5051   23.2890 C   0  0  0  0  0  0
    0.3860   50.0801   24.8831 S   0  0  0  0  0  0
    3.2648   54.0460   24.8696 C   0  0  0  0  0  0
    2.7084   54.4971   23.8687 O   0  0  0  0  0  0
    4.6118   54.0970   25.0598 O   0  0  0  0  0  0
    5.5027   54.7312   24.1445 C   0  0  0  0  0  0
    6.3669   55.7097   24.9468 C   0  0  0  0  0  0
    6.3715   53.7053   23.4126 C   0  0  0  0  0  0
    4.4811   54.8164   27.4064 H   0  0  0  0  0  0
    4.1889   53.9942   28.9110 H   0  0  0  0  0  0
    5.0886   53.1658   27.6419 H   0  0  0  0  0  0
   -2.3249   51.3657   28.4423 H   0  0  0  0  0  0
   -1.6871   53.1844   25.1072 H   0  0  0  0  0  0
   -3.6426   52.3949   23.8014 H   0  0  0  0  0  0
   -6.0137   51.8733   24.3996 H   0  0  0  0  0  0
   -5.6360   53.4905   23.8432 H   0  0  0  0  0  0
   -8.2901   53.1716   25.7954 H   0  0  0  0  0  0
   -7.6313   54.3648   24.7300 H   0  0  0  0  0  0
   -8.3182   54.7557   27.5879 H   0  0  0  0  0  0
   -8.0963   55.9603   26.3195 H   0  0  0  0  0  0
   -6.0955   54.8964   28.2526 H   0  0  0  0  0  0
   -5.9561   56.3444   27.2821 H   0  0  0  0  0  0
    1.9338   52.5237   22.7223 H   0  0  0  0  0  0
    1.5933   50.3200   21.4823 H   0  0  0  0  0  0
    0.4361   48.4973   23.0149 H   0  0  0  0  0  0
    4.9534   55.2927   23.3958 H   0  0  0  0  0  0
    7.1825   56.0972   24.3363 H   0  0  0  0  0  0
    5.7683   56.5528   25.2818 H   0  0  0  0  0  0
    6.8032   55.2328   25.8254 H   0  0  0  0  0  0
    6.9088   54.1766   22.5889 H   0  0  0  0  0  0
    7.1227   53.2968   24.0858 H   0  0  0  0  0  0
    5.7733   52.8959   22.9967 H   0  0  0  0  0  0
  1  2  1  0  0  0
  1 34  1  0  0  0
  1 35  1  0  0  0
  1 36  1  0  0  0
  2 11  1  0  0  0
  2  3  2  0  0  0
  3  4  1  0  0  0
  3 28  1  0  0  0
  4  5  1  0  0  0
  4  6  1  0  0  0
  4 23  1  0  0  0
  6 10  1  0  0  0
  6  7  1  0  0  0
  7  8  2  0  0  0
  7 12  1  0  0  0
  8  9  1  0  0  0
  8 37  1  0  0  0
  9 10  1  0  0  0
 10 11  2  0  0  0
 12 13  2  0  0  0
 12 38  1  0  0  0
 13 14  1  0  0  0
 13 15  1  0  0  0
 15 16  1  0  0  0
 15 39  1  0  0  0
 16 17  1  0  0  0
 16 40  1  0  0  0
 16 41  1  0  0  0
 17 18  1  0  0  0
 17 22  1  0  0  0
 17 19  1  0  0  0
 19 20  1  0  0  0
 19 42  1  0  0  0
 19 43  1  0  0  0
 20 21  1  0  0  0
 20 44  1  0  0  0
 20 45  1  0  0  0
 21 22  1  0  0  0
 21 46  1  0  0  0
 21 47  1  0  0  0
 23 27  1  0  0  0
 23 24  2  0  0  0
 24 25  1  0  0  0
 24 48  1  0  0  0
 25 26  2  0  0  0
 25 49  1  0  0  0
 26 27  1  0  0  0
 26 50  1  0  0  0
 28 29  2  0  0  0
 28 30  1  0  0  0
 30 31  1  0  0  0
 31 32  1  0  0  0
 31 33  1  0  0  0
 31 51  1  0  0  0
 32 52  1  0  0  0
 32 53  1  0  0  0
 32 54  1  0  0  0
 33 55  1  0  0  0
 33 56  1  0  0  0
 33 57  1  0  0  0
M  CHG  1  14  -1
M  END
> <i_i_glide_confnum>
137

> <i_i_glide_lignum>
5653

> <i_i_glide_posenum>
385

> <i_i_glide_rotatable_bonds>
8

> <i_m_Source_File_Index>
4707

> <b_m_subgroup_collapsed>
0

> <r_i_docking_score>
-5.18013

> <r_i_glide_ecoul>
-2.39515

> <r_i_glide_eff_state_penalty>
0

> <r_i_glide_einternal>
10.3609

> <r_i_glide_emodel>
-49.8224

> <r_i_glide_energy>
-42.7081

> <r_i_glide_erotb>
0.569318

> <r_i_glide_esite>
0

> <r_i_glide_evdw>
-40.313

> <r_i_glide_gscore>
-5.18013

> <r_i_glide_hbond>
-0.32

> <r_i_glide_ligand_efficiency>
-0.167101

> <r_i_glide_ligand_efficiency_ln>
-1.16828

> <r_i_glide_ligand_efficiency_sa>
-0.524928

> <r_i_glide_lipo>
-2.20399

> <r_i_glide_metal>
0

> <r_i_glide_rewards>
-0.850538

> <s_i_glide_gridfile>
wee1_glide-grid

> <s_m_Source_File>
wee1_decoys_glide_SP.sdf

> <s_m_Source_Path>
/Users/zhangxujun/Desktop

> <s_m_entry_id>
4982

> <s_m_entry_name>
wee1_decoys_glide_SP.4707

> <s_m_subgroup_title>
wee1_decoys_glide_SP

> <s_m_subgroupid>
wee1_decoys_glide_SP


$$$$
