ZINC39599847_3057
                    3D
 Schrodinger Suite 2024-2.
 66 69  0  0  1  0            999 V2000
    6.6322   55.1488   25.1468 C   0  0  0  0  0  0
    5.4461   54.5144   25.8607 C   0  0  0  0  0  0
    4.1911   54.5573   25.2532 C   0  0  0  0  0  0
    3.0796   53.9867   25.8670 C   0  0  0  0  0  0
    3.1938   53.3123   27.0913 C   0  0  0  0  0  0
    4.4582   53.2970   27.7070 C   0  0  0  0  0  0
    5.5809   53.8773   27.1031 C   0  0  0  0  0  0
    6.9230   53.8026   27.8167 C   0  0  0  0  0  0
    2.0179   52.6310   27.7817 C   0  0  0  0  0  0
    2.0495   52.5310   29.0119 O   0  0  0  0  0  0
    0.9822   52.1038   27.0654 N   0  0  0  0  0  0
   -0.0870   51.3609   27.7430 C   0  0  0  0  0  0
   -0.9916   50.8373   26.6175 C   0  0  2  0  0  0
   -1.2791   49.8258   26.8817 H   0  0  0  0  0  0
   -0.1105   50.8088   25.3423 C   0  0  0  0  0  0
    0.8752   51.9708   25.6034 C   0  0  0  0  0  0
   -0.7720   50.9355   23.9421 C   0  0  0  0  0  0
   -1.7708   49.7885   23.6885 C   0  0  0  0  0  0
   -0.9995   48.4508   23.7358 N   0  3  0  0  0  0
   -0.1814   48.2370   25.0278 C   0  0  0  0  0  0
    0.7050   49.4794   25.2656 C   0  0  0  0  0  0
   -2.3029   51.6477   26.5434 C   0  0  0  0  0  0
   -2.3260   52.7865   26.0724 O   0  0  0  0  0  0
   -3.3902   51.0156   27.0114 N   0  0  0  0  0  0
   -4.7368   51.5745   27.1162 C   0  0  0  0  0  0
   -5.4342   51.2852   28.4465 C   0  0  0  0  0  0
   -4.7200   50.8967   29.5895 C   0  0  0  0  0  0
   -5.3918   50.5988   30.7717 C   0  0  0  0  0  0
   -6.7900   50.6784   30.8215 C   0  0  0  0  0  0
   -7.4977   51.0553   29.6816 C   0  0  0  0  0  0
   -6.8280   51.3600   28.5013 C   0  0  0  0  0  0
   -7.5385   50.3712   31.9365 O   0  0  0  0  0  0
   -7.0017   50.6063   33.2329 C   0  0  0  0  0  0
   -6.4991   51.8374   33.3475 F   0  0  0  0  0  0
   -6.0952   49.6909   33.5669 F   0  0  0  0  0  0
   -8.0203   50.5022   34.0821 F   0  0  0  0  0  0
    6.4227   55.3335   24.0917 H   0  0  0  0  0  0
    6.8990   56.0915   25.6237 H   0  0  0  0  0  0
    7.4998   54.4916   25.1754 H   0  0  0  0  0  0
    4.0666   55.0502   24.3002 H   0  0  0  0  0  0
    2.1307   54.0993   25.3690 H   0  0  0  0  0  0
    4.5831   52.8007   28.6577 H   0  0  0  0  0  0
    7.5044   52.9604   27.4399 H   0  0  0  0  0  0
    7.4991   54.7180   27.6781 H   0  0  0  0  0  0
    6.7953   53.6862   28.8919 H   0  0  0  0  0  0
   -0.6277   51.9226   28.5067 H   0  0  0  0  0  0
    0.3453   50.4968   28.2449 H   0  0  0  0  0  0
    1.8033   51.8254   25.0471 H   0  0  0  0  0  0
    0.3717   52.8641   25.2320 H   0  0  0  0  0  0
   -1.3092   51.8828   23.8638 H   0  0  0  0  0  0
   -0.0164   50.9757   23.1544 H   0  0  0  0  0  0
   -2.5608   49.7255   24.4377 H   0  0  0  0  0  0
   -2.2245   49.8483   22.6980 H   0  0  0  0  0  0
   -1.6459   47.6836   23.6088 H   0  0  0  0  0  0
   -0.8903   48.0290   25.8305 H   0  0  0  0  0  0
    0.4147   47.3381   24.8743 H   0  0  0  0  0  0
    1.4819   49.5344   24.4993 H   0  0  0  0  0  0
    1.2450   49.3093   26.1990 H   0  0  0  0  0  0
   -3.2829   50.0559   27.3163 H   0  0  0  0  0  0
   -5.3264   51.1455   26.3042 H   0  0  0  0  0  0
   -4.7475   52.6533   26.9426 H   0  0  0  0  0  0
   -3.6412   50.8118   29.5737 H   0  0  0  0  0  0
   -4.8122   50.2958   31.6313 H   0  0  0  0  0  0
   -8.5754   51.1042   29.7151 H   0  0  0  0  0  0
   -7.3996   51.6431   27.6285 H   0  0  0  0  0  0
   -0.3636   48.4301   22.9490 H   0  0  0  0  0  0
  1  2  1  0  0  0
  1 37  1  0  0  0
  1 38  1  0  0  0
  1 39  1  0  0  0
  2  7  2  0  0  0
  2  3  1  0  0  0
  3  4  2  0  0  0
  3 40  1  0  0  0
  4  5  1  0  0  0
  4 41  1  0  0  0
  5  6  2  0  0  0
  5  9  1  0  0  0
  6  7  1  0  0  0
  6 42  1  0  0  0
  7  8  1  0  0  0
  8 43  1  0  0  0
  8 44  1  0  0  0
  8 45  1  0  0  0
  9 10  2  0  0  0
  9 11  1  0  0  0
 11 16  1  0  0  0
 11 12  1  0  0  0
 12 13  1  0  0  0
 12 46  1  0  0  0
 12 47  1  0  0  0
 13 14  1  0  0  0
 13 15  1  0  0  0
 13 22  1  0  0  0
 15 21  1  0  0  0
 15 16  1  0  0  0
 15 17  1  0  0  0
 16 48  1  0  0  0
 16 49  1  0  0  0
 17 18  1  0  0  0
 17 50  1  0  0  0
 17 51  1  0  0  0
 18 19  1  0  0  0
 18 52  1  0  0  0
 18 53  1  0  0  0
 19 20  1  0  0  0
 19 54  1  0  0  0
 19 66  1  0  0  0
 20 21  1  0  0  0
 20 55  1  0  0  0
 20 56  1  0  0  0
 21 57  1  0  0  0
 21 58  1  0  0  0
 22 23  2  0  0  0
 22 24  1  0  0  0
 24 25  1  0  0  0
 24 59  1  0  0  0
 25 26  1  0  0  0
 25 60  1  0  0  0
 25 61  1  0  0  0
 26 31  2  0  0  0
 26 27  1  0  0  0
 27 28  2  0  0  0
 27 62  1  0  0  0
 28 29  1  0  0  0
 28 63  1  0  0  0
 29 30  2  0  0  0
 29 32  1  0  0  0
 30 31  1  0  0  0
 30 64  1  0  0  0
 31 65  1  0  0  0
 32 33  1  0  0  0
 33 34  1  0  0  0
 33 35  1  0  0  0
 33 36  1  0  0  0
M  CHG  1  19   1
M  END
> <i_i_glide_confnum>
133

> <i_i_glide_lignum>
3058

> <i_i_glide_posenum>
4

> <i_i_glide_rotatable_bonds>
8

> <i_m_Source_File_Index>
4924

> <b_m_subgroup_collapsed>
0

> <r_i_docking_score>
-4.91242

> <r_i_glide_ecoul>
-5.41466

> <r_i_glide_eff_state_penalty>
0

> <r_i_glide_einternal>
7.90026

> <r_i_glide_emodel>
-57.0331

> <r_i_glide_energy>
-46.1806

> <r_i_glide_erotb>
0.59203

> <r_i_glide_esite>
-0.195999

> <r_i_glide_evdw>
-40.7659

> <r_i_glide_gscore>
-4.91242

> <r_i_glide_hbond>
0

> <r_i_glide_ligand_efficiency>
-0.140355

> <r_i_glide_ligand_efficiency_ln>
-1.07838

> <r_i_glide_ligand_efficiency_sa>
-0.45911

> <r_i_glide_lipo>
-2.045

> <r_i_glide_metal>
0

> <r_i_glide_rewards>
-0.412958

> <s_i_glide_gridfile>
wee1_glide-grid

> <s_m_Source_File>
wee1_decoys_glide_SP.sdf

> <s_m_Source_Path>
/Users/zhangxujun/Desktop

> <s_m_entry_id>
5199

> <s_m_entry_name>
wee1_decoys_glide_SP.4924

> <s_m_subgroup_title>
wee1_decoys_glide_SP

> <s_m_subgroupid>
wee1_decoys_glide_SP


$$$$
