ZINC45292978_5817
                    3D
 Schrodinger Suite 2024-2.
 51 53  0  0  1  0            999 V2000
    5.7516   57.9669   17.1096 C   0  0  0  0  0  0
    5.5110   56.7545   17.9899 C   0  0  0  0  0  0
    4.6534   55.7208   17.5958 C   0  0  0  0  0  0
    4.4933   54.6604   18.4926 C   0  0  0  0  0  0
    5.1160   54.6276   19.7005 N   0  0  0  0  0  0
    5.9303   55.6765   19.9899 C   0  0  0  0  0  0
    6.1715   56.7399   19.1795 N   0  0  0  0  0  0
    6.7315   55.6966   21.5583 S   0  0  0  0  0  0
    5.9122   54.4733   22.6230 C   0  0  0  0  0  0
    6.0854   54.7247   24.1245 C   0  0  0  0  0  0
    7.1030   55.2541   24.5753 O   0  0  0  0  0  0
    5.0474   54.3250   24.8795 N   0  0  0  0  0  0
    4.9812   54.2444   26.2754 C   0  0  0  0  0  0
    6.1013   54.0478   27.0985 C   0  0  0  0  0  0
    5.9351   53.8577   28.4674 C   0  0  0  0  0  0
    4.6549   53.8395   29.0192 C   0  0  0  0  0  0
    3.5373   54.0457   28.2086 C   0  0  0  0  0  0
    3.7080   54.2676   26.8416 C   0  0  0  0  0  0
    1.8921   53.9773   28.9088 S   0  0  0  0  0  0
    2.0758   54.3242   30.3201 O   0  0  0  0  0  0
    1.1045   54.8977   28.0820 O   0  0  0  0  0  0
    1.5563   52.4581   28.7091 N   0  5  0  0  0  0
    0.6945   52.1000   27.7098 C   0  0  0  0  0  0
   -0.5873   51.6437   28.0253 C   0  0  0  0  0  0
   -1.4970   51.2968   27.0257 C   0  0  0  0  0  0
   -1.1332   51.4109   25.6849 C   0  0  0  0  0  0
    0.1496   51.8444   25.3358 C   0  0  0  0  0  0
    1.0520   52.1631   26.3577 C   0  0  0  0  0  0
    0.5551   51.9778   23.8675 C   0  0  0  0  0  0
   -0.4438   52.4932   23.1498 F   0  0  0  0  0  0
    1.6173   52.7717   23.7160 F   0  0  0  0  0  0
    0.8572   50.7753   23.3802 F   0  0  0  0  0  0
    3.6069   53.4723   18.1751 C   0  0  0  0  0  0
    6.7711   57.9585   16.7203 H   0  0  0  0  0  0
    5.6130   58.8906   17.6749 H   0  0  0  0  0  0
    5.0683   57.9915   16.2596 H   0  0  0  0  0  0
    4.1411   55.7369   16.6453 H   0  0  0  0  0  0
    4.8514   54.4600   22.3713 H   0  0  0  0  0  0
    6.3044   53.4835   22.4065 H   0  0  0  0  0  0
    4.2059   54.0517   24.3917 H   0  0  0  0  0  0
    7.1007   54.0051   26.6953 H   0  0  0  0  0  0
    6.8045   53.7079   29.0908 H   0  0  0  0  0  0
    4.5301   53.6643   30.0778 H   0  0  0  0  0  0
    2.8420   54.4356   26.2190 H   0  0  0  0  0  0
   -0.8840   51.5512   29.0597 H   0  0  0  0  0  0
   -2.4809   50.9414   27.2934 H   0  0  0  0  0  0
   -1.8454   51.1473   24.9169 H   0  0  0  0  0  0
    2.0527   52.4514   26.0963 H   0  0  0  0  0  0
    2.7745   53.4208   18.8789 H   0  0  0  0  0  0
    3.1971   53.5375   17.1669 H   0  0  0  0  0  0
    4.1762   52.5430   18.2418 H   0  0  0  0  0  0
  1  2  1  0  0  0
  1 34  1  0  0  0
  1 35  1  0  0  0
  1 36  1  0  0  0
  2  7  2  0  0  0
  2  3  1  0  0  0
  3  4  2  0  0  0
  3 37  1  0  0  0
  4  5  1  0  0  0
  4 33  1  0  0  0
  5  6  2  0  0  0
  6  7  1  0  0  0
  6  8  1  0  0  0
  8  9  1  0  0  0
  9 10  1  0  0  0
  9 38  1  0  0  0
  9 39  1  0  0  0
 10 11  2  0  0  0
 10 12  1  0  0  0
 12 13  1  0  0  0
 12 40  1  0  0  0
 13 18  2  0  0  0
 13 14  1  0  0  0
 14 15  2  0  0  0
 14 41  1  0  0  0
 15 16  1  0  0  0
 15 42  1  0  0  0
 16 17  2  0  0  0
 16 43  1  0  0  0
 17 18  1  0  0  0
 17 19  1  0  0  0
 18 44  1  0  0  0
 19 20  2  0  0  0
 19 21  2  0  0  0
 19 22  1  0  0  0
 22 23  1  0  0  0
 23 28  2  0  0  0
 23 24  1  0  0  0
 24 25  2  0  0  0
 24 45  1  0  0  0
 25 26  1  0  0  0
 25 46  1  0  0  0
 26 27  2  0  0  0
 26 47  1  0  0  0
 27 28  1  0  0  0
 27 29  1  0  0  0
 28 48  1  0  0  0
 29 30  1  0  0  0
 29 31  1  0  0  0
 29 32  1  0  0  0
 33 49  1  0  0  0
 33 50  1  0  0  0
 33 51  1  0  0  0
M  CHG  1  22  -1
M  END
> <i_i_glide_confnum>
137

> <i_i_glide_lignum>
5818

> <i_i_glide_posenum>
81

> <i_i_glide_rotatable_bonds>
9

> <i_m_Source_File_Index>
5334

> <b_m_subgroup_collapsed>
0

> <r_i_docking_score>
-6.37545

> <r_i_glide_ecoul>
-6.87504

> <r_i_glide_eff_state_penalty>
0

> <r_i_glide_einternal>
8.10869

> <r_i_glide_emodel>
-70.1585

> <r_i_glide_energy>
-52.3077

> <r_i_glide_erotb>
0.6642

> <r_i_glide_esite>
-0.00948575

> <r_i_glide_evdw>
-45.4327

> <r_i_glide_gscore>
-6.37545

> <r_i_glide_hbond>
-0.135466

> <r_i_glide_ligand_efficiency>
-0.193196

> <r_i_glide_ligand_efficiency_ln>
-1.41787

> <r_i_glide_ligand_efficiency_sa>
-0.619681

> <r_i_glide_lipo>
-2.45457

> <r_i_glide_metal>
0

> <r_i_glide_rewards>
-1.13724

> <s_i_glide_gridfile>
wee1_glide-grid

> <s_m_Source_File>
wee1_decoys_glide_SP.sdf

> <s_m_Source_Path>
/Users/zhangxujun/Desktop

> <s_m_entry_id>
5609

> <s_m_entry_name>
wee1_decoys_glide_SP.5334

> <s_m_subgroup_title>
wee1_decoys_glide_SP

> <s_m_subgroupid>
wee1_decoys_glide_SP


$$$$
