ZINC22508424_5946
                    3D
 Schrodinger Suite 2024-2.
 54 58  0  0  1  0            999 V2000
   -4.4763   45.5500   25.3744 C   0  0  0  0  0  0
   -5.2109   45.8637   24.2369 C   0  0  0  0  0  0
   -4.8557   46.9491   23.4399 C   0  0  0  0  0  0
   -3.7404   47.7540   23.7839 C   0  0  0  0  0  0
   -3.3736   48.8888   23.0297 C   0  0  0  0  0  0
   -2.3046   49.7270   23.3870 C   0  0  0  0  0  0
   -1.5993   49.4242   24.5786 C   0  0  0  0  0  0
   -1.8909   48.2465   25.2821 C   0  0  0  0  0  0
   -2.9772   47.4208   24.9336 C   0  0  0  0  0  0
   -3.3545   46.3014   25.7203 C   0  0  0  0  0  0
   -0.5613   50.3558   25.1796 C   0  0  0  0  0  0
    0.3726   50.7987   24.5105 O   0  0  0  0  0  0
   -0.7922   50.6356   26.4822 N   0  0  0  0  0  0
   -0.1095   51.4635   27.3932 C   0  0  0  0  0  0
   -0.7040   51.5883   28.6501 C   0  0  0  0  0  0
   -0.0986   52.3370   29.6526 C   0  0  0  0  0  0
    1.1209   52.9590   29.4103 C   0  0  0  0  0  0
    1.7615   52.8463   28.1618 C   0  0  0  0  0  0
    1.1072   52.1196   27.1466 C   0  0  0  0  0  0
    3.0443   53.4206   27.9100 N   0  0  0  0  0  0
    3.5295   53.7284   26.5531 C   0  0  0  0  0  0
    4.9935   54.0985   26.6757 C   0  0  0  0  0  0
    5.2238   54.2523   28.1559 C   0  0  0  0  0  0
    3.9760   53.7323   28.8616 C   0  0  0  0  0  0
    3.9040   53.6167   30.0852 O   0  0  0  0  0  0
   -2.0445   50.8502   22.6381 N   0  5  0  0  0  0
   -1.8531   50.7998   21.0779 S   0  0  0  0  0  0
   -2.4208   49.6240   20.4061 O   0  0  0  0  0  0
   -2.0986   52.0999   20.4446 O   0  0  0  0  0  0
   -0.0722   50.5563   20.8810 C   0  0  0  0  0  0
    0.5513   49.3339   20.6629 C   0  0  0  0  0  0
    1.9399   49.4543   20.5253 C   0  0  0  0  0  0
    2.3743   50.7677   20.6547 C   0  0  0  0  0  0
    1.0699   51.8655   20.9752 S   0  0  0  0  0  0
   -4.7802   44.7167   25.9918 H   0  0  0  0  0  0
   -6.0772   45.2731   23.9766 H   0  0  0  0  0  0
   -5.4437   47.1950   22.5667 H   0  0  0  0  0  0
   -3.9819   49.1332   22.1732 H   0  0  0  0  0  0
   -1.3172   47.9762   26.1582 H   0  0  0  0  0  0
   -2.7910   46.0647   26.6138 H   0  0  0  0  0  0
   -1.5713   50.1373   26.8923 H   0  0  0  0  0  0
   -1.6321   51.0772   28.8699 H   0  0  0  0  0  0
   -0.5651   52.4154   30.6262 H   0  0  0  0  0  0
    1.5461   53.5293   30.2195 H   0  0  0  0  0  0
    1.5659   52.0252   26.1782 H   0  0  0  0  0  0
    3.4340   52.8863   25.8709 H   0  0  0  0  0  0
    2.9606   54.5590   26.1320 H   0  0  0  0  0  0
    5.2386   55.0010   26.1129 H   0  0  0  0  0  0
    5.6153   53.2882   26.2921 H   0  0  0  0  0  0
    5.3528   55.2971   28.4306 H   0  0  0  0  0  0
    6.1116   53.7125   28.4904 H   0  0  0  0  0  0
    0.0144   48.3986   20.5906 H   0  0  0  0  0  0
    2.6056   48.6246   20.3302 H   0  0  0  0  0  0
    3.3878   51.1349   20.5672 H   0  0  0  0  0  0
  1 10  2  0  0  0
  1  2  1  0  0  0
  1 35  1  0  0  0
  2  3  2  0  0  0
  2 36  1  0  0  0
  3  4  1  0  0  0
  3 37  1  0  0  0
  4  9  2  0  0  0
  4  5  1  0  0  0
  5  6  2  0  0  0
  5 38  1  0  0  0
  6  7  1  0  0  0
  6 26  1  0  0  0
  7  8  2  0  0  0
  7 11  1  0  0  0
  8  9  1  0  0  0
  8 39  1  0  0  0
  9 10  1  0  0  0
 10 40  1  0  0  0
 11 12  2  0  0  0
 11 13  1  0  0  0
 13 14  1  0  0  0
 13 41  1  0  0  0
 14 19  2  0  0  0
 14 15  1  0  0  0
 15 16  2  0  0  0
 15 42  1  0  0  0
 16 17  1  0  0  0
 16 43  1  0  0  0
 17 18  2  0  0  0
 17 44  1  0  0  0
 18 19  1  0  0  0
 18 20  1  0  0  0
 19 45  1  0  0  0
 20 24  1  0  0  0
 20 21  1  0  0  0
 21 22  1  0  0  0
 21 46  1  0  0  0
 21 47  1  0  0  0
 22 23  1  0  0  0
 22 48  1  0  0  0
 22 49  1  0  0  0
 23 24  1  0  0  0
 23 50  1  0  0  0
 23 51  1  0  0  0
 24 25  2  0  0  0
 26 27  1  0  0  0
 27 28  2  0  0  0
 27 29  2  0  0  0
 27 30  1  0  0  0
 30 34  1  0  0  0
 30 31  2  0  0  0
 31 32  1  0  0  0
 31 52  1  0  0  0
 32 33  2  0  0  0
 32 53  1  0  0  0
 33 34  1  0  0  0
 33 54  1  0  0  0
M  CHG  1  26  -1
M  END
> <i_i_glide_confnum>
129

> <i_i_glide_lignum>
5947

> <i_i_glide_posenum>
381

> <i_i_glide_rotatable_bonds>
7

> <i_m_Source_File_Index>
4958

> <b_m_subgroup_collapsed>
0

> <r_i_docking_score>
-5.43546

> <r_i_glide_ecoul>
-11.5536

> <r_i_glide_eff_state_penalty>
0

> <r_i_glide_einternal>
2.74064

> <r_i_glide_emodel>
-70.5919

> <r_i_glide_energy>
-52.2543

> <r_i_glide_erotb>
0.591946

> <r_i_glide_esite>
-0.144163

> <r_i_glide_evdw>
-40.7007

> <r_i_glide_gscore>
-5.43546

> <r_i_glide_hbond>
-0.28767

> <r_i_glide_ligand_efficiency>
-0.159866

> <r_i_glide_ligand_efficiency_ln>
-1.20085

> <r_i_glide_ligand_efficiency_sa>
-0.517905

> <r_i_glide_lipo>
-1.18553

> <r_i_glide_metal>
0

> <r_i_glide_rewards>
-0.641967

> <s_i_glide_gridfile>
wee1_glide-grid

> <s_m_Source_File>
wee1_decoys_glide_SP.sdf

> <s_m_Source_Path>
/Users/zhangxujun/Desktop

> <s_m_entry_id>
5233

> <s_m_entry_name>
wee1_decoys_glide_SP.4958

> <s_m_subgroup_title>
wee1_decoys_glide_SP

> <s_m_subgroupid>
wee1_decoys_glide_SP


$$$$
