ZINC33343660_1005
                    3D
 Schrodinger Suite 2024-2.
 55 58  0  0  1  0            999 V2000
   -0.3873   48.3977   24.5134 C   0  0  0  0  0  0
   -0.8079   49.4707   25.5026 C   0  0  0  0  0  0
   -0.0699   50.1051   26.4810 C   0  0  0  0  0  0
   -0.8454   51.0638   27.1434 C   0  0  0  0  0  0
   -2.1182   50.9549   26.5831 C   0  0  0  0  0  0
   -2.0878   49.9913   25.5800 N   0  0  0  0  0  0
   -3.1839   49.5980   24.7812 C   0  0  0  0  0  0
   -3.8318   50.5323   23.9742 C   0  0  0  0  0  0
   -4.9207   50.1388   23.2010 C   0  0  0  0  0  0
   -5.3816   48.8104   23.2137 C   0  0  0  0  0  0
   -4.7036   47.8865   24.0285 C   0  0  0  0  0  0
   -3.6191   48.2737   24.8100 C   0  0  0  0  0  0
   -6.4925   48.4144   22.4141 N   0  0  0  0  0  0
   -7.4300   49.4333   21.9374 C   0  0  0  0  0  0
   -7.0306   47.0564   22.5298 C   0  0  0  0  0  0
   -3.3948   51.7002   26.9429 C   0  0  0  0  0  0
   -0.4365   51.9316   28.2478 C   0  0  0  0  0  0
    0.6448   52.7570   28.4031 C   0  0  0  0  0  0
    0.8200   53.5021   29.6595 C   0  0  0  0  0  0
   -0.0907   53.4869   30.4858 O   0  0  0  0  0  0
    1.9423   54.1695   29.8429 N   0  5  0  0  0  0
    2.9060   54.2911   28.9425 C   0  0  0  0  0  0
    3.9430   54.8964   29.2073 O   0  0  0  0  0  0
    2.7401   53.7344   27.6759 N   0  0  0  0  0  0
    1.6486   52.9417   27.3416 C   0  0  0  0  0  0
    1.5029   52.4478   26.2210 O   0  0  0  0  0  0
    3.7081   54.0050   26.6310 C   0  0  0  0  0  0
    5.0966   53.8632   26.8403 C   0  0  0  0  0  0
    6.0011   54.0961   25.8021 C   0  0  0  0  0  0
    5.5230   54.3827   24.5252 C   0  0  0  0  0  0
    4.1636   54.4968   24.2892 C   0  0  0  0  0  0
    3.2744   54.3713   25.3419 C   0  0  0  0  0  0
    6.7049   54.6091   23.0609 Br  0  0  0  0  0  0
    0.6982   48.2951   24.4729 H   0  0  0  0  0  0
   -0.7849   47.4201   24.7843 H   0  0  0  0  0  0
   -0.7214   48.6180   23.4991 H   0  0  0  0  0  0
    0.9668   49.8962   26.6982 H   0  0  0  0  0  0
   -3.4948   51.5587   23.9442 H   0  0  0  0  0  0
   -5.3939   50.8907   22.5903 H   0  0  0  0  0  0
   -5.0131   46.8541   24.0840 H   0  0  0  0  0  0
   -3.1293   47.5515   25.4483 H   0  0  0  0  0  0
   -7.8694   49.9637   22.7846 H   0  0  0  0  0  0
   -8.2467   48.9991   21.3588 H   0  0  0  0  0  0
   -6.9334   50.1710   21.3069 H   0  0  0  0  0  0
   -6.2505   46.3068   22.3860 H   0  0  0  0  0  0
   -7.4582   46.9003   23.5227 H   0  0  0  0  0  0
   -7.8114   46.8639   21.7925 H   0  0  0  0  0  0
   -3.3577   52.0963   27.9551 H   0  0  0  0  0  0
   -3.5791   52.5388   26.2716 H   0  0  0  0  0  0
   -4.2737   51.0547   26.9093 H   0  0  0  0  0  0
   -1.1614   51.8628   29.0507 H   0  0  0  0  0  0
    5.4807   53.5653   27.8054 H   0  0  0  0  0  0
    7.0618   53.9911   25.9751 H   0  0  0  0  0  0
    3.8000   54.7198   23.2960 H   0  0  0  0  0  0
    2.2234   54.4965   25.1231 H   0  0  0  0  0  0
  1  2  1  0  0  0
  1 34  1  0  0  0
  1 35  1  0  0  0
  1 36  1  0  0  0
  2  6  1  0  0  0
  2  3  2  0  0  0
  3  4  1  0  0  0
  3 37  1  0  0  0
  4  5  2  0  0  0
  4 17  1  0  0  0
  5  6  1  0  0  0
  5 16  1  0  0  0
  6  7  1  0  0  0
  7 12  2  0  0  0
  7  8  1  0  0  0
  8  9  2  0  0  0
  8 38  1  0  0  0
  9 10  1  0  0  0
  9 39  1  0  0  0
 10 11  2  0  0  0
 10 13  1  0  0  0
 11 12  1  0  0  0
 11 40  1  0  0  0
 12 41  1  0  0  0
 13 14  1  0  0  0
 13 15  1  0  0  0
 14 42  1  0  0  0
 14 43  1  0  0  0
 14 44  1  0  0  0
 15 45  1  0  0  0
 15 46  1  0  0  0
 15 47  1  0  0  0
 16 48  1  0  0  0
 16 49  1  0  0  0
 16 50  1  0  0  0
 17 18  2  0  0  0
 17 51  1  0  0  0
 18 25  1  0  0  0
 18 19  1  0  0  0
 19 20  2  0  0  0
 19 21  1  0  0  0
 21 22  1  0  0  0
 22 23  2  0  0  0
 22 24  1  0  0  0
 24 25  1  0  0  0
 24 27  1  0  0  0
 25 26  2  0  0  0
 27 32  2  0  0  0
 27 28  1  0  0  0
 28 29  2  0  0  0
 28 52  1  0  0  0
 29 30  1  0  0  0
 29 53  1  0  0  0
 30 31  2  0  0  0
 30 33  1  0  0  0
 31 32  1  0  0  0
 31 54  1  0  0  0
 32 55  1  0  0  0
M  CHG  1  21  -1
M  END
> <i_i_glide_confnum>
27

> <i_i_glide_lignum>
1006

> <i_i_glide_posenum>
39

> <i_i_glide_rotatable_bonds>
4

> <i_m_Source_File_Index>
4819

> <b_m_subgroup_collapsed>
0

> <r_i_docking_score>
-4.95188

> <r_i_glide_ecoul>
-0.43851

> <r_i_glide_eff_state_penalty>
0

> <r_i_glide_einternal>
5.31763

> <r_i_glide_emodel>
-51.8448

> <r_i_glide_energy>
-41.0456

> <r_i_glide_erotb>
0.239376

> <r_i_glide_esite>
-0.0613627

> <r_i_glide_evdw>
-40.6071

> <r_i_glide_gscore>
-4.95188

> <r_i_glide_hbond>
-0.0650984

> <r_i_glide_ligand_efficiency>
-0.150057

> <r_i_glide_ligand_efficiency_ln>
-1.10127

> <r_i_glide_ligand_efficiency_sa>
-0.481313

> <r_i_glide_lipo>
-1.81995

> <r_i_glide_metal>
0

> <r_i_glide_rewards>
-1.14871

> <s_i_glide_gridfile>
wee1_glide-grid

> <s_m_Source_File>
wee1_decoys_glide_SP.sdf

> <s_m_Source_Path>
/Users/zhangxujun/Desktop

> <s_m_entry_id>
5094

> <s_m_entry_name>
wee1_decoys_glide_SP.4819

> <s_m_subgroup_title>
wee1_decoys_glide_SP

> <s_m_subgroupid>
wee1_decoys_glide_SP


$$$$
