ZINC02428098_2796
                    3D
 Schrodinger Suite 2024-2.
 59 64  0  0  1  0            999 V2000
   -5.5803   50.8370   31.1851 C   0  0  0  0  0  0
   -5.3078   50.9917   29.7005 C   0  0  0  0  0  0
   -6.2529   51.5925   28.8678 C   0  0  0  0  0  0
   -5.9950   51.7221   27.5032 C   0  0  0  0  0  0
   -4.7927   51.2594   26.9597 C   0  0  0  0  0  0
   -3.8423   50.6812   27.8124 C   0  0  0  0  0  0
   -4.0984   50.5440   29.1725 C   0  0  0  0  0  0
   -4.5860   51.3838   25.4420 C   0  0  0  0  0  0
   -3.2364   51.1176   24.9140 N   0  0  0  0  0  0
   -2.5912   49.8798   24.8894 C   0  0  0  0  0  0
   -3.0554   48.6307   25.3103 C   0  0  0  0  0  0
   -2.1922   47.5355   25.2666 C   0  0  0  0  0  0
   -0.8940   47.6893   24.7767 C   0  0  0  0  0  0
   -0.4481   48.9319   24.3290 C   0  0  0  0  0  0
   -1.3110   50.0274   24.3878 C   0  0  0  0  0  0
   -1.1032   51.4660   24.0331 C   0  0  1  0  0  0
   -2.4579   52.1109   24.4062 C   0  0  0  0  0  0
   -2.7587   53.2960   24.2406 O   0  0  0  0  0  0
    0.0477   52.0733   24.8530 C   0  0  0  0  0  0
    0.3767   52.1460   26.2169 C   0  0  0  0  0  0
    1.5158   52.7810   26.4081 N   0  0  0  0  0  0
    2.0235   53.0918   25.1952 N   0  0  0  0  0  0
    1.1283   52.6728   24.2342 C   0  0  0  0  0  0
    1.3343   52.8112   22.8843 O   0  0  0  0  0  0
    0.3541   52.2788   22.1051 C   0  0  0  0  0  0
   -0.7948   51.6922   22.5315 C   0  0  0  0  0  0
   -1.7400   51.2552   21.5511 C   0  0  0  0  0  0
   -2.5082   50.9516   20.7412 N   0  0  0  0  0  0
    0.7158   52.4944   20.8034 N   0  0  0  0  0  0
    3.3116   53.7061   25.0790 C   0  0  0  0  0  0
    3.9172   53.9079   23.8265 C   0  0  0  0  0  0
    5.1958   54.4530   23.7366 C   0  0  0  0  0  0
    5.8799   54.8212   24.8907 C   0  0  0  0  0  0
    5.2920   54.6494   26.1393 C   0  0  0  0  0  0
    4.0164   54.0971   26.2332 C   0  0  0  0  0  0
   -0.3787   51.6070   27.4094 C   0  0  0  0  0  0
   -4.6534   50.8965   31.7578 H   0  0  0  0  0  0
   -6.2330   51.6268   31.5570 H   0  0  0  0  0  0
   -6.0435   49.8711   31.3880 H   0  0  0  0  0  0
   -7.1908   51.9440   29.2702 H   0  0  0  0  0  0
   -6.7414   52.1717   26.8654 H   0  0  0  0  0  0
   -2.9032   50.3010   27.4460 H   0  0  0  0  0  0
   -3.3548   50.0795   29.8074 H   0  0  0  0  0  0
   -4.9158   52.3812   25.1458 H   0  0  0  0  0  0
   -5.2679   50.6795   24.9645 H   0  0  0  0  0  0
   -4.0487   48.5054   25.7153 H   0  0  0  0  0  0
   -2.5220   46.5759   25.6376 H   0  0  0  0  0  0
   -0.2142   46.8528   24.7751 H   0  0  0  0  0  0
    0.5659   49.0398   23.9711 H   0  0  0  0  0  0
    0.2270   52.0377   20.0473 H   0  0  0  0  0  0
    1.3248   53.2652   20.5610 H   0  0  0  0  0  0
    3.4392   53.6317   22.9002 H   0  0  0  0  0  0
    5.6581   54.5855   22.7692 H   0  0  0  0  0  0
    6.8722   55.2414   24.8094 H   0  0  0  0  0  0
    5.8250   54.9343   27.0354 H   0  0  0  0  0  0
    3.5962   53.9644   27.2200 H   0  0  0  0  0  0
   -1.2960   52.1681   27.5851 H   0  0  0  0  0  0
   -0.6562   50.5640   27.2572 H   0  0  0  0  0  0
    0.2002   51.6389   28.3321 H   0  0  0  0  0  0
  1  2  1  0  0  0
  1 37  1  0  0  0
  1 38  1  0  0  0
  1 39  1  0  0  0
  2  7  2  0  0  0
  2  3  1  0  0  0
  3  4  2  0  0  0
  3 40  1  0  0  0
  4  5  1  0  0  0
  4 41  1  0  0  0
  5  6  2  0  0  0
  5  8  1  0  0  0
  6  7  1  0  0  0
  6 42  1  0  0  0
  7 43  1  0  0  0
  8  9  1  0  0  0
  8 44  1  0  0  0
  8 45  1  0  0  0
  9 17  1  0  0  0
  9 10  1  0  0  0
 10 15  2  0  0  0
 10 11  1  0  0  0
 11 12  2  0  0  0
 11 46  1  0  0  0
 12 13  1  0  0  0
 12 47  1  0  0  0
 13 14  2  0  0  0
 13 48  1  0  0  0
 14 15  1  0  0  0
 14 49  1  0  0  0
 15 16  1  0  0  0
 16 26  1  0  0  0
 16 17  1  0  0  0
 16 19  1  0  0  0
 17 18  2  0  0  0
 19 23  2  0  0  0
 19 20  1  0  0  0
 20 21  2  0  0  0
 20 36  1  0  0  0
 21 22  1  0  0  0
 22 23  1  0  0  0
 22 30  1  0  0  0
 23 24  1  0  0  0
 24 25  1  0  0  0
 25 26  2  0  0  0
 25 29  1  0  0  0
 26 27  1  0  0  0
 27 28  3  0  0  0
 29 50  1  0  0  0
 29 51  1  0  0  0
 30 35  2  0  0  0
 30 31  1  0  0  0
 31 32  2  0  0  0
 31 52  1  0  0  0
 32 33  1  0  0  0
 32 53  1  0  0  0
 33 34  2  0  0  0
 33 54  1  0  0  0
 34 35  1  0  0  0
 34 55  1  0  0  0
 35 56  1  0  0  0
 36 57  1  0  0  0
 36 58  1  0  0  0
 36 59  1  0  0  0
M  END
> <i_i_glide_confnum>
10

> <i_i_glide_lignum>
2797

> <i_i_glide_posenum>
256

> <i_i_glide_rotatable_bonds>
4

> <i_m_Source_File_Index>
3345

> <b_m_subgroup_collapsed>
0

> <r_i_docking_score>
-5.04592

> <r_i_glide_ecoul>
-4.16894

> <r_i_glide_eff_state_penalty>
0

> <r_i_glide_einternal>
2.88271

> <r_i_glide_emodel>
-54.9997

> <r_i_glide_energy>
-43.5247

> <r_i_glide_erotb>
0.27064

> <r_i_glide_esite>
-0.0449347

> <r_i_glide_evdw>
-39.3558

> <r_i_glide_gscore>
-5.04592

> <r_i_glide_hbond>
-0.27889

> <r_i_glide_ligand_efficiency>
-0.140164

> <r_i_glide_ligand_efficiency_ln>
-1.10088

> <r_i_glide_ligand_efficiency_sa>
-0.462813

> <r_i_glide_lipo>
-1.82515

> <r_i_glide_metal>
0

> <r_i_glide_rewards>
-0.574448

> <s_i_glide_gridfile>
wee1_glide-grid

> <s_m_Source_File>
wee1_decoys_glide_SP.sdf

> <s_m_Source_Path>
/Users/zhangxujun/Desktop

> <s_m_entry_id>
3620

> <s_m_entry_name>
wee1_decoys_glide_SP.3345

> <s_m_subgroup_title>
wee1_decoys_glide_SP

> <s_m_subgroupid>
wee1_decoys_glide_SP


$$$$
