ZINC39677619_5459
                    3D
 Schrodinger Suite 2024-2.
 68 73  0  0  1  0            999 V2000
    3.5249   52.8217   30.3482 C   0  0  0  0  0  0
    2.1746   52.4928   30.2635 C   0  0  0  0  0  0
    1.4992   52.5904   29.0500 C   0  0  0  0  0  0
    2.1805   53.0297   27.8855 C   0  0  0  0  0  0
    1.5375   53.1100   26.6271 C   0  0  0  0  0  0
    2.2444   53.4929   25.4780 C   0  0  0  0  0  0
    3.5747   53.9031   25.6026 C   0  0  0  0  0  0
    4.2322   53.8527   26.8268 C   0  0  0  0  0  0
    3.5574   53.3906   27.9804 C   0  0  0  0  0  0
    4.2154   53.2741   29.2263 C   0  0  0  0  0  0
    1.5856   53.5193   24.1178 C   0  0  0  0  0  0
    1.7712   54.4948   23.3923 O   0  0  0  0  0  0
    0.8155   52.4721   23.7256 N   0  0  0  0  0  0
    0.1543   52.4606   22.4107 C   0  0  0  0  0  0
   -0.0316   50.9581   22.1004 C   0  0  2  0  0  0
   -0.9296   50.8580   21.4880 H   0  0  0  0  0  0
   -0.2037   50.3231   23.5123 C   0  0  0  0  0  0
    0.8004   51.1418   24.3509 C   0  0  0  0  0  0
   -1.6724   50.5521   23.9990 C   0  0  0  0  0  0
   -1.8759   50.1758   25.4834 C   0  0  0  0  0  0
   -1.4739   48.6981   25.6817 N   0  3  0  0  0  0
   -0.1172   48.2959   25.0615 C   0  0  0  0  0  0
   -0.0418   48.7851   23.6028 C   0  0  0  0  0  0
    1.1971   50.4888   21.2700 C   0  0  0  0  0  0
    2.2235   50.0745   21.8082 O   0  0  0  0  0  0
    1.0285   50.5142   19.9366 N   0  0  0  0  0  0
    2.0626   50.2850   18.9283 C   0  0  0  0  0  0
    2.2059   51.5508   18.1138 C   0  0  0  0  0  0
    1.6910   51.8631   16.8562 C   0  0  0  0  0  0
    1.9902   53.1562   16.4167 C   0  0  0  0  0  0
    2.7841   53.8720   17.3093 C   0  0  0  0  0  0
    3.1247   52.9024   18.7180 S   0  0  0  0  0  0
    3.3129   55.2650   17.2056 C   0  0  0  0  0  0
    4.5263   55.6546   17.7868 C   0  0  0  0  0  0
    4.9725   56.9641   17.5988 C   0  0  0  0  0  0
    4.2005   57.8547   16.8480 C   0  0  0  0  0  0
    3.0011   57.3965   16.3015 C   0  0  0  0  0  0
    2.5588   56.1226   16.4620 N   0  0  0  0  0  0
    4.0443   52.7259   31.2917 H   0  0  0  0  0  0
    1.6446   52.1516   31.1422 H   0  0  0  0  0  0
    0.4536   52.3228   28.9876 H   0  0  0  0  0  0
    0.4868   52.8629   26.5758 H   0  0  0  0  0  0
    4.1219   54.2382   24.7320 H   0  0  0  0  0  0
    5.2699   54.1436   26.8946 H   0  0  0  0  0  0
    5.2630   53.5291   29.2830 H   0  0  0  0  0  0
    0.7064   52.9597   21.6077 H   0  0  0  0  0  0
   -0.8430   52.8924   22.4895 H   0  0  0  0  0  0
    0.6385   51.0911   25.4238 H   0  0  0  0  0  0
    1.7921   50.7101   24.2054 H   0  0  0  0  0  0
   -1.9290   51.6100   23.9288 H   0  0  0  0  0  0
   -2.3916   50.0464   23.3520 H   0  0  0  0  0  0
   -1.2717   50.7578   26.1810 H   0  0  0  0  0  0
   -2.9183   50.2523   25.7985 H   0  0  0  0  0  0
   -1.4540   48.4989   26.6905 H   0  0  0  0  0  0
    0.6644   48.7062   25.7045 H   0  0  0  0  0  0
   -0.0945   47.2125   25.1226 H   0  0  0  0  0  0
   -0.7505   48.2633   22.9591 H   0  0  0  0  0  0
    0.9461   48.4962   23.2477 H   0  0  0  0  0  0
    0.1445   50.8417   19.5750 H   0  0  0  0  0  0
    1.7709   49.4456   18.2939 H   0  0  0  0  0  0
    3.0254   50.0154   19.3689 H   0  0  0  0  0  0
    1.0994   51.1698   16.2742 H   0  0  0  0  0  0
    1.6547   53.5569   15.4680 H   0  0  0  0  0  0
    5.1227   54.9575   18.3570 H   0  0  0  0  0  0
    5.9093   57.2882   18.0265 H   0  0  0  0  0  0
    4.5232   58.8763   16.6909 H   0  0  0  0  0  0
    2.3784   58.0552   15.7106 H   0  0  0  0  0  0
   -2.1992   48.1033   25.3075 H   0  0  0  0  0  0
  1 10  2  0  0  0
  1  2  1  0  0  0
  1 39  1  0  0  0
  2  3  2  0  0  0
  2 40  1  0  0  0
  3  4  1  0  0  0
  3 41  1  0  0  0
  4  9  2  0  0  0
  4  5  1  0  0  0
  5  6  2  0  0  0
  5 42  1  0  0  0
  6  7  1  0  0  0
  6 11  1  0  0  0
  7  8  2  0  0  0
  7 43  1  0  0  0
  8  9  1  0  0  0
  8 44  1  0  0  0
  9 10  1  0  0  0
 10 45  1  0  0  0
 11 12  2  0  0  0
 11 13  1  0  0  0
 13 18  1  0  0  0
 13 14  1  0  0  0
 14 15  1  0  0  0
 14 46  1  0  0  0
 14 47  1  0  0  0
 15 16  1  0  0  0
 15 17  1  0  0  0
 15 24  1  0  0  0
 17 23  1  0  0  0
 17 18  1  0  0  0
 17 19  1  0  0  0
 18 48  1  0  0  0
 18 49  1  0  0  0
 19 20  1  0  0  0
 19 50  1  0  0  0
 19 51  1  0  0  0
 20 21  1  0  0  0
 20 52  1  0  0  0
 20 53  1  0  0  0
 21 22  1  0  0  0
 21 54  1  0  0  0
 21 68  1  0  0  0
 22 23  1  0  0  0
 22 55  1  0  0  0
 22 56  1  0  0  0
 23 57  1  0  0  0
 23 58  1  0  0  0
 24 25  2  0  0  0
 24 26  1  0  0  0
 26 27  1  0  0  0
 26 59  1  0  0  0
 27 28  1  0  0  0
 27 60  1  0  0  0
 27 61  1  0  0  0
 28 32  1  0  0  0
 28 29  2  0  0  0
 29 30  1  0  0  0
 29 62  1  0  0  0
 30 31  2  0  0  0
 30 63  1  0  0  0
 31 32  1  0  0  0
 31 33  1  0  0  0
 33 38  2  0  0  0
 33 34  1  0  0  0
 34 35  2  0  0  0
 34 64  1  0  0  0
 35 36  1  0  0  0
 35 65  1  0  0  0
 36 37  2  0  0  0
 36 66  1  0  0  0
 37 38  1  0  0  0
 37 67  1  0  0  0
M  CHG  1  21   1
M  END
> <i_i_glide_confnum>
221

> <i_i_glide_lignum>
5460

> <i_i_glide_posenum>
109

> <i_i_glide_rotatable_bonds>
7

> <i_m_Source_File_Index>
3025

> <b_m_subgroup_collapsed>
0

> <r_i_docking_score>
-5.18042

> <r_i_glide_ecoul>
-4.88572

> <r_i_glide_eff_state_penalty>
0

> <r_i_glide_einternal>
6.07441

> <r_i_glide_emodel>
-60.7564

> <r_i_glide_energy>
-47.1686

> <r_i_glide_erotb>
0.547992

> <r_i_glide_esite>
-0.111263

> <r_i_glide_evdw>
-42.2829

> <r_i_glide_gscore>
-5.18042

> <r_i_glide_hbond>
-0.2

> <r_i_glide_ligand_efficiency>
-0.140011

> <r_i_glide_ligand_efficiency_ln>
-1.12351

> <r_i_glide_ligand_efficiency_sa>
-0.466549

> <r_i_glide_lipo>
-2.01916

> <r_i_glide_metal>
0

> <r_i_glide_rewards>
-0.550993

> <s_i_glide_gridfile>
wee1_glide-grid

> <s_m_Source_File>
wee1_decoys_glide_SP.sdf

> <s_m_Source_Path>
/Users/zhangxujun/Desktop

> <s_m_entry_id>
3300

> <s_m_entry_name>
wee1_decoys_glide_SP.3025

> <s_m_subgroup_title>
wee1_decoys_glide_SP

> <s_m_subgroupid>
wee1_decoys_glide_SP


$$$$
