ZINC27825402_1829
                    3D
 Schrodinger Suite 2024-2.
 32 34  0  0  1  0            999 V2000
    6.3064   54.6888   27.5660 C   0  0  0  0  0  0
    5.6523   54.5384   26.2066 C   0  0  0  0  0  0
    6.4362   54.2692   25.0869 C   0  0  0  0  0  0
    5.8424   54.0967   23.8417 C   0  0  0  0  0  0
    4.4529   54.2031   23.6992 C   0  0  0  0  0  0
    3.6766   54.4967   24.8272 C   0  0  0  0  0  0
    4.2693   54.6508   26.0769 C   0  0  0  0  0  0
    3.7621   54.0211   22.3370 C   0  0  2  0  0  0
    3.1201   54.8974   22.2392 H   0  0  0  0  0  0
    2.8897   52.7657   22.2684 C   0  0  0  0  0  0
    3.0136   51.7832   21.2815 C   0  0  0  0  0  0
    2.2249   50.7316   21.3949 N   0  0  0  0  0  0
    1.4426   50.8292   22.4372 C   0  0  0  0  0  0
    0.5396   49.8807   22.8180 N   0  0  0  0  0  0
    1.6213   52.2832   23.3632 S   0  0  0  0  0  0
    3.9070   51.8655   20.2423 O   0  0  0  0  0  0
    4.6607   52.9980   20.1850 C   0  0  0  0  0  0
    4.6717   54.0109   21.0871 C   0  0  0  0  0  0
    5.5550   55.1183   20.8838 C   0  0  0  0  0  0
    6.3045   55.9913   20.7470 N   0  0  0  0  0  0
    5.4321   52.8967   19.0608 N   0  0  0  0  0  0
    7.1279   53.9801   27.6796 H   0  0  0  0  0  0
    6.7036   55.6963   27.6814 H   0  0  0  0  0  0
    5.6039   54.4884   28.3760 H   0  0  0  0  0  0
    7.5043   54.1760   25.1754 H   0  0  0  0  0  0
    6.4778   53.8661   23.0002 H   0  0  0  0  0  0
    2.6059   54.6005   24.7379 H   0  0  0  0  0  0
    3.6535   54.8635   26.9382 H   0  0  0  0  0  0
    0.4251   49.0320   22.2847 H   0  0  0  0  0  0
    6.0034   53.6569   18.7254 H   0  0  0  0  0  0
    5.5045   51.9869   18.5937 H   0  0  0  0  0  0
    0.0732   49.9196   23.7135 H   0  0  0  0  0  0
  1  2  1  0  0  0
  1 22  1  0  0  0
  1 23  1  0  0  0
  1 24  1  0  0  0
  2  7  2  0  0  0
  2  3  1  0  0  0
  3  4  2  0  0  0
  3 25  1  0  0  0
  4  5  1  0  0  0
  4 26  1  0  0  0
  5  6  2  0  0  0
  5  8  1  0  0  0
  6  7  1  0  0  0
  6 27  1  0  0  0
  7 28  1  0  0  0
  8  9  1  0  0  0
  8 18  1  0  0  0
  8 10  1  0  0  0
 10 15  1  0  0  0
 10 11  2  0  0  0
 11 12  1  0  0  0
 11 16  1  0  0  0
 12 13  2  0  0  0
 13 14  1  0  0  0
 13 15  1  0  0  0
 14 29  1  0  0  0
 14 32  1  0  0  0
 16 17  1  0  0  0
 17 18  2  0  0  0
 17 21  1  0  0  0
 18 19  1  0  0  0
 19 20  3  0  0  0
 21 30  1  0  0  0
 21 31  1  0  0  0
M  END
> <i_i_glide_confnum>
1

> <i_i_glide_lignum>
1830

> <i_i_glide_posenum>
95

> <i_i_glide_rotatable_bonds>
2

> <i_m_Source_File_Index>
3727

> <b_m_subgroup_collapsed>
0

> <r_i_docking_score>
-6.30303

> <r_i_glide_ecoul>
-3.75724

> <r_i_glide_eff_state_penalty>
0

> <r_i_glide_einternal>
4.21776

> <r_i_glide_emodel>
-45.7262

> <r_i_glide_energy>
-34.5276

> <r_i_glide_erotb>
0.224192

> <r_i_glide_esite>
-0.1

> <r_i_glide_evdw>
-30.7703

> <r_i_glide_gscore>
-6.30303

> <r_i_glide_hbond>
-0.16

> <r_i_glide_ligand_efficiency>
-0.315152

> <r_i_glide_ligand_efficiency_ln>
-1.57744

> <r_i_glide_ligand_efficiency_sa>
-0.855453

> <r_i_glide_lipo>
-2.41838

> <r_i_glide_metal>
0

> <r_i_glide_rewards>
-1.74674

> <s_i_glide_gridfile>
wee1_glide-grid

> <s_m_Source_File>
wee1_decoys_glide_SP.sdf

> <s_m_Source_Path>
/Users/zhangxujun/Desktop

> <s_m_entry_id>
4002

> <s_m_entry_name>
wee1_decoys_glide_SP.3727

> <s_m_subgroup_title>
wee1_decoys_glide_SP

> <s_m_subgroupid>
wee1_decoys_glide_SP


$$$$
