ZINC24537987_728
                    3D
 Schrodinger Suite 2024-2.
 60 63  0  0  1  0            999 V2000
   -3.4967   46.7908   21.5878 C   0  0  0  0  0  0
   -2.5944   47.0411   22.6264 C   0  0  0  0  0  0
   -3.0247   47.9828   23.5658 C   0  0  0  0  0  0
   -4.5989   48.5786   23.0857 S   0  0  0  0  0  0
   -4.6482   47.5477   21.6972 C   0  0  0  0  0  0
   -2.2787   48.5028   24.7901 C   0  0  1  0  0  0
   -1.2224   48.2401   24.7017 H   0  0  0  0  0  0
   -2.3804   50.0335   24.9972 C   0  0  0  0  0  0
   -1.6747   50.4965   26.1922 N   0  0  0  0  0  0
   -0.3981   50.9059   26.2269 C   0  0  0  0  0  0
    0.3180   50.9336   25.2231 O   0  0  0  0  0  0
    0.1234   51.3937   27.5939 C   0  0  0  0  0  0
    1.6451   51.1511   27.7358 C   0  0  0  0  0  0
    2.1470   51.7527   29.0621 C   0  0  0  0  0  0
    1.8030   53.1830   29.1019 N   0  0  0  0  0  0
    0.3708   53.5236   28.9721 C   0  0  0  0  0  0
   -0.2038   52.8974   27.6873 C   0  0  0  0  0  0
    3.0626   54.4056   29.2814 S   0  0  0  0  0  0
    2.4367   55.7305   29.2814 O   0  0  0  0  0  0
    3.9044   53.9781   30.4015 O   0  0  0  0  0  0
    4.0863   54.3158   27.8173 C   0  0  0  0  0  0
    3.5041   54.2205   26.5525 C   0  0  0  0  0  0
    4.3127   54.1817   25.4206 C   0  0  0  0  0  0
    5.7009   54.2316   25.5549 C   0  0  0  0  0  0
    6.2824   54.3283   26.8180 C   0  0  0  0  0  0
    5.4760   54.3763   27.9489 C   0  0  0  0  0  0
    6.7053   54.1598   24.1537 Cl  0  0  0  0  0  0
   -2.7059   47.7580   26.0817 N   0  3  0  0  0  0
   -4.1416   47.9528   26.6000 C   0  0  0  0  0  0
   -4.2923   46.8761   27.6734 C   0  0  0  0  0  0
   -3.2438   45.8033   27.3618 C   0  0  0  0  0  0
   -2.4963   46.2408   26.1055 C   0  0  0  0  0  0
   -3.3091   46.0944   20.7824 H   0  0  0  0  0  0
   -1.6363   46.5478   22.6944 H   0  0  0  0  0  0
   -5.5014   47.5613   21.0355 H   0  0  0  0  0  0
   -1.9934   50.5428   24.1112 H   0  0  0  0  0  0
   -3.4233   50.3447   25.0746 H   0  0  0  0  0  0
   -2.1567   50.4057   27.0762 H   0  0  0  0  0  0
   -0.4415   50.8419   28.3501 H   0  0  0  0  0  0
    1.9046   50.0967   27.7153 H   0  0  0  0  0  0
    2.1888   51.7006   26.9679 H   0  0  0  0  0  0
    1.6951   51.2956   29.9394 H   0  0  0  0  0  0
    3.2301   51.6468   29.1514 H   0  0  0  0  0  0
   -0.1503   53.1660   29.8626 H   0  0  0  0  0  0
    0.2666   54.6052   28.9595 H   0  0  0  0  0  0
    0.3254   53.3931   26.8816 H   0  0  0  0  0  0
   -1.2752   53.0877   27.6552 H   0  0  0  0  0  0
    2.4310   54.1621   26.4468 H   0  0  0  0  0  0
    3.8656   54.1033   24.4411 H   0  0  0  0  0  0
    7.3553   54.3629   26.9292 H   0  0  0  0  0  0
    5.9353   54.4621   28.9220 H   0  0  0  0  0  0
   -4.2484   48.9749   26.9603 H   0  0  0  0  0  0
   -4.8068   47.7957   25.7538 H   0  0  0  0  0  0
   -4.1168   47.3092   28.6602 H   0  0  0  0  0  0
   -5.3031   46.4651   27.6729 H   0  0  0  0  0  0
   -3.7113   44.8311   27.2226 H   0  0  0  0  0  0
   -2.5430   45.7047   28.1940 H   0  0  0  0  0  0
   -2.9423   45.8626   25.1864 H   0  0  0  0  0  0
   -1.4217   46.0567   26.1035 H   0  0  0  0  0  0
   -2.0960   48.1194   26.8213 H   0  0  0  0  0  0
  1  5  2  0  0  0
  1  2  1  0  0  0
  1 33  1  0  0  0
  2  3  2  0  0  0
  2 34  1  0  0  0
  3  4  1  0  0  0
  3  6  1  0  0  0
  4  5  1  0  0  0
  5 35  1  0  0  0
  6  7  1  0  0  0
  6  8  1  0  0  0
  6 28  1  0  0  0
  8  9  1  0  0  0
  8 36  1  0  0  0
  8 37  1  0  0  0
  9 10  1  0  0  0
  9 38  1  0  0  0
 10 11  2  0  0  0
 10 12  1  0  0  0
 12 17  1  0  0  0
 12 13  1  0  0  0
 12 39  1  0  0  0
 13 14  1  0  0  0
 13 40  1  0  0  0
 13 41  1  0  0  0
 14 15  1  0  0  0
 14 42  1  0  0  0
 14 43  1  0  0  0
 15 16  1  0  0  0
 15 18  1  0  0  0
 16 17  1  0  0  0
 16 44  1  0  0  0
 16 45  1  0  0  0
 17 46  1  0  0  0
 17 47  1  0  0  0
 18 19  2  0  0  0
 18 20  2  0  0  0
 18 21  1  0  0  0
 21 26  2  0  0  0
 21 22  1  0  0  0
 22 23  2  0  0  0
 22 48  1  0  0  0
 23 24  1  0  0  0
 23 49  1  0  0  0
 24 25  2  0  0  0
 24 27  1  0  0  0
 25 26  1  0  0  0
 25 50  1  0  0  0
 26 51  1  0  0  0
 28 32  1  0  0  0
 28 29  1  0  0  0
 28 60  1  0  0  0
 29 30  1  0  0  0
 29 52  1  0  0  0
 29 53  1  0  0  0
 30 31  1  0  0  0
 30 54  1  0  0  0
 30 55  1  0  0  0
 31 32  1  0  0  0
 31 56  1  0  0  0
 31 57  1  0  0  0
 32 58  1  0  0  0
 32 59  1  0  0  0
M  CHG  1  28   1
M  END
> <i_i_glide_confnum>
13

> <i_i_glide_lignum>
729

> <i_i_glide_posenum>
354

> <i_i_glide_rotatable_bonds>
8

> <i_m_Source_File_Index>
2484

> <b_m_subgroup_collapsed>
0

> <r_i_docking_score>
-4.65422

> <r_i_glide_ecoul>
-4.6008

> <r_i_glide_eff_state_penalty>
0

> <r_i_glide_einternal>
5.64749

> <r_i_glide_emodel>
-50.9821

> <r_i_glide_energy>
-41.2933

> <r_i_glide_erotb>
0.695869

> <r_i_glide_esite>
-0.253617

> <r_i_glide_evdw>
-36.6925

> <r_i_glide_gscore>
-4.65422

> <r_i_glide_hbond>
-0.2

> <r_i_glide_ligand_efficiency>
-0.150136

> <r_i_glide_ligand_efficiency_ln>
-1.04967

> <r_i_glide_ligand_efficiency_sa>
-0.471635

> <r_i_glide_lipo>
-2.45978

> <r_i_glide_metal>
0

> <r_i_glide_rewards>
0.0880578

> <s_i_glide_gridfile>
wee1_glide-grid

> <s_m_Source_File>
wee1_decoys_glide_SP.sdf

> <s_m_Source_Path>
/Users/zhangxujun/Desktop

> <s_m_entry_id>
2759

> <s_m_entry_name>
wee1_decoys_glide_SP.2484

> <s_m_subgroup_title>
wee1_decoys_glide_SP

> <s_m_subgroupid>
wee1_decoys_glide_SP


$$$$
