ZINC40400550_5970
                    3D
 Schrodinger Suite 2024-2.
 55 58  0  0  1  0            999 V2000
    0.5341   54.0649   29.4407 C   0  0  0  0  0  0
    1.2148   52.7664   28.9829 C   0  0  0  0  0  0
    1.1362   52.5819   27.5706 O   0  0  0  0  0  0
    1.9366   53.2550   26.7073 C   0  0  0  0  0  0
    2.7540   54.0982   27.0846 O   0  0  0  0  0  0
    1.7701   52.8373   25.2897 C   0  0  0  0  0  0
    2.5269   53.3532   24.2678 C   0  0  0  0  0  0
    2.4684   52.8970   22.9826 N   0  0  0  0  0  0
    1.8997   51.7781   22.7660 C   0  0  0  0  0  0
    1.1744   51.0225   23.6829 N   0  0  0  0  0  0
    0.8107   51.6356   24.9943 C   0  0  2  0  0  0
    0.9918   50.8478   25.7296 H   0  0  0  0  0  0
   -0.6858   51.9808   25.0819 C   0  0  0  0  0  0
   -1.3362   52.6257   24.0212 C   0  0  0  0  0  0
   -2.7026   52.8977   24.0852 C   0  0  0  0  0  0
   -3.4305   52.5401   25.2188 C   0  0  0  0  0  0
   -2.7950   51.8986   26.2800 C   0  0  0  0  0  0
   -1.4333   51.6100   26.2085 C   0  0  0  0  0  0
   -3.5038   51.5569   27.3785 F   0  0  0  0  0  0
    0.6387   49.8456   23.1896 C   0  0  0  0  0  0
    0.8719   49.6972   21.8732 C   0  0  0  0  0  0
    1.8268   51.0013   21.1749 S   0  0  0  0  0  0
   -0.1844   48.9352   23.9691 C   0  0  0  0  0  0
   -1.3792   48.4485   23.5907 C   0  0  0  0  0  0
   -2.0329   48.6351   22.4977 O   0  5  0  0  0  0
   -2.0886   47.6409   24.4502 N   0  0  0  0  0  0
   -2.9861   46.5320   24.1265 C   0  0  0  0  0  0
   -3.8592   46.0978   25.3014 C   0  0  0  0  0  0
   -3.6243   46.4961   26.6252 C   0  0  0  0  0  0
   -4.4851   46.0459   27.6269 C   0  0  0  0  0  0
   -5.5536   45.2117   27.2903 C   0  0  0  0  0  0
   -5.7224   44.8543   25.9511 C   0  0  0  0  0  0
   -4.8944   45.2836   24.9636 N   0  0  0  0  0  0
    3.5436   54.4833   24.3546 C   0  0  0  0  0  0
    0.5279   54.1409   30.5276 H   0  0  0  0  0  0
    1.0452   54.9452   29.0498 H   0  0  0  0  0  0
   -0.4955   54.0959   29.0960 H   0  0  0  0  0  0
    0.7132   51.9178   29.4506 H   0  0  0  0  0  0
    2.2543   52.7348   29.3167 H   0  0  0  0  0  0
   -0.7842   52.8966   23.1341 H   0  0  0  0  0  0
   -3.1965   53.3872   23.2605 H   0  0  0  0  0  0
   -4.4867   52.7513   25.2746 H   0  0  0  0  0  0
   -0.9675   51.0846   27.0302 H   0  0  0  0  0  0
    0.5171   48.8877   21.2521 H   0  0  0  0  0  0
    0.1958   48.6506   24.9401 H   0  0  0  0  0  0
   -1.6425   47.4971   25.3452 H   0  0  0  0  0  0
   -2.3406   45.6973   23.8547 H   0  0  0  0  0  0
   -3.5962   46.7627   23.2487 H   0  0  0  0  0  0
   -2.8001   47.1455   26.8815 H   0  0  0  0  0  0
   -4.3160   46.3480   28.6510 H   0  0  0  0  0  0
   -6.2366   44.8510   28.0447 H   0  0  0  0  0  0
   -6.5386   44.2129   25.6512 H   0  0  0  0  0  0
    4.4617   54.1236   24.8178 H   0  0  0  0  0  0
    3.8017   54.8968   23.3774 H   0  0  0  0  0  0
    3.1405   55.2983   24.9480 H   0  0  0  0  0  0
  1  2  1  0  0  0
  1 35  1  0  0  0
  1 36  1  0  0  0
  1 37  1  0  0  0
  2  3  1  0  0  0
  2 38  1  0  0  0
  2 39  1  0  0  0
  3  4  1  0  0  0
  4  5  2  0  0  0
  4  6  1  0  0  0
  6 11  1  0  0  0
  6  7  2  0  0  0
  7  8  1  0  0  0
  7 34  1  0  0  0
  8  9  2  0  0  0
  9 22  1  0  0  0
  9 10  1  0  0  0
 10 11  1  0  0  0
 10 20  1  0  0  0
 11 12  1  0  0  0
 11 13  1  0  0  0
 13 18  2  0  0  0
 13 14  1  0  0  0
 14 15  2  0  0  0
 14 40  1  0  0  0
 15 16  1  0  0  0
 15 41  1  0  0  0
 16 17  2  0  0  0
 16 42  1  0  0  0
 17 18  1  0  0  0
 17 19  1  0  0  0
 18 43  1  0  0  0
 20 21  2  0  0  0
 20 23  1  0  0  0
 21 22  1  0  0  0
 21 44  1  0  0  0
 23 24  2  0  0  0
 23 45  1  0  0  0
 24 25  1  0  0  0
 24 26  1  0  0  0
 26 27  1  0  0  0
 26 46  1  0  0  0
 27 28  1  0  0  0
 27 47  1  0  0  0
 27 48  1  0  0  0
 28 33  2  0  0  0
 28 29  1  0  0  0
 29 30  2  0  0  0
 29 49  1  0  0  0
 30 31  1  0  0  0
 30 50  1  0  0  0
 31 32  2  0  0  0
 31 51  1  0  0  0
 32 33  1  0  0  0
 32 52  1  0  0  0
 34 53  1  0  0  0
 34 54  1  0  0  0
 34 55  1  0  0  0
M  CHG  1  25  -1
M  END
> <i_i_glide_confnum>
10

> <i_i_glide_lignum>
5971

> <i_i_glide_posenum>
339

> <i_i_glide_rotatable_bonds>
8

> <i_m_Source_File_Index>
4989

> <b_m_subgroup_collapsed>
0

> <r_i_docking_score>
-3.75732

> <r_i_glide_ecoul>
-0.505258

> <r_i_glide_eff_state_penalty>
0

> <r_i_glide_einternal>
3.78299

> <r_i_glide_emodel>
-47.3109

> <r_i_glide_energy>
-38.75

> <r_i_glide_erotb>
0.55838

> <r_i_glide_esite>
-0.0808258

> <r_i_glide_evdw>
-38.2447

> <r_i_glide_gscore>
-3.75732

> <r_i_glide_hbond>
-0.0702539

> <r_i_glide_ligand_efficiency>
-0.113858

> <r_i_glide_ligand_efficiency_ln>
-0.83561

> <r_i_glide_ligand_efficiency_sa>
-0.365204

> <r_i_glide_lipo>
-1.49899

> <r_i_glide_metal>
0

> <r_i_glide_rewards>
-0.677614

> <s_i_glide_gridfile>
wee1_glide-grid

> <s_m_Source_File>
wee1_decoys_glide_SP.sdf

> <s_m_Source_Path>
/Users/zhangxujun/Desktop

> <s_m_entry_id>
5264

> <s_m_entry_name>
wee1_decoys_glide_SP.4989

> <s_m_subgroup_title>
wee1_decoys_glide_SP

> <s_m_subgroupid>
wee1_decoys_glide_SP


$$$$
