ZINC02845130_5574
                    3D
 Schrodinger Suite 2024-2.
 52 54  0  0  1  0            999 V2000
    6.6614   54.0542   27.8519 C   0  0  0  0  0  0
    5.6922   54.0249   26.6864 C   0  0  0  0  0  0
    6.1762   54.1225   25.3789 C   0  0  0  0  0  0
    5.2881   54.0982   24.3067 C   0  0  0  0  0  0
    3.9140   53.9959   24.5398 C   0  0  0  0  0  0
    3.4297   53.8818   25.8458 C   0  0  0  0  0  0
    4.3195   53.9058   26.9181 C   0  0  0  0  0  0
    2.7695   54.0538   23.1612 S   0  0  0  0  0  0
    3.5045   54.7122   22.0784 O   0  0  0  0  0  0
    1.5191   54.6029   23.6891 O   0  0  0  0  0  0
    2.4475   52.3686   22.5997 N   0  0  0  0  0  0
    3.3864   51.7618   21.6599 C   0  0  0  0  0  0
    2.6938   51.1909   20.4162 C   0  0  0  0  0  0
    2.6616   49.9712   20.2544 O   0  0  0  0  0  0
    2.1076   52.0963   19.6074 N   0  0  0  0  0  0
    1.3715   51.8628   18.4355 C   0  0  0  0  0  0
    1.5520   50.7468   17.6058 C   0  0  0  0  0  0
    0.7822   50.6041   16.4528 C   0  0  0  0  0  0
   -0.1693   51.5692   16.1181 C   0  0  0  0  0  0
   -0.3525   52.6945   16.9329 C   0  0  0  0  0  0
    0.4307   52.8327   18.0836 C   0  0  0  0  0  0
   -1.3879   53.7658   16.5947 C   0  0  0  0  0  0
   -2.0917   54.0974   17.6810 F   0  0  0  0  0  0
   -2.2482   53.3556   15.6580 F   0  0  0  0  0  0
   -0.7645   54.8554   16.1422 F   0  0  0  0  0  0
    1.3853   51.6090   23.1534 C   0  0  0  0  0  0
    1.5744   50.2816   23.5577 C   0  0  0  0  0  0
    0.5211   49.5374   24.0902 C   0  0  0  0  0  0
   -0.7463   50.1034   24.2097 C   0  0  0  0  0  0
   -0.9797   51.4195   23.7840 C   0  0  0  0  0  0
    0.0939   52.1487   23.2513 C   0  0  0  0  0  0
   -2.3301   52.0252   23.8845 N   0  3  0  0  0  0
   -2.4550   53.2243   23.6470 O   0  0  0  0  0  0
   -3.2752   51.3059   24.1951 O   0  5  0  0  0  0
    7.5053   54.7103   27.6348 H   0  0  0  0  0  0
    6.1884   54.4471   28.7541 H   0  0  0  0  0  0
    7.0432   53.0527   28.0567 H   0  0  0  0  0  0
    7.2347   54.2098   25.1893 H   0  0  0  0  0  0
    5.6721   54.1806   23.2993 H   0  0  0  0  0  0
    2.3701   53.7945   26.0327 H   0  0  0  0  0  0
    3.9426   53.8286   27.9273 H   0  0  0  0  0  0
    4.0258   50.9913   22.0816 H   0  0  0  0  0  0
    4.1287   52.4703   21.2931 H   0  0  0  0  0  0
    2.1509   53.0639   19.9041 H   0  0  0  0  0  0
    2.3038   50.0017   17.8200 H   0  0  0  0  0  0
    0.9355   49.7467   15.8133 H   0  0  0  0  0  0
   -0.7528   51.4404   15.2165 H   0  0  0  0  0  0
    0.3052   53.6971   18.7158 H   0  0  0  0  0  0
    2.5429   49.8118   23.4754 H   0  0  0  0  0  0
    0.6900   48.5180   24.4124 H   0  0  0  0  0  0
   -1.5455   49.5112   24.6365 H   0  0  0  0  0  0
   -0.0920   53.1421   22.8839 H   0  0  0  0  0  0
  1  2  1  0  0  0
  1 35  1  0  0  0
  1 36  1  0  0  0
  1 37  1  0  0  0
  2  7  2  0  0  0
  2  3  1  0  0  0
  3  4  2  0  0  0
  3 38  1  0  0  0
  4  5  1  0  0  0
  4 39  1  0  0  0
  5  6  2  0  0  0
  5  8  1  0  0  0
  6  7  1  0  0  0
  6 40  1  0  0  0
  7 41  1  0  0  0
  8  9  2  0  0  0
  8 10  2  0  0  0
  8 11  1  0  0  0
 11 12  1  0  0  0
 11 26  1  0  0  0
 12 13  1  0  0  0
 12 42  1  0  0  0
 12 43  1  0  0  0
 13 14  2  0  0  0
 13 15  1  0  0  0
 15 16  1  0  0  0
 15 44  1  0  0  0
 16 21  2  0  0  0
 16 17  1  0  0  0
 17 18  2  0  0  0
 17 45  1  0  0  0
 18 19  1  0  0  0
 18 46  1  0  0  0
 19 20  2  0  0  0
 19 47  1  0  0  0
 20 21  1  0  0  0
 20 22  1  0  0  0
 21 48  1  0  0  0
 22 23  1  0  0  0
 22 24  1  0  0  0
 22 25  1  0  0  0
 26 31  2  0  0  0
 26 27  1  0  0  0
 27 28  2  0  0  0
 27 49  1  0  0  0
 28 29  1  0  0  0
 28 50  1  0  0  0
 29 30  2  0  0  0
 29 51  1  0  0  0
 30 31  1  0  0  0
 30 32  1  0  0  0
 31 52  1  0  0  0
 32 33  2  0  0  0
 32 34  1  0  0  0
M  CHG  2  32   1  34  -1
M  END
> <i_i_glide_confnum>
37

> <i_i_glide_lignum>
5575

> <i_i_glide_posenum>
292

> <i_i_glide_rotatable_bonds>
9

> <i_m_Source_File_Index>
3876

> <b_m_subgroup_collapsed>
0

> <r_i_docking_score>
-4.54632

> <r_i_glide_ecoul>
-3.4201

> <r_i_glide_eff_state_penalty>
0

> <r_i_glide_einternal>
6.91163

> <r_i_glide_emodel>
-50.4147

> <r_i_glide_energy>
-41.8598

> <r_i_glide_erotb>
0.585634

> <r_i_glide_esite>
-0.0960146

> <r_i_glide_evdw>
-38.4397

> <r_i_glide_gscore>
-4.54632

> <r_i_glide_hbond>
-0.099378

> <r_i_glide_ligand_efficiency>
-0.133715

> <r_i_glide_ligand_efficiency_ln>
-1.00441

> <r_i_glide_ligand_efficiency_sa>
-0.433186

> <r_i_glide_lipo>
-2.17615

> <r_i_glide_metal>
0

> <r_i_glide_rewards>
-0.325409

> <s_i_glide_gridfile>
wee1_glide-grid

> <s_m_Source_File>
wee1_decoys_glide_SP.sdf

> <s_m_Source_Path>
/Users/zhangxujun/Desktop

> <s_m_entry_id>
4151

> <s_m_entry_name>
wee1_decoys_glide_SP.3876

> <s_m_subgroup_title>
wee1_decoys_glide_SP

> <s_m_subgroupid>
wee1_decoys_glide_SP


$$$$
