ZINC10585519_2655
                    3D
 Schrodinger Suite 2024-2.
 45 48  0  0  1  0            999 V2000
    4.6562   54.0249   28.4709 C   0  0  0  0  0  0
    5.7749   54.4963   27.7824 C   0  0  0  0  0  0
    5.7349   54.6083   26.3959 C   0  0  0  0  0  0
    4.5840   54.2168   25.6955 C   0  0  0  0  0  0
    3.4705   53.7508   26.3828 C   0  0  0  0  0  0
    3.4899   53.6356   27.7828 C   0  0  0  0  0  0
    2.3311   53.1363   28.4350 N   0  0  0  0  0  0
    1.0369   52.9989   27.7527 C   0  0  0  0  0  0
   -0.0074   52.5979   28.7840 C   0  0  2  0  0  0
   -0.5091   53.4657   29.2163 H   0  0  0  0  0  0
    0.8915   51.9746   29.8223 C   0  0  0  0  0  0
    2.2918   52.5391   29.6562 C   0  0  0  0  0  0
    3.1853   52.3983   30.4902 O   0  0  0  0  0  0
   -0.9101   51.5564   28.2597 N   0  0  0  0  0  0
   -1.6735   51.6492   27.1590 C   0  0  0  0  0  0
   -1.7503   52.6703   26.4791 O   0  0  0  0  0  0
   -2.3219   50.5010   26.8819 N   0  0  0  0  0  0
   -3.1573   50.3125   25.7713 C   0  0  0  0  0  0
   -2.8203   49.2755   24.8976 C   0  0  0  0  0  0
   -3.5785   49.0414   23.7521 C   0  0  0  0  0  0
   -4.7025   49.8235   23.4889 C   0  0  0  0  0  0
   -5.0812   50.8265   24.3829 C   0  0  0  0  0  0
   -4.3234   51.0730   25.5307 C   0  0  0  0  0  0
   -4.8909   52.2899   26.6271 Cl  0  0  0  0  0  0
   -5.6380   49.5423   22.0670 Cl  0  0  0  0  0  0
    4.4728   54.3331   24.3252 O   0  0  0  0  0  0
    5.7269   54.4943   23.6572 C   0  0  0  0  0  0
    6.5917   55.5239   24.4189 C   0  0  0  0  0  0
    6.8636   55.0674   25.7478 O   0  0  0  0  0  0
    4.7161   53.9818   29.5455 H   0  0  0  0  0  0
    6.6642   54.7856   28.3220 H   0  0  0  0  0  0
    2.6074   53.4727   25.8005 H   0  0  0  0  0  0
    1.1348   52.2414   26.9729 H   0  0  0  0  0  0
    0.7473   53.9293   27.2774 H   0  0  0  0  0  0
    0.5216   52.1413   30.8342 H   0  0  0  0  0  0
    0.9793   50.8991   29.6808 H   0  0  0  0  0  0
   -1.1121   50.7832   28.8838 H   0  0  0  0  0  0
   -2.0135   49.6551   27.3619 H   0  0  0  0  0  0
   -1.9453   48.6673   25.0907 H   0  0  0  0  0  0
   -3.2933   48.2550   23.0670 H   0  0  0  0  0  0
   -5.9676   51.4104   24.1867 H   0  0  0  0  0  0
    5.5552   54.8125   22.6281 H   0  0  0  0  0  0
    6.2466   53.5371   23.6271 H   0  0  0  0  0  0
    6.0487   56.4684   24.4839 H   0  0  0  0  0  0
    7.5045   55.7217   23.8735 H   0  0  0  0  0  0
  1  6  2  0  0  0
  1  2  1  0  0  0
  1 30  1  0  0  0
  2  3  2  0  0  0
  2 31  1  0  0  0
  3 29  1  0  0  0
  3  4  1  0  0  0
  4  5  2  0  0  0
  4 26  1  0  0  0
  5  6  1  0  0  0
  5 32  1  0  0  0
  6  7  1  0  0  0
  7 12  1  0  0  0
  7  8  1  0  0  0
  8  9  1  0  0  0
  8 33  1  0  0  0
  8 34  1  0  0  0
  9 10  1  0  0  0
  9 11  1  0  0  0
  9 14  1  0  0  0
 11 12  1  0  0  0
 11 35  1  0  0  0
 11 36  1  0  0  0
 12 13  2  0  0  0
 14 15  1  0  0  0
 14 37  1  0  0  0
 15 16  2  0  0  0
 15 17  1  0  0  0
 17 18  1  0  0  0
 17 38  1  0  0  0
 18 23  2  0  0  0
 18 19  1  0  0  0
 19 20  2  0  0  0
 19 39  1  0  0  0
 20 21  1  0  0  0
 20 40  1  0  0  0
 21 22  2  0  0  0
 21 25  1  0  0  0
 22 23  1  0  0  0
 22 41  1  0  0  0
 23 24  1  0  0  0
 26 27  1  0  0  0
 27 28  1  0  0  0
 27 42  1  0  0  0
 27 43  1  0  0  0
 28 29  1  0  0  0
 28 44  1  0  0  0
 28 45  1  0  0  0
M  END
> <i_i_glide_confnum>
4

> <i_i_glide_lignum>
2656

> <i_i_glide_posenum>
198

> <i_i_glide_rotatable_bonds>
5

> <i_m_Source_File_Index>
2989

> <b_m_subgroup_collapsed>
0

> <r_i_docking_score>
-7.38848

> <r_i_glide_ecoul>
-9.06067

> <r_i_glide_eff_state_penalty>
0

> <r_i_glide_einternal>
7.88666

> <r_i_glide_emodel>
-64.3974

> <r_i_glide_energy>
-45.558

> <r_i_glide_erotb>
0.444382

> <r_i_glide_esite>
-0.231466

> <r_i_glide_evdw>
-36.4974

> <r_i_glide_gscore>
-7.38848

> <r_i_glide_hbond>
-0.55324

> <r_i_glide_ligand_efficiency>
-0.263874

> <r_i_glide_ligand_efficiency_ln>
-1.70548

> <r_i_glide_ligand_efficiency_sa>
-0.801277

> <r_i_glide_lipo>
-2.29732

> <r_i_glide_metal>
0

> <r_i_glide_rewards>
-1.56687

> <s_i_glide_gridfile>
wee1_glide-grid

> <s_m_Source_File>
wee1_decoys_glide_SP.sdf

> <s_m_Source_Path>
/Users/zhangxujun/Desktop

> <s_m_entry_id>
3264

> <s_m_entry_name>
wee1_decoys_glide_SP.2989

> <s_m_subgroup_title>
wee1_decoys_glide_SP

> <s_m_subgroupid>
wee1_decoys_glide_SP


$$$$
