ZINC36039468_273
                    3D
 Schrodinger Suite 2024-2.
 56 59  0  0  1  0            999 V2000
    0.2222   53.8607   32.3500 C   0  0  0  0  0  0
    0.5848   53.7610   30.8806 C   0  0  0  0  0  0
    0.4356   52.5444   30.2202 C   0  0  0  0  0  0
    0.8373   52.4226   28.8933 C   0  0  0  0  0  0
    1.3821   53.5177   28.2056 C   0  0  0  0  0  0
    1.5049   54.7424   28.8789 C   0  0  0  0  0  0
    1.1047   54.8652   30.2066 C   0  0  0  0  0  0
    1.8104   53.4059   26.8661 N   0  0  0  0  0  0
    2.9949   53.9786   26.4006 C   0  0  0  0  0  0
    3.1209   53.7082   25.0943 C   0  0  0  0  0  0
    2.0450   52.9181   24.7194 N   0  0  0  0  0  0
    1.1666   52.6787   25.8126 C   0  0  0  0  0  0
    0.0712   52.0107   25.8803 N   0  0  0  0  0  0
   -0.4148   51.2798   24.8044 C   0  0  0  0  0  0
   -0.3520   51.6371   23.6254 O   0  0  0  0  0  0
   -1.0840   49.9445   25.1824 C   0  0  0  0  0  0
   -1.9127   50.0967   26.4817 N   0  3  0  0  0  0
   -3.4435   50.1240   26.3116 C   0  0  0  0  0  0
   -3.9108   51.3770   25.5406 C   0  0  1  0  0  0
   -3.5824   51.2903   24.5010 H   0  0  0  0  0  0
   -5.4086   51.6578   25.6403 C   0  0  0  0  0  0
   -5.5260   53.1614   25.4986 C   0  0  0  0  0  0
   -4.1056   53.6790   25.7227 C   0  0  0  0  0  0
   -3.3378   52.5437   26.1220 O   0  0  0  0  0  0
    4.2321   54.0967   24.1894 C   0  0  0  0  0  0
    4.0492   54.0962   22.7999 C   0  0  0  0  0  0
    5.0929   54.4543   21.9498 C   0  0  0  0  0  0
    6.3258   54.8237   22.4826 C   0  0  0  0  0  0
    6.5282   54.8281   23.8600 C   0  0  0  0  0  0
    5.4811   54.4754   24.7086 C   0  0  0  0  0  0
    7.6077   55.2988   21.4284 Cl  0  0  0  0  0  0
    0.5579   52.9698   32.8825 H   0  0  0  0  0  0
    0.6982   54.7149   32.8278 H   0  0  0  0  0  0
   -0.8548   53.9301   32.4798 H   0  0  0  0  0  0
    0.0168   51.6972   30.7398 H   0  0  0  0  0  0
    0.7336   51.4621   28.4105 H   0  0  0  0  0  0
    1.9080   55.6093   28.3764 H   0  0  0  0  0  0
    1.2135   55.8155   30.7124 H   0  0  0  0  0  0
    3.6526   54.5267   27.0598 H   0  0  0  0  0  0
   -0.3220   49.1976   25.4125 H   0  0  0  0  0  0
   -1.7557   49.5960   24.3981 H   0  0  0  0  0  0
   -1.6371   50.9656   26.9238 H   0  0  0  0  0  0
   -3.8162   50.1100   27.3369 H   0  0  0  0  0  0
   -3.7143   49.1859   25.8256 H   0  0  0  0  0  0
   -5.7772   51.3451   26.6188 H   0  0  0  0  0  0
   -5.9887   51.0792   24.9203 H   0  0  0  0  0  0
   -6.2268   53.5750   26.2251 H   0  0  0  0  0  0
   -5.8835   53.4320   24.5036 H   0  0  0  0  0  0
   -4.0537   54.4611   26.4818 H   0  0  0  0  0  0
   -3.6937   54.0973   24.8041 H   0  0  0  0  0  0
    3.0963   53.8241   22.3693 H   0  0  0  0  0  0
    4.9400   54.4506   20.8806 H   0  0  0  0  0  0
    7.5000   55.1025   24.2572 H   0  0  0  0  0  0
    5.6493   54.4772   25.7756 H   0  0  0  0  0  0
   -1.6947   49.3423   27.1464 H   0  0  0  0  0  0
    1.8898   52.5504   23.7894 H   0  0  0  0  0  0
  1  2  1  0  0  0
  1 32  1  0  0  0
  1 33  1  0  0  0
  1 34  1  0  0  0
  2  7  2  0  0  0
  2  3  1  0  0  0
  3  4  2  0  0  0
  3 35  1  0  0  0
  4  5  1  0  0  0
  4 36  1  0  0  0
  5  6  2  0  0  0
  5  8  1  0  0  0
  6  7  1  0  0  0
  6 37  1  0  0  0
  7 38  1  0  0  0
  8 12  1  0  0  0
  8  9  1  0  0  0
  9 10  2  0  0  0
  9 39  1  0  0  0
 10 11  1  0  0  0
 10 25  1  0  0  0
 11 12  1  0  0  0
 11 56  1  0  0  0
 12 13  2  0  0  0
 13 14  1  0  0  0
 14 15  2  0  0  0
 14 16  1  0  0  0
 16 17  1  0  0  0
 16 40  1  0  0  0
 16 41  1  0  0  0
 17 18  1  0  0  0
 17 42  1  0  0  0
 17 55  1  0  0  0
 18 19  1  0  0  0
 18 43  1  0  0  0
 18 44  1  0  0  0
 19 20  1  0  0  0
 19 24  1  0  0  0
 19 21  1  0  0  0
 21 22  1  0  0  0
 21 45  1  0  0  0
 21 46  1  0  0  0
 22 23  1  0  0  0
 22 47  1  0  0  0
 22 48  1  0  0  0
 23 24  1  0  0  0
 23 49  1  0  0  0
 23 50  1  0  0  0
 25 30  2  0  0  0
 25 26  1  0  0  0
 26 27  2  0  0  0
 26 51  1  0  0  0
 27 28  1  0  0  0
 27 52  1  0  0  0
 28 29  2  0  0  0
 28 31  1  0  0  0
 29 30  1  0  0  0
 29 53  1  0  0  0
 30 54  1  0  0  0
M  CHG  1  17   1
M  END
> <i_i_glide_confnum>
2

> <i_i_glide_lignum>
274

> <i_i_glide_posenum>
361

> <i_i_glide_rotatable_bonds>
7

> <i_m_Source_File_Index>
3704

> <b_m_subgroup_collapsed>
0

> <r_i_docking_score>
-6.7716

> <r_i_glide_ecoul>
-6.13723

> <r_i_glide_eff_state_penalty>
0

> <r_i_glide_einternal>
7.12014

> <r_i_glide_emodel>
-65.6958

> <r_i_glide_energy>
-47.1572

> <r_i_glide_erotb>
0.65622

> <r_i_glide_esite>
-0.102071

> <r_i_glide_evdw>
-41.0199

> <r_i_glide_gscore>
-6.7716

> <r_i_glide_hbond>
-0.2

> <r_i_glide_ligand_efficiency>
-0.22572

> <r_i_glide_ligand_efficiency_ln>
-1.53858

> <r_i_glide_ligand_efficiency_sa>
-0.701364

> <r_i_glide_lipo>
-3.20743

> <r_i_glide_metal>
0

> <r_i_glide_rewards>
-0.946736

> <s_i_glide_gridfile>
wee1_glide-grid

> <s_m_Source_File>
wee1_decoys_glide_SP.sdf

> <s_m_Source_Path>
/Users/zhangxujun/Desktop

> <s_m_entry_id>
3979

> <s_m_entry_name>
wee1_decoys_glide_SP.3704

> <s_m_subgroup_title>
wee1_decoys_glide_SP

> <s_m_subgroupid>
wee1_decoys_glide_SP


$$$$
