ZINC08451163_4471
                    3D
 Schrodinger Suite 2024-2.
 61 66  0  0  1  0            999 V2000
    0.7063   52.1873   32.0815 C   0  0  0  0  0  0
    2.0254   52.1225   31.5453 O   0  0  0  0  0  0
    2.2573   52.6052   30.2733 C   0  0  0  0  0  0
    1.2635   53.1267   29.4338 C   0  0  0  0  0  0
    1.5789   53.5164   28.1368 C   0  0  0  0  0  0
    2.8863   53.4009   27.6501 C   0  0  0  0  0  0
    3.8867   52.9422   28.5191 C   0  0  0  0  0  0
    3.5714   52.5412   29.8143 C   0  0  0  0  0  0
    3.1794   53.6467   26.2074 C   0  0  0  0  0  0
    2.3047   53.1676   25.2306 C   0  0  0  0  0  0
    2.6590   53.1782   23.8756 C   0  0  0  0  0  0
    3.8911   53.8017   23.5283 C   0  0  0  0  0  0
    4.5206   54.0849   22.2611 C   0  0  0  0  0  0
    5.7637   54.7274   22.3850 C   0  0  0  0  0  0
    6.2472   54.8969   24.0705 S   0  0  0  0  0  0
    4.7059   54.2618   24.6094 C   0  0  0  0  0  0
    4.3877   54.1913   25.9040 N   0  0  0  0  0  0
    6.6445   55.2967   21.3785 C   0  0  0  0  0  0
    7.5246   56.0966   21.6814 O   0  0  0  0  0  0
    6.4260   54.8967   20.1133 N   0  0  0  0  0  0
    7.1005   55.3523   18.8916 C   0  0  0  0  0  0
    6.5567   54.5326   17.6801 C   0  0  0  0  0  0
    7.2136   54.9753   16.3455 C   0  0  2  0  0  0
    8.7455   54.7617   16.4327 C   0  0  0  0  0  0
    9.3172   55.5993   17.6039 C   0  0  2  0  0  0
    8.6525   55.1447   18.9279 C   0  0  0  0  0  0
    9.0137   57.1017   17.3691 C   0  0  0  0  0  0
    7.4817   57.3156   17.2712 C   0  0  1  0  0  0
    6.9154   56.4759   16.0990 C   0  0  0  0  0  0
    6.8150   56.8611   18.5955 C   0  0  0  0  0  0
    3.9045   53.8355   21.0596 N   0  0  0  0  0  0
    1.7557   52.4334   22.8876 C   0  0  0  0  0  0
    0.8019   51.7225   23.4912 F   0  0  0  0  0  0
    1.1570   53.2967   22.0807 F   0  0  0  0  0  0
    2.4787   51.5867   22.1534 F   0  0  0  0  0  0
    0.7044   51.6784   33.0433 H   0  0  0  0  0  0
    0.3945   53.2189   32.2513 H   0  0  0  0  0  0
   -0.0267   51.6968   31.4402 H   0  0  0  0  0  0
    0.2366   53.2051   29.7559 H   0  0  0  0  0  0
    0.7851   53.8674   27.4946 H   0  0  0  0  0  0
    4.9036   52.8324   28.1698 H   0  0  0  0  0  0
    4.3475   52.1497   30.4561 H   0  0  0  0  0  0
    1.3905   52.6850   25.5454 H   0  0  0  0  0  0
    5.8196   54.0983   19.9987 H   0  0  0  0  0  0
    5.4729   54.6421   17.6056 H   0  0  0  0  0  0
    6.7313   53.4664   17.8354 H   0  0  0  0  0  0
    6.8095   54.3820   15.5240 H   0  0  0  0  0  0
    8.9743   53.7046   16.5769 H   0  0  0  0  0  0
    9.2227   55.0485   15.4941 H   0  0  0  0  0  0
   10.3959   55.4516   17.6696 H   0  0  0  0  0  0
    8.8868   54.0973   19.1139 H   0  0  0  0  0  0
    9.1011   55.6979   19.7520 H   0  0  0  0  0  0
    9.5009   57.4471   16.4564 H   0  0  0  0  0  0
    9.4303   57.7036   18.1793 H   0  0  0  0  0  0
    7.2677   58.3726   17.0994 H   0  0  0  0  0  0
    5.8405   56.6381   16.0013 H   0  0  0  0  0  0
    7.3541   56.8006   15.1547 H   0  0  0  0  0  0
    7.1754   57.4852   19.4132 H   0  0  0  0  0  0
    5.7394   57.0367   18.5450 H   0  0  0  0  0  0
    2.9872   53.4071   21.0216 H   0  0  0  0  0  0
    4.1728   54.3103   20.2102 H   0  0  0  0  0  0
  1  2  1  0  0  0
  1 36  1  0  0  0
  1 37  1  0  0  0
  1 38  1  0  0  0
  2  3  1  0  0  0
  3  8  2  0  0  0
  3  4  1  0  0  0
  4  5  2  0  0  0
  4 39  1  0  0  0
  5  6  1  0  0  0
  5 40  1  0  0  0
  6  7  2  0  0  0
  6  9  1  0  0  0
  7  8  1  0  0  0
  7 41  1  0  0  0
  8 42  1  0  0  0
  9 17  2  0  0  0
  9 10  1  0  0  0
 10 11  2  0  0  0
 10 43  1  0  0  0
 11 12  1  0  0  0
 11 32  1  0  0  0
 12 16  2  0  0  0
 12 13  1  0  0  0
 13 14  2  0  0  0
 13 31  1  0  0  0
 14 15  1  0  0  0
 14 18  1  0  0  0
 15 16  1  0  0  0
 16 17  1  0  0  0
 18 19  2  0  0  0
 18 20  1  0  0  0
 20 21  1  0  0  0
 20 44  1  0  0  0
 21 26  1  0  0  0
 21 30  1  0  0  0
 21 22  1  0  0  0
 22 23  1  0  0  0
 22 45  1  0  0  0
 22 46  1  0  0  0
 23 29  1  0  0  0
 23 24  1  0  0  0
 23 47  1  0  0  0
 24 25  1  0  0  0
 24 48  1  0  0  0
 24 49  1  0  0  0
 25 26  1  0  0  0
 25 27  1  0  0  0
 25 50  1  0  0  0
 26 51  1  0  0  0
 26 52  1  0  0  0
 27 28  1  0  0  0
 27 53  1  0  0  0
 27 54  1  0  0  0
 28 29  1  0  0  0
 28 30  1  0  0  0
 28 55  1  0  0  0
 29 56  1  0  0  0
 29 57  1  0  0  0
 30 58  1  0  0  0
 30 59  1  0  0  0
 31 60  1  0  0  0
 31 61  1  0  0  0
 32 33  1  0  0  0
 32 34  1  0  0  0
 32 35  1  0  0  0
M  END
> <i_i_glide_confnum>
80

> <i_i_glide_lignum>
4472

> <i_i_glide_posenum>
396

> <i_i_glide_rotatable_bonds>
6

> <i_m_Source_File_Index>
3903

> <b_m_subgroup_collapsed>
0

> <r_i_docking_score>
-6.20011

> <r_i_glide_ecoul>
-3.95013

> <r_i_glide_eff_state_penalty>
0

> <r_i_glide_einternal>
7.37281

> <r_i_glide_emodel>
-57.5639

> <r_i_glide_energy>
-46.1083

> <r_i_glide_erotb>
0.324801

> <r_i_glide_esite>
-0.0171453

> <r_i_glide_evdw>
-42.1582

> <r_i_glide_gscore>
-6.20011

> <r_i_glide_hbond>
-0.189601

> <r_i_glide_ligand_efficiency>
-0.177146

> <r_i_glide_ligand_efficiency_ln>
-1.36106

> <r_i_glide_ligand_efficiency_sa>
-0.579456

> <r_i_glide_lipo>
-3.02133

> <r_i_glide_metal>
0

> <r_i_glide_rewards>
-0.596405

> <s_i_glide_gridfile>
wee1_glide-grid

> <s_m_Source_File>
wee1_decoys_glide_SP.sdf

> <s_m_Source_Path>
/Users/zhangxujun/Desktop

> <s_m_entry_id>
4178

> <s_m_entry_name>
wee1_decoys_glide_SP.3903

> <s_m_subgroup_title>
wee1_decoys_glide_SP

> <s_m_subgroupid>
wee1_decoys_glide_SP


$$$$
