ZINC04081366_1876
                    3D
 Schrodinger Suite 2024-2.
 57 59  0  0  1  0            999 V2000
    2.1097   54.2273   27.3260 C   0  0  0  0  0  0
    1.8628   53.6980   25.8894 C   0  0  2  0  0  0
    1.1044   54.3310   25.4604 H   0  0  0  0  0  0
    1.2170   52.3163   26.0418 C   0  0  0  0  0  0
    0.7726   51.6683   24.7289 C   0  0  0  0  0  0
    1.8655   51.6454   23.6278 C   0  0  2  0  0  0
    2.7044   51.1230   24.0812 H   0  0  0  0  0  0
    2.4579   53.0925   23.3759 C   0  0  1  0  0  0
    2.9578   53.7651   24.7597 C   0  0  1  0  0  0
    3.3935   55.1846   24.5212 C   0  0  0  0  0  0
    4.4830   55.5059   25.5331 C   0  0  0  0  0  0
    5.2688   54.2219   25.5347 C   0  0  2  0  0  0
    4.1994   53.2967   25.2983 O   0  0  0  0  0  0
    5.8763   53.8960   26.9148 C   0  0  0  0  0  0
    6.3413   54.1465   24.4141 C   0  0  0  0  0  0
    7.1044   55.3340   24.3756 O   0  0  0  0  0  0
    3.6269   52.9530   22.3380 C   0  0  0  0  0  0
    3.2976   52.1495   21.0658 C   0  0  0  0  0  0
    2.7208   50.7552   21.3784 C   0  0  1  0  0  0
    3.5045   50.2096   21.9033 H   0  0  0  0  0  0
    1.4703   50.7775   22.3358 C   0  0  2  0  0  0
    0.2423   51.3223   21.5327 C   0  0  0  0  0  0
    1.2201   49.2973   22.7793 C   0  0  0  0  0  0
   -0.0955   49.0227   23.2354 O   0  0  0  0  0  0
    2.5033   50.0657   20.1546 O   0  0  0  0  0  0
    1.3673   53.9780   22.7161 C   0  0  0  0  0  0
    2.9359   53.7037   27.8030 H   0  0  0  0  0  0
    2.2994   55.2945   27.3744 H   0  0  0  0  0  0
    1.2361   54.0754   27.9619 H   0  0  0  0  0  0
    0.3351   52.3889   26.6816 H   0  0  0  0  0  0
    1.9036   51.6967   26.6067 H   0  0  0  0  0  0
   -0.1443   52.1294   24.3645 H   0  0  0  0  0  0
    0.4799   50.6552   24.9923 H   0  0  0  0  0  0
    2.5008   55.7801   24.4818 H   0  0  0  0  0  0
    3.8270   55.2964   23.5360 H   0  0  0  0  0  0
    4.1041   55.6965   26.5210 H   0  0  0  0  0  0
    5.1044   56.3677   25.2824 H   0  0  0  0  0  0
    6.6674   54.6001   27.1738 H   0  0  0  0  0  0
    5.1376   53.9291   27.7136 H   0  0  0  0  0  0
    6.3073   52.8965   26.9249 H   0  0  0  0  0  0
    5.8958   54.0369   23.4304 H   0  0  0  0  0  0
    7.0068   53.2968   24.5563 H   0  0  0  0  0  0
    8.0126   55.1400   24.0814 H   0  0  0  0  0  0
    3.9876   53.9249   22.0078 H   0  0  0  0  0  0
    4.4940   52.4968   22.8018 H   0  0  0  0  0  0
    4.2000   52.0489   20.4597 H   0  0  0  0  0  0
    2.6041   52.7212   20.4502 H   0  0  0  0  0  0
   -0.2914   50.5049   21.0466 H   0  0  0  0  0  0
   -0.4865   51.8254   22.1657 H   0  0  0  0  0  0
    0.5019   51.9841   20.7091 H   0  0  0  0  0  0
    1.4054   48.6014   21.9608 H   0  0  0  0  0  0
    1.9047   49.0231   23.5703 H   0  0  0  0  0  0
   -0.0417   48.3953   23.9611 H   0  0  0  0  0  0
    3.2463   50.2153   19.5584 H   0  0  0  0  0  0
    1.0941   53.6942   21.7118 H   0  0  0  0  0  0
    0.4578   54.0341   23.3102 H   0  0  0  0  0  0
    1.7140   54.9877   22.5703 H   0  0  0  0  0  0
  1  2  1  0  0  0
  1 27  1  0  0  0
  1 28  1  0  0  0
  1 29  1  0  0  0
  2  3  1  0  0  0
  2  9  1  0  0  0
  2  4  1  0  0  0
  4  5  1  0  0  0
  4 30  1  0  0  0
  4 31  1  0  0  0
  5  6  1  0  0  0
  5 32  1  0  0  0
  5 33  1  0  0  0
  6  7  1  0  0  0
  6 21  1  0  0  0
  6  8  1  0  0  0
  8  9  1  0  0  0
  8 17  1  0  0  0
  8 26  1  0  0  0
  9 13  1  0  0  0
  9 10  1  0  0  0
 10 11  1  0  0  0
 10 34  1  0  0  0
 10 35  1  0  0  0
 11 12  1  0  0  0
 11 36  1  0  0  0
 11 37  1  0  0  0
 12 13  1  0  0  0
 12 14  1  0  0  0
 12 15  1  0  0  0
 14 38  1  0  0  0
 14 39  1  0  0  0
 14 40  1  0  0  0
 15 16  1  0  0  0
 15 41  1  0  0  0
 15 42  1  0  0  0
 16 43  1  0  0  0
 17 18  1  0  0  0
 17 44  1  0  0  0
 17 45  1  0  0  0
 18 19  1  0  0  0
 18 46  1  0  0  0
 18 47  1  0  0  0
 19 20  1  0  0  0
 19 21  1  0  0  0
 19 25  1  0  0  0
 21 22  1  0  0  0
 21 23  1  0  0  0
 22 48  1  0  0  0
 22 49  1  0  0  0
 22 50  1  0  0  0
 23 24  1  0  0  0
 23 51  1  0  0  0
 23 52  1  0  0  0
 24 53  1  0  0  0
 25 54  1  0  0  0
 26 55  1  0  0  0
 26 56  1  0  0  0
 26 57  1  0  0  0
M  END
> <i_i_glide_confnum>
8

> <i_i_glide_lignum>
1877

> <i_i_glide_posenum>
381

> <i_i_glide_rotatable_bonds>
5

> <i_m_Source_File_Index>
4480

> <b_m_subgroup_collapsed>
0

> <r_i_docking_score>
-4.68144

> <r_i_glide_ecoul>
-5.79163

> <r_i_glide_eff_state_penalty>
0

> <r_i_glide_einternal>
6.08594

> <r_i_glide_emodel>
-6.47309

> <r_i_glide_energy>
-7.80257

> <r_i_glide_erotb>
0.351935

> <r_i_glide_esite>
0

> <r_i_glide_evdw>
-2.01094

> <r_i_glide_gscore>
-4.68144

> <r_i_glide_hbond>
-0.359553

> <r_i_glide_ligand_efficiency>
-0.203541

> <r_i_glide_ligand_efficiency_ln>
-1.13201

> <r_i_glide_ligand_efficiency_sa>
-0.578843

> <r_i_glide_lipo>
-2.42971

> <r_i_glide_metal>
0

> <r_i_glide_rewards>
-1.27482

> <s_i_glide_gridfile>
wee1_glide-grid

> <s_m_Source_File>
wee1_decoys_glide_SP.sdf

> <s_m_Source_Path>
/Users/zhangxujun/Desktop

> <s_m_entry_id>
4755

> <s_m_entry_name>
wee1_decoys_glide_SP.4480

> <s_m_subgroup_title>
wee1_decoys_glide_SP

> <s_m_subgroupid>
wee1_decoys_glide_SP


$$$$
