ZINC20628795_4328
                    3D
 Schrodinger Suite 2024-2.
 42 44  0  0  1  0            999 V2000
   -0.0172   51.8757   25.6352 C   0  0  0  0  0  0
    1.1044   52.2174   26.3802 C   0  0  0  0  0  0
    1.0676   52.1692   27.7727 C   0  0  0  0  0  0
   -0.0956   51.7541   28.4210 C   0  0  0  0  0  0
   -1.2204   51.4074   27.6743 C   0  0  0  0  0  0
   -1.1899   51.4772   26.2801 C   0  0  0  0  0  0
   -2.3401   51.1090   25.5698 N   0  0  0  0  0  0
   -2.7214   51.6430   23.9193 S   0  0  0  0  0  0
   -4.1315   51.3078   23.6995 O   0  0  0  0  0  0
   -2.2401   53.0205   23.7582 O   0  0  0  0  0  0
   -1.7726   50.5818   22.8337 C   0  0  0  0  0  0
   -0.7229   51.0975   22.0649 C   0  0  0  0  0  0
   -0.0007   50.2570   21.2167 C   0  0  0  0  0  0
   -0.3258   48.9026   21.1315 C   0  0  0  0  0  0
   -1.3707   48.3841   21.9007 C   0  0  0  0  0  0
   -2.0928   49.2231   22.7503 C   0  0  0  0  0  0
   -1.6902   47.0712   21.8229 F   0  0  0  0  0  0
    0.3734   48.0968   20.3004 F   0  0  0  0  0  0
    2.1894   52.5219   28.5304 N   0  0  0  0  0  0
    2.8428   54.1675   28.5267 S   0  0  0  0  0  0
    3.4579   54.3551   29.8450 O   0  0  0  0  0  0
    1.7648   55.0563   28.0819 O   0  0  0  0  0  0
    4.1377   54.2007   27.2717 C   0  0  0  0  0  0
    3.7960   54.3902   25.9272 C   0  0  0  0  0  0
    4.7787   54.4000   24.9370 C   0  0  0  0  0  0
    6.1217   54.2797   25.2862 C   0  0  0  0  0  0
    6.4720   54.1044   26.6238 C   0  0  0  0  0  0
    5.4887   54.0473   27.6089 C   0  0  0  0  0  0
    5.8746   53.8385   28.8809 F   0  0  0  0  0  0
    4.4254   54.4967   23.6366 F   0  0  0  0  0  0
    0.0446   51.9185   24.5605 H   0  0  0  0  0  0
    2.0040   52.4968   25.8621 H   0  0  0  0  0  0
   -0.1366   51.6979   29.4996 H   0  0  0  0  0  0
   -2.1105   51.0718   28.1875 H   0  0  0  0  0  0
   -2.9538   50.4263   25.9889 H   0  0  0  0  0  0
   -0.4630   52.1448   22.1195 H   0  0  0  0  0  0
    0.8100   50.6531   20.6217 H   0  0  0  0  0  0
   -2.9019   48.8156   23.3403 H   0  0  0  0  0  0
    2.4729   51.9213   29.2868 H   0  0  0  0  0  0
    2.7644   54.4965   25.6323 H   0  0  0  0  0  0
    6.8826   54.2953   24.5193 H   0  0  0  0  0  0
    7.5042   53.9884   26.9095 H   0  0  0  0  0  0
  1  6  2  0  0  0
  1  2  1  0  0  0
  1 31  1  0  0  0
  2  3  2  0  0  0
  2 32  1  0  0  0
  3  4  1  0  0  0
  3 19  1  0  0  0
  4  5  2  0  0  0
  4 33  1  0  0  0
  5  6  1  0  0  0
  5 34  1  0  0  0
  6  7  1  0  0  0
  7  8  1  0  0  0
  7 35  1  0  0  0
  8  9  2  0  0  0
  8 10  2  0  0  0
  8 11  1  0  0  0
 11 16  2  0  0  0
 11 12  1  0  0  0
 12 13  2  0  0  0
 12 36  1  0  0  0
 13 14  1  0  0  0
 13 37  1  0  0  0
 14 15  2  0  0  0
 14 18  1  0  0  0
 15 16  1  0  0  0
 15 17  1  0  0  0
 16 38  1  0  0  0
 19 20  1  0  0  0
 19 39  1  0  0  0
 20 21  2  0  0  0
 20 22  2  0  0  0
 20 23  1  0  0  0
 23 28  2  0  0  0
 23 24  1  0  0  0
 24 25  2  0  0  0
 24 40  1  0  0  0
 25 26  1  0  0  0
 25 30  1  0  0  0
 26 27  2  0  0  0
 26 41  1  0  0  0
 27 28  1  0  0  0
 27 42  1  0  0  0
 28 29  1  0  0  0
M  END
> <i_i_glide_confnum>
114

> <i_i_glide_lignum>
4329

> <i_i_glide_posenum>
311

> <i_i_glide_rotatable_bonds>
6

> <i_m_Source_File_Index>
1235

> <b_m_subgroup_collapsed>
0

> <r_i_docking_score>
-4.34672

> <r_i_glide_ecoul>
-3.16611

> <r_i_glide_eff_state_penalty>
0

> <r_i_glide_einternal>
3.62047

> <r_i_glide_emodel>
-50.7862

> <r_i_glide_energy>
-42.2073

> <r_i_glide_erotb>
0.569694

> <r_i_glide_esite>
-0.060171

> <r_i_glide_evdw>
-39.0412

> <r_i_glide_gscore>
-4.34672

> <r_i_glide_hbond>
0

> <r_i_glide_ligand_efficiency>
-0.144891

> <r_i_glide_ligand_efficiency_ln>
-0.987622

> <r_i_glide_ligand_efficiency_sa>
-0.450209

> <r_i_glide_lipo>
-1.9313

> <r_i_glide_metal>
0

> <r_i_glide_rewards>
-0.497973

> <s_i_glide_gridfile>
wee1_glide-grid

> <s_m_Source_File>
wee1_decoys_glide_SP.sdf

> <s_m_Source_Path>
/Users/zhangxujun/Desktop

> <s_m_entry_id>
1510

> <s_m_entry_name>
wee1_decoys_glide_SP.1235

> <s_m_subgroup_title>
wee1_decoys_glide_SP

> <s_m_subgroupid>
wee1_decoys_glide_SP


$$$$
