ZINC63374663_5364
                    3D
 Schrodinger Suite 2024-2.
 72 77  0  0  1  0            999 V2000
   -2.5842   48.2808   22.6640 C   0  0  0  0  0  0
   -1.2572   48.2261   21.8734 C   0  0  0  0  0  0
   -1.3462   47.2483   20.6810 C   0  0  0  0  0  0
   -0.7691   49.6204   21.4068 C   0  0  0  0  0  0
   -0.0953   50.4882   22.5120 C   0  0  1  0  0  0
    0.6028   49.8250   23.0271 H   0  0  0  0  0  0
    0.7968   51.6183   21.9384 C   0  0  0  0  0  0
    0.5575   52.1009   20.8326 O   0  0  0  0  0  0
    1.7830   52.0357   22.7467 N   0  0  0  0  0  0
    2.7164   53.1351   22.4782 C   0  0  2  0  0  0
    2.1047   53.9761   22.1374 H   0  0  0  0  0  0
    3.7123   52.8296   21.3333 C   0  0  0  0  0  0
    4.7430   53.9498   21.1710 C   0  0  0  0  0  0
    5.6030   54.0461   22.4397 C   0  0  0  0  0  0
    4.7699   54.0967   23.7191 C   0  0  0  0  0  0
    3.4220   53.6575   23.7473 C   0  0  0  0  0  0
    2.7361   53.6963   24.9733 C   0  0  0  0  0  0
    3.3627   54.0977   26.1481 C   0  0  0  0  0  0
    4.6839   54.5241   26.1142 C   0  0  0  0  0  0
    5.3724   54.5322   24.9054 C   0  0  0  0  0  0
   -1.0864   51.0042   23.4971 N   0  0  0  0  0  0
   -1.0712   50.6022   24.7895 C   0  0  0  0  0  0
   -0.3532   49.7466   25.3097 O   0  0  0  0  0  0
   -2.1539   51.4012   25.4954 C   0  0  2  0  0  0
   -3.3703   50.5101   25.9513 C   0  0  2  0  0  0
   -3.5645   49.7073   25.2369 H   0  0  0  0  0  0
   -4.6172   51.3530   26.1424 C   0  0  0  0  0  0
   -5.0904   51.1885   27.3887 C   0  0  0  0  0  0
   -6.2358   51.7767   28.0974 C   0  0  0  0  0  0
   -6.4765   51.4627   29.3881 C   0  0  0  0  0  0
   -5.5681   50.5332   30.0513 C   0  0  0  0  0  0
   -4.5094   49.9779   29.4055 C   0  0  0  0  0  0
   -4.2585   50.2940   28.0651 C   0  0  0  0  0  0
   -3.2956   49.8678   27.2820 N   0  3  0  0  0  0
   -5.0070   52.2304   24.9669 C   0  0  0  0  0  0
   -3.7872   53.1051   24.5885 C   0  0  0  0  0  0
   -2.5976   52.2481   24.4068 N   0  0  0  0  0  0
   -2.0071   51.9755   23.2328 C   0  0  0  0  0  0
   -2.2538   52.4959   22.1475 O   0  0  0  0  0  0
   -1.4903   52.2088   26.6427 C   0  0  0  0  0  0
   -3.0545   49.2639   22.6090 H   0  0  0  0  0  0
   -3.3270   47.5629   22.3139 H   0  0  0  0  0  0
   -2.4109   48.0530   23.7170 H   0  0  0  0  0  0
   -0.4976   47.8264   22.5478 H   0  0  0  0  0  0
   -1.3499   47.7747   19.7238 H   0  0  0  0  0  0
   -0.4949   46.5653   20.6698 H   0  0  0  0  0  0
   -2.2421   46.6261   20.7010 H   0  0  0  0  0  0
   -1.5670   50.1660   20.9019 H   0  0  0  0  0  0
   -0.0099   49.4562   20.6387 H   0  0  0  0  0  0
    1.8967   51.5806   23.6399 H   0  0  0  0  0  0
    3.1758   52.6869   20.3943 H   0  0  0  0  0  0
    4.2304   51.8896   21.5313 H   0  0  0  0  0  0
    4.2381   54.8964   20.9777 H   0  0  0  0  0  0
    5.3762   53.7543   20.3042 H   0  0  0  0  0  0
    6.2665   54.9096   22.3782 H   0  0  0  0  0  0
    6.2474   53.1675   22.4994 H   0  0  0  0  0  0
    1.7032   53.3836   25.0268 H   0  0  0  0  0  0
    2.8192   54.0936   27.0813 H   0  0  0  0  0  0
    5.1743   54.8476   27.0213 H   0  0  0  0  0  0
    6.4031   54.8568   24.8924 H   0  0  0  0  0  0
   -6.9141   52.4580   27.6044 H   0  0  0  0  0  0
   -7.3272   51.8746   29.9120 H   0  0  0  0  0  0
   -5.7386   50.2760   31.0880 H   0  0  0  0  0  0
   -3.8596   49.2959   29.9427 H   0  0  0  0  0  0
   -5.8622   52.8661   25.1999 H   0  0  0  0  0  0
   -5.3084   51.6223   24.1120 H   0  0  0  0  0  0
   -3.5573   53.7938   25.4012 H   0  0  0  0  0  0
   -3.9499   53.7268   23.7061 H   0  0  0  0  0  0
   -1.0737   51.5570   27.4145 H   0  0  0  0  0  0
   -0.6816   52.8501   26.2877 H   0  0  0  0  0  0
   -2.2156   52.8610   27.1221 H   0  0  0  0  0  0
   -2.5575   49.2109   27.5850 H   0  0  0  0  0  0
  1  2  1  0  0  0
  1 41  1  0  0  0
  1 42  1  0  0  0
  1 43  1  0  0  0
  2  3  1  0  0  0
  2  4  1  0  0  0
  2 44  1  0  0  0
  3 45  1  0  0  0
  3 46  1  0  0  0
  3 47  1  0  0  0
  4  5  1  0  0  0
  4 48  1  0  0  0
  4 49  1  0  0  0
  5  6  1  0  0  0
  5  7  1  0  0  0
  5 21  1  0  0  0
  7  8  2  0  0  0
  7  9  1  0  0  0
  9 10  1  0  0  0
  9 50  1  0  0  0
 10 11  1  0  0  0
 10 16  1  0  0  0
 10 12  1  0  0  0
 12 13  1  0  0  0
 12 51  1  0  0  0
 12 52  1  0  0  0
 13 14  1  0  0  0
 13 53  1  0  0  0
 13 54  1  0  0  0
 14 15  1  0  0  0
 14 55  1  0  0  0
 14 56  1  0  0  0
 15 20  2  0  0  0
 15 16  1  0  0  0
 16 17  2  0  0  0
 17 18  1  0  0  0
 17 57  1  0  0  0
 18 19  2  0  0  0
 18 58  1  0  0  0
 19 20  1  0  0  0
 19 59  1  0  0  0
 20 60  1  0  0  0
 21 38  1  0  0  0
 21 22  1  0  0  0
 22 23  2  0  0  0
 22 24  1  0  0  0
 24 37  1  0  0  0
 24 25  1  0  0  0
 24 40  1  0  0  0
 25 26  1  0  0  0
 25 34  1  0  0  0
 25 27  1  0  0  0
 27 28  2  0  0  0
 27 35  1  0  0  0
 28 33  1  0  0  0
 28 29  1  0  0  0
 29 30  2  0  0  0
 29 61  1  0  0  0
 30 31  1  0  0  0
 30 62  1  0  0  0
 31 32  2  0  0  0
 31 63  1  0  0  0
 32 33  1  0  0  0
 32 64  1  0  0  0
 33 34  2  0  0  0
 34 72  1  0  0  0
 35 36  1  0  0  0
 35 65  1  0  0  0
 35 66  1  0  0  0
 36 37  1  0  0  0
 36 67  1  0  0  0
 36 68  1  0  0  0
 37 38  1  0  0  0
 38 39  2  0  0  0
 40 69  1  0  0  0
 40 70  1  0  0  0
 40 71  1  0  0  0
M  CHG  1  34   1
M  END
> <i_i_glide_confnum>
43

> <i_i_glide_lignum>
5365

> <i_i_glide_posenum>
384

> <i_i_glide_rotatable_bonds>
6

> <i_m_Source_File_Index>
872

> <b_m_subgroup_collapsed>
0

> <r_i_docking_score>
-4.76588

> <r_i_glide_ecoul>
-4.45354

> <r_i_glide_eff_state_penalty>
0

> <r_i_glide_einternal>
6.44512

> <r_i_glide_emodel>
-51.2965

> <r_i_glide_energy>
-40.0452

> <r_i_glide_erotb>
0.327118

> <r_i_glide_esite>
-0.115276

> <r_i_glide_evdw>
-35.5917

> <r_i_glide_gscore>
-4.76588

> <r_i_glide_hbond>
-0.200486

> <r_i_glide_ligand_efficiency>
-0.128808

> <r_i_glide_ligand_efficiency_ln>
-1.03361

> <r_i_glide_ligand_efficiency_sa>
-0.429216

> <r_i_glide_lipo>
-2.11787

> <r_i_glide_metal>
0

> <r_i_glide_rewards>
-0.21175

> <s_i_glide_gridfile>
wee1_glide-grid

> <s_m_Source_File>
wee1_decoys_glide_SP.sdf

> <s_m_Source_Path>
/Users/zhangxujun/Desktop

> <s_m_entry_id>
1147

> <s_m_entry_name>
wee1_decoys_glide_SP.872

> <s_m_subgroup_title>
wee1_decoys_glide_SP

> <s_m_subgroupid>
wee1_decoys_glide_SP


$$$$
