ZINC38915385_5114
                    3D
 Schrodinger Suite 2024-2.
 49 52  0  0  1  0            999 V2000
   -0.0558   53.0624   30.7029 C   0  0  0  0  0  0
    0.7209   54.1973   30.4847 C   0  0  0  0  0  0
    1.3538   54.3837   29.2581 C   0  0  0  0  0  0
    1.1936   53.4484   28.2349 C   0  0  0  0  0  0
    0.3532   52.3339   28.4234 C   0  0  0  0  0  0
   -0.2557   52.1454   29.6718 C   0  0  0  0  0  0
    0.1087   51.3090   27.3160 C   0  0  0  0  0  0
   -0.7016   52.0499   25.8473 S   0  0  0  0  0  0
   -0.0432   51.0128   24.5250 C   0  0  0  0  0  0
    0.5115   49.8914   24.7115 N   0  0  0  0  0  0
    0.9063   49.2968   23.5174 N   0  0  0  0  0  0
    0.9722   50.1844   22.3793 C   0  0  1  0  0  0
    0.5951   49.6736   21.4925 H   0  0  0  0  0  0
   -0.1095   51.5624   22.8169 S   0  0  0  0  0  0
    2.7048   50.6434   22.0984 S   0  0  0  0  0  0
    2.6516   51.5581   20.5232 C   0  0  0  0  0  0
    3.8942   52.4272   20.2612 C   0  0  0  0  0  0
    4.9494   52.2220   20.8730 O   0  0  0  0  0  0
    3.7297   53.4101   19.3540 N   0  0  0  0  0  0
    4.6615   54.3596   19.1366 N   0  0  0  0  0  0
    4.2855   55.2494   18.3063 C   0  0  0  0  0  0
    5.0882   56.3947   17.9553 C   0  0  0  0  0  0
    6.4079   56.5839   18.1994 C   0  0  0  0  0  0
    7.4350   55.7298   18.8323 C   0  0  0  0  0  0
    8.7062   56.1559   18.9680 C   0  0  0  0  0  0
    9.0351   57.4865   18.4815 C   0  0  0  0  0  0
    8.1055   58.2978   17.9117 C   0  0  0  0  0  0
    6.7854   57.8601   17.7550 C   0  0  0  0  0  0
    5.7628   58.4966   17.2357 N   0  3  0  0  0  0
    4.5833   57.6159   17.2097 C   0  0  0  0  0  0
    2.0755   53.6972   26.7660 Cl  0  0  0  0  0  0
   -0.4986   52.8977   31.6752 H   0  0  0  0  0  0
    0.8520   54.9185   31.2786 H   0  0  0  0  0  0
    1.9822   55.2504   29.1051 H   0  0  0  0  0  0
   -0.8776   51.2801   29.8547 H   0  0  0  0  0  0
   -0.5230   50.4965   27.6743 H   0  0  0  0  0  0
    1.0704   50.8654   27.0604 H   0  0  0  0  0  0
    1.6830   48.6641   23.6917 H   0  0  0  0  0  0
    1.7671   52.1982   20.5317 H   0  0  0  0  0  0
    2.5308   50.8483   19.7024 H   0  0  0  0  0  0
    2.8509   53.5403   18.8744 H   0  0  0  0  0  0
    3.3231   55.2521   17.7933 H   0  0  0  0  0  0
    7.2092   54.7371   19.1965 H   0  0  0  0  0  0
    9.4597   55.5290   19.4256 H   0  0  0  0  0  0
   10.0506   57.8399   18.5958 H   0  0  0  0  0  0
    8.4055   59.2810   17.5743 H   0  0  0  0  0  0
    3.7493   58.1345   17.6812 H   0  0  0  0  0  0
    4.3412   57.4139   16.1646 H   0  0  0  0  0  0
    5.7759   59.4585   16.8855 H   0  0  0  0  0  0
  1  6  2  0  0  0
  1  2  1  0  0  0
  1 32  1  0  0  0
  2  3  2  0  0  0
  2 33  1  0  0  0
  3  4  1  0  0  0
  3 34  1  0  0  0
  4  5  2  0  0  0
  4 31  1  0  0  0
  5  6  1  0  0  0
  5  7  1  0  0  0
  6 35  1  0  0  0
  7  8  1  0  0  0
  7 36  1  0  0  0
  7 37  1  0  0  0
  8  9  1  0  0  0
  9 14  1  0  0  0
  9 10  2  0  0  0
 10 11  1  0  0  0
 11 12  1  0  0  0
 11 38  1  0  0  0
 12 13  1  0  0  0
 12 14  1  0  0  0
 12 15  1  0  0  0
 15 16  1  0  0  0
 16 17  1  0  0  0
 16 39  1  0  0  0
 16 40  1  0  0  0
 17 18  2  0  0  0
 17 19  1  0  0  0
 19 20  1  0  0  0
 19 41  1  0  0  0
 20 21  2  0  0  0
 21 22  1  0  0  0
 21 42  1  0  0  0
 22 30  1  0  0  0
 22 23  2  0  0  0
 23 28  1  0  0  0
 23 24  1  0  0  0
 24 25  2  0  0  0
 24 43  1  0  0  0
 25 26  1  0  0  0
 25 44  1  0  0  0
 26 27  2  0  0  0
 26 45  1  0  0  0
 27 28  1  0  0  0
 27 46  1  0  0  0
 28 29  2  0  0  0
 29 30  1  0  0  0
 29 49  1  0  0  0
 30 47  1  0  0  0
 30 48  1  0  0  0
M  CHG  1  29   1
M  END
> <i_i_glide_confnum>
37

> <i_i_glide_lignum>
5115

> <i_i_glide_posenum>
211

> <i_i_glide_rotatable_bonds>
9

> <i_m_Source_File_Index>
4661

> <b_m_subgroup_collapsed>
0

> <r_i_docking_score>
-4.9275

> <r_i_glide_ecoul>
-10.8279

> <r_i_glide_eff_state_penalty>
0

> <r_i_glide_einternal>
9.37028

> <r_i_glide_emodel>
-60.106

> <r_i_glide_energy>
-48.0351

> <r_i_glide_erotb>
0.712002

> <r_i_glide_esite>
-0.135873

> <r_i_glide_evdw>
-37.2072

> <r_i_glide_gscore>
-4.9275

> <r_i_glide_hbond>
-0.392238

> <r_i_glide_ligand_efficiency>
-0.16425

> <r_i_glide_ligand_efficiency_ln>
-1.11958

> <r_i_glide_ligand_efficiency_sa>
-0.510363

> <r_i_glide_lipo>
-1.38445

> <r_i_glide_metal>
0

> <r_i_glide_rewards>
-0.242408

> <s_i_glide_gridfile>
wee1_glide-grid

> <s_m_Source_File>
wee1_decoys_glide_SP.sdf

> <s_m_Source_Path>
/Users/zhangxujun/Desktop

> <s_m_entry_id>
4936

> <s_m_entry_name>
wee1_decoys_glide_SP.4661

> <s_m_subgroup_title>
wee1_decoys_glide_SP

> <s_m_subgroupid>
wee1_decoys_glide_SP


$$$$
