ZINC09846786_4974
                    3D
 Schrodinger Suite 2024-2.
 61 65  0  0  1  0            999 V2000
    5.5063   54.8963   20.7903 C   0  0  0  0  0  0
    4.5538   54.4595   21.7153 C   0  0  0  0  0  0
    5.0138   54.4434   23.0337 C   0  0  0  0  0  0
    6.7041   54.8967   23.0829 S   0  0  0  0  0  0
    6.7144   55.2237   21.3821 C   0  0  0  0  0  0
    4.1790   54.1176   24.1963 C   0  0  0  0  0  0
    4.4299   54.1338   25.5321 C   0  0  0  0  0  0
    5.8143   54.4945   26.1184 C   0  0  0  0  0  0
    5.9434   54.5246   27.6577 C   0  0  0  0  0  0
    5.0015   53.5403   28.3528 C   0  0  0  0  0  0
    3.5489   53.8364   27.9420 C   0  0  1  0  0  0
    3.2900   54.8616   28.2158 H   0  0  0  0  0  0
    3.3719   53.6943   26.4464 C   0  0  0  0  0  0
    2.2422   53.1590   26.1635 N   0  0  0  0  0  0
    1.6649   52.6365   27.2857 N   0  0  0  0  0  0
    2.5138   52.8505   28.4653 C   0  0  2  0  0  0
    3.0043   51.8961   28.6746 H   0  0  0  0  0  0
    1.7910   53.2487   29.7478 C   0  0  0  0  0  0
    1.5473   52.4430   30.8561 C   0  0  0  0  0  0
    0.7044   52.9926   31.8075 C   0  0  0  0  0  0
    0.3044   54.2648   31.4742 C   0  0  0  0  0  0
    1.0479   54.8048   29.9990 S   0  0  0  0  0  0
    0.5957   51.7881   27.2585 C   0  0  0  0  0  0
    0.1331   51.2967   28.2884 O   0  0  0  0  0  0
   -0.0534   51.4111   25.9089 C   0  0  0  0  0  0
   -0.5863   49.0380   25.1032 C   0  0  0  0  0  0
   -1.4972   47.8140   25.3107 C   0  0  0  0  0  0
   -2.9890   48.2066   25.1441 C   0  0  2  0  0  0
   -3.3893   49.3293   26.1403 C   0  0  0  0  0  0
   -2.4831   50.5672   25.9520 C   0  0  0  0  0  0
   -3.9079   46.9626   25.2856 C   0  0  0  0  0  0
   -3.4591   45.8167   25.2817 O   0  0  0  0  0  0
   -5.2239   47.1583   25.3708 N   0  0  0  0  0  0
    5.3129   54.9841   19.7302 H   0  0  0  0  0  0
    3.5470   54.1958   21.4274 H   0  0  0  0  0  0
    7.6169   55.5801   20.9052 H   0  0  0  0  0  0
    3.1908   53.8239   23.8672 H   0  0  0  0  0  0
    6.5077   53.7370   25.7517 H   0  0  0  0  0  0
    6.1714   55.4480   25.7280 H   0  0  0  0  0  0
    6.9746   54.3215   27.9535 H   0  0  0  0  0  0
    5.7370   55.5304   28.0203 H   0  0  0  0  0  0
    5.1001   53.6304   29.4330 H   0  0  0  0  0  0
    5.2820   52.5133   28.1003 H   0  0  0  0  0  0
    1.9063   51.4339   30.9455 H   0  0  0  0  0  0
    0.3752   52.4862   32.7054 H   0  0  0  0  0  0
   -0.3279   54.8920   32.0733 H   0  0  0  0  0  0
    0.7200   51.1562   25.1814 H   0  0  0  0  0  0
   -0.6497   52.2406   25.5268 H   0  0  0  0  0  0
   -0.6383   49.4379   24.0885 H   0  0  0  0  0  0
    0.4440   48.7684   25.3494 H   0  0  0  0  0  0
   -1.2961   47.4354   26.3155 H   0  0  0  0  0  0
   -1.1909   47.0860   24.5577 H   0  0  0  0  0  0
   -3.1694   48.5357   24.1194 H   0  0  0  0  0  0
   -4.4011   49.6900   25.9515 H   0  0  0  0  0  0
   -3.2944   49.0042   27.1813 H   0  0  0  0  0  0
   -2.6137   51.0358   24.9749 H   0  0  0  0  0  0
   -2.6682   51.2915   26.7468 H   0  0  0  0  0  0
   -5.6129   48.0883   25.3765 H   0  0  0  0  0  0
   -5.8340   46.3607   25.4651 H   0  0  0  0  0  0
   -0.9895   50.1672   26.0814 N   0  3  2  0  0  0
   -0.8721   49.7946   27.0256 H   0  0  0  0  0  0
  1  5  2  0  0  0
  1  2  1  0  0  0
  1 34  1  0  0  0
  2  3  2  0  0  0
  2 35  1  0  0  0
  3  4  1  0  0  0
  3  6  1  0  0  0
  4  5  1  0  0  0
  5 36  1  0  0  0
  6  7  2  0  0  0
  6 37  1  0  0  0
  7 13  1  0  0  0
  7  8  1  0  0  0
  8  9  1  0  0  0
  8 38  1  0  0  0
  8 39  1  0  0  0
  9 10  1  0  0  0
  9 40  1  0  0  0
  9 41  1  0  0  0
 10 11  1  0  0  0
 10 42  1  0  0  0
 10 43  1  0  0  0
 11 12  1  0  0  0
 11 16  1  0  0  0
 11 13  1  0  0  0
 13 14  2  0  0  0
 14 15  1  0  0  0
 15 16  1  0  0  0
 15 23  1  0  0  0
 16 17  1  0  0  0
 16 18  1  0  0  0
 18 22  1  0  0  0
 18 19  2  0  0  0
 19 20  1  0  0  0
 19 44  1  0  0  0
 20 21  2  0  0  0
 20 45  1  0  0  0
 21 22  1  0  0  0
 21 46  1  0  0  0
 23 24  2  0  0  0
 23 25  1  0  0  0
 25 47  1  0  0  0
 25 48  1  0  0  0
 25 60  1  0  0  0
 26 27  1  0  0  0
 26 49  1  0  0  0
 26 50  1  0  0  0
 26 60  1  0  0  0
 27 28  1  0  0  0
 27 51  1  0  0  0
 27 52  1  0  0  0
 28 29  1  0  0  0
 28 31  1  0  0  0
 28 53  1  0  0  0
 29 30  1  0  0  0
 29 54  1  0  0  0
 29 55  1  0  0  0
 30 56  1  0  0  0
 30 57  1  0  0  0
 30 60  1  0  0  0
 31 32  2  0  0  0
 31 33  1  0  0  0
 33 58  1  0  0  0
 33 59  1  0  0  0
 60 61  1  0  0  0
M  CHG  1  60   1
M  END
> <i_i_glide_confnum>
1

> <i_i_glide_lignum>
4975

> <i_i_glide_posenum>
336

> <i_i_glide_rotatable_bonds>
6

> <i_m_Source_File_Index>
4194

> <b_m_subgroup_collapsed>
0

> <r_i_docking_score>
-6.87487

> <r_i_glide_ecoul>
-5.54927

> <r_i_glide_eff_state_penalty>
0

> <r_i_glide_einternal>
6.68302

> <r_i_glide_emodel>
-70.3596

> <r_i_glide_energy>
-47.2842

> <r_i_glide_erotb>
0.366313

> <r_i_glide_esite>
-0.126155

> <r_i_glide_evdw>
-41.7349

> <r_i_glide_gscore>
-6.87487

> <r_i_glide_hbond>
-0.330197

> <r_i_glide_ligand_efficiency>
-0.21484

> <r_i_glide_ligand_efficiency_ln>
-1.53947

> <r_i_glide_ligand_efficiency_sa>
-0.682073

> <r_i_glide_lipo>
-2.97655

> <r_i_glide_metal>
0

> <r_i_glide_rewards>
-0.889141

> <s_i_glide_gridfile>
wee1_glide-grid

> <s_m_Source_File>
wee1_decoys_glide_SP.sdf

> <s_m_Source_Path>
/Users/zhangxujun/Desktop

> <s_m_entry_id>
4469

> <s_m_entry_name>
wee1_decoys_glide_SP.4194

> <s_m_subgroup_title>
wee1_decoys_glide_SP

> <s_m_subgroupid>
wee1_decoys_glide_SP


$$$$
