ZINC36290464_3769
                    3D
 Schrodinger Suite 2024-2.
 36 39  0  0  1  0            999 V2000
    6.1647   55.0816   18.3447 C   0  0  0  0  0  0
    5.9825   54.8870   19.8386 C   0  0  0  0  0  0
    6.8655   55.4907   20.7339 C   0  0  0  0  0  0
    6.7045   55.2961   22.1028 C   0  0  0  0  0  0
    5.6606   54.4967   22.5895 C   0  0  0  0  0  0
    4.7943   53.8783   21.6819 C   0  0  0  0  0  0
    4.9527   54.0734   20.3124 C   0  0  0  0  0  0
    5.4609   54.3315   24.0678 C   0  0  0  0  0  0
    4.2589   54.1623   24.7735 C   0  0  0  0  0  0
    4.6286   54.0570   26.1161 N   0  0  0  0  0  0
    4.0862   53.8801   27.4001 C   0  0  0  0  0  0
    5.0982   53.9349   28.3432 C   0  0  0  0  0  0
    6.7041   54.0967   27.6787 S   0  0  0  0  0  0
    6.0073   54.1968   26.0851 C   0  0  0  0  0  0
    6.4966   54.3610   24.8829 N   0  0  0  0  0  0
    2.6465   53.6075   27.7236 C   0  0  0  0  0  0
    2.1061   53.9746   28.9644 C   0  0  0  0  0  0
    0.8062   53.5749   29.2836 C   0  0  0  0  0  0
    0.0794   52.8132   28.3678 C   0  0  0  0  0  0
    0.6728   52.4983   27.1450 C   0  0  0  0  0  0
    1.9277   52.8965   26.8140 N   0  0  0  0  0  0
    2.9604   54.1287   24.3406 N   0  0  0  0  0  0
    5.8595   54.1894   17.7964 H   0  0  0  0  0  0
    7.2116   55.2568   18.0949 H   0  0  0  0  0  0
    5.5716   55.9256   17.9927 H   0  0  0  0  0  0
    7.6798   56.1005   20.3714 H   0  0  0  0  0  0
    7.3946   55.7703   22.7865 H   0  0  0  0  0  0
    3.9958   53.2405   22.0291 H   0  0  0  0  0  0
    4.2757   53.5897   19.6227 H   0  0  0  0  0  0
    4.9947   53.8223   29.4106 H   0  0  0  0  0  0
    2.6846   54.5435   29.6763 H   0  0  0  0  0  0
    0.3732   53.8340   30.2391 H   0  0  0  0  0  0
   -0.9172   52.4693   28.6022 H   0  0  0  0  0  0
    0.1437   51.9087   26.4101 H   0  0  0  0  0  0
    2.7163   54.2905   23.3739 H   0  0  0  0  0  0
    2.2022   53.9121   24.9750 H   0  0  0  0  0  0
  1  2  1  0  0  0
  1 23  1  0  0  0
  1 24  1  0  0  0
  1 25  1  0  0  0
  2  7  2  0  0  0
  2  3  1  0  0  0
  3  4  2  0  0  0
  3 26  1  0  0  0
  4  5  1  0  0  0
  4 27  1  0  0  0
  5  6  2  0  0  0
  5  8  1  0  0  0
  6  7  1  0  0  0
  6 28  1  0  0  0
  7 29  1  0  0  0
  8 15  1  0  0  0
  8  9  2  0  0  0
  9 10  1  0  0  0
  9 22  1  0  0  0
 10 14  1  0  0  0
 10 11  1  0  0  0
 11 12  2  0  0  0
 11 16  1  0  0  0
 12 13  1  0  0  0
 12 30  1  0  0  0
 13 14  1  0  0  0
 14 15  2  0  0  0
 16 21  2  0  0  0
 16 17  1  0  0  0
 17 18  2  0  0  0
 17 31  1  0  0  0
 18 19  1  0  0  0
 18 32  1  0  0  0
 19 20  2  0  0  0
 19 33  1  0  0  0
 20 21  1  0  0  0
 20 34  1  0  0  0
 22 35  1  0  0  0
 22 36  1  0  0  0
M  END
> <i_i_glide_confnum>
3

> <i_i_glide_lignum>
3770

> <i_i_glide_posenum>
384

> <i_i_glide_rotatable_bonds>
2

> <i_m_Source_File_Index>
987

> <b_m_subgroup_collapsed>
0

> <r_i_docking_score>
-6.77582

> <r_i_glide_ecoul>
-0.311586

> <r_i_glide_eff_state_penalty>
0

> <r_i_glide_einternal>
1.1905

> <r_i_glide_emodel>
-56.6632

> <r_i_glide_energy>
-41.3435

> <r_i_glide_erotb>
0.39354

> <r_i_glide_esite>
0

> <r_i_glide_evdw>
-41.032

> <r_i_glide_gscore>
-6.77582

> <r_i_glide_hbond>
0

> <r_i_glide_ligand_efficiency>
-0.307992

> <r_i_glide_ligand_efficiency_ln>
-1.65626

> <r_i_glide_ligand_efficiency_sa>
-0.863006

> <r_i_glide_lipo>
-2.99772

> <r_i_glide_metal>
0

> <r_i_glide_rewards>
-2.07331

> <s_i_glide_gridfile>
wee1_glide-grid

> <s_m_Source_File>
wee1_decoys_glide_SP.sdf

> <s_m_Source_Path>
/Users/zhangxujun/Desktop

> <s_m_entry_id>
1262

> <s_m_entry_name>
wee1_decoys_glide_SP.987

> <s_m_subgroup_title>
wee1_decoys_glide_SP

> <s_m_subgroupid>
wee1_decoys_glide_SP


$$$$
