ZINC41067825_1899
                    3D
 Schrodinger Suite 2024-2.
 29 30  0  0  1  0            999 V2000
    0.3856   50.3619   26.8810 C   0  0  0  0  0  0
    0.6963   51.5038   25.9255 C   0  0  0  0  0  0
    0.2584   51.4038   24.6004 C   0  0  0  0  0  0
    0.5507   52.4090   23.6816 C   0  0  0  0  0  0
    1.2833   53.5220   24.0837 C   0  0  0  0  0  0
    1.7178   53.6247   25.4051 C   0  0  0  0  0  0
    1.4325   52.6278   26.3457 C   0  0  0  0  0  0
    1.8891   52.6934   27.6778 N   0  0  0  0  0  0
    2.6449   54.0919   28.4742 S   0  0  0  0  0  0
    1.9177   55.3007   28.0820 O   0  0  0  0  0  0
    2.8090   53.7302   29.8875 O   0  0  0  0  0  0
    4.3040   54.1576   27.7545 C   0  0  0  0  0  0
    4.7178   54.8761   26.6330 C   0  0  0  0  0  0
    6.0726   54.6884   26.3451 C   0  0  0  0  0  0
    6.7051   53.8589   27.2526 C   0  0  0  0  0  0
    5.6146   53.2968   28.4723 S   0  0  0  0  0  0
    6.7060   55.2689   25.2840 N   0  0  0  0  0  0
    0.0124   52.2681   22.0482 Cl  0  0  0  0  0  0
    1.3231   49.9806   27.2815 H   0  0  0  0  0  0
   -0.2216   50.7090   27.7176 H   0  0  0  0  0  0
   -0.1346   49.5314   26.4020 H   0  0  0  0  0  0
   -0.3032   50.5390   24.2776 H   0  0  0  0  0  0
    1.5152   54.3039   23.3752 H   0  0  0  0  0  0
    2.2778   54.4919   25.6883 H   0  0  0  0  0  0
    1.7493   51.8779   28.2531 H   0  0  0  0  0  0
    4.0786   55.5179   26.0481 H   0  0  0  0  0  0
    7.7392   53.5550   27.2781 H   0  0  0  0  0  0
    6.2587   55.9962   24.7463 H   0  0  0  0  0  0
    7.5290   54.8614   24.8594 H   0  0  0  0  0  0
  1  2  1  0  0  0
  1 19  1  0  0  0
  1 20  1  0  0  0
  1 21  1  0  0  0
  2  7  2  0  0  0
  2  3  1  0  0  0
  3  4  2  0  0  0
  3 22  1  0  0  0
  4  5  1  0  0  0
  4 18  1  0  0  0
  5  6  2  0  0  0
  5 23  1  0  0  0
  6  7  1  0  0  0
  6 24  1  0  0  0
  7  8  1  0  0  0
  8  9  1  0  0  0
  8 25  1  0  0  0
  9 10  2  0  0  0
  9 11  2  0  0  0
  9 12  1  0  0  0
 12 16  1  0  0  0
 12 13  2  0  0  0
 13 14  1  0  0  0
 13 26  1  0  0  0
 14 15  2  0  0  0
 14 17  1  0  0  0
 15 16  1  0  0  0
 15 27  1  0  0  0
 17 28  1  0  0  0
 17 29  1  0  0  0
M  END
> <i_i_glide_confnum>
7

> <i_i_glide_lignum>
1900

> <i_i_glide_posenum>
353

> <i_i_glide_rotatable_bonds>
3

> <i_m_Source_File_Index>
2859

> <b_m_subgroup_collapsed>
0

> <r_i_docking_score>
-5.33694

> <r_i_glide_ecoul>
-3.9514

> <r_i_glide_eff_state_penalty>
0

> <r_i_glide_einternal>
1.99898

> <r_i_glide_emodel>
-45.3579

> <r_i_glide_energy>
-34.0826

> <r_i_glide_erotb>
0.602611

> <r_i_glide_esite>
-0.0249054

> <r_i_glide_evdw>
-30.1312

> <r_i_glide_gscore>
-5.33694

> <r_i_glide_hbond>
-0.00411177

> <r_i_glide_ligand_efficiency>
-0.296496

> <r_i_glide_ligand_efficiency_ln>
-1.37183

> <r_i_glide_ligand_efficiency_sa>
-0.77704

> <r_i_glide_lipo>
-2.16826

> <r_i_glide_metal>
0

> <r_i_glide_rewards>
-1.643

> <s_i_glide_gridfile>
wee1_glide-grid

> <s_m_Source_File>
wee1_decoys_glide_SP.sdf

> <s_m_Source_Path>
/Users/zhangxujun/Desktop

> <s_m_entry_id>
3134

> <s_m_entry_name>
wee1_decoys_glide_SP.2859

> <s_m_subgroup_title>
wee1_decoys_glide_SP

> <s_m_subgroupid>
wee1_decoys_glide_SP


$$$$
