ZINC34923980_5644
                    3D
 Schrodinger Suite 2024-2.
 59 62  0  0  1  0            999 V2000
   -4.8383   52.6605   24.4910 C   0  0  0  0  0  0
   -3.9702   51.4046   24.3210 C   0  0  0  0  0  0
   -2.6590   51.6251   24.8300 O   0  0  0  0  0  0
   -1.6903   52.2216   24.0947 C   0  0  0  0  0  0
   -1.8443   52.5058   22.9021 O   0  0  0  0  0  0
   -0.4164   52.4870   24.8137 C   0  0  0  0  0  0
   -0.2264   52.3546   26.1705 C   0  0  0  0  0  0
    0.9563   52.6459   26.7930 N   0  0  0  0  0  0
    1.9041   53.1537   26.1123 C   0  0  0  0  0  0
    1.9290   53.3688   24.7374 N   0  0  0  0  0  0
    0.7832   52.8941   23.9003 C   0  0  1  0  0  0
    0.4744   53.7705   23.3290 H   0  0  0  0  0  0
    1.2020   51.8234   22.8727 C   0  0  0  0  0  0
    1.4103   52.1932   21.5368 C   0  0  0  0  0  0
    1.8161   51.2548   20.5889 C   0  0  0  0  0  0
    2.0018   49.9246   20.9582 C   0  0  0  0  0  0
    1.7710   49.5351   22.2767 C   0  0  0  0  0  0
    1.3658   50.4747   23.2276 C   0  0  0  0  0  0
    1.1044   50.0549   24.4847 F   0  0  0  0  0  0
    3.0869   53.9723   24.2607 C   0  0  0  0  0  0
    3.9951   54.1761   25.2302 C   0  0  0  0  0  0
    3.4369   53.6966   26.8272 S   0  0  0  0  0  0
    3.3271   54.3306   22.8767 C   0  0  0  0  0  0
    4.4265   54.0474   22.1520 C   0  0  0  0  0  0
    5.5031   53.4272   22.4821 O   0  5  0  0  0  0
    4.4677   54.4491   20.8356 N   0  0  0  0  0  0
    5.6051   54.8288   20.0058 C   0  0  0  0  0  0
    6.2616   56.1471   20.4505 C   0  0  0  0  0  0
    7.2281   56.6927   19.4131 C   0  0  0  0  0  0
    8.4789   56.0934   19.2429 C   0  0  0  0  0  0
    9.3643   56.5982   18.2958 C   0  0  0  0  0  0
    9.0030   57.7048   17.5289 C   0  0  0  0  0  0
    7.7576   58.3086   17.6969 C   0  0  0  0  0  0
    6.8687   57.7998   18.6371 C   0  0  0  0  0  0
   -1.2693   51.9991   27.2319 C   0  0  0  0  0  0
   -5.8364   52.5036   24.0819 H   0  0  0  0  0  0
   -4.9468   52.9251   25.5419 H   0  0  0  0  0  0
   -4.4017   53.5178   23.9790 H   0  0  0  0  0  0
   -3.9384   51.0911   23.2773 H   0  0  0  0  0  0
   -4.4155   50.5801   24.8783 H   0  0  0  0  0  0
    1.2807   53.2229   21.2319 H   0  0  0  0  0  0
    1.9977   51.5574   19.5667 H   0  0  0  0  0  0
    2.3214   49.1974   20.2269 H   0  0  0  0  0  0
    1.9074   48.5012   22.5622 H   0  0  0  0  0  0
    4.9786   54.6054   25.1006 H   0  0  0  0  0  0
    2.5374   54.8840   22.3907 H   0  0  0  0  0  0
    3.6221   54.8927   20.5089 H   0  0  0  0  0  0
    6.3359   54.0249   20.0501 H   0  0  0  0  0  0
    5.2580   54.8922   18.9742 H   0  0  0  0  0  0
    5.5045   56.8967   20.6600 H   0  0  0  0  0  0
    6.7851   56.0016   21.3972 H   0  0  0  0  0  0
    8.7650   55.2383   19.8408 H   0  0  0  0  0  0
   10.3316   56.1352   18.1614 H   0  0  0  0  0  0
    9.6941   58.0977   16.7962 H   0  0  0  0  0  0
    7.4791   59.1668   17.1006 H   0  0  0  0  0  0
    5.9046   58.2724   18.7594 H   0  0  0  0  0  0
   -2.2203   52.4927   27.0410 H   0  0  0  0  0  0
   -1.4256   50.9204   27.2483 H   0  0  0  0  0  0
   -0.9747   52.3029   28.2393 H   0  0  0  0  0  0
  1  2  1  0  0  0
  1 36  1  0  0  0
  1 37  1  0  0  0
  1 38  1  0  0  0
  2  3  1  0  0  0
  2 39  1  0  0  0
  2 40  1  0  0  0
  3  4  1  0  0  0
  4  5  2  0  0  0
  4  6  1  0  0  0
  6 11  1  0  0  0
  6  7  2  0  0  0
  7  8  1  0  0  0
  7 35  1  0  0  0
  8  9  2  0  0  0
  9 22  1  0  0  0
  9 10  1  0  0  0
 10 11  1  0  0  0
 10 20  1  0  0  0
 11 12  1  0  0  0
 11 13  1  0  0  0
 13 18  2  0  0  0
 13 14  1  0  0  0
 14 15  2  0  0  0
 14 41  1  0  0  0
 15 16  1  0  0  0
 15 42  1  0  0  0
 16 17  2  0  0  0
 16 43  1  0  0  0
 17 18  1  0  0  0
 17 44  1  0  0  0
 18 19  1  0  0  0
 20 21  2  0  0  0
 20 23  1  0  0  0
 21 22  1  0  0  0
 21 45  1  0  0  0
 23 24  2  0  0  0
 23 46  1  0  0  0
 24 25  1  0  0  0
 24 26  1  0  0  0
 26 27  1  0  0  0
 26 47  1  0  0  0
 27 28  1  0  0  0
 27 48  1  0  0  0
 27 49  1  0  0  0
 28 29  1  0  0  0
 28 50  1  0  0  0
 28 51  1  0  0  0
 29 34  2  0  0  0
 29 30  1  0  0  0
 30 31  2  0  0  0
 30 52  1  0  0  0
 31 32  1  0  0  0
 31 53  1  0  0  0
 32 33  2  0  0  0
 32 54  1  0  0  0
 33 34  1  0  0  0
 33 55  1  0  0  0
 34 56  1  0  0  0
 35 57  1  0  0  0
 35 58  1  0  0  0
 35 59  1  0  0  0
M  CHG  1  25  -1
M  END
> <i_i_glide_confnum>
139

> <i_i_glide_lignum>
5645

> <i_i_glide_posenum>
48

> <i_i_glide_rotatable_bonds>
9

> <i_m_Source_File_Index>
3811

> <b_m_subgroup_collapsed>
0

> <r_i_docking_score>
-4.71312

> <r_i_glide_ecoul>
-4.19341

> <r_i_glide_eff_state_penalty>
0

> <r_i_glide_einternal>
5.05711

> <r_i_glide_emodel>
-55.3101

> <r_i_glide_energy>
-44.7883

> <r_i_glide_erotb>
0.619413

> <r_i_glide_esite>
-0.00830534

> <r_i_glide_evdw>
-40.5949

> <r_i_glide_gscore>
-4.71312

> <r_i_glide_hbond>
-0.129051

> <r_i_glide_ligand_efficiency>
-0.138621

> <r_i_glide_ligand_efficiency_ln>
-1.04126

> <r_i_glide_ligand_efficiency_sa>
-0.449079

> <r_i_glide_lipo>
-1.8335

> <r_i_glide_metal>
0

> <r_i_glide_rewards>
-0.702924

> <s_i_glide_gridfile>
wee1_glide-grid

> <s_m_Source_File>
wee1_decoys_glide_SP.sdf

> <s_m_Source_Path>
/Users/zhangxujun/Desktop

> <s_m_entry_id>
4086

> <s_m_entry_name>
wee1_decoys_glide_SP.3811

> <s_m_subgroup_title>
wee1_decoys_glide_SP

> <s_m_subgroupid>
wee1_decoys_glide_SP


$$$$
