ZINC33121115_163
                    3D
 Schrodinger Suite 2024-2.
 72 76  0  0  1  0            999 V2000
    2.4103   50.4813   21.2094 C   0  0  0  0  0  0
    1.6792   49.7504   22.1369 C   0  0  0  0  0  0
    0.3975   50.1597   22.5413 C   0  0  0  0  0  0
   -0.1966   51.2772   21.9148 C   0  0  0  0  0  0
    0.5574   52.0014   20.9790 C   0  0  0  0  0  0
    1.8677   51.6389   20.6643 C   0  0  0  0  0  0
    2.6300   52.4969   19.8696 N   0  0  0  0  0  0
    4.2118   53.0966   20.4231 S   0  0  0  0  0  0
    5.1045   51.9377   20.4823 O   0  0  0  0  0  0
    4.5470   54.2523   19.5861 O   0  0  0  0  0  0
    4.0824   53.6841   22.1122 C   0  0  0  0  0  0
    2.8562   53.9153   22.7280 C   0  0  0  0  0  0
    2.8093   54.1697   24.0938 C   0  0  0  0  0  0
    3.9784   54.2586   24.8576 C   0  0  0  0  0  0
    5.2323   54.1415   24.2152 C   0  0  0  0  0  0
    5.2567   53.8427   22.8492 C   0  0  0  0  0  0
    6.5530   54.2531   24.9874 C   0  0  0  0  0  0
    6.3907   54.6168   26.4789 C   0  0  0  0  0  0
    5.1369   53.9900   27.0993 C   0  0  0  0  0  0
    3.8880   54.4966   26.3598 C   0  0  0  0  0  0
   -1.5730   51.8052   22.2701 C   0  0  0  0  0  0
   -2.4524   51.6975   21.4123 O   0  0  0  0  0  0
   -1.7700   52.4845   23.4425 N   0  0  0  0  0  0
   -3.0439   53.1786   23.6846 C   0  0  0  0  0  0
   -4.1753   52.3116   24.2515 C   0  0  0  0  0  0
   -4.0366   52.0916   25.7627 C   0  0  0  0  0  0
   -2.7046   51.4481   26.1704 C   0  0  0  0  0  0
   -1.4417   52.3245   25.9966 C   0  0  0  0  0  0
   -0.8279   52.4961   24.5738 C   0  0  0  0  0  0
   -0.2407   49.4565   23.5506 N   0  0  0  0  0  0
   -1.2451   48.4331   23.2260 C   0  0  0  0  0  0
   -2.1301   47.9688   24.4075 C   0  0  0  0  0  0
   -1.2955   47.7497   25.6817 N   0  3  0  0  0  0
   -0.2908   48.8705   25.9833 C   0  0  0  0  0  0
    0.5424   49.1660   24.7519 C   0  0  0  0  0  0
    3.4119   50.1675   20.9540 H   0  0  0  0  0  0
    2.1464   48.8832   22.5780 H   0  0  0  0  0  0
    0.1547   52.8968   20.5267 H   0  0  0  0  0  0
    2.6432   52.2549   18.8905 H   0  0  0  0  0  0
    1.9368   53.8666   22.1685 H   0  0  0  0  0  0
    1.8481   54.3032   24.5676 H   0  0  0  0  0  0
    6.2091   53.6897   22.3630 H   0  0  0  0  0  0
    7.0693   53.2971   24.9183 H   0  0  0  0  0  0
    7.2077   54.9768   24.4982 H   0  0  0  0  0  0
    6.3302   55.6988   26.5830 H   0  0  0  0  0  0
    7.2788   54.3135   27.0356 H   0  0  0  0  0  0
    5.0740   54.2476   28.1575 H   0  0  0  0  0  0
    5.1949   52.9002   27.0448 H   0  0  0  0  0  0
    3.7739   55.5661   26.5135 H   0  0  0  0  0  0
    2.9949   54.0250   26.7717 H   0  0  0  0  0  0
   -2.8929   54.0968   24.2445 H   0  0  0  0  0  0
   -3.3743   53.5785   22.7347 H   0  0  0  0  0  0
   -4.2341   51.3588   23.7219 H   0  0  0  0  0  0
   -5.1266   52.8172   24.0811 H   0  0  0  0  0  0
   -4.8567   51.4549   26.0992 H   0  0  0  0  0  0
   -4.1634   53.0377   26.2914 H   0  0  0  0  0  0
   -2.7765   51.1381   27.2146 H   0  0  0  0  0  0
   -2.5971   50.5401   25.5928 H   0  0  0  0  0  0
   -1.6969   53.2975   26.3998 H   0  0  0  0  0  0
   -0.6508   51.9775   26.6623 H   0  0  0  0  0  0
   -0.3950   53.4966   24.5695 H   0  0  0  0  0  0
    0.0103   51.8174   24.4455 H   0  0  0  0  0  0
   -1.8529   48.7227   22.3671 H   0  0  0  0  0  0
   -0.6414   47.5727   22.9359 H   0  0  0  0  0  0
   -2.6063   47.0076   24.2115 H   0  0  0  0  0  0
   -2.9039   48.6914   24.6562 H   0  0  0  0  0  0
   -0.7565   46.8965   25.6238 H   0  0  0  0  0  0
    0.3159   48.4968   26.8067 H   0  0  0  0  0  0
   -0.8394   49.7124   26.3780 H   0  0  0  0  0  0
    1.1035   48.2641   24.5239 H   0  0  0  0  0  0
    1.2589   49.9604   24.9529 H   0  0  0  0  0  0
   -1.8652   47.6642   26.5225 H   0  0  0  0  0  0
  1  6  2  0  0  0
  1  2  1  0  0  0
  1 36  1  0  0  0
  2  3  2  0  0  0
  2 37  1  0  0  0
  3  4  1  0  0  0
  3 30  1  0  0  0
  4  5  2  0  0  0
  4 21  1  0  0  0
  5  6  1  0  0  0
  5 38  1  0  0  0
  6  7  1  0  0  0
  7  8  1  0  0  0
  7 39  1  0  0  0
  8  9  2  0  0  0
  8 10  2  0  0  0
  8 11  1  0  0  0
 11 16  2  0  0  0
 11 12  1  0  0  0
 12 13  2  0  0  0
 12 40  1  0  0  0
 13 14  1  0  0  0
 13 41  1  0  0  0
 14 20  1  0  0  0
 14 15  2  0  0  0
 15 16  1  0  0  0
 15 17  1  0  0  0
 16 42  1  0  0  0
 17 18  1  0  0  0
 17 43  1  0  0  0
 17 44  1  0  0  0
 18 19  1  0  0  0
 18 45  1  0  0  0
 18 46  1  0  0  0
 19 20  1  0  0  0
 19 47  1  0  0  0
 19 48  1  0  0  0
 20 49  1  0  0  0
 20 50  1  0  0  0
 21 22  2  0  0  0
 21 23  1  0  0  0
 23 29  1  0  0  0
 23 24  1  0  0  0
 24 25  1  0  0  0
 24 51  1  0  0  0
 24 52  1  0  0  0
 25 26  1  0  0  0
 25 53  1  0  0  0
 25 54  1  0  0  0
 26 27  1  0  0  0
 26 55  1  0  0  0
 26 56  1  0  0  0
 27 28  1  0  0  0
 27 57  1  0  0  0
 27 58  1  0  0  0
 28 29  1  0  0  0
 28 59  1  0  0  0
 28 60  1  0  0  0
 29 61  1  0  0  0
 29 62  1  0  0  0
 30 35  1  0  0  0
 30 31  1  0  0  0
 31 32  1  0  0  0
 31 63  1  0  0  0
 31 64  1  0  0  0
 32 33  1  0  0  0
 32 65  1  0  0  0
 32 66  1  0  0  0
 33 34  1  0  0  0
 33 67  1  0  0  0
 33 72  1  0  0  0
 34 35  1  0  0  0
 34 68  1  0  0  0
 34 69  1  0  0  0
 35 70  1  0  0  0
 35 71  1  0  0  0
M  CHG  1  33   1
M  END
> <i_i_glide_confnum>
909

> <i_i_glide_lignum>
164

> <i_i_glide_posenum>
336

> <i_i_glide_rotatable_bonds>
6

> <i_m_Source_File_Index>
4050

> <b_m_subgroup_collapsed>
0

> <r_i_docking_score>
-4.13139

> <r_i_glide_ecoul>
-6.26313

> <r_i_glide_eff_state_penalty>
0

> <r_i_glide_einternal>
16.2308

> <r_i_glide_emodel>
-47.9211

> <r_i_glide_energy>
-48.711

> <r_i_glide_erotb>
0.494207

> <r_i_glide_esite>
-0.210711

> <r_i_glide_evdw>
-42.4479

> <r_i_glide_gscore>
-4.13139

> <r_i_glide_hbond>
-0.116202

> <r_i_glide_ligand_efficiency>
-0.11804

> <r_i_glide_ligand_efficiency_ln>
-0.906932

> <r_i_glide_ligand_efficiency_sa>
-0.386116

> <r_i_glide_lipo>
-3.02697

> <r_i_glide_metal>
0

> <r_i_glide_rewards>
1.79015

> <s_i_glide_gridfile>
wee1_glide-grid

> <s_m_Source_File>
wee1_decoys_glide_SP.sdf

> <s_m_Source_Path>
/Users/zhangxujun/Desktop

> <s_m_entry_id>
4325

> <s_m_entry_name>
wee1_decoys_glide_SP.4050

> <s_m_subgroup_title>
wee1_decoys_glide_SP

> <s_m_subgroupid>
wee1_decoys_glide_SP


$$$$
