ZINC20940882_574
                    3D
 Schrodinger Suite 2024-2.
 55 58  0  0  1  0            999 V2000
    3.8155   53.1547   29.2450 C   0  0  0  0  0  0
    4.3066   53.5861   27.8712 C   0  0  0  0  0  0
    5.6806   53.6967   27.6445 C   0  0  0  0  0  0
    6.1620   54.0501   26.3862 C   0  0  0  0  0  0
    5.2782   54.3088   25.3264 C   0  0  0  0  0  0
    3.9017   54.2460   25.5742 C   0  0  0  0  0  0
    3.4091   53.8668   26.8273 C   0  0  0  0  0  0
    1.9043   53.7375   27.0175 C   0  0  0  0  0  0
    5.7855   54.6692   24.0460 N   0  0  0  0  0  0
    5.3892   54.3214   22.7509 C   0  0  0  0  0  0
    6.2209   55.0803   21.8988 C   0  0  0  0  0  0
    7.1044   55.6966   22.7724 C   0  0  0  0  0  0
    6.8205   55.5103   24.0308 N   0  0  0  0  0  0
    6.2875   55.2319   20.4601 C   0  0  0  0  0  0
    7.2137   55.8533   19.9361 O   0  0  0  0  0  0
    5.2671   54.6741   19.7875 N   0  0  0  0  0  0
    5.1024   54.6375   18.3974 C   0  0  0  0  0  0
    4.8196   53.3976   17.8170 C   0  0  0  0  0  0
    4.5960   53.2975   16.4445 C   0  0  0  0  0  0
    4.6295   54.4416   15.6472 C   0  0  0  0  0  0
    4.8814   55.6869   16.2238 C   0  0  0  0  0  0
    5.1090   55.7935   17.5964 C   0  0  0  0  0  0
    5.3052   57.0201   18.1333 F   0  0  0  0  0  0
    4.3187   54.3060   13.7745 Br  0  0  0  0  0  0
    4.2829   53.3168   22.4630 C   0  0  0  0  0  0
    2.9444   53.9236   21.9884 C   0  0  0  0  0  0
    1.8704   52.8698   21.6679 C   0  0  0  0  0  0
    2.4478   51.8589   20.6664 N   0  3  0  0  0  0
    3.6206   51.0816   21.2815 C   0  0  0  0  0  0
    4.7518   52.0518   21.6817 C   0  0  0  0  0  0
    3.2490   52.2264   29.1694 H   0  0  0  0  0  0
    4.6350   52.9889   29.9428 H   0  0  0  0  0  0
    3.1550   53.9137   29.6641 H   0  0  0  0  0  0
    6.3846   53.4907   28.4383 H   0  0  0  0  0  0
    7.2303   54.0990   26.2401 H   0  0  0  0  0  0
    3.1989   54.4927   24.7966 H   0  0  0  0  0  0
    1.5174   54.5672   27.6099 H   0  0  0  0  0  0
    1.3786   53.6968   26.0631 H   0  0  0  0  0  0
    1.6597   52.8115   27.5378 H   0  0  0  0  0  0
    7.9440   56.3123   22.4816 H   0  0  0  0  0  0
    4.6472   54.0956   20.3290 H   0  0  0  0  0  0
    4.7907   52.4967   18.4130 H   0  0  0  0  0  0
    4.3988   52.3290   16.0056 H   0  0  0  0  0  0
    4.8919   56.5762   15.6106 H   0  0  0  0  0  0
    3.9386   52.8967   23.3984 H   0  0  0  0  0  0
    2.5194   54.5899   22.7383 H   0  0  0  0  0  0
    3.1044   54.4967   21.0817 H   0  0  0  0  0  0
    1.5587   52.3035   22.5479 H   0  0  0  0  0  0
    0.9850   53.2967   21.1974 H   0  0  0  0  0  0
    1.7277   51.2070   20.3832 H   0  0  0  0  0  0
    3.2108   50.5291   22.1296 H   0  0  0  0  0  0
    3.9288   50.3721   20.5131 H   0  0  0  0  0  0
    5.2343   52.3247   20.7464 H   0  0  0  0  0  0
    5.4855   51.4943   22.2674 H   0  0  0  0  0  0
    2.7474   52.3351   19.8255 H   0  0  0  0  0  0
  1  2  1  0  0  0
  1 31  1  0  0  0
  1 32  1  0  0  0
  1 33  1  0  0  0
  2  7  2  0  0  0
  2  3  1  0  0  0
  3  4  2  0  0  0
  3 34  1  0  0  0
  4  5  1  0  0  0
  4 35  1  0  0  0
  5  6  2  0  0  0
  5  9  1  0  0  0
  6  7  1  0  0  0
  6 36  1  0  0  0
  7  8  1  0  0  0
  8 37  1  0  0  0
  8 38  1  0  0  0
  8 39  1  0  0  0
  9 13  1  0  0  0
  9 10  1  0  0  0
 10 11  2  0  0  0
 10 25  1  0  0  0
 11 12  1  0  0  0
 11 14  1  0  0  0
 12 13  2  0  0  0
 12 40  1  0  0  0
 14 15  2  0  0  0
 14 16  1  0  0  0
 16 17  1  0  0  0
 16 41  1  0  0  0
 17 22  2  0  0  0
 17 18  1  0  0  0
 18 19  2  0  0  0
 18 42  1  0  0  0
 19 20  1  0  0  0
 19 43  1  0  0  0
 20 21  2  0  0  0
 20 24  1  0  0  0
 21 22  1  0  0  0
 21 44  1  0  0  0
 22 23  1  0  0  0
 25 30  1  0  0  0
 25 26  1  0  0  0
 25 45  1  0  0  0
 26 27  1  0  0  0
 26 46  1  0  0  0
 26 47  1  0  0  0
 27 28  1  0  0  0
 27 48  1  0  0  0
 27 49  1  0  0  0
 28 29  1  0  0  0
 28 50  1  0  0  0
 28 55  1  0  0  0
 29 30  1  0  0  0
 29 51  1  0  0  0
 29 52  1  0  0  0
 30 53  1  0  0  0
 30 54  1  0  0  0
M  CHG  1  28   1
M  END
> <i_i_glide_confnum>
42

> <i_i_glide_lignum>
575

> <i_i_glide_posenum>
251

> <i_i_glide_rotatable_bonds>
5

> <i_m_Source_File_Index>
5502

> <b_m_subgroup_collapsed>
0

> <r_i_docking_score>
-5.0225

> <r_i_glide_ecoul>
-0.708613

> <r_i_glide_eff_state_penalty>
0

> <r_i_glide_einternal>
7.01593

> <r_i_glide_emodel>
-43.2768

> <r_i_glide_energy>
-34.913

> <r_i_glide_erotb>
0.453077

> <r_i_glide_esite>
-0.00222106

> <r_i_glide_evdw>
-34.2043

> <r_i_glide_gscore>
-5.0225

> <r_i_glide_hbond>
0

> <r_i_glide_ligand_efficiency>
-0.167417

> <r_i_glide_ligand_efficiency_ln>
-1.14117

> <r_i_glide_ligand_efficiency_sa>
-0.520202

> <r_i_glide_lipo>
-2.71008

> <r_i_glide_metal>
0

> <r_i_glide_rewards>
-0.946769

> <s_i_glide_gridfile>
wee1_glide-grid

> <s_m_Source_File>
wee1_decoys_glide_SP.sdf

> <s_m_Source_Path>
/Users/zhangxujun/Desktop

> <s_m_entry_id>
5777

> <s_m_entry_name>
wee1_decoys_glide_SP.5502

> <s_m_subgroup_title>
wee1_decoys_glide_SP

> <s_m_subgroupid>
wee1_decoys_glide_SP


$$$$
