ZINC41019552_1051
                    3D
 Schrodinger Suite 2024-2.
 65 69  0  0  1  0            999 V2000
    5.7602   56.6967   14.1814 C   0  0  0  0  0  0
    5.1917   56.0997   15.4814 C   0  0  1  0  0  0
    4.2481   56.6157   15.6761 H   0  0  0  0  0  0
    4.9642   54.5812   15.3494 C   0  0  0  0  0  0
    4.1754   54.0213   16.5509 C   0  0  0  0  0  0
    4.7893   54.5151   17.8758 C   0  0  0  0  0  0
    5.7026   55.5844   17.8755 C   0  0  0  0  0  0
    6.3639   55.8838   19.4317 S   0  0  0  0  0  0
    5.4217   54.5936   20.1339 C   0  0  0  0  0  0
    4.5748   53.9751   19.1866 C   0  0  0  0  0  0
    3.6533   52.8878   19.5340 C   0  0  0  0  0  0
    3.7106   52.3018   20.6195 O   0  0  0  0  0  0
    2.7020   52.6287   18.6238 N   0  0  0  0  0  0
    1.6175   51.6591   18.7344 C   0  0  2  0  0  0
    1.9843   50.6360   18.8752 H   0  0  0  0  0  0
    0.8205   51.6832   17.4078 C   0  0  0  0  0  0
   -0.5092   50.9402   17.5943 C   0  0  0  0  0  0
   -1.0562   51.3854   19.3239 S   0  0  0  0  0  0
   -1.3728   50.1470   20.0443 O   0  0  0  0  0  0
   -2.0189   52.4938   19.2892 O   0  0  0  0  0  0
    0.6179   52.0313   19.8546 C   0  0  0  0  0  0
    5.5002   54.2689   21.4889 N   0  0  0  0  0  0
    6.2862   54.7994   22.4480 C   0  0  0  0  0  0
    7.1044   55.6963   22.2743 O   0  0  0  0  0  0
    6.0924   54.2088   23.8496 C   0  0  0  0  0  0
    6.4458   55.1918   24.9889 C   0  0  0  0  0  0
    6.1430   54.6027   26.3461 C   0  0  0  0  0  0
    7.0103   54.1531   27.2190 N   0  0  0  0  0  0
    6.2608   53.7215   28.2095 C   0  0  0  0  0  0
    4.9096   53.9034   27.9474 C   0  0  0  0  0  0
    4.8427   54.4791   26.7216 O   0  0  0  0  0  0
    3.6425   53.6129   28.6798 C   0  0  0  0  0  0
    2.4281   54.1655   28.2600 C   0  0  0  0  0  0
    1.2530   53.8848   28.9529 C   0  0  0  0  0  0
    1.2906   53.0514   30.0679 C   0  0  0  0  0  0
    2.4953   52.4967   30.4963 C   0  0  0  0  0  0
    3.6692   52.7722   29.7979 C   0  0  0  0  0  0
    6.1583   56.3763   16.6544 C   0  0  0  0  0  0
    6.7157   56.2442   13.9175 H   0  0  0  0  0  0
    5.0784   56.5393   13.3465 H   0  0  0  0  0  0
    5.9153   57.7714   14.2768 H   0  0  0  0  0  0
    4.4013   54.3746   14.4386 H   0  0  0  0  0  0
    5.9146   54.0637   15.2041 H   0  0  0  0  0  0
    4.1871   52.9313   16.4868 H   0  0  0  0  0  0
    3.1341   54.3387   16.4800 H   0  0  0  0  0  0
    2.7994   53.0770   17.7252 H   0  0  0  0  0  0
    1.4133   51.2521   16.5983 H   0  0  0  0  0  0
    0.6294   52.7178   17.1039 H   0  0  0  0  0  0
   -0.2950   49.8705   17.5944 H   0  0  0  0  0  0
   -1.3056   51.1253   16.8725 H   0  0  0  0  0  0
    0.4845   53.1132   19.8082 H   0  0  0  0  0  0
    0.8739   51.7775   20.8868 H   0  0  0  0  0  0
    4.8803   53.5140   21.7553 H   0  0  0  0  0  0
    5.0504   53.8959   23.9606 H   0  0  0  0  0  0
    6.6856   53.2976   23.9368 H   0  0  0  0  0  0
    7.5046   55.4440   24.9193 H   0  0  0  0  0  0
    5.9039   56.1306   24.8669 H   0  0  0  0  0  0
    6.7016   53.3038   29.0977 H   0  0  0  0  0  0
    2.3927   54.8126   27.3952 H   0  0  0  0  0  0
    0.3152   54.3081   28.6236 H   0  0  0  0  0  0
    0.3808   52.8307   30.6063 H   0  0  0  0  0  0
    2.5130   51.8587   31.3694 H   0  0  0  0  0  0
    4.5993   52.3330   30.1276 H   0  0  0  0  0  0
    6.1909   57.4455   16.8721 H   0  0  0  0  0  0
    7.1707   56.0671   16.3869 H   0  0  0  0  0  0
  1  2  1  0  0  0
  1 39  1  0  0  0
  1 40  1  0  0  0
  1 41  1  0  0  0
  2  3  1  0  0  0
  2 38  1  0  0  0
  2  4  1  0  0  0
  4  5  1  0  0  0
  4 42  1  0  0  0
  4 43  1  0  0  0
  5  6  1  0  0  0
  5 44  1  0  0  0
  5 45  1  0  0  0
  6 10  1  0  0  0
  6  7  2  0  0  0
  7  8  1  0  0  0
  7 38  1  0  0  0
  8  9  1  0  0  0
  9 10  2  0  0  0
  9 22  1  0  0  0
 10 11  1  0  0  0
 11 12  2  0  0  0
 11 13  1  0  0  0
 13 14  1  0  0  0
 13 46  1  0  0  0
 14 15  1  0  0  0
 14 21  1  0  0  0
 14 16  1  0  0  0
 16 17  1  0  0  0
 16 47  1  0  0  0
 16 48  1  0  0  0
 17 18  1  0  0  0
 17 49  1  0  0  0
 17 50  1  0  0  0
 18 19  2  0  0  0
 18 20  2  0  0  0
 18 21  1  0  0  0
 21 51  1  0  0  0
 21 52  1  0  0  0
 22 23  1  0  0  0
 22 53  1  0  0  0
 23 24  2  0  0  0
 23 25  1  0  0  0
 25 26  1  0  0  0
 25 54  1  0  0  0
 25 55  1  0  0  0
 26 27  1  0  0  0
 26 56  1  0  0  0
 26 57  1  0  0  0
 27 31  1  0  0  0
 27 28  2  0  0  0
 28 29  1  0  0  0
 29 30  2  0  0  0
 29 58  1  0  0  0
 30 31  1  0  0  0
 30 32  1  0  0  0
 32 37  2  0  0  0
 32 33  1  0  0  0
 33 34  2  0  0  0
 33 59  1  0  0  0
 34 35  1  0  0  0
 34 60  1  0  0  0
 35 36  2  0  0  0
 35 61  1  0  0  0
 36 37  1  0  0  0
 36 62  1  0  0  0
 37 63  1  0  0  0
 38 64  1  0  0  0
 38 65  1  0  0  0
M  END
> <i_i_glide_confnum>
438

> <i_i_glide_lignum>
1052

> <i_i_glide_posenum>
87

> <i_i_glide_rotatable_bonds>
9

> <i_m_Source_File_Index>
4982

> <b_m_subgroup_collapsed>
0

> <r_i_docking_score>
-5.77931

> <r_i_glide_ecoul>
-4.49375

> <r_i_glide_eff_state_penalty>
0

> <r_i_glide_einternal>
3.27761

> <r_i_glide_emodel>
-70.5338

> <r_i_glide_energy>
-52.2802

> <r_i_glide_erotb>
0.665784

> <r_i_glide_esite>
-0.112964

> <r_i_glide_evdw>
-47.7864

> <r_i_glide_gscore>
-5.77931

> <r_i_glide_hbond>
0

> <r_i_glide_ligand_efficiency>
-0.160536

> <r_i_glide_ligand_efficiency_ln>
-1.26089

> <r_i_glide_ligand_efficiency_sa>
-0.53008

> <r_i_glide_lipo>
-2.79276

> <r_i_glide_metal>
0

> <r_i_glide_rewards>
-0.47599

> <s_i_glide_gridfile>
wee1_glide-grid

> <s_m_Source_File>
wee1_decoys_glide_SP.sdf

> <s_m_Source_Path>
/Users/zhangxujun/Desktop

> <s_m_entry_id>
5257

> <s_m_entry_name>
wee1_decoys_glide_SP.4982

> <s_m_subgroup_title>
wee1_decoys_glide_SP

> <s_m_subgroupid>
wee1_decoys_glide_SP


$$$$
