ZINC23328350_3728
                    3D
 Schrodinger Suite 2024-2.
 67 70  0  0  1  0            999 V2000
    3.5343   54.0132   22.8677 C   0  0  0  0  0  0
    3.5021   54.0399   24.3838 C   0  0  0  0  0  0
    4.6133   54.4532   25.1138 C   0  0  0  0  0  0
    4.5562   54.4998   26.5036 C   0  0  0  0  0  0
    3.3798   54.1571   27.1935 C   0  0  0  0  0  0
    2.2754   53.6960   26.4580 C   0  0  0  0  0  0
    2.3436   53.6593   25.0595 C   0  0  0  0  0  0
    1.1067   53.3569   27.1132 O   0  0  0  0  0  0
    0.7575   51.9731   27.1566 C   0  0  0  0  0  0
   -0.0603   51.5721   25.9380 C   0  0  0  0  0  0
   -0.7299   52.3943   25.1718 N   0  0  0  0  0  0
   -1.2071   51.6555   24.1016 N   0  0  0  0  0  0
   -0.9147   50.3953   24.3179 C   0  0  0  0  0  0
   -0.2018   50.2775   25.4931 N   0  0  0  0  0  0
    0.3045   49.1305   26.0817 N   0  0  0  0  0  0
   -1.2081   49.0733   23.1747 S   0  0  0  0  0  0
   -2.5404   49.7316   22.0949 C   0  0  1  0  0  0
   -2.8401   48.8756   21.4887 H   0  0  0  0  0  0
   -3.8251   50.1720   22.8359 C   0  0  0  0  0  0
   -2.0211   50.7855   21.0878 C   0  0  0  0  0  0
   -2.3352   51.9734   21.1893 O   0  0  0  0  0  0
   -1.2167   50.3328   20.1088 N   0  0  0  0  0  0
   -0.6216   51.1386   19.0312 C   0  0  2  0  0  0
   -0.2566   50.3512   18.3679 H   0  0  0  0  0  0
    0.6106   51.9602   19.4611 C   0  0  0  0  0  0
    1.2912   52.5836   18.2380 C   0  0  0  0  0  0
    0.3494   53.5677   17.5217 C   0  0  0  0  0  0
   -1.0816   53.0507   17.3654 C   0  0  0  0  0  0
   -1.5657   51.9475   18.1123 C   0  0  0  0  0  0
   -2.9013   51.5559   17.9267 C   0  0  0  0  0  0
   -3.7455   52.2273   17.0490 C   0  0  0  0  0  0
   -3.2667   53.3112   16.3267 C   0  0  0  0  0  0
   -1.9454   53.7137   16.4871 C   0  0  0  0  0  0
    3.2715   54.2976   28.7212 C   0  0  0  0  0  0
    4.6248   54.4116   29.4503 C   0  0  0  0  0  0
    2.3353   55.4560   29.1310 C   0  0  0  0  0  0
    4.4072   54.5303   22.4664 H   0  0  0  0  0  0
    3.5347   52.9856   22.5048 H   0  0  0  0  0  0
    2.6484   54.5067   22.4632 H   0  0  0  0  0  0
    5.5218   54.7499   24.6079 H   0  0  0  0  0  0
    5.4336   54.8471   27.0268 H   0  0  0  0  0  0
    1.4908   53.3559   24.4801 H   0  0  0  0  0  0
    0.1639   51.8150   28.0574 H   0  0  0  0  0  0
    1.6468   51.3546   27.2838 H   0  0  0  0  0  0
   -0.3914   48.5842   26.5846 H   0  0  0  0  0  0
    0.9298   48.6026   25.4885 H   0  0  0  0  0  0
   -4.6020   50.4828   22.1364 H   0  0  0  0  0  0
   -4.2344   49.3524   23.4275 H   0  0  0  0  0  0
   -3.6591   51.0114   23.5100 H   0  0  0  0  0  0
   -0.9228   49.3687   20.1521 H   0  0  0  0  0  0
    1.3143   51.3308   20.0076 H   0  0  0  0  0  0
    0.3099   52.7519   20.1483 H   0  0  0  0  0  0
    1.5992   51.7987   17.5466 H   0  0  0  0  0  0
    2.2078   53.0970   18.5363 H   0  0  0  0  0  0
    0.7676   53.8316   16.5490 H   0  0  0  0  0  0
    0.3034   54.4995   18.0825 H   0  0  0  0  0  0
   -3.2937   50.7048   18.4624 H   0  0  0  0  0  0
   -4.7678   51.9041   16.9232 H   0  0  0  0  0  0
   -3.9146   53.8378   15.6420 H   0  0  0  0  0  0
   -1.5860   54.5619   15.9218 H   0  0  0  0  0  0
    2.8195   53.3700   29.0766 H   0  0  0  0  0  0
    5.2493   53.5349   29.2651 H   0  0  0  0  0  0
    5.1881   55.2966   29.1581 H   0  0  0  0  0  0
    4.4720   54.4927   30.5212 H   0  0  0  0  0  0
    1.3649   55.3881   28.6413 H   0  0  0  0  0  0
    2.1471   55.4485   30.2056 H   0  0  0  0  0  0
    2.7539   56.4296   28.8813 H   0  0  0  0  0  0
  1  2  1  0  0  0
  1 37  1  0  0  0
  1 38  1  0  0  0
  1 39  1  0  0  0
  2  7  2  0  0  0
  2  3  1  0  0  0
  3  4  2  0  0  0
  3 40  1  0  0  0
  4  5  1  0  0  0
  4 41  1  0  0  0
  5  6  2  0  0  0
  5 34  1  0  0  0
  6  7  1  0  0  0
  6  8  1  0  0  0
  7 42  1  0  0  0
  8  9  1  0  0  0
  9 10  1  0  0  0
  9 43  1  0  0  0
  9 44  1  0  0  0
 10 14  1  0  0  0
 10 11  2  0  0  0
 11 12  1  0  0  0
 12 13  2  0  0  0
 13 14  1  0  0  0
 13 16  1  0  0  0
 14 15  1  0  0  0
 15 45  1  0  0  0
 15 46  1  0  0  0
 16 17  1  0  0  0
 17 18  1  0  0  0
 17 19  1  0  0  0
 17 20  1  0  0  0
 19 47  1  0  0  0
 19 48  1  0  0  0
 19 49  1  0  0  0
 20 21  2  0  0  0
 20 22  1  0  0  0
 22 23  1  0  0  0
 22 50  1  0  0  0
 23 24  1  0  0  0
 23 29  1  0  0  0
 23 25  1  0  0  0
 25 26  1  0  0  0
 25 51  1  0  0  0
 25 52  1  0  0  0
 26 27  1  0  0  0
 26 53  1  0  0  0
 26 54  1  0  0  0
 27 28  1  0  0  0
 27 55  1  0  0  0
 27 56  1  0  0  0
 28 33  2  0  0  0
 28 29  1  0  0  0
 29 30  2  0  0  0
 30 31  1  0  0  0
 30 57  1  0  0  0
 31 32  2  0  0  0
 31 58  1  0  0  0
 32 33  1  0  0  0
 32 59  1  0  0  0
 33 60  1  0  0  0
 34 35  1  0  0  0
 34 36  1  0  0  0
 34 61  1  0  0  0
 35 62  1  0  0  0
 35 63  1  0  0  0
 35 64  1  0  0  0
 36 65  1  0  0  0
 36 66  1  0  0  0
 36 67  1  0  0  0
M  END
> <i_i_glide_confnum>
155

> <i_i_glide_lignum>
3729

> <i_i_glide_posenum>
335

> <i_i_glide_rotatable_bonds>
9

> <i_m_Source_File_Index>
4266

> <b_m_subgroup_collapsed>
0

> <r_i_docking_score>
-5.53795

> <r_i_glide_ecoul>
-9.65696

> <r_i_glide_eff_state_penalty>
0

> <r_i_glide_einternal>
6.77651

> <r_i_glide_emodel>
-58.1562

> <r_i_glide_energy>
-45.665

> <r_i_glide_erotb>
0.616869

> <r_i_glide_esite>
-0.147793

> <r_i_glide_evdw>
-36.008

> <r_i_glide_gscore>
-5.53795

> <r_i_glide_hbond>
-0.231338

> <r_i_glide_ligand_efficiency>
-0.162881

> <r_i_glide_ligand_efficiency_ln>
-1.22349

> <r_i_glide_ligand_efficiency_sa>
-0.52767

> <r_i_glide_lipo>
-2.33696

> <r_i_glide_metal>
0

> <r_i_glide_rewards>
-0.189777

> <s_i_glide_gridfile>
wee1_glide-grid

> <s_m_Source_File>
wee1_decoys_glide_SP.sdf

> <s_m_Source_Path>
/Users/zhangxujun/Desktop

> <s_m_entry_id>
4541

> <s_m_entry_name>
wee1_decoys_glide_SP.4266

> <s_m_subgroup_title>
wee1_decoys_glide_SP

> <s_m_subgroupid>
wee1_decoys_glide_SP


$$$$
