ZINC12329554_2139
                    3D
 Schrodinger Suite 2024-2.
 62 65  0  0  1  0            999 V2000
   -6.9853   43.7445   23.3263 C   0  0  0  0  0  0
   -6.0281   44.5399   24.2161 C   0  0  0  0  0  0
   -5.0562   45.1664   23.3839 O   0  0  0  0  0  0
   -4.0961   45.9793   23.9536 C   0  0  0  0  0  0
   -3.9845   46.2251   25.3303 C   0  0  0  0  0  0
   -2.9632   47.0363   25.8151 C   0  0  0  0  0  0
   -2.0403   47.6115   24.9374 C   0  0  0  0  0  0
   -2.1510   47.3687   23.5643 C   0  0  0  0  0  0
   -3.1738   46.5562   23.0813 C   0  0  0  0  0  0
   -0.9441   48.5127   25.5068 C   0  0  2  0  0  0
   -0.6599   48.0967   26.4732 H   0  0  0  0  0  0
   -1.4420   49.9742   25.6990 C   0  0  0  0  0  0
   -1.1693   52.2154   26.9032 C   0  0  0  0  0  0
   -0.4599   52.9301   28.0806 C   0  0  0  0  0  0
    1.0822   52.8318   28.0128 C   0  0  2  0  0  0
    1.3928   51.3220   28.0344 C   0  0  0  0  0  0
    0.7976   50.6005   26.8172 C   0  0  0  0  0  0
    1.7578   53.6008   29.1739 C   0  0  0  0  0  0
    3.2868   53.4882   29.0847 C   0  0  1  0  0  0
    3.6070   52.4715   29.3127 H   0  0  0  0  0  0
    3.7476   53.8389   27.6745 C   0  0  0  0  0  0
    5.0867   54.1240   27.3729 C   0  0  0  0  0  0
    5.5114   54.2996   26.0577 C   0  0  0  0  0  0
    4.6077   54.1643   24.9943 C   0  0  0  0  0  0
    3.2781   53.8542   25.2812 C   0  0  0  0  0  0
    2.8573   53.6659   26.5975 C   0  0  0  0  0  0
    1.5035   53.4120   26.7637 O   0  0  0  0  0  0
    4.9459   54.3015   23.6624 O   0  0  0  0  0  0
    6.3015   54.5681   23.3120 C   0  0  0  0  0  0
    3.9037   54.2590   30.0817 O   0  0  0  0  0  0
    0.2428   48.5042   24.7276 O   0  0  0  0  0  0
   -7.7370   43.2277   23.9242 H   0  0  0  0  0  0
   -6.4495   42.9956   22.7438 H   0  0  0  0  0  0
   -7.5067   44.4005   22.6304 H   0  0  0  0  0  0
   -6.5889   45.2819   24.7854 H   0  0  0  0  0  0
   -5.5425   43.8661   24.9228 H   0  0  0  0  0  0
   -4.6771   45.7999   26.0410 H   0  0  0  0  0  0
   -2.8915   47.2231   26.8788 H   0  0  0  0  0  0
   -1.4507   47.8107   22.8708 H   0  0  0  0  0  0
   -3.2536   46.3741   22.0200 H   0  0  0  0  0  0
   -1.3017   50.5751   24.7989 H   0  0  0  0  0  0
   -2.4928   49.9951   25.9938 H   0  0  0  0  0  0
   -0.9191   52.6554   25.9362 H   0  0  0  0  0  0
   -2.2511   52.2218   27.0474 H   0  0  0  0  0  0
   -0.7361   53.9843   28.0816 H   0  0  0  0  0  0
   -0.8241   52.5276   29.0275 H   0  0  0  0  0  0
    1.0142   50.8921   28.9608 H   0  0  0  0  0  0
    2.4625   51.1415   28.0407 H   0  0  0  0  0  0
    1.0547   49.5448   26.8816 H   0  0  0  0  0  0
    1.1043   51.0112   25.8547 H   0  0  0  0  0  0
    1.4844   54.6563   29.1361 H   0  0  0  0  0  0
    1.4056   53.2583   30.1475 H   0  0  0  0  0  0
    5.8215   54.2017   28.1605 H   0  0  0  0  0  0
    6.5520   54.5215   25.8816 H   0  0  0  0  0  0
    2.5703   53.7498   24.4724 H   0  0  0  0  0  0
    6.3869   54.6362   22.2276 H   0  0  0  0  0  0
    6.6461   55.5163   23.7278 H   0  0  0  0  0  0
    6.9668   53.7688   23.6438 H   0  0  0  0  0  0
    4.8260   54.3797   29.8426 H   0  0  0  0  0  0
    0.8251   47.8153   25.0679 H   0  0  0  0  0  0
   -0.7376   50.7245   26.8677 N   0  3  2  0  0  0
   -1.0398   50.2675   27.7247 H   0  0  0  0  0  0
  1  2  1  0  0  0
  1 32  1  0  0  0
  1 33  1  0  0  0
  1 34  1  0  0  0
  2  3  1  0  0  0
  2 35  1  0  0  0
  2 36  1  0  0  0
  3  4  1  0  0  0
  4  9  2  0  0  0
  4  5  1  0  0  0
  5  6  2  0  0  0
  5 37  1  0  0  0
  6  7  1  0  0  0
  6 38  1  0  0  0
  7  8  2  0  0  0
  7 10  1  0  0  0
  8  9  1  0  0  0
  8 39  1  0  0  0
  9 40  1  0  0  0
 10 11  1  0  0  0
 10 12  1  0  0  0
 10 31  1  0  0  0
 12 41  1  0  0  0
 12 42  1  0  0  0
 12 61  1  0  0  0
 13 14  1  0  0  0
 13 43  1  0  0  0
 13 44  1  0  0  0
 13 61  1  0  0  0
 14 15  1  0  0  0
 14 45  1  0  0  0
 14 46  1  0  0  0
 15 27  1  0  0  0
 15 16  1  0  0  0
 15 18  1  0  0  0
 16 17  1  0  0  0
 16 47  1  0  0  0
 16 48  1  0  0  0
 17 49  1  0  0  0
 17 50  1  0  0  0
 17 61  1  0  0  0
 18 19  1  0  0  0
 18 51  1  0  0  0
 18 52  1  0  0  0
 19 20  1  0  0  0
 19 21  1  0  0  0
 19 30  1  0  0  0
 21 26  2  0  0  0
 21 22  1  0  0  0
 22 23  2  0  0  0
 22 53  1  0  0  0
 23 24  1  0  0  0
 23 54  1  0  0  0
 24 25  2  0  0  0
 24 28  1  0  0  0
 25 26  1  0  0  0
 25 55  1  0  0  0
 26 27  1  0  0  0
 28 29  1  0  0  0
 29 56  1  0  0  0
 29 57  1  0  0  0
 29 58  1  0  0  0
 30 59  1  0  0  0
 31 60  1  0  0  0
 61 62  1  0  0  0
M  CHG  1  61   1
M  END
> <i_i_glide_confnum>
40

> <i_i_glide_lignum>
2140

> <i_i_glide_posenum>
398

> <i_i_glide_rotatable_bonds>
8

> <i_m_Source_File_Index>
670

> <b_m_subgroup_collapsed>
0

> <r_i_docking_score>
-5.91209

> <r_i_glide_ecoul>
-6.65216

> <r_i_glide_eff_state_penalty>
0

> <r_i_glide_einternal>
12.2641

> <r_i_glide_emodel>
-49.0379

> <r_i_glide_energy>
-38.0682

> <r_i_glide_erotb>
0.459503

> <r_i_glide_esite>
-0.0878247

> <r_i_glide_evdw>
-31.416

> <r_i_glide_gscore>
-5.91209

> <r_i_glide_hbond>
-0.604939

> <r_i_glide_ligand_efficiency>
-0.19707

> <r_i_glide_ligand_efficiency_ln>
-1.34329

> <r_i_glide_ligand_efficiency_sa>
-0.612342

> <r_i_glide_lipo>
-2.46968

> <r_i_glide_metal>
0

> <r_i_glide_rewards>
-0.640527

> <s_i_glide_gridfile>
wee1_glide-grid

> <s_m_Source_File>
wee1_decoys_glide_SP.sdf

> <s_m_Source_Path>
/Users/zhangxujun/Desktop

> <s_m_entry_id>
945

> <s_m_entry_name>
wee1_decoys_glide_SP.670

> <s_m_subgroup_title>
wee1_decoys_glide_SP

> <s_m_subgroupid>
wee1_decoys_glide_SP


$$$$
