ZINC13657884_4295
                    3D
 Schrodinger Suite 2024-2.
 36 37  0  0  1  0            999 V2000
    4.1244   53.3628   21.4216 C   0  0  0  0  0  0
    2.9986   53.1554   22.2331 C   0  0  0  0  0  0
    1.8941   52.4963   21.6802 C   0  0  0  0  0  0
    1.9179   52.0300   20.3660 C   0  0  0  0  0  0
    3.0609   52.2096   19.5793 C   0  0  0  0  0  0
    4.1596   52.8981   20.1068 C   0  0  0  0  0  0
    5.7137   53.2411   19.0559 Br  0  0  0  0  0  0
    3.1044   51.6968   18.3078 O   0  0  0  0  0  0
    0.3810   51.1294   19.6845 Br  0  0  0  0  0  0
    2.9616   53.5621   23.6424 C   0  0  0  0  0  0
    3.9571   54.0735   24.2458 N   0  0  0  0  0  0
    3.7612   54.1834   25.5777 N   0  0  0  0  0  0
    4.7556   54.3753   26.5007 C   0  0  0  0  0  0
    6.3044   54.8967   26.1610 S   0  0  0  0  0  0
    4.4586   54.0974   27.8033 N   0  0  0  0  0  0
    3.1741   53.5415   28.2612 C   0  0  0  0  0  0
    2.0154   54.5606   28.3010 C   0  0  1  0  0  0
    1.7599   54.8968   27.2976 H   0  0  0  0  0  0
    0.7442   54.0861   29.0146 C   0  0  0  0  0  0
    0.8064   54.7546   30.3655 C   0  0  0  0  0  0
    1.4615   56.0820   30.0161 C   0  0  0  0  0  0
    2.4466   55.6979   29.0619 O   0  0  0  0  0  0
    4.9912   53.8786   21.8102 H   0  0  0  0  0  0
    1.0061   52.3228   22.2716 H   0  0  0  0  0  0
    3.9856   51.3429   18.0818 H   0  0  0  0  0  0
    2.0153   53.3583   24.1428 H   0  0  0  0  0  0
    2.8551   53.8749   25.8967 H   0  0  0  0  0  0
    5.1809   54.2447   28.4944 H   0  0  0  0  0  0
    2.9043   52.6851   27.6408 H   0  0  0  0  0  0
    3.3185   53.1227   29.2572 H   0  0  0  0  0  0
   -0.1230   54.4800   28.4822 H   0  0  0  0  0  0
    0.6390   53.0011   29.0593 H   0  0  0  0  0  0
   -0.1720   54.8775   30.8298 H   0  0  0  0  0  0
    1.4296   54.1724   31.0422 H   0  0  0  0  0  0
    0.7689   56.7920   29.5624 H   0  0  0  0  0  0
    1.9043   56.5807   30.8784 H   0  0  0  0  0  0
  1  6  2  0  0  0
  1  2  1  0  0  0
  1 23  1  0  0  0
  2  3  2  0  0  0
  2 10  1  0  0  0
  3  4  1  0  0  0
  3 24  1  0  0  0
  4  5  2  0  0  0
  4  9  1  0  0  0
  5  6  1  0  0  0
  5  8  1  0  0  0
  6  7  1  0  0  0
  8 25  1  0  0  0
 10 11  2  0  0  0
 10 26  1  0  0  0
 11 12  1  0  0  0
 12 13  1  0  0  0
 12 27  1  0  0  0
 13 14  2  0  0  0
 13 15  1  0  0  0
 15 16  1  0  0  0
 15 28  1  0  0  0
 16 17  1  0  0  0
 16 29  1  0  0  0
 16 30  1  0  0  0
 17 18  1  0  0  0
 17 22  1  0  0  0
 17 19  1  0  0  0
 19 20  1  0  0  0
 19 31  1  0  0  0
 19 32  1  0  0  0
 20 21  1  0  0  0
 20 33  1  0  0  0
 20 34  1  0  0  0
 21 22  1  0  0  0
 21 35  1  0  0  0
 21 36  1  0  0  0
M  END
> <i_i_glide_confnum>
58

> <i_i_glide_lignum>
4296

> <i_i_glide_posenum>
258

> <i_i_glide_rotatable_bonds>
7

> <i_m_Source_File_Index>
2865

> <b_m_subgroup_collapsed>
0

> <r_i_docking_score>
-5.12513

> <r_i_glide_ecoul>
-4.94517

> <r_i_glide_eff_state_penalty>
0

> <r_i_glide_einternal>
13.3235

> <r_i_glide_emodel>
-45.9137

> <r_i_glide_energy>
-39.9853

> <r_i_glide_erotb>
0.521685

> <r_i_glide_esite>
0

> <r_i_glide_evdw>
-35.0402

> <r_i_glide_gscore>
-5.12513

> <r_i_glide_hbond>
-0.16

> <r_i_glide_ligand_efficiency>
-0.244054

> <r_i_glide_ligand_efficiency_ln>
-1.26718

> <r_i_glide_ligand_efficiency_sa>
-0.673326

> <r_i_glide_lipo>
-1.48321

> <r_i_glide_metal>
0

> <r_i_glide_rewards>
-1.50983

> <s_i_glide_gridfile>
wee1_glide-grid

> <s_m_Source_File>
wee1_decoys_glide_SP.sdf

> <s_m_Source_Path>
/Users/zhangxujun/Desktop

> <s_m_entry_id>
3140

> <s_m_entry_name>
wee1_decoys_glide_SP.2865

> <s_m_subgroup_title>
wee1_decoys_glide_SP

> <s_m_subgroupid>
wee1_decoys_glide_SP


$$$$
