ZINC22917874_6054
                    3D
 Schrodinger Suite 2024-2.
 64 67  0  0  1  0            999 V2000
   -1.6409   51.4691   29.4611 C   0  0  0  0  0  0
   -0.4957   52.2041   28.8055 C   0  0  0  0  0  0
    0.3835   53.0042   29.5423 C   0  0  0  0  0  0
    1.5992   53.6603   28.5268 S   0  0  0  0  0  0
    0.9660   52.8599   27.1133 C   0  0  0  0  0  0
   -0.1836   52.0891   27.4195 C   0  0  0  0  0  0
   -1.0381   51.1999   26.4567 C   0  0  1  0  0  0
   -1.0492   50.2034   26.9050 H   0  0  0  0  0  0
   -2.5229   51.6011   26.4267 C   0  0  0  0  0  0
   -3.5122   50.6619   26.7397 C   0  0  0  0  0  0
   -4.8561   51.0296   26.7304 C   0  0  0  0  0  0
   -5.2157   52.3380   26.3973 C   0  0  0  0  0  0
   -4.2347   53.2695   26.0646 C   0  0  0  0  0  0
   -2.8953   52.8967   26.0808 C   0  0  0  0  0  0
   -6.9069   52.8662   26.3986 S   0  0  0  0  0  0
   -7.9641   51.4554   26.8316 C   0  0  0  0  0  0
   -0.4367   51.0386   25.1066 N   0  0  0  0  0  0
    0.5518   49.9559   25.1892 C   0  0  0  0  0  0
    1.4563   50.0072   23.9480 C   0  0  0  0  0  0
    0.5836   49.6407   22.7320 N   0  3  0  0  0  0
   -0.5978   50.6353   22.6245 C   0  0  0  0  0  0
   -1.3488   50.7294   23.9820 C   0  0  0  0  0  0
    1.4260   49.6138   21.4376 C   0  0  0  0  0  0
    1.5690   53.0159   25.8576 N   0  0  0  0  0  0
    2.7044   53.6977   25.5419 C   0  0  0  0  0  0
    3.4146   54.2884   26.3584 O   0  0  0  0  0  0
    3.1360   53.6963   24.0898 C   0  0  0  0  0  0
    4.4759   53.9758   23.7713 C   0  0  0  0  0  0
    4.9272   53.8990   22.4573 C   0  0  0  0  0  0
    4.0400   53.5457   21.4467 C   0  0  0  0  0  0
    2.7033   53.2968   21.7394 C   0  0  0  0  0  0
    2.2425   53.4037   23.0494 C   0  0  0  0  0  0
    0.4007   53.3418   31.0196 C   0  0  0  0  0  0
   -2.5907   51.9582   29.2779 H   0  0  0  0  0  0
   -1.7723   50.4967   29.0206 H   0  0  0  0  0  0
   -1.5115   51.2914   30.5295 H   0  0  0  0  0  0
   -3.2378   49.6525   27.0162 H   0  0  0  0  0  0
   -5.5978   50.2919   26.9934 H   0  0  0  0  0  0
   -4.5062   54.2823   25.8084 H   0  0  0  0  0  0
   -2.1296   53.6128   25.8482 H   0  0  0  0  0  0
   -9.0114   51.7594   26.8249 H   0  0  0  0  0  0
   -7.8422   50.6468   26.1103 H   0  0  0  0  0  0
   -7.7246   51.0859   27.8280 H   0  0  0  0  0  0
    1.1049   50.0627   26.1166 H   0  0  0  0  0  0
    0.0556   48.9858   25.2832 H   0  0  0  0  0  0
    2.2670   49.2967   24.0099 H   0  0  0  0  0  0
    1.9038   50.9814   23.7779 H   0  0  0  0  0  0
   -1.2560   50.2357   21.8521 H   0  0  0  0  0  0
   -0.1921   51.5975   22.3093 H   0  0  0  0  0  0
   -1.8240   49.7711   24.2051 H   0  0  0  0  0  0
   -2.1280   51.4855   23.8845 H   0  0  0  0  0  0
    1.8421   50.6084   21.2710 H   0  0  0  0  0  0
    2.2186   48.8753   21.5744 H   0  0  0  0  0  0
    0.7657   49.3201   20.6198 H   0  0  0  0  0  0
    1.0899   52.5209   25.1180 H   0  0  0  0  0  0
    5.1887   54.2229   24.5461 H   0  0  0  0  0  0
    5.9625   54.1032   22.2262 H   0  0  0  0  0  0
    4.3849   53.4803   20.4245 H   0  0  0  0  0  0
    2.0178   53.0582   20.9393 H   0  0  0  0  0  0
    1.1941   53.2321   23.2447 H   0  0  0  0  0  0
    1.0992   52.7078   31.5664 H   0  0  0  0  0  0
    0.6988   54.3765   31.1969 H   0  0  0  0  0  0
   -0.5703   53.2222   31.4959 H   0  0  0  0  0  0
    0.2098   48.7170   22.9066 H   0  0  0  0  0  0
  1  2  1  0  0  0
  1 34  1  0  0  0
  1 35  1  0  0  0
  1 36  1  0  0  0
  2  6  1  0  0  0
  2  3  2  0  0  0
  3  4  1  0  0  0
  3 33  1  0  0  0
  4  5  1  0  0  0
  5  6  2  0  0  0
  5 24  1  0  0  0
  6  7  1  0  0  0
  7  8  1  0  0  0
  7  9  1  0  0  0
  7 17  1  0  0  0
  9 14  2  0  0  0
  9 10  1  0  0  0
 10 11  2  0  0  0
 10 37  1  0  0  0
 11 12  1  0  0  0
 11 38  1  0  0  0
 12 13  2  0  0  0
 12 15  1  0  0  0
 13 14  1  0  0  0
 13 39  1  0  0  0
 14 40  1  0  0  0
 15 16  1  0  0  0
 16 41  1  0  0  0
 16 42  1  0  0  0
 16 43  1  0  0  0
 17 22  1  0  0  0
 17 18  1  0  0  0
 18 19  1  0  0  0
 18 44  1  0  0  0
 18 45  1  0  0  0
 19 20  1  0  0  0
 19 46  1  0  0  0
 19 47  1  0  0  0
 20 21  1  0  0  0
 20 23  1  0  0  0
 20 64  1  0  0  0
 21 22  1  0  0  0
 21 48  1  0  0  0
 21 49  1  0  0  0
 22 50  1  0  0  0
 22 51  1  0  0  0
 23 52  1  0  0  0
 23 53  1  0  0  0
 23 54  1  0  0  0
 24 25  1  0  0  0
 24 55  1  0  0  0
 25 26  2  0  0  0
 25 27  1  0  0  0
 27 32  2  0  0  0
 27 28  1  0  0  0
 28 29  2  0  0  0
 28 56  1  0  0  0
 29 30  1  0  0  0
 29 57  1  0  0  0
 30 31  2  0  0  0
 30 58  1  0  0  0
 31 32  1  0  0  0
 31 59  1  0  0  0
 32 60  1  0  0  0
 33 61  1  0  0  0
 33 62  1  0  0  0
 33 63  1  0  0  0
M  CHG  1  20   1
M  END
> <i_i_glide_confnum>
76

> <i_i_glide_lignum>
6055

> <i_i_glide_posenum>
209

> <i_i_glide_rotatable_bonds>
7

> <i_m_Source_File_Index>
3094

> <b_m_subgroup_collapsed>
0

> <r_i_docking_score>
-3.82967

> <r_i_glide_ecoul>
-3.18594

> <r_i_glide_eff_state_penalty>
0

> <r_i_glide_einternal>
7.16825

> <r_i_glide_emodel>
-35.682

> <r_i_glide_energy>
-36.2933

> <r_i_glide_erotb>
0.555845

> <r_i_glide_esite>
0

> <r_i_glide_evdw>
-33.1074

> <r_i_glide_gscore>
-3.82967

> <r_i_glide_hbond>
0

> <r_i_glide_ligand_efficiency>
-0.119677

> <r_i_glide_ligand_efficiency_ln>
-0.857566

> <r_i_glide_ligand_efficiency_sa>
-0.379951

> <r_i_glide_lipo>
-1.73533

> <r_i_glide_metal>
0

> <r_i_glide_rewards>
-0.516917

> <s_i_glide_gridfile>
wee1_glide-grid

> <s_m_Source_File>
wee1_decoys_glide_SP.sdf

> <s_m_Source_Path>
/Users/zhangxujun/Desktop

> <s_m_entry_id>
3369

> <s_m_entry_name>
wee1_decoys_glide_SP.3094

> <s_m_subgroup_title>
wee1_decoys_glide_SP

> <s_m_subgroupid>
wee1_decoys_glide_SP


$$$$
