ZINC16321175_5037
                    3D
 Schrodinger Suite 2024-2.
 49 51  0  0  1  0            999 V2000
   -3.3233   46.0970   26.9229 C   0  0  0  0  0  0
   -2.7873   46.6054   25.5908 C   0  0  0  0  0  0
   -3.1882   46.0967   24.5450 O   0  0  0  0  0  0
   -1.8747   47.5888   25.6818 N   0  0  0  0  0  0
   -1.1683   48.2580   24.6676 C   0  0  0  0  0  0
   -1.4837   48.2063   23.3019 C   0  0  0  0  0  0
   -0.7195   48.9213   22.3813 C   0  0  0  0  0  0
    0.3626   49.7045   22.8051 C   0  0  0  0  0  0
    0.6688   49.7438   24.1737 C   0  0  0  0  0  0
   -0.0921   49.0328   25.0952 C   0  0  0  0  0  0
    1.1845   50.4727   21.7896 C   0  0  0  0  0  0
    1.1584   50.1563   20.5968 O   0  0  0  0  0  0
    1.9065   51.5036   22.2823 N   0  0  0  0  0  0
    2.8426   52.1671   21.5722 N   0  0  0  0  0  0
    3.4417   53.0505   22.2670 C   0  0  0  0  0  0
    4.5892   53.8421   21.7849 C   0  0  0  0  0  0
    4.7075   54.1341   20.4171 C   0  0  0  0  0  0
    5.7851   54.8662   19.9273 C   0  0  0  0  0  0
    6.7813   55.2971   20.7950 C   0  0  0  0  0  0
    6.6919   55.0061   22.1534 C   0  0  0  0  0  0
    5.5853   54.3073   22.6774 C   0  0  0  0  0  0
    5.4372   54.0115   24.0302 O   0  0  0  0  0  0
    5.8698   54.7970   25.0662 C   0  0  0  0  0  0
    6.7043   55.6969   24.9762 O   0  0  0  0  0  0
    5.2757   54.3994   26.3795 C   0  0  0  0  0  0
    5.9229   54.7896   27.5563 C   0  0  0  0  0  0
    5.3725   54.4966   28.7971 C   0  0  0  0  0  0
    4.1720   53.7966   28.8730 C   0  0  0  0  0  0
    3.5154   53.3939   27.7129 C   0  0  0  0  0  0
    4.0642   53.6967   26.4685 C   0  0  0  0  0  0
    5.9067   55.2584   18.0689 Br  0  0  0  0  0  0
   -2.5118   45.6963   27.5319 H   0  0  0  0  0  0
   -4.0659   45.3126   26.7794 H   0  0  0  0  0  0
   -3.7887   46.9109   27.4784 H   0  0  0  0  0  0
   -1.6309   47.8620   26.6351 H   0  0  0  0  0  0
   -2.3194   47.6326   22.9339 H   0  0  0  0  0  0
   -0.9823   48.8648   21.3329 H   0  0  0  0  0  0
    1.5040   50.3150   24.5412 H   0  0  0  0  0  0
    0.1672   49.0759   26.1446 H   0  0  0  0  0  0
    1.8302   51.7667   23.2527 H   0  0  0  0  0  0
    3.1516   53.2788   23.2929 H   0  0  0  0  0  0
    3.9544   53.7964   19.7176 H   0  0  0  0  0  0
    7.6332   55.8397   20.4119 H   0  0  0  0  0  0
    7.5043   55.3292   22.7853 H   0  0  0  0  0  0
    6.8529   55.3392   27.5298 H   0  0  0  0  0  0
    5.8934   54.8315   29.6818 H   0  0  0  0  0  0
    3.7478   53.5628   29.8375 H   0  0  0  0  0  0
    2.5843   52.8488   27.7771 H   0  0  0  0  0  0
    3.5338   53.3854   25.5816 H   0  0  0  0  0  0
  1  2  1  0  0  0
  1 32  1  0  0  0
  1 33  1  0  0  0
  1 34  1  0  0  0
  2  3  2  0  0  0
  2  4  1  0  0  0
  4  5  1  0  0  0
  4 35  1  0  0  0
  5 10  2  0  0  0
  5  6  1  0  0  0
  6  7  2  0  0  0
  6 36  1  0  0  0
  7  8  1  0  0  0
  7 37  1  0  0  0
  8  9  2  0  0  0
  8 11  1  0  0  0
  9 10  1  0  0  0
  9 38  1  0  0  0
 10 39  1  0  0  0
 11 12  2  0  0  0
 11 13  1  0  0  0
 13 14  1  0  0  0
 13 40  1  0  0  0
 14 15  2  0  0  0
 15 16  1  0  0  0
 15 41  1  0  0  0
 16 21  2  0  0  0
 16 17  1  0  0  0
 17 18  2  0  0  0
 17 42  1  0  0  0
 18 19  1  0  0  0
 18 31  1  0  0  0
 19 20  2  0  0  0
 19 43  1  0  0  0
 20 21  1  0  0  0
 20 44  1  0  0  0
 21 22  1  0  0  0
 22 23  1  0  0  0
 23 24  2  0  0  0
 23 25  1  0  0  0
 25 30  2  0  0  0
 25 26  1  0  0  0
 26 27  2  0  0  0
 26 45  1  0  0  0
 27 28  1  0  0  0
 27 46  1  0  0  0
 28 29  2  0  0  0
 28 47  1  0  0  0
 29 30  1  0  0  0
 29 48  1  0  0  0
 30 49  1  0  0  0
M  END
> <i_i_glide_confnum>
90

> <i_i_glide_lignum>
5038

> <i_i_glide_posenum>
191

> <i_i_glide_rotatable_bonds>
9

> <i_m_Source_File_Index>
4625

> <b_m_subgroup_collapsed>
0

> <r_i_docking_score>
-6.16734

> <r_i_glide_ecoul>
-7.2603

> <r_i_glide_eff_state_penalty>
0

> <r_i_glide_einternal>
9.98122

> <r_i_glide_emodel>
-66.9442

> <r_i_glide_energy>
-51.34

> <r_i_glide_erotb>
0.703191

> <r_i_glide_esite>
-0.2

> <r_i_glide_evdw>
-44.0797

> <r_i_glide_gscore>
-6.16734

> <r_i_glide_hbond>
-0.369707

> <r_i_glide_ligand_efficiency>
-0.198946

> <r_i_glide_ligand_efficiency_ln>
-1.39092

> <r_i_glide_ligand_efficiency_sa>
-0.624966

> <r_i_glide_lipo>
-2.20235

> <r_i_glide_metal>
0

> <r_i_glide_rewards>
-0.805438

> <s_i_glide_gridfile>
wee1_glide-grid

> <s_m_Source_File>
wee1_decoys_glide_SP.sdf

> <s_m_Source_Path>
/Users/zhangxujun/Desktop

> <s_m_entry_id>
4900

> <s_m_entry_name>
wee1_decoys_glide_SP.4625

> <s_m_subgroup_title>
wee1_decoys_glide_SP

> <s_m_subgroupid>
wee1_decoys_glide_SP


$$$$
