ZINC09264916_5736
                    3D
 Schrodinger Suite 2024-2.
 75 78  0  0  1  0            999 V2000
    3.5161   54.7320   14.8638 C   0  0  0  0  0  0
    4.1494   54.8243   16.2395 C   0  0  0  0  0  0
    3.9136   55.9287   17.0564 C   0  0  0  0  0  0
    4.5037   56.0055   18.3167 C   0  0  0  0  0  0
    5.3237   54.9736   18.7956 C   0  0  0  0  0  0
    5.6147   53.8984   17.9383 C   0  0  0  0  0  0
    5.0109   53.8200   16.6795 C   0  0  0  0  0  0
    6.6233   52.8415   18.3200 C   0  0  0  0  0  0
    5.8727   55.0405   20.1045 N   0  0  0  0  0  0
    5.3871   54.5132   21.3016 C   0  0  0  0  0  0
    6.3205   54.9311   22.2803 C   0  0  0  0  0  0
    7.2945   55.6234   21.5441 C   0  0  0  0  0  0
    7.0314   55.6957   20.2647 N   0  0  0  0  0  0
    6.3046   54.8632   23.7379 C   0  0  0  0  0  0
    7.0867   55.5391   24.4098 O   0  0  0  0  0  0
    5.3379   54.0972   24.2732 N   0  0  0  0  0  0
    4.9115   54.0965   25.6136 C   0  0  0  0  0  0
    5.7905   54.1567   26.7041 C   0  0  0  0  0  0
    5.2874   54.1198   28.0041 C   0  0  0  0  0  0
    3.9055   54.0200   28.2175 C   0  0  0  0  0  0
    3.0348   53.9683   27.1292 C   0  0  0  0  0  0
    3.5395   53.9855   25.8385 C   0  0  0  0  0  0
    3.3237   54.0195   29.5891 C   0  0  0  0  0  0
    2.3503   54.7033   29.9013 O   0  0  0  0  0  0
    3.8973   53.1782   30.4800 O   0  0  0  0  0  0
    4.3046   51.8671   30.1141 C   0  0  0  0  0  0
    4.0660   53.7376   21.3876 C   0  0  0  0  0  0
    4.1414   52.2102   21.6525 C   0  0  0  0  0  0
    2.8181   51.4765   22.0737 C   0  0  0  0  0  0
    1.9337   52.3773   22.8406 N   0  0  0  0  0  0
    1.6480   53.6918   22.2721 C   0  0  0  0  0  0
    2.9599   54.4584   22.1688 C   0  0  0  0  0  0
    1.1191   51.9734   23.9136 C   0  0  0  0  0  0
    0.4831   52.7584   24.6225 O   0  0  0  0  0  0
    1.0491   50.6132   24.0580 O   0  0  0  0  0  0
    0.0099   49.9533   24.8196 C   0  0  0  0  0  0
    0.2538   48.4409   24.6824 C   0  0  0  0  0  0
   -1.3876   50.2732   24.2297 C   0  0  0  0  0  0
    0.0664   50.3164   26.3225 C   0  0  0  0  0  0
    4.2424   54.3685   14.1366 H   0  0  0  0  0  0
    2.6757   54.0377   14.8772 H   0  0  0  0  0  0
    3.1737   55.7045   14.5095 H   0  0  0  0  0  0
    3.2792   56.7340   16.7164 H   0  0  0  0  0  0
    4.3113   56.8963   18.8828 H   0  0  0  0  0  0
    5.2207   52.9791   16.0335 H   0  0  0  0  0  0
    6.7483   52.0966   17.5367 H   0  0  0  0  0  0
    7.5965   53.3007   18.4817 H   0  0  0  0  0  0
    6.3045   52.3395   19.2338 H   0  0  0  0  0  0
    8.1744   56.0963   21.9615 H   0  0  0  0  0  0
    4.7090   53.6662   23.6126 H   0  0  0  0  0  0
    6.8578   54.2198   26.5538 H   0  0  0  0  0  0
    5.9765   54.1831   28.8347 H   0  0  0  0  0  0
    1.9638   53.8963   27.2709 H   0  0  0  0  0  0
    2.8349   53.9180   25.0298 H   0  0  0  0  0  0
    4.6656   51.3433   30.9990 H   0  0  0  0  0  0
    3.4698   51.2995   29.7004 H   0  0  0  0  0  0
    5.1043   51.8735   29.3763 H   0  0  0  0  0  0
    3.5775   53.7105   20.4105 H   0  0  0  0  0  0
    4.8337   52.0967   22.4816 H   0  0  0  0  0  0
    4.5688   51.6817   20.7979 H   0  0  0  0  0  0
    3.1043   50.6218   22.6883 H   0  0  0  0  0  0
    2.2670   51.0622   21.2286 H   0  0  0  0  0  0
    1.2001   53.5162   21.2922 H   0  0  0  0  0  0
    0.9389   54.2727   22.8654 H   0  0  0  0  0  0
    2.7045   55.3722   21.6817 H   0  0  0  0  0  0
    3.2539   54.7397   23.1683 H   0  0  0  0  0  0
   -0.5975   47.8603   25.0385 H   0  0  0  0  0  0
    1.1044   48.1247   25.2815 H   0  0  0  0  0  0
    0.4404   48.1500   23.6491 H   0  0  0  0  0  0
   -1.6521   51.3247   24.3411 H   0  0  0  0  0  0
   -1.4283   50.0405   23.1649 H   0  0  0  0  0  0
   -2.1697   49.6966   24.7245 H   0  0  0  0  0  0
   -0.2072   51.3512   26.5255 H   0  0  0  0  0  0
   -0.6305   49.6964   26.8818 H   0  0  0  0  0  0
    1.0605   50.1518   26.7404 H   0  0  0  0  0  0
  1  2  1  0  0  0
  1 40  1  0  0  0
  1 41  1  0  0  0
  1 42  1  0  0  0
  2  7  2  0  0  0
  2  3  1  0  0  0
  3  4  2  0  0  0
  3 43  1  0  0  0
  4  5  1  0  0  0
  4 44  1  0  0  0
  5  6  2  0  0  0
  5  9  1  0  0  0
  6  7  1  0  0  0
  6  8  1  0  0  0
  7 45  1  0  0  0
  8 46  1  0  0  0
  8 47  1  0  0  0
  8 48  1  0  0  0
  9 13  1  0  0  0
  9 10  1  0  0  0
 10 11  2  0  0  0
 10 27  1  0  0  0
 11 12  1  0  0  0
 11 14  1  0  0  0
 12 13  2  0  0  0
 12 49  1  0  0  0
 14 15  2  0  0  0
 14 16  1  0  0  0
 16 17  1  0  0  0
 16 50  1  0  0  0
 17 22  2  0  0  0
 17 18  1  0  0  0
 18 19  2  0  0  0
 18 51  1  0  0  0
 19 20  1  0  0  0
 19 52  1  0  0  0
 20 21  2  0  0  0
 20 23  1  0  0  0
 21 22  1  0  0  0
 21 53  1  0  0  0
 22 54  1  0  0  0
 23 24  2  0  0  0
 23 25  1  0  0  0
 25 26  1  0  0  0
 26 55  1  0  0  0
 26 56  1  0  0  0
 26 57  1  0  0  0
 27 32  1  0  0  0
 27 28  1  0  0  0
 27 58  1  0  0  0
 28 29  1  0  0  0
 28 59  1  0  0  0
 28 60  1  0  0  0
 29 30  1  0  0  0
 29 61  1  0  0  0
 29 62  1  0  0  0
 30 31  1  0  0  0
 30 33  1  0  0  0
 31 32  1  0  0  0
 31 63  1  0  0  0
 31 64  1  0  0  0
 32 65  1  0  0  0
 32 66  1  0  0  0
 33 34  2  0  0  0
 33 35  1  0  0  0
 35 36  1  0  0  0
 36 37  1  0  0  0
 36 38  1  0  0  0
 36 39  1  0  0  0
 37 67  1  0  0  0
 37 68  1  0  0  0
 37 69  1  0  0  0
 38 70  1  0  0  0
 38 71  1  0  0  0
 38 72  1  0  0  0
 39 73  1  0  0  0
 39 74  1  0  0  0
 39 75  1  0  0  0
M  END
> <i_i_glide_confnum>
174

> <i_i_glide_lignum>
5737

> <i_i_glide_posenum>
10

> <i_i_glide_rotatable_bonds>
10

> <i_m_Source_File_Index>
4312

> <b_m_subgroup_collapsed>
0

> <r_i_docking_score>
-1.64783

> <r_i_glide_ecoul>
-3.07297

> <r_i_glide_eff_state_penalty>
0

> <r_i_glide_einternal>
25.0058

> <r_i_glide_emodel>
-27.3785

> <r_i_glide_energy>
-50.6646

> <r_i_glide_erotb>
0.581674

> <r_i_glide_esite>
-0.00294884

> <r_i_glide_evdw>
-47.5917

> <r_i_glide_gscore>
-1.64783

> <r_i_glide_hbond>
-0.64132

> <r_i_glide_ligand_efficiency>
-0.042252

> <r_i_glide_ligand_efficiency_ln>
-0.353341

> <r_i_glide_ligand_efficiency_sa>
-0.143285

> <r_i_glide_lipo>
-2.93272

> <r_i_glide_metal>
0

> <r_i_glide_rewards>
4.18801

> <s_i_glide_gridfile>
wee1_glide-grid

> <s_m_Source_File>
wee1_decoys_glide_SP.sdf

> <s_m_Source_Path>
/Users/zhangxujun/Desktop

> <s_m_entry_id>
4587

> <s_m_entry_name>
wee1_decoys_glide_SP.4312

> <s_m_subgroup_title>
wee1_decoys_glide_SP

> <s_m_subgroupid>
wee1_decoys_glide_SP


$$$$
