ZINC17081835_2600
                    3D
 Schrodinger Suite 2024-2.
 44 47  0  0  1  0            999 V2000
    3.1043   52.4967   18.5070 C   0  0  0  0  0  0
    2.2296   51.4269   18.6890 C   0  0  0  0  0  0
    1.9555   50.9618   19.9745 C   0  0  0  0  0  0
    2.5513   51.5648   21.0828 C   0  0  0  0  0  0
    3.4169   52.6613   20.9029 C   0  0  0  0  0  0
    3.7062   53.1039   19.6088 C   0  0  0  0  0  0
    4.1123   53.2667   21.9589 N   0  0  0  0  0  0
    3.5882   53.6967   23.1265 C   0  0  0  0  0  0
    2.3840   53.6808   23.3938 O   0  0  0  0  0  0
    4.5804   54.1082   24.1083 C   0  0  0  0  0  0
    5.9040   54.4967   23.7921 C   0  0  0  0  0  0
    6.6527   54.8871   24.8861 C   0  0  0  0  0  0
    5.7557   54.7950   26.3578 S   0  0  0  0  0  0
    4.3331   54.2494   25.4904 C   0  0  0  0  0  0
    3.1563   53.8959   26.1469 N   0  0  0  0  0  0
    2.7043   54.3259   27.3435 C   0  0  0  0  0  0
    3.2181   55.2417   27.9795 O   0  0  0  0  0  0
    1.3799   53.7337   27.8942 C   0  0  1  0  0  0
    0.7366   54.6113   27.9818 H   0  0  0  0  0  0
    0.7062   52.6448   26.9871 C   0  0  1  0  0  0
    0.8393   52.7258   25.9074 H   0  0  0  0  0  0
    1.2195   51.3576   27.5900 C   0  0  0  0  0  0
    0.7384   51.6967   28.9817 C   0  0  1  0  0  0
    0.9089   50.8967   29.6817 H   0  0  0  0  0  0
    1.4839   53.0220   29.3045 C   0  0  1  0  0  0
    0.8846   53.5849   30.0220 H   0  0  0  0  0  0
    2.8583   52.8384   30.0103 C   0  0  0  0  0  0
    3.3584   51.6967   30.0816 O   0  0  0  0  0  0
   -0.7246   51.9517   28.6563 C   0  0  0  0  0  0
   -0.7452   52.4967   27.4254 C   0  0  0  0  0  0
    2.3045   51.0505   22.3113 F   0  0  0  0  0  0
    3.3349   52.8377   17.5088 H   0  0  0  0  0  0
    1.7866   50.9426   17.8310 H   0  0  0  0  0  0
    1.2975   50.1171   20.1123 H   0  0  0  0  0  0
    4.3932   53.9216   19.4474 H   0  0  0  0  0  0
    5.0902   53.4417   21.7975 H   0  0  0  0  0  0
    6.3172   54.5044   22.7938 H   0  0  0  0  0  0
    7.6786   55.2165   24.8817 H   0  0  0  0  0  0
    2.5075   53.3617   25.5862 H   0  0  0  0  0  0
    2.3044   51.2783   27.5522 H   0  0  0  0  0  0
    0.7864   50.4462   27.1664 H   0  0  0  0  0  0
   -1.5489   51.7086   29.3114 H   0  0  0  0  0  0
   -1.5969   52.8171   26.8439 H   0  0  0  0  0  0
    3.4029   53.8551   30.4817 O   0  5  0  0  0  0
  1  6  2  0  0  0
  1  2  1  0  0  0
  1 32  1  0  0  0
  2  3  2  0  0  0
  2 33  1  0  0  0
  3  4  1  0  0  0
  3 34  1  0  0  0
  4  5  2  0  0  0
  4 31  1  0  0  0
  5  6  1  0  0  0
  5  7  1  0  0  0
  6 35  1  0  0  0
  7  8  1  0  0  0
  7 36  1  0  0  0
  8  9  2  0  0  0
  8 10  1  0  0  0
 10 14  2  0  0  0
 10 11  1  0  0  0
 11 12  2  0  0  0
 11 37  1  0  0  0
 12 13  1  0  0  0
 12 38  1  0  0  0
 13 14  1  0  0  0
 14 15  1  0  0  0
 15 16  1  0  0  0
 15 39  1  0  0  0
 16 17  2  0  0  0
 16 18  1  0  0  0
 18 19  1  0  0  0
 18 25  1  0  0  0
 18 20  1  0  0  0
 20 21  1  0  0  0
 20 30  1  0  0  0
 20 22  1  0  0  0
 22 23  1  0  0  0
 22 40  1  0  0  0
 22 41  1  0  0  0
 23 24  1  0  0  0
 23 25  1  0  0  0
 23 29  1  0  0  0
 25 26  1  0  0  0
 25 27  1  0  0  0
 27 28  2  0  0  0
 27 44  1  0  0  0
 29 30  2  0  0  0
 29 42  1  0  0  0
 30 43  1  0  0  0
M  CHG  1  44  -1
M  END
> <i_i_glide_confnum>
28

> <i_i_glide_lignum>
2601

> <i_i_glide_posenum>
202

> <i_i_glide_rotatable_bonds>
7

> <i_m_Source_File_Index>
5282

> <b_m_subgroup_collapsed>
0

> <r_i_docking_score>
-6.10729

> <r_i_glide_ecoul>
-7.03285

> <r_i_glide_eff_state_penalty>
0

> <r_i_glide_einternal>
10.2456

> <r_i_glide_emodel>
-58.4217

> <r_i_glide_energy>
-43.4904

> <r_i_glide_erotb>
0.736934

> <r_i_glide_esite>
0

> <r_i_glide_evdw>
-36.4576

> <r_i_glide_gscore>
-6.10729

> <r_i_glide_hbond>
-0.308805

> <r_i_glide_ligand_efficiency>
-0.218118

> <r_i_glide_ligand_efficiency_ln>
-1.40974

> <r_i_glide_ligand_efficiency_sa>
-0.662333

> <r_i_glide_lipo>
-2.02763

> <r_i_glide_metal>
0

> <r_i_glide_rewards>
-1.62998

> <s_i_glide_gridfile>
wee1_glide-grid

> <s_m_Source_File>
wee1_decoys_glide_SP.sdf

> <s_m_Source_Path>
/Users/zhangxujun/Desktop

> <s_m_entry_id>
5557

> <s_m_entry_name>
wee1_decoys_glide_SP.5282

> <s_m_subgroup_title>
wee1_decoys_glide_SP

> <s_m_subgroupid>
wee1_decoys_glide_SP


$$$$
