ZINC00192786_4769
                    3D
 Schrodinger Suite 2024-2.
 32 33  0  0  1  0            999 V2000
    7.3181   55.2366   22.0844 C   0  0  0  0  0  0
    6.3050   54.8886   23.1579 C   0  0  0  0  0  0
    6.5865   55.1640   24.4958 C   0  0  0  0  0  0
    5.6719   54.8252   25.4896 C   0  0  0  0  0  0
    4.4506   54.2306   25.1479 C   0  0  0  0  0  0
    4.1580   53.9992   23.7938 C   0  0  0  0  0  0
    5.0883   54.3070   22.8060 C   0  0  0  0  0  0
    3.4944   53.8105   26.1893 C   0  0  0  0  0  0
    2.2880   53.4712   25.9836 N   0  0  0  0  0  0
    1.6897   52.9982   27.1241 N   0  0  0  0  0  0
    2.5329   53.3346   28.2973 C   0  0  1  0  0  0
    3.8795   53.6176   27.6289 C   0  0  0  0  0  0
    1.9832   54.5774   29.0768 C   0  0  0  0  0  0
    2.7955   54.8935   30.0811 F   0  0  0  0  0  0
    1.8885   55.6651   28.3170 F   0  0  0  0  0  0
    0.7840   54.3759   29.6180 F   0  0  0  0  0  0
    2.7054   52.2782   29.2418 O   0  0  0  0  0  0
    0.4957   52.3028   27.0169 C   0  0  0  0  0  0
   -0.3878   51.6977   28.2858 S   0  0  0  0  0  0
   -0.0170   52.0683   25.7823 N   0  0  0  0  0  0
    7.7707   56.2060   22.2819 H   0  0  0  0  0  0
    8.1192   54.4988   22.0803 H   0  0  0  0  0  0
    6.8661   55.2858   21.0938 H   0  0  0  0  0  0
    7.5185   55.6310   24.7651 H   0  0  0  0  0  0
    5.9299   55.0290   26.5182 H   0  0  0  0  0  0
    3.2244   53.5441   23.4963 H   0  0  0  0  0  0
    4.8565   54.0993   21.7714 H   0  0  0  0  0  0
    4.5550   52.7611   27.6825 H   0  0  0  0  0  0
    4.3823   54.4789   28.0692 H   0  0  0  0  0  0
    1.8478   52.0989   29.6438 H   0  0  0  0  0  0
    0.4842   52.3863   24.9651 H   0  0  0  0  0  0
   -0.8693   51.5328   25.6992 H   0  0  0  0  0  0
  1  2  1  0  0  0
  1 21  1  0  0  0
  1 22  1  0  0  0
  1 23  1  0  0  0
  2  7  2  0  0  0
  2  3  1  0  0  0
  3  4  2  0  0  0
  3 24  1  0  0  0
  4  5  1  0  0  0
  4 25  1  0  0  0
  5  6  2  0  0  0
  5  8  1  0  0  0
  6  7  1  0  0  0
  6 26  1  0  0  0
  7 27  1  0  0  0
  8 12  1  0  0  0
  8  9  2  0  0  0
  9 10  1  0  0  0
 10 11  1  0  0  0
 10 18  1  0  0  0
 11 12  1  0  0  0
 11 13  1  0  0  0
 11 17  1  0  0  0
 12 28  1  0  0  0
 12 29  1  0  0  0
 13 14  1  0  0  0
 13 15  1  0  0  0
 13 16  1  0  0  0
 17 30  1  0  0  0
 18 19  2  0  0  0
 18 20  1  0  0  0
 20 31  1  0  0  0
 20 32  1  0  0  0
M  END
> <i_i_glide_confnum>
1

> <i_i_glide_lignum>
4770

> <i_i_glide_posenum>
397

> <i_i_glide_rotatable_bonds>
4

> <i_m_Source_File_Index>
3059

> <b_m_subgroup_collapsed>
0

> <r_i_docking_score>
-6.4092

> <r_i_glide_ecoul>
-1.11179

> <r_i_glide_eff_state_penalty>
0

> <r_i_glide_einternal>
3.7776

> <r_i_glide_emodel>
-42.637

> <r_i_glide_energy>
-31.7712

> <r_i_glide_erotb>
0.200288

> <r_i_glide_esite>
-0.10603

> <r_i_glide_evdw>
-30.6594

> <r_i_glide_gscore>
-6.4092

> <r_i_glide_hbond>
0

> <r_i_glide_ligand_efficiency>
-0.32046

> <r_i_glide_ligand_efficiency_ln>
-1.60401

> <r_i_glide_ligand_efficiency_sa>
-0.869863

> <r_i_glide_lipo>
-2.05946

> <r_i_glide_metal>
0

> <r_i_glide_rewards>
-2.74426

> <s_i_glide_gridfile>
wee1_glide-grid

> <s_m_Source_File>
wee1_decoys_glide_SP.sdf

> <s_m_Source_Path>
/Users/zhangxujun/Desktop

> <s_m_entry_id>
3334

> <s_m_entry_name>
wee1_decoys_glide_SP.3059

> <s_m_subgroup_title>
wee1_decoys_glide_SP

> <s_m_subgroupid>
wee1_decoys_glide_SP


$$$$
