ZINC19845924_3761
                    3D
 Schrodinger Suite 2024-2.
 28 30  0  0  1  0            999 V2000
    0.0814   52.1097   28.6380 C   0  0  0  0  0  0
    0.9422   52.5285   29.6627 C   0  0  0  0  0  0
    2.0803   53.2402   29.2941 C   0  0  0  0  0  0
    2.3620   53.5212   27.9887 C   0  0  0  0  0  0
    1.5259   53.1219   26.9574 C   0  0  0  0  0  0
    0.3623   52.3993   27.2889 C   0  0  0  0  0  0
   -0.5455   52.0015   26.3313 O   0  0  0  0  0  0
   -0.0753   51.5022   25.1373 C   0  0  0  0  0  0
    0.0479   52.3620   24.0389 C   0  0  0  0  0  0
    0.5769   51.8924   22.8349 C   0  0  0  0  0  0
    0.9650   50.5562   22.7200 C   0  0  0  0  0  0
    0.8122   49.6911   23.7999 C   0  0  0  0  0  0
    0.3042   50.1577   25.0105 C   0  0  0  0  0  0
    0.1957   49.2695   26.0817 N   0  0  0  0  0  0
    1.7113   49.9095   21.0947 Br  0  0  0  0  0  0
    3.5060   54.2454   27.9116 O   0  0  0  0  0  0
    4.0307   54.2710   29.2116 C   0  0  0  0  0  0
    3.0378   53.7914   30.0822 O   0  0  0  0  0  0
   -0.8117   51.5545   28.8863 H   0  0  0  0  0  0
    0.7136   52.3106   30.6966 H   0  0  0  0  0  0
    1.7575   53.3736   25.9338 H   0  0  0  0  0  0
   -0.2427   53.3974   24.1341 H   0  0  0  0  0  0
    0.6951   52.5617   21.9955 H   0  0  0  0  0  0
    1.1027   48.6565   23.6996 H   0  0  0  0  0  0
    0.4706   48.3033   25.9616 H   0  0  0  0  0  0
   -0.3683   49.5110   26.8916 H   0  0  0  0  0  0
    4.8965   53.6107   29.2718 H   0  0  0  0  0  0
    4.3176   55.2935   29.4678 H   0  0  0  0  0  0
  1  6  2  0  0  0
  1  2  1  0  0  0
  1 19  1  0  0  0
  2  3  2  0  0  0
  2 20  1  0  0  0
  3 18  1  0  0  0
  3  4  1  0  0  0
  4  5  2  0  0  0
  4 16  1  0  0  0
  5  6  1  0  0  0
  5 21  1  0  0  0
  6  7  1  0  0  0
  7  8  1  0  0  0
  8 13  2  0  0  0
  8  9  1  0  0  0
  9 10  2  0  0  0
  9 22  1  0  0  0
 10 11  1  0  0  0
 10 23  1  0  0  0
 11 12  2  0  0  0
 11 15  1  0  0  0
 12 13  1  0  0  0
 12 24  1  0  0  0
 13 14  1  0  0  0
 14 25  1  0  0  0
 14 26  1  0  0  0
 16 17  1  0  0  0
 17 18  1  0  0  0
 17 27  1  0  0  0
 17 28  1  0  0  0
M  END
> <i_i_glide_confnum>
3

> <i_i_glide_lignum>
3762

> <i_i_glide_posenum>
335

> <i_i_glide_rotatable_bonds>
2

> <i_m_Source_File_Index>
5228

> <b_m_subgroup_collapsed>
0

> <r_i_docking_score>
-4.93336

> <r_i_glide_ecoul>
-4.93075

> <r_i_glide_eff_state_penalty>
0

> <r_i_glide_einternal>
0.519382

> <r_i_glide_emodel>
-41.8274

> <r_i_glide_energy>
-31.4269

> <r_i_glide_erotb>
0.389646

> <r_i_glide_esite>
-0.0927378

> <r_i_glide_evdw>
-26.4961

> <r_i_glide_gscore>
-4.93336

> <r_i_glide_hbond>
-0.534396

> <r_i_glide_ligand_efficiency>
-0.274076

> <r_i_glide_ligand_efficiency_ln>
-1.26809

> <r_i_glide_ligand_efficiency_sa>
-0.718281

> <r_i_glide_lipo>
-1.01917

> <r_i_glide_metal>
0

> <r_i_glide_rewards>
-1.61228

> <s_i_glide_gridfile>
wee1_glide-grid

> <s_m_Source_File>
wee1_decoys_glide_SP.sdf

> <s_m_Source_Path>
/Users/zhangxujun/Desktop

> <s_m_entry_id>
5503

> <s_m_entry_name>
wee1_decoys_glide_SP.5228

> <s_m_subgroup_title>
wee1_decoys_glide_SP

> <s_m_subgroupid>
wee1_decoys_glide_SP


$$$$
