ZINC39673384_389
                    3D
 Schrodinger Suite 2024-2.
 63 66  0  0  1  0            999 V2000
   -5.6948   48.5476   30.8812 C   0  0  0  0  0  0
   -5.6336   49.2909   29.5730 C   0  0  0  0  0  0
   -5.0303   50.4646   29.1616 C   0  0  0  0  0  0
   -5.3454   50.6427   27.8092 C   0  0  0  0  0  0
   -6.0856   49.5206   27.4325 C   0  0  0  0  0  0
   -6.2681   48.7210   28.5183 O   0  0  0  0  0  0
   -6.6808   49.0143   26.1315 C   0  0  0  0  0  0
   -6.1114   47.8667   25.7642 F   0  0  0  0  0  0
   -7.9911   48.8073   26.2515 F   0  0  0  0  0  0
   -6.5027   49.8803   25.1343 F   0  0  0  0  0  0
   -4.8547   51.6904   26.9576 C   0  0  0  0  0  0
   -5.4869   52.7422   26.8540 O   0  0  0  0  0  0
   -3.6889   51.4425   26.3106 N   0  0  0  0  0  0
   -3.0089   52.4686   25.5190 C   0  0  0  0  0  0
   -1.5535   51.9567   25.5047 C   0  0  1  0  0  0
   -1.0568   52.2864   26.4201 H   0  0  0  0  0  0
   -1.6786   50.4127   25.5030 C   0  0  0  0  0  0
   -2.8772   50.2262   26.4592 C   0  0  0  0  0  0
   -2.1008   49.7995   24.1174 C   0  0  0  0  0  0
   -0.9681   49.3445   23.1753 C   0  0  0  0  0  0
    0.0436   48.4966   23.9605 N   0  3  0  0  0  0
    0.6776   49.2965   25.1007 C   0  0  0  0  0  0
   -0.4206   49.7055   26.0822 C   0  0  0  0  0  0
   -0.7737   52.5400   24.3091 C   0  0  0  0  0  0
   -1.3441   52.8964   23.2816 O   0  0  0  0  0  0
    0.5425   52.6887   24.5128 N   0  0  0  0  0  0
    1.5222   53.2955   23.6112 C   0  0  0  0  0  0
    2.7562   53.8384   24.3349 C   0  0  0  0  0  0
    2.7343   54.0962   25.7112 C   0  0  0  0  0  0
    3.8675   54.5685   26.3565 C   0  0  0  0  0  0
    5.0508   54.7641   25.6433 C   0  0  0  0  0  0
    5.0863   54.4968   24.2750 C   0  0  0  0  0  0
    3.9416   54.0416   23.6204 C   0  0  0  0  0  0
    6.1733   55.2700   26.2544 O   0  0  0  0  0  0
    6.7048   54.4969   27.3273 C   0  0  0  0  0  0
    7.1038   53.2967   26.9247 F   0  0  0  0  0  0
    5.9043   54.4062   28.3909 F   0  0  0  0  0  0
   -5.2890   49.1438   31.6992 H   0  0  0  0  0  0
   -6.7178   48.2851   31.1499 H   0  0  0  0  0  0
   -5.1184   47.6232   30.8401 H   0  0  0  0  0  0
   -4.4221   51.1117   29.7756 H   0  0  0  0  0  0
   -3.0617   53.4708   25.9483 H   0  0  0  0  0  0
   -3.4381   52.4280   24.5163 H   0  0  0  0  0  0
   -3.3974   49.2737   26.3471 H   0  0  0  0  0  0
   -2.4977   50.2360   27.4836 H   0  0  0  0  0  0
   -2.6174   48.8616   24.3289 H   0  0  0  0  0  0
   -2.8665   50.3903   23.6129 H   0  0  0  0  0  0
   -1.3353   48.7209   22.3584 H   0  0  0  0  0  0
   -0.4100   50.1795   22.7484 H   0  0  0  0  0  0
   -0.4137   47.6836   24.3487 H   0  0  0  0  0  0
    1.4105   48.6442   25.5804 H   0  0  0  0  0  0
    1.1938   50.1358   24.6376 H   0  0  0  0  0  0
   -0.0379   50.2051   26.9732 H   0  0  0  0  0  0
   -0.7535   48.7458   26.4810 H   0  0  0  0  0  0
    0.9310   52.2666   25.3419 H   0  0  0  0  0  0
    1.0816   54.0956   23.0127 H   0  0  0  0  0  0
    1.8429   52.5290   22.9028 H   0  0  0  0  0  0
    1.8343   53.9648   26.2930 H   0  0  0  0  0  0
    3.8090   54.8024   27.4079 H   0  0  0  0  0  0
    5.9994   54.6570   23.7204 H   0  0  0  0  0  0
    3.9811   53.8442   22.5584 H   0  0  0  0  0  0
    7.6067   54.9901   27.6816 H   0  0  0  0  0  0
    0.7799   48.1696   23.3490 H   0  0  0  0  0  0
  1  2  1  0  0  0
  1 38  1  0  0  0
  1 39  1  0  0  0
  1 40  1  0  0  0
  2  6  1  0  0  0
  2  3  2  0  0  0
  3  4  1  0  0  0
  3 41  1  0  0  0
  4  5  2  0  0  0
  4 11  1  0  0  0
  5  6  1  0  0  0
  5  7  1  0  0  0
  7  8  1  0  0  0
  7  9  1  0  0  0
  7 10  1  0  0  0
 11 12  2  0  0  0
 11 13  1  0  0  0
 13 18  1  0  0  0
 13 14  1  0  0  0
 14 15  1  0  0  0
 14 42  1  0  0  0
 14 43  1  0  0  0
 15 16  1  0  0  0
 15 17  1  0  0  0
 15 24  1  0  0  0
 17 23  1  0  0  0
 17 18  1  0  0  0
 17 19  1  0  0  0
 18 44  1  0  0  0
 18 45  1  0  0  0
 19 20  1  0  0  0
 19 46  1  0  0  0
 19 47  1  0  0  0
 20 21  1  0  0  0
 20 48  1  0  0  0
 20 49  1  0  0  0
 21 22  1  0  0  0
 21 50  1  0  0  0
 21 63  1  0  0  0
 22 23  1  0  0  0
 22 51  1  0  0  0
 22 52  1  0  0  0
 23 53  1  0  0  0
 23 54  1  0  0  0
 24 25  2  0  0  0
 24 26  1  0  0  0
 26 27  1  0  0  0
 26 55  1  0  0  0
 27 28  1  0  0  0
 27 56  1  0  0  0
 27 57  1  0  0  0
 28 33  2  0  0  0
 28 29  1  0  0  0
 29 30  2  0  0  0
 29 58  1  0  0  0
 30 31  1  0  0  0
 30 59  1  0  0  0
 31 32  2  0  0  0
 31 34  1  0  0  0
 32 33  1  0  0  0
 32 60  1  0  0  0
 33 61  1  0  0  0
 34 35  1  0  0  0
 35 36  1  0  0  0
 35 37  1  0  0  0
 35 62  1  0  0  0
M  CHG  1  21   1
M  END
> <i_i_glide_confnum>
179

> <i_i_glide_lignum>
390

> <i_i_glide_posenum>
121

> <i_i_glide_rotatable_bonds>
9

> <i_m_Source_File_Index>
3380

> <b_m_subgroup_collapsed>
0

> <r_i_docking_score>
-3.26995

> <r_i_glide_ecoul>
-5.02638

> <r_i_glide_eff_state_penalty>
0

> <r_i_glide_einternal>
7.29583

> <r_i_glide_emodel>
-41.1909

> <r_i_glide_energy>
-40.9199

> <r_i_glide_erotb>
0.53863

> <r_i_glide_esite>
-0.0563777

> <r_i_glide_evdw>
-35.8935

> <r_i_glide_gscore>
-3.26995

> <r_i_glide_hbond>
0

> <r_i_glide_ligand_efficiency>
-0.0908319

> <r_i_glide_ligand_efficiency_ln>
-0.713414

> <r_i_glide_ligand_efficiency_sa>
-0.29992

> <r_i_glide_lipo>
-1.93831

> <r_i_glide_metal>
0

> <r_i_glide_rewards>
0.734743

> <s_i_glide_gridfile>
wee1_glide-grid

> <s_m_Source_File>
wee1_decoys_glide_SP.sdf

> <s_m_Source_Path>
/Users/zhangxujun/Desktop

> <s_m_entry_id>
3655

> <s_m_entry_name>
wee1_decoys_glide_SP.3380

> <s_m_subgroup_title>
wee1_decoys_glide_SP

> <s_m_subgroupid>
wee1_decoys_glide_SP


$$$$
