ZINC28387870_3422
                    3D
 Schrodinger Suite 2024-2.
 44 46  0  0  1  0            999 V2000
   -4.5649   51.4042   18.4678 C   0  0  0  0  0  0
   -3.1496   51.3753   19.0138 C   0  0  0  0  0  0
   -2.1452   52.1331   18.4133 C   0  0  0  0  0  0
   -0.8486   52.0969   18.9208 C   0  0  0  0  0  0
   -0.5364   51.3047   20.0339 C   0  0  0  0  0  0
   -1.5596   50.5521   20.6292 C   0  0  0  0  0  0
   -2.8564   50.5861   20.1250 C   0  0  0  0  0  0
    0.8486   51.2600   20.6331 C   0  0  0  0  0  0
    1.0872   50.8127   21.8473 N   0  0  0  0  0  0
    2.4511   50.9091   22.0846 N   0  0  0  0  0  0
    2.9832   51.4880   21.0428 C   0  0  0  0  0  0
    2.0428   51.6548   20.0495 N   0  0  0  0  0  0
    2.2905   52.0932   18.7579 N   0  0  0  0  0  0
    4.7037   51.8193   20.8816 S   0  0  0  0  0  0
    4.6086   53.6384   20.9215 C   0  0  2  0  0  0
    3.5694   53.9510   20.7994 H   0  0  0  0  0  0
    5.3914   54.3053   19.7697 C   0  0  0  0  0  0
    5.0555   54.0983   22.3193 C   0  0  0  0  0  0
    6.1893   54.5485   22.4875 O   0  0  0  0  0  0
    4.1391   53.9392   23.2981 N   0  0  0  0  0  0
    4.2649   54.0969   24.6932 C   0  0  0  0  0  0
    5.4943   54.2778   25.3497 C   0  0  0  0  0  0
    5.5566   54.3489   26.7404 C   0  0  0  0  0  0
    4.3835   54.2717   27.4985 C   0  0  0  0  0  0
    3.1597   54.0955   26.8547 C   0  0  0  0  0  0
    3.0947   53.9956   25.4640 C   0  0  0  0  0  0
    1.5468   53.7160   24.7333 Cl  0  0  0  0  0  0
    4.4140   54.3853   29.2250 Cl  0  0  0  0  0  0
    7.1048   54.4968   27.4889 Cl  0  0  0  0  0  0
   -4.6734   52.0980   17.6344 H   0  0  0  0  0  0
   -4.8575   50.4100   18.1295 H   0  0  0  0  0  0
   -5.2646   51.6974   19.2498 H   0  0  0  0  0  0
   -2.3620   52.7507   17.5538 H   0  0  0  0  0  0
   -0.1025   52.7129   18.4459 H   0  0  0  0  0  0
   -1.3546   49.9330   21.4913 H   0  0  0  0  0  0
   -3.6292   49.9962   20.5967 H   0  0  0  0  0  0
    2.5862   53.0579   18.7382 H   0  0  0  0  0  0
    2.9206   51.4658   18.2688 H   0  0  0  0  0  0
    5.2728   55.3899   19.7846 H   0  0  0  0  0  0
    6.4602   54.0968   19.8164 H   0  0  0  0  0  0
    5.0348   53.9534   18.8010 H   0  0  0  0  0  0
    3.2273   53.6189   23.0058 H   0  0  0  0  0  0
    6.4253   54.3200   24.8077 H   0  0  0  0  0  0
    2.2543   54.0196   27.4393 H   0  0  0  0  0  0
  1  2  1  0  0  0
  1 30  1  0  0  0
  1 31  1  0  0  0
  1 32  1  0  0  0
  2  7  2  0  0  0
  2  3  1  0  0  0
  3  4  2  0  0  0
  3 33  1  0  0  0
  4  5  1  0  0  0
  4 34  1  0  0  0
  5  6  2  0  0  0
  5  8  1  0  0  0
  6  7  1  0  0  0
  6 35  1  0  0  0
  7 36  1  0  0  0
  8 12  1  0  0  0
  8  9  2  0  0  0
  9 10  1  0  0  0
 10 11  2  0  0  0
 11 12  1  0  0  0
 11 14  1  0  0  0
 12 13  1  0  0  0
 13 37  1  0  0  0
 13 38  1  0  0  0
 14 15  1  0  0  0
 15 16  1  0  0  0
 15 17  1  0  0  0
 15 18  1  0  0  0
 17 39  1  0  0  0
 17 40  1  0  0  0
 17 41  1  0  0  0
 18 19  2  0  0  0
 18 20  1  0  0  0
 20 21  1  0  0  0
 20 42  1  0  0  0
 21 26  2  0  0  0
 21 22  1  0  0  0
 22 23  2  0  0  0
 22 43  1  0  0  0
 23 24  1  0  0  0
 23 29  1  0  0  0
 24 25  2  0  0  0
 24 28  1  0  0  0
 25 26  1  0  0  0
 25 44  1  0  0  0
 26 27  1  0  0  0
M  END
> <i_i_glide_confnum>
1

> <i_i_glide_lignum>
3423

> <i_i_glide_posenum>
203

> <i_i_glide_rotatable_bonds>
6

> <i_m_Source_File_Index>
602

> <b_m_subgroup_collapsed>
0

> <r_i_docking_score>
-5.03116

> <r_i_glide_ecoul>
-4.74834

> <r_i_glide_eff_state_penalty>
0

> <r_i_glide_einternal>
1.13578

> <r_i_glide_emodel>
-58.4449

> <r_i_glide_energy>
-44.4511

> <r_i_glide_erotb>
0.481672

> <r_i_glide_esite>
-0.0590818

> <r_i_glide_evdw>
-39.7028

> <r_i_glide_gscore>
-5.03116

> <r_i_glide_hbond>
0

> <r_i_glide_ligand_efficiency>
-0.179684

> <r_i_glide_ligand_efficiency_ln>
-1.16134

> <r_i_glide_ligand_efficiency_sa>
-0.545627

> <r_i_glide_lipo>
-2.09235

> <r_i_glide_metal>
0

> <r_i_glide_rewards>
-0.664009

> <s_i_glide_gridfile>
wee1_glide-grid

> <s_m_Source_File>
wee1_decoys_glide_SP.sdf

> <s_m_Source_Path>
/Users/zhangxujun/Desktop

> <s_m_entry_id>
877

> <s_m_entry_name>
wee1_decoys_glide_SP.602

> <s_m_subgroup_title>
wee1_decoys_glide_SP

> <s_m_subgroupid>
wee1_decoys_glide_SP


$$$$
