ZINC44854146_6060
                    3D
 Schrodinger Suite 2024-2.
 75 79  0  0  1  0            999 V2000
    0.5662   54.4288   31.2783 C   0  0  0  0  0  0
    1.0809   53.5506   30.1288 C   0  0  0  0  0  0
    0.5908   54.0562   28.7602 C   0  0  0  0  0  0
    1.1383   53.1889   27.6138 C   0  0  0  0  0  0
    2.6077   53.2570   27.6233 N   0  0  0  0  0  0
    3.1161   52.6298   28.8577 C   0  0  0  0  0  0
    2.6202   53.4108   30.0953 C   0  0  0  0  0  0
    3.3980   53.6908   26.5616 C   0  0  0  0  0  0
    4.7161   54.1143   26.7757 C   0  0  0  0  0  0
    5.5241   54.4916   25.7085 C   0  0  0  0  0  0
    5.0374   54.4488   24.3963 C   0  0  0  0  0  0
    3.6994   54.0967   24.1891 C   0  0  0  0  0  0
    2.8985   53.7074   25.2544 C   0  0  0  0  0  0
    5.9888   54.7595   23.2214 C   0  0  1  0  0  0
    6.3040   55.7977   23.3476 H   0  0  0  0  0  0
    7.2881   53.9459   23.3108 C   0  0  0  0  0  0
    5.3993   54.6838   21.8671 N   0  0  0  0  0  0
    4.9855   53.5802   21.2115 C   0  0  0  0  0  0
    5.1041   52.4436   21.6729 O   0  0  0  0  0  0
    4.3484   53.7927   19.8253 C   0  0  2  0  0  0
    4.0530   54.8415   19.7825 H   0  0  0  0  0  0
    3.1091   52.8787   19.6457 C   0  0  0  0  0  0
    2.5320   53.0630   18.2263 C   0  0  0  0  0  0
    3.5767   52.7693   17.1381 C   0  0  0  0  0  0
    4.8029   53.6959   17.3573 N   0  3  1  0  0  0
    5.4336   53.5120   18.7633 C   0  0  0  0  0  0
    5.8638   53.4464   16.2519 C   0  0  0  0  0  0
    7.0970   54.3462   16.3625 C   0  0  0  0  0  0
    6.9105   55.7303   16.3920 C   0  0  0  0  0  0
    7.9784   56.5993   16.5470 C   0  0  0  0  0  0
    9.2717   56.1087   16.6693 C   0  0  0  0  0  0
    9.5197   54.7153   16.6188 C   0  0  0  0  0  0
    8.4248   53.8041   16.4564 C   0  0  0  0  0  0
    8.7265   52.4096   16.3977 C   0  0  0  0  0  0
   10.0390   51.9560   16.4830 C   0  0  0  0  0  0
   11.0868   52.8490   16.6457 C   0  0  0  0  0  0
   10.8425   54.2160   16.7187 C   0  0  0  0  0  0
    1.0697   55.3986   31.2928 H   0  0  0  0  0  0
    0.7049   53.9482   32.2469 H   0  0  0  0  0  0
   -0.4943   54.6268   31.1731 H   0  0  0  0  0  0
    0.6717   52.5446   30.2496 H   0  0  0  0  0  0
   -0.4962   54.0722   28.7358 H   0  0  0  0  0  0
    0.8877   55.0953   28.6043 H   0  0  0  0  0  0
    0.8286   52.1478   27.7386 H   0  0  0  0  0  0
    0.7046   53.5229   26.6762 H   0  0  0  0  0  0
    2.7545   51.6000   28.8934 H   0  0  0  0  0  0
    4.2031   52.5553   28.8631 H   0  0  0  0  0  0
    3.0897   54.3973   30.0808 H   0  0  0  0  0  0
    2.9768   52.9337   31.0106 H   0  0  0  0  0  0
    5.1320   54.1462   27.7707 H   0  0  0  0  0  0
    6.5415   54.7933   25.9103 H   0  0  0  0  0  0
    3.2632   54.0824   23.2032 H   0  0  0  0  0  0
    1.8950   53.3868   25.0266 H   0  0  0  0  0  0
    7.8338   54.1110   24.2364 H   0  0  0  0  0  0
    7.0700   52.8916   23.2749 H   0  0  0  0  0  0
    7.9517   54.1761   22.4821 H   0  0  0  0  0  0
    5.1749   55.5747   21.4473 H   0  0  0  0  0  0
    3.3817   51.8232   19.7208 H   0  0  0  0  0  0
    2.3187   53.1282   20.3545 H   0  0  0  0  0  0
    1.6823   52.3931   18.0925 H   0  0  0  0  0  0
    2.1408   54.0718   18.0881 H   0  0  0  0  0  0
    3.9046   51.7278   17.1577 H   0  0  0  0  0  0
    3.1744   53.0079   16.1522 H   0  0  0  0  0  0
    6.2439   54.2387   18.8378 H   0  0  0  0  0  0
    5.8263   52.4957   18.7932 H   0  0  0  0  0  0
    6.0600   52.3780   16.3119 H   0  0  0  0  0  0
    5.3478   53.6336   15.3072 H   0  0  0  0  0  0
    5.9151   56.1437   16.3088 H   0  0  0  0  0  0
    7.8030   57.6653   16.5787 H   0  0  0  0  0  0
   10.1010   56.7927   16.7890 H   0  0  0  0  0  0
    7.9565   51.6690   16.2789 H   0  0  0  0  0  0
   10.2427   50.8960   16.4353 H   0  0  0  0  0  0
   12.0991   52.4785   16.7234 H   0  0  0  0  0  0
   11.6659   54.9057   16.8524 H   0  0  0  0  0  0
    4.4886   54.6511   17.2829 H   0  0  0  0  0  0
  1  2  1  0  0  0
  1 38  1  0  0  0
  1 39  1  0  0  0
  1 40  1  0  0  0
  2  7  1  0  0  0
  2  3  1  0  0  0
  2 41  1  0  0  0
  3  4  1  0  0  0
  3 42  1  0  0  0
  3 43  1  0  0  0
  4  5  1  0  0  0
  4 44  1  0  0  0
  4 45  1  0  0  0
  5  6  1  0  0  0
  5  8  1  0  0  0
  6  7  1  0  0  0
  6 46  1  0  0  0
  6 47  1  0  0  0
  7 48  1  0  0  0
  7 49  1  0  0  0
  8 13  2  0  0  0
  8  9  1  0  0  0
  9 10  2  0  0  0
  9 50  1  0  0  0
 10 11  1  0  0  0
 10 51  1  0  0  0
 11 12  2  0  0  0
 11 14  1  0  0  0
 12 13  1  0  0  0
 12 52  1  0  0  0
 13 53  1  0  0  0
 14 15  1  0  0  0
 14 16  1  0  0  0
 14 17  1  0  0  0
 16 54  1  0  0  0
 16 55  1  0  0  0
 16 56  1  0  0  0
 17 18  1  0  0  0
 17 57  1  0  0  0
 18 19  2  0  0  0
 18 20  1  0  0  0
 20 21  1  0  0  0
 20 26  1  0  0  0
 20 22  1  0  0  0
 22 23  1  0  0  0
 22 58  1  0  0  0
 22 59  1  0  0  0
 23 24  1  0  0  0
 23 60  1  0  0  0
 23 61  1  0  0  0
 24 25  1  0  0  0
 24 62  1  0  0  0
 24 63  1  0  0  0
 25 26  1  0  0  0
 25 27  1  0  0  0
 25 75  1  0  0  0
 26 64  1  0  0  0
 26 65  1  0  0  0
 27 28  1  0  0  0
 27 66  1  0  0  0
 27 67  1  0  0  0
 28 33  2  0  0  0
 28 29  1  0  0  0
 29 30  2  0  0  0
 29 68  1  0  0  0
 30 31  1  0  0  0
 30 69  1  0  0  0
 31 32  2  0  0  0
 31 70  1  0  0  0
 32 37  1  0  0  0
 32 33  1  0  0  0
 33 34  1  0  0  0
 34 35  2  0  0  0
 34 71  1  0  0  0
 35 36  1  0  0  0
 35 72  1  0  0  0
 36 37  2  0  0  0
 36 73  1  0  0  0
 37 74  1  0  0  0
M  CHG  1  25   1
M  END
> <i_i_glide_confnum>
114

> <i_i_glide_lignum>
6061

> <i_i_glide_posenum>
51

> <i_i_glide_rotatable_bonds>
7

> <i_m_Source_File_Index>
4087

> <b_m_subgroup_collapsed>
0

> <r_i_docking_score>
-5.04624

> <r_i_glide_ecoul>
-2.45831

> <r_i_glide_eff_state_penalty>
0

> <r_i_glide_einternal>
5.42854

> <r_i_glide_emodel>
-52.9337

> <r_i_glide_energy>
-41.3096

> <r_i_glide_erotb>
0.638505

> <r_i_glide_esite>
-0.0351676

> <r_i_glide_evdw>
-38.8513

> <r_i_glide_gscore>
-5.04624

> <r_i_glide_hbond>
0

> <r_i_glide_ligand_efficiency>
-0.144178

> <r_i_glide_ligand_efficiency_ln>
-1.10776

> <r_i_glide_ligand_efficiency_sa>
-0.471616

> <r_i_glide_lipo>
-2.67997

> <r_i_glide_metal>
0

> <r_i_glide_rewards>
-0.658289

> <s_i_glide_gridfile>
wee1_glide-grid

> <s_m_Source_File>
wee1_decoys_glide_SP.sdf

> <s_m_Source_Path>
/Users/zhangxujun/Desktop

> <s_m_entry_id>
4362

> <s_m_entry_name>
wee1_decoys_glide_SP.4087

> <s_m_subgroup_title>
wee1_decoys_glide_SP

> <s_m_subgroupid>
wee1_decoys_glide_SP


$$$$
