ZINC36887631_1735
                    3D
 Schrodinger Suite 2024-2.
 36 37  0  0  1  0            999 V2000
   -0.5804   51.8320   22.6790 C   0  0  0  0  0  0
    0.7119   51.4609   23.4467 C   0  0  1  0  0  0
    0.5091   50.5394   23.9949 H   0  0  0  0  0  0
    1.8698   51.0975   22.4817 C   0  0  0  0  0  0
    2.3950   52.3304   21.7221 C   0  0  0  0  0  0
    2.7082   53.4662   22.7135 C   0  0  0  0  0  0
    1.5835   53.6967   23.7496 C   0  0  0  0  0  0
    1.2061   52.4435   24.4361 N   0  0  0  0  0  0
    0.8771   52.4335   25.7949 C   0  0  0  0  0  0
    1.7646   53.0329   26.6976 C   0  0  0  0  0  0
    1.4904   53.0874   28.0633 C   0  0  0  0  0  0
    0.3043   52.5572   28.5987 C   0  0  0  0  0  0
   -0.5852   51.9598   27.6861 C   0  0  0  0  0  0
   -0.3136   51.8939   26.3191 C   0  0  0  0  0  0
   -1.2406   51.3041   25.5310 F   0  0  0  0  0  0
    0.0149   52.6493   30.0620 C   0  0  0  0  0  0
    0.5990   53.5547   30.7489 N   0  0  0  0  0  0
    0.3044   53.5458   32.1340 O   0  0  0  0  0  0
   -0.8956   51.6967   30.4817 N   0  0  0  0  0  0
   -1.0028   50.9533   22.1913 H   0  0  0  0  0  0
   -1.3461   52.2450   23.3334 H   0  0  0  0  0  0
   -0.4016   52.5718   21.9018 H   0  0  0  0  0  0
    1.5777   50.3012   21.7961 H   0  0  0  0  0  0
    2.7042   50.7079   23.0659 H   0  0  0  0  0  0
    1.6602   52.6692   20.9912 H   0  0  0  0  0  0
    3.2871   52.0716   21.1501 H   0  0  0  0  0  0
    2.8733   54.3898   22.1568 H   0  0  0  0  0  0
    3.6484   53.2833   23.2356 H   0  0  0  0  0  0
    0.7049   54.1446   23.2839 H   0  0  0  0  0  0
    1.9435   54.4301   24.4712 H   0  0  0  0  0  0
    2.6954   53.4510   26.3427 H   0  0  0  0  0  0
    2.2204   53.5577   28.7073 H   0  0  0  0  0  0
   -1.5207   51.5340   28.0205 H   0  0  0  0  0  0
   -0.3008   52.7990   32.2495 H   0  0  0  0  0  0
   -1.2474   51.6623   31.4444 H   0  0  0  0  0  0
   -1.1639   50.9331   29.8753 H   0  0  0  0  0  0
  1  2  1  0  0  0
  1 20  1  0  0  0
  1 21  1  0  0  0
  1 22  1  0  0  0
  2  3  1  0  0  0
  2  8  1  0  0  0
  2  4  1  0  0  0
  4  5  1  0  0  0
  4 23  1  0  0  0
  4 24  1  0  0  0
  5  6  1  0  0  0
  5 25  1  0  0  0
  5 26  1  0  0  0
  6  7  1  0  0  0
  6 27  1  0  0  0
  6 28  1  0  0  0
  7  8  1  0  0  0
  7 29  1  0  0  0
  7 30  1  0  0  0
  8  9  1  0  0  0
  9 14  2  0  0  0
  9 10  1  0  0  0
 10 11  2  0  0  0
 10 31  1  0  0  0
 11 12  1  0  0  0
 11 32  1  0  0  0
 12 13  2  0  0  0
 12 16  1  0  0  0
 13 14  1  0  0  0
 13 33  1  0  0  0
 14 15  1  0  0  0
 16 17  2  0  0  0
 16 19  1  0  0  0
 17 18  1  0  0  0
 18 34  1  0  0  0
 19 35  1  0  0  0
 19 36  1  0  0  0
M  END
> <i_i_glide_confnum>
37

> <i_i_glide_lignum>
1736

> <i_i_glide_posenum>
5

> <i_i_glide_rotatable_bonds>
3

> <i_m_Source_File_Index>
572

> <b_m_subgroup_collapsed>
0

> <r_i_docking_score>
-5.31845

> <r_i_glide_ecoul>
-8.82804

> <r_i_glide_eff_state_penalty>
0

> <r_i_glide_einternal>
0.0134528

> <r_i_glide_emodel>
-46.9284

> <r_i_glide_energy>
-34.0174

> <r_i_glide_erotb>
0.832563

> <r_i_glide_esite>
-0.226791

> <r_i_glide_evdw>
-25.1894

> <r_i_glide_gscore>
-5.31845

> <r_i_glide_hbond>
-0.304

> <r_i_glide_ligand_efficiency>
-0.295469

> <r_i_glide_ligand_efficiency_ln>
-1.36708

> <r_i_glide_ligand_efficiency_sa>
-0.774349

> <r_i_glide_lipo>
-1.14209

> <r_i_glide_metal>
0

> <r_i_glide_rewards>
-1.89446

> <s_i_glide_gridfile>
wee1_glide-grid

> <s_m_Source_File>
wee1_decoys_glide_SP.sdf

> <s_m_Source_Path>
/Users/zhangxujun/Desktop

> <s_m_entry_id>
847

> <s_m_entry_name>
wee1_decoys_glide_SP.572

> <s_m_subgroup_title>
wee1_decoys_glide_SP

> <s_m_subgroupid>
wee1_decoys_glide_SP


$$$$
