ZINC46570056_5166
                    3D
 Schrodinger Suite 2024-2.
 58 61  0  0  1  0            999 V2000
   -0.8526   50.4969   26.3450 C   0  0  0  0  0  0
   -0.6377   51.0403   25.0795 C   0  0  0  0  0  0
    0.3090   52.0558   24.9075 C   0  0  0  0  0  0
    1.0335   52.5040   26.0135 C   0  0  0  0  0  0
    0.8369   51.9555   27.2798 C   0  0  0  0  0  0
   -0.1223   50.9554   27.4412 C   0  0  0  0  0  0
    1.7862   52.5091   28.6987 S   0  0  0  0  0  0
    2.2647   51.2968   29.3528 O   0  0  0  0  0  0
    0.9539   53.4787   29.4202 O   0  0  0  0  0  0
    3.2124   53.3500   28.0883 N   0  0  0  0  0  0
    3.0434   54.7305   27.6514 C   0  0  0  0  0  0
    3.9302   54.8979   26.4212 C   0  0  0  0  0  0
    5.4286   54.6857   26.7930 C   0  0  0  0  0  0
    5.6261   53.2965   27.4695 C   0  0  0  0  0  0
    4.5760   53.0376   28.5890 C   0  0  0  0  0  0
    6.2212   54.8474   25.4755 C   0  0  0  0  0  0
    7.1043   55.6962   25.4114 O   0  0  0  0  0  0
    5.8025   54.0958   24.4375 N   0  0  0  0  0  0
    5.9312   54.3105   23.0591 C   0  0  0  0  0  0
    6.8046   55.2240   22.4549 C   0  0  0  0  0  0
    6.7668   55.4191   21.0730 C   0  0  0  0  0  0
    5.8559   54.7115   20.2867 C   0  0  0  0  0  0
    4.9951   53.7813   20.8750 C   0  0  0  0  0  0
    5.0392   53.5921   22.2632 C   0  0  0  0  0  0
    4.0745   53.1191   20.0453 N   0  0  0  0  0  0
    3.4943   51.9188   20.2509 C   0  0  0  0  0  0
    3.7896   51.1566   21.1756 O   0  0  0  0  0  0
    2.4095   51.5330   19.2283 C   0  0  0  0  0  0
    2.3020   50.0602   18.8875 C   0  0  0  0  0  0
    1.2490   50.7131   19.7600 C   0  0  0  0  0  0
    0.5688   52.6857   23.5454 C   0  0  0  0  0  0
   -0.4499   52.4964   22.7054 F   0  0  0  0  0  0
    0.7711   53.9979   23.6800 F   0  0  0  0  0  0
    1.6639   52.1406   23.0214 F   0  0  0  0  0  0
   -1.5779   49.7063   26.4823 H   0  0  0  0  0  0
   -1.2073   50.6672   24.2408 H   0  0  0  0  0  0
    1.7465   53.2888   25.8663 H   0  0  0  0  0  0
   -0.3003   50.5185   28.4137 H   0  0  0  0  0  0
    3.3616   55.4020   28.4509 H   0  0  0  0  0  0
    1.9908   54.9183   27.4377 H   0  0  0  0  0  0
    3.7540   55.9078   26.0667 H   0  0  0  0  0  0
    3.5848   54.1782   25.6809 H   0  0  0  0  0  0
    5.7485   55.4852   27.4631 H   0  0  0  0  0  0
    5.4571   52.4970   26.7539 H   0  0  0  0  0  0
    6.6177   53.2086   27.9179 H   0  0  0  0  0  0
    4.7937   53.7191   29.4123 H   0  0  0  0  0  0
    4.6204   52.0126   28.9571 H   0  0  0  0  0  0
    5.1449   53.3699   24.6762 H   0  0  0  0  0  0
    7.5045   55.7985   23.0389 H   0  0  0  0  0  0
    7.4439   56.1206   20.6096 H   0  0  0  0  0  0
    5.8336   54.8806   19.2195 H   0  0  0  0  0  0
    4.3418   52.9173   22.7361 H   0  0  0  0  0  0
    3.8559   53.5795   19.1759 H   0  0  0  0  0  0
    2.2197   52.2624   18.4396 H   0  0  0  0  0  0
    3.0127   49.3565   19.3257 H   0  0  0  0  0  0
    2.0670   49.7966   17.8559 H   0  0  0  0  0  0
    0.2581   50.8984   19.3456 H   0  0  0  0  0  0
    1.2069   50.4574   20.8202 H   0  0  0  0  0  0
  1  6  2  0  0  0
  1  2  1  0  0  0
  1 35  1  0  0  0
  2  3  2  0  0  0
  2 36  1  0  0  0
  3  4  1  0  0  0
  3 31  1  0  0  0
  4  5  2  0  0  0
  4 37  1  0  0  0
  5  6  1  0  0  0
  5  7  1  0  0  0
  6 38  1  0  0  0
  7  8  2  0  0  0
  7  9  2  0  0  0
  7 10  1  0  0  0
 10 15  1  0  0  0
 10 11  1  0  0  0
 11 12  1  0  0  0
 11 39  1  0  0  0
 11 40  1  0  0  0
 12 13  1  0  0  0
 12 41  1  0  0  0
 12 42  1  0  0  0
 13 14  1  0  0  0
 13 16  1  0  0  0
 13 43  1  0  0  0
 14 15  1  0  0  0
 14 44  1  0  0  0
 14 45  1  0  0  0
 15 46  1  0  0  0
 15 47  1  0  0  0
 16 17  2  0  0  0
 16 18  1  0  0  0
 18 19  1  0  0  0
 18 48  1  0  0  0
 19 24  2  0  0  0
 19 20  1  0  0  0
 20 21  2  0  0  0
 20 49  1  0  0  0
 21 22  1  0  0  0
 21 50  1  0  0  0
 22 23  2  0  0  0
 22 51  1  0  0  0
 23 24  1  0  0  0
 23 25  1  0  0  0
 24 52  1  0  0  0
 25 26  1  0  0  0
 25 53  1  0  0  0
 26 27  2  0  0  0
 26 28  1  0  0  0
 28 30  1  0  0  0
 28 29  1  0  0  0
 28 54  1  0  0  0
 29 30  1  0  0  0
 29 55  1  0  0  0
 29 56  1  0  0  0
 30 57  1  0  0  0
 30 58  1  0  0  0
 31 32  1  0  0  0
 31 33  1  0  0  0
 31 34  1  0  0  0
M  END
> <i_i_glide_confnum>
277

> <i_i_glide_lignum>
5167

> <i_i_glide_posenum>
340

> <i_i_glide_rotatable_bonds>
9

> <i_m_Source_File_Index>
2984

> <b_m_subgroup_collapsed>
0

> <r_i_docking_score>
-6.08836

> <r_i_glide_ecoul>
-10.5088

> <r_i_glide_eff_state_penalty>
0

> <r_i_glide_einternal>
17.9743

> <r_i_glide_emodel>
-62.2823

> <r_i_glide_energy>
-55.1087

> <r_i_glide_erotb>
0.66421

> <r_i_glide_esite>
-0.0568442

> <r_i_glide_evdw>
-44.5999

> <r_i_glide_gscore>
-6.08836

> <r_i_glide_hbond>
-0.32

> <r_i_glide_ligand_efficiency>
-0.179069

> <r_i_glide_ligand_efficiency_ln>
-1.34509

> <r_i_glide_ligand_efficiency_sa>
-0.580116

> <r_i_glide_lipo>
-2.60113

> <r_i_glide_metal>
0

> <r_i_glide_rewards>
0.0317167

> <s_i_glide_gridfile>
wee1_glide-grid

> <s_m_Source_File>
wee1_decoys_glide_SP.sdf

> <s_m_Source_Path>
/Users/zhangxujun/Desktop

> <s_m_entry_id>
3259

> <s_m_entry_name>
wee1_decoys_glide_SP.2984

> <s_m_subgroup_title>
wee1_decoys_glide_SP

> <s_m_subgroupid>
wee1_decoys_glide_SP


$$$$
