ZINC64820700_5978
                    3D
 Schrodinger Suite 2024-2.
 52 54  0  0  1  0            999 V2000
   -5.1260   53.0657   26.0782 C   0  0  0  0  0  0
   -4.6770   52.2624   24.8551 C   0  0  0  0  0  0
   -3.2804   52.0225   24.9470 O   0  0  0  0  0  0
   -2.6148   51.4187   23.9368 C   0  0  0  0  0  0
   -3.1216   51.0267   22.8821 O   0  0  0  0  0  0
   -1.1034   51.3068   24.2229 C   0  0  1  0  0  0
   -1.0074   50.7428   25.1502 H   0  0  0  0  0  0
   -0.3552   50.5458   23.1027 C   0  0  0  0  0  0
    1.1512   50.5854   23.3886 C   0  0  0  0  0  0
    1.6305   52.0440   23.5575 C   0  0  0  0  0  0
    0.9420   52.7447   24.6556 N   0  0  0  0  0  0
   -0.5081   52.7315   24.3905 C   0  0  0  0  0  0
    1.4859   52.8114   25.9450 C   0  0  0  0  0  0
    0.7733   52.2492   27.0167 C   0  0  0  0  0  0
    1.2891   52.2342   28.3089 C   0  0  0  0  0  0
    2.5240   52.8228   28.5809 C   0  0  0  0  0  0
    3.2329   53.4235   27.5368 C   0  0  0  0  0  0
    2.7523   53.3960   26.2137 C   0  0  0  0  0  0
    3.4911   53.9544   25.1400 N   0  0  0  0  0  0
    4.8288   54.1442   25.0197 C   0  0  0  0  0  0
    5.6284   54.0958   25.9561 O   0  0  0  0  0  0
    5.3412   54.4339   23.6217 C   0  0  0  0  0  0
    6.6278   54.9704   23.4554 C   0  0  0  0  0  0
    7.1042   55.2967   22.1887 C   0  0  0  0  0  0
    6.3045   55.0753   21.0732 C   0  0  0  0  0  0
    5.0470   54.4958   21.2094 C   0  0  0  0  0  0
    4.5667   54.1740   22.4760 C   0  0  0  0  0  0
    6.9504   55.5540   19.3501 Br  0  0  0  0  0  0
    3.0862   52.7965   29.9603 C   0  0  0  0  0  0
    3.5047   53.8730   30.4377 O   0  0  0  0  0  0
    3.1055   51.6981   30.5563 O   0  5  0  0  0  0
   -6.1926   53.2854   26.0270 H   0  0  0  0  0  0
   -4.9432   52.5081   26.9982 H   0  0  0  0  0  0
   -4.5908   54.0134   26.1467 H   0  0  0  0  0  0
   -4.9047   52.8210   23.9458 H   0  0  0  0  0  0
   -5.2170   51.3156   24.8050 H   0  0  0  0  0  0
   -0.5354   51.0052   22.1279 H   0  0  0  0  0  0
   -0.6890   49.5084   23.0449 H   0  0  0  0  0  0
    1.6933   50.1186   22.5653 H   0  0  0  0  0  0
    1.4020   49.9981   24.2738 H   0  0  0  0  0  0
    1.4441   52.5965   22.6348 H   0  0  0  0  0  0
    2.7045   52.0525   23.6990 H   0  0  0  0  0  0
   -1.0531   53.2969   25.1443 H   0  0  0  0  0  0
   -0.6646   53.2947   23.4687 H   0  0  0  0  0  0
   -0.1863   51.7825   26.8593 H   0  0  0  0  0  0
    0.7216   51.7603   29.0990 H   0  0  0  0  0  0
    4.1732   53.8944   27.7800 H   0  0  0  0  0  0
    2.9476   54.0663   24.2985 H   0  0  0  0  0  0
    7.2641   55.1626   24.3081 H   0  0  0  0  0  0
    8.0893   55.7260   22.0769 H   0  0  0  0  0  0
    4.4369   54.3127   20.3363 H   0  0  0  0  0  0
    3.5787   53.7476   22.5386 H   0  0  0  0  0  0
  1  2  1  0  0  0
  1 32  1  0  0  0
  1 33  1  0  0  0
  1 34  1  0  0  0
  2  3  1  0  0  0
  2 35  1  0  0  0
  2 36  1  0  0  0
  3  4  1  0  0  0
  4  5  2  0  0  0
  4  6  1  0  0  0
  6  7  1  0  0  0
  6 12  1  0  0  0
  6  8  1  0  0  0
  8  9  1  0  0  0
  8 37  1  0  0  0
  8 38  1  0  0  0
  9 10  1  0  0  0
  9 39  1  0  0  0
  9 40  1  0  0  0
 10 11  1  0  0  0
 10 41  1  0  0  0
 10 42  1  0  0  0
 11 12  1  0  0  0
 11 13  1  0  0  0
 12 43  1  0  0  0
 12 44  1  0  0  0
 13 18  2  0  0  0
 13 14  1  0  0  0
 14 15  2  0  0  0
 14 45  1  0  0  0
 15 16  1  0  0  0
 15 46  1  0  0  0
 16 17  2  0  0  0
 16 29  1  0  0  0
 17 18  1  0  0  0
 17 47  1  0  0  0
 18 19  1  0  0  0
 19 20  1  0  0  0
 19 48  1  0  0  0
 20 21  2  0  0  0
 20 22  1  0  0  0
 22 27  2  0  0  0
 22 23  1  0  0  0
 23 24  2  0  0  0
 23 49  1  0  0  0
 24 25  1  0  0  0
 24 50  1  0  0  0
 25 26  2  0  0  0
 25 28  1  0  0  0
 26 27  1  0  0  0
 26 51  1  0  0  0
 27 52  1  0  0  0
 29 30  2  0  0  0
 29 31  1  0  0  0
M  CHG  1  31  -1
M  END
> <i_i_glide_confnum>
68

> <i_i_glide_lignum>
5979

> <i_i_glide_posenum>
177

> <i_i_glide_rotatable_bonds>
8

> <i_m_Source_File_Index>
1282

> <b_m_subgroup_collapsed>
0

> <r_i_docking_score>
-6.77226

> <r_i_glide_ecoul>
-10.9797

> <r_i_glide_eff_state_penalty>
0

> <r_i_glide_einternal>
5.85506

> <r_i_glide_emodel>
-69.4759

> <r_i_glide_energy>
-49.8975

> <r_i_glide_erotb>
0.539616

> <r_i_glide_esite>
-0.000238417

> <r_i_glide_evdw>
-38.9179

> <r_i_glide_gscore>
-6.77226

> <r_i_glide_hbond>
-0.32

> <r_i_glide_ligand_efficiency>
-0.225742

> <r_i_glide_ligand_efficiency_ln>
-1.53873

> <r_i_glide_ligand_efficiency_sa>
-0.701432

> <r_i_glide_lipo>
-2.41156

> <r_i_glide_metal>
0

> <r_i_glide_rewards>
-0.987226

> <s_i_glide_gridfile>
wee1_glide-grid

> <s_m_Source_File>
wee1_decoys_glide_SP.sdf

> <s_m_Source_Path>
/Users/zhangxujun/Desktop

> <s_m_entry_id>
1557

> <s_m_entry_name>
wee1_decoys_glide_SP.1282

> <s_m_subgroup_title>
wee1_decoys_glide_SP

> <s_m_subgroupid>
wee1_decoys_glide_SP


$$$$
