ZINC16608666_5391
                    3D
 Schrodinger Suite 2024-2.
 63 66  0  0  1  0            999 V2000
    0.3548   52.5628   17.6587 C   0  0  0  0  0  0
    1.2772   51.4082   18.0860 C   0  0  0  0  0  0
    2.2790   51.7542   19.2161 C   0  0  2  0  0  0
    2.8858   50.8544   19.3520 H   0  0  0  0  0  0
    1.5228   51.9550   20.5526 C   0  0  0  0  0  0
    3.2570   52.9125   18.8159 C   0  0  1  0  0  0
    2.6954   53.8244   18.6189 H   0  0  0  0  0  0
    4.2763   53.1625   19.9688 C   0  0  0  0  0  0
    5.3079   52.4955   20.0618 O   0  0  0  0  0  0
    3.9011   54.0879   20.8674 N   0  0  0  0  0  0
    4.3852   54.1238   22.1573 C   0  0  0  0  0  0
    5.6383   54.1129   22.5520 N   0  0  0  0  0  0
    5.7431   54.1236   23.9397 N   0  0  0  0  0  0
    4.5759   54.1154   24.5498 C   0  0  0  0  0  0
    3.2261   54.0962   23.4418 S   0  0  0  0  0  0
    4.3753   54.1188   26.0393 C   0  0  0  0  0  0
    5.4802   54.1439   26.9185 C   0  0  0  0  0  0
    5.3064   54.1443   28.3106 C   0  0  0  0  0  0
    4.0021   54.1288   28.7962 C   0  0  0  0  0  0
    2.9282   54.1054   27.9578 C   0  0  0  0  0  0
    3.0764   54.0933   26.5799 C   0  0  0  0  0  0
    1.7793   54.0604   28.6819 O   0  0  0  0  0  0
    2.1614   54.2434   30.0151 C   0  0  0  0  0  0
    3.5617   54.0967   30.0816 O   0  0  0  0  0  0
    3.9931   52.5444   17.5780 N   0  0  0  0  0  0
    4.5762   53.7625   16.4580 S   0  0  0  0  0  0
    3.5032   54.7461   16.2775 O   0  0  0  0  0  0
    5.0878   53.0553   15.2787 O   0  0  0  0  0  0
    5.9987   54.5456   17.2982 C   0  0  0  0  0  0
    7.2780   53.9346   17.2572 C   0  0  0  0  0  0
    8.3863   54.5916   17.7975 C   0  0  0  0  0  0
    8.2642   55.8520   18.3715 C   0  0  0  0  0  0
    7.0145   56.4503   18.4313 C   0  0  0  0  0  0
    5.8850   55.8157   17.9120 C   0  0  0  0  0  0
    4.5655   56.5502   18.0983 C   0  0  0  0  0  0
    9.4786   56.5795   18.9101 C   0  0  0  0  0  0
    7.5282   52.5448   16.6859 C   0  0  0  0  0  0
   -0.3761   52.2187   16.9243 H   0  0  0  0  0  0
   -0.1993   52.9749   18.5035 H   0  0  0  0  0  0
    0.9180   53.3761   17.1939 H   0  0  0  0  0  0
    1.8272   51.0645   17.2076 H   0  0  0  0  0  0
    0.6692   50.5536   18.3856 H   0  0  0  0  0  0
    0.9752   52.8956   20.5680 H   0  0  0  0  0  0
    0.8076   51.1501   20.7234 H   0  0  0  0  0  0
    2.2000   51.9469   21.4058 H   0  0  0  0  0  0
    2.9986   54.5262   20.7124 H   0  0  0  0  0  0
    6.4862   54.1586   26.5241 H   0  0  0  0  0  0
    6.1646   54.1634   28.9676 H   0  0  0  0  0  0
    2.1987   54.0620   25.9522 H   0  0  0  0  0  0
    1.6601   53.5018   30.6407 H   0  0  0  0  0  0
    1.8815   55.2545   30.3259 H   0  0  0  0  0  0
    4.6004   51.7143   17.6829 H   0  0  0  0  0  0
    9.3587   54.1227   17.7625 H   0  0  0  0  0  0
    6.9244   57.4284   18.8831 H   0  0  0  0  0  0
    4.2493   57.0390   17.1775 H   0  0  0  0  0  0
    3.7773   55.8801   18.4386 H   0  0  0  0  0  0
    4.6560   57.2967   18.8812 H   0  0  0  0  0  0
   10.3984   56.1897   18.4811 H   0  0  0  0  0  0
    9.5070   56.4949   19.9963 H   0  0  0  0  0  0
    9.4380   57.6391   18.6547 H   0  0  0  0  0  0
    7.6753   52.5908   15.6060 H   0  0  0  0  0  0
    8.4033   52.0775   17.1364 H   0  0  0  0  0  0
    6.7037   51.8681   16.8955 H   0  0  0  0  0  0
  1  2  1  0  0  0
  1 38  1  0  0  0
  1 39  1  0  0  0
  1 40  1  0  0  0
  2  3  1  0  0  0
  2 41  1  0  0  0
  2 42  1  0  0  0
  3  4  1  0  0  0
  3  5  1  0  0  0
  3  6  1  0  0  0
  5 43  1  0  0  0
  5 44  1  0  0  0
  5 45  1  0  0  0
  6  7  1  0  0  0
  6  8  1  0  0  0
  6 25  1  0  0  0
  8  9  2  0  0  0
  8 10  1  0  0  0
 10 11  1  0  0  0
 10 46  1  0  0  0
 11 15  1  0  0  0
 11 12  2  0  0  0
 12 13  1  0  0  0
 13 14  2  0  0  0
 14 15  1  0  0  0
 14 16  1  0  0  0
 16 21  2  0  0  0
 16 17  1  0  0  0
 17 18  2  0  0  0
 17 47  1  0  0  0
 18 19  1  0  0  0
 18 48  1  0  0  0
 19 24  1  0  0  0
 19 20  2  0  0  0
 20 21  1  0  0  0
 20 22  1  0  0  0
 21 49  1  0  0  0
 22 23  1  0  0  0
 23 24  1  0  0  0
 23 50  1  0  0  0
 23 51  1  0  0  0
 25 26  1  0  0  0
 25 52  1  0  0  0
 26 27  2  0  0  0
 26 28  2  0  0  0
 26 29  1  0  0  0
 29 34  2  0  0  0
 29 30  1  0  0  0
 30 31  2  0  0  0
 30 37  1  0  0  0
 31 32  1  0  0  0
 31 53  1  0  0  0
 32 33  2  0  0  0
 32 36  1  0  0  0
 33 34  1  0  0  0
 33 54  1  0  0  0
 34 35  1  0  0  0
 35 55  1  0  0  0
 35 56  1  0  0  0
 35 57  1  0  0  0
 36 58  1  0  0  0
 36 59  1  0  0  0
 36 60  1  0  0  0
 37 61  1  0  0  0
 37 62  1  0  0  0
 37 63  1  0  0  0
M  END
> <i_i_glide_confnum>
179

> <i_i_glide_lignum>
5392

> <i_i_glide_posenum>
110

> <i_i_glide_rotatable_bonds>
9

> <i_m_Source_File_Index>
504

> <b_m_subgroup_collapsed>
0

> <r_i_docking_score>
-5.9796

> <r_i_glide_ecoul>
-7.77516

> <r_i_glide_eff_state_penalty>
0

> <r_i_glide_einternal>
17.3206

> <r_i_glide_emodel>
-57.9081

> <r_i_glide_energy>
-49.8483

> <r_i_glide_erotb>
0.615239

> <r_i_glide_esite>
-0.161364

> <r_i_glide_evdw>
-42.0731

> <r_i_glide_gscore>
-5.9796

> <r_i_glide_hbond>
-0.72

> <r_i_glide_ligand_efficiency>
-0.170846

> <r_i_glide_ligand_efficiency_ln>
-1.31265

> <r_i_glide_ligand_efficiency_sa>
-0.558848

> <r_i_glide_lipo>
-2.4316

> <r_i_glide_metal>
0

> <r_i_glide_rewards>
-0.0119472

> <s_i_glide_gridfile>
wee1_glide-grid

> <s_m_Source_File>
wee1_decoys_glide_SP.sdf

> <s_m_Source_Path>
/Users/zhangxujun/Desktop

> <s_m_entry_id>
779

> <s_m_entry_name>
wee1_decoys_glide_SP.504

> <s_m_subgroup_title>
wee1_decoys_glide_SP

> <s_m_subgroupid>
wee1_decoys_glide_SP


$$$$
