ZINC36311047_2197
                    3D
 Schrodinger Suite 2024-2.
 64 67  0  0  1  0            999 V2000
    6.7067   55.4142   25.7635 C   0  0  0  0  0  0
    5.3525   54.7717   25.5366 C   0  0  0  0  0  0
    4.9291   54.4967   24.2364 C   0  0  0  0  0  0
    3.7188   53.8484   24.0192 C   0  0  0  0  0  0
    2.9462   53.4307   25.1137 C   0  0  0  0  0  0
    3.3559   53.7378   26.4132 C   0  0  0  0  0  0
    4.5560   54.4117   26.6241 C   0  0  0  0  0  0
    1.8624   52.5476   24.9872 N   0  0  0  0  0  0
    1.1456   52.2438   23.8895 C   0  0  0  0  0  0
    1.0639   52.9817   22.9042 O   0  0  0  0  0  0
    0.4092   50.8714   23.9153 C   0  0  1  0  0  0
    1.1028   50.0862   24.2280 H   0  0  0  0  0  0
   -0.8200   50.8227   24.8927 C   0  0  0  0  0  0
   -0.4379   50.8189   26.3966 C   0  0  0  0  0  0
   -1.1016   52.0441   27.0182 C   0  0  0  0  0  0
   -2.3484   52.2553   26.1589 C   0  0  0  0  0  0
   -1.8776   51.9463   24.7343 C   0  0  0  0  0  0
    0.0487   50.4835   22.4354 N   0  3  0  0  0  0
    1.3190   50.0077   21.6720 C   0  0  0  0  0  0
    1.0025   49.7826   20.1757 C   0  0  0  0  0  0
   -0.0996   48.8013   20.0776 N   0  0  0  0  0  0
   -1.3433   49.1717   20.7793 C   0  0  0  0  0  0
   -1.0336   49.3872   22.2750 C   0  0  0  0  0  0
    0.0330   47.5594   19.5385 C   0  0  0  0  0  0
   -0.6655   46.6134   19.9097 O   0  0  0  0  0  0
    0.9157   47.4787   18.5149 N   0  0  0  0  0  0
    1.1083   46.4352   17.5878 C   0  0  0  0  0  0
    2.2755   46.4985   16.8206 C   0  0  0  0  0  0
    2.5437   45.5244   15.8643 C   0  0  0  0  0  0
    1.6440   44.4803   15.6715 C   0  0  0  0  0  0
    0.4744   44.4080   16.4216 C   0  0  0  0  0  0
    0.2002   45.3840   17.3762 C   0  0  0  0  0  0
    1.9039   43.5307   14.7461 F   0  0  0  0  0  0
    7.1032   55.1678   26.7507 H   0  0  0  0  0  0
    6.6400   56.4966   25.6626 H   0  0  0  0  0  0
    7.4277   55.0472   25.0304 H   0  0  0  0  0  0
    5.5442   54.7710   23.3907 H   0  0  0  0  0  0
    3.4437   53.6093   23.0028 H   0  0  0  0  0  0
    2.7790   53.4124   27.2671 H   0  0  0  0  0  0
    4.8828   54.6168   27.6333 H   0  0  0  0  0  0
    1.6551   52.0193   25.8204 H   0  0  0  0  0  0
   -1.3304   49.8650   24.7877 H   0  0  0  0  0  0
   -0.8820   49.9466   26.8798 H   0  0  0  0  0  0
    0.6296   50.7385   26.6003 H   0  0  0  0  0  0
   -1.3412   51.8928   28.0719 H   0  0  0  0  0  0
   -0.4317   52.8983   26.9483 H   0  0  0  0  0  0
   -3.1307   51.5557   26.4582 H   0  0  0  0  0  0
   -2.7544   53.2629   26.2576 H   0  0  0  0  0  0
   -1.4375   52.8714   24.3611 H   0  0  0  0  0  0
   -2.7075   51.6680   24.0849 H   0  0  0  0  0  0
    2.0571   50.8070   21.7435 H   0  0  0  0  0  0
    1.7243   49.1186   22.1634 H   0  0  0  0  0  0
    0.7060   50.7235   19.7085 H   0  0  0  0  0  0
    1.9112   49.4538   19.6662 H   0  0  0  0  0  0
   -2.1236   48.4167   20.6599 H   0  0  0  0  0  0
   -1.7425   50.0886   20.3440 H   0  0  0  0  0  0
   -0.7152   48.4817   22.7974 H   0  0  0  0  0  0
   -1.9452   49.7738   22.7296 H   0  0  0  0  0  0
    1.4925   48.2893   18.3493 H   0  0  0  0  0  0
    2.9911   47.2966   16.9612 H   0  0  0  0  0  0
    3.4516   45.5792   15.2829 H   0  0  0  0  0  0
   -0.2212   43.6000   16.2538 H   0  0  0  0  0  0
   -0.7273   45.3113   17.9217 H   0  0  0  0  0  0
   -0.2878   51.3312   21.9958 H   0  0  0  0  0  0
  1  2  1  0  0  0
  1 34  1  0  0  0
  1 35  1  0  0  0
  1 36  1  0  0  0
  2  7  2  0  0  0
  2  3  1  0  0  0
  3  4  2  0  0  0
  3 37  1  0  0  0
  4  5  1  0  0  0
  4 38  1  0  0  0
  5  6  2  0  0  0
  5  8  1  0  0  0
  6  7  1  0  0  0
  6 39  1  0  0  0
  7 40  1  0  0  0
  8  9  1  0  0  0
  8 41  1  0  0  0
  9 10  2  0  0  0
  9 11  1  0  0  0
 11 12  1  0  0  0
 11 13  1  0  0  0
 11 18  1  0  0  0
 13 17  1  0  0  0
 13 14  1  0  0  0
 13 42  1  0  0  0
 14 15  1  0  0  0
 14 43  1  0  0  0
 14 44  1  0  0  0
 15 16  1  0  0  0
 15 45  1  0  0  0
 15 46  1  0  0  0
 16 17  1  0  0  0
 16 47  1  0  0  0
 16 48  1  0  0  0
 17 49  1  0  0  0
 17 50  1  0  0  0
 18 23  1  0  0  0
 18 19  1  0  0  0
 18 64  1  0  0  0
 19 20  1  0  0  0
 19 51  1  0  0  0
 19 52  1  0  0  0
 20 21  1  0  0  0
 20 53  1  0  0  0
 20 54  1  0  0  0
 21 22  1  0  0  0
 21 24  1  0  0  0
 22 23  1  0  0  0
 22 55  1  0  0  0
 22 56  1  0  0  0
 23 57  1  0  0  0
 23 58  1  0  0  0
 24 25  2  0  0  0
 24 26  1  0  0  0
 26 27  1  0  0  0
 26 59  1  0  0  0
 27 32  2  0  0  0
 27 28  1  0  0  0
 28 29  2  0  0  0
 28 60  1  0  0  0
 29 30  1  0  0  0
 29 61  1  0  0  0
 30 31  2  0  0  0
 30 33  1  0  0  0
 31 32  1  0  0  0
 31 62  1  0  0  0
 32 63  1  0  0  0
M  CHG  1  18   1
M  END
> <i_i_glide_confnum>
457

> <i_i_glide_lignum>
2198

> <i_i_glide_posenum>
353

> <i_i_glide_rotatable_bonds>
8

> <i_m_Source_File_Index>
2494

> <b_m_subgroup_collapsed>
0

> <r_i_docking_score>
-3.26136

> <r_i_glide_ecoul>
-0.988775

> <r_i_glide_eff_state_penalty>
0

> <r_i_glide_einternal>
9.76923

> <r_i_glide_emodel>
-37.494

> <r_i_glide_energy>
-32.9287

> <r_i_glide_erotb>
0.826464

> <r_i_glide_esite>
-0.0328174

> <r_i_glide_evdw>
-31.9399

> <r_i_glide_gscore>
-3.26136

> <r_i_glide_hbond>
0

> <r_i_glide_ligand_efficiency>
-0.101917

> <r_i_glide_ligand_efficiency_ln>
-0.730307

> <r_i_glide_ligand_efficiency_sa>
-0.323568

> <r_i_glide_lipo>
-1.70408

> <r_i_glide_metal>
0

> <r_i_glide_rewards>
-0.605611

> <s_i_glide_gridfile>
wee1_glide-grid

> <s_m_Source_File>
wee1_decoys_glide_SP.sdf

> <s_m_Source_Path>
/Users/zhangxujun/Desktop

> <s_m_entry_id>
2769

> <s_m_entry_name>
wee1_decoys_glide_SP.2494

> <s_m_subgroup_title>
wee1_decoys_glide_SP

> <s_m_subgroupid>
wee1_decoys_glide_SP


$$$$
