ZINC09254735_2278
                    3D
 Schrodinger Suite 2024-2.
 51 53  0  0  1  0            999 V2000
    4.3006   54.1504   29.6020 C   0  0  0  0  0  0
    5.0330   54.4958   28.4729 C   0  0  0  0  0  0
    4.6315   54.0782   27.1956 C   0  0  0  0  0  0
    3.4641   53.2968   27.0963 C   0  0  0  0  0  0
    2.7277   52.9325   28.2268 C   0  0  0  0  0  0
    3.1623   53.3588   29.4859 C   0  0  0  0  0  0
    1.6268   52.1243   28.0410 O   0  0  0  0  0  0
    0.4373   52.4114   28.7767 C   0  0  0  0  0  0
    0.5409   52.1004   30.0704 F   0  0  0  0  0  0
    0.0310   53.6737   28.6188 F   0  0  0  0  0  0
    5.4605   54.4779   25.9868 C   0  0  0  0  0  0
    6.4989   55.1293   26.1371 O   0  0  0  0  0  0
    4.9668   54.0971   24.7840 N   0  0  0  0  0  0
    5.4427   54.3779   23.4899 C   0  0  0  0  0  0
    4.5595   54.1156   22.4387 C   0  0  0  0  0  0
    4.8940   54.4955   21.1407 C   0  0  0  0  0  0
    6.1191   55.1153   20.8833 C   0  0  0  0  0  0
    7.0375   55.2979   21.9209 C   0  0  0  0  0  0
    6.7040   54.9254   23.2170 C   0  0  0  0  0  0
    6.5032   55.6995   19.2273 S   0  0  0  0  0  0
    5.3234   56.4938   18.8718 O   0  0  0  0  0  0
    7.7325   56.4769   19.4342 O   0  0  0  0  0  0
    6.6035   54.0983   18.4911 N   0  0  0  0  0  0
    7.5343   53.7957   17.6823 C   0  0  0  0  0  0
    8.6830   54.6403   17.1133 C   0  0  0  0  0  0
   10.1067   54.1075   17.3816 C   0  0  0  0  0  0
   10.5886   53.0510   16.3765 C   0  0  0  0  0  0
    9.7849   51.7390   16.3542 C   0  0  0  0  0  0
    8.2686   51.8726   16.1163 C   0  0  0  0  0  0
    7.5232   52.4952   17.2114 N   0  0  0  0  0  0
    4.6342   54.4958   30.5661 H   0  0  0  0  0  0
    5.9132   55.1108   28.6039 H   0  0  0  0  0  0
    3.1113   52.9329   26.1433 H   0  0  0  0  0  0
    2.6307   53.0733   30.3786 H   0  0  0  0  0  0
   -0.3651   51.7796   28.3911 H   0  0  0  0  0  0
    4.0961   53.5998   24.8133 H   0  0  0  0  0  0
    3.5879   53.6759   22.6203 H   0  0  0  0  0  0
    4.1875   54.3433   20.3363 H   0  0  0  0  0  0
    8.0070   55.7486   21.7451 H   0  0  0  0  0  0
    7.4386   55.1039   23.9896 H   0  0  0  0  0  0
    8.5254   54.7901   16.0461 H   0  0  0  0  0  0
    8.6459   55.6547   17.4868 H   0  0  0  0  0  0
   10.8057   54.9456   17.3625 H   0  0  0  0  0  0
   10.1753   53.7061   18.3960 H   0  0  0  0  0  0
   11.6313   52.8123   16.5933 H   0  0  0  0  0  0
   10.5905   53.4861   15.3766 H   0  0  0  0  0  0
    9.9511   51.1910   17.2809 H   0  0  0  0  0  0
   10.1995   51.0996   15.5751 H   0  0  0  0  0  0
    7.8516   50.8969   15.8743 H   0  0  0  0  0  0
    8.1026   52.4985   15.2344 H   0  0  0  0  0  0
    6.7534   51.9282   17.5492 H   0  0  0  0  0  0
  1  6  2  0  0  0
  1  2  1  0  0  0
  1 31  1  0  0  0
  2  3  2  0  0  0
  2 32  1  0  0  0
  3  4  1  0  0  0
  3 11  1  0  0  0
  4  5  2  0  0  0
  4 33  1  0  0  0
  5  6  1  0  0  0
  5  7  1  0  0  0
  6 34  1  0  0  0
  7  8  1  0  0  0
  8  9  1  0  0  0
  8 10  1  0  0  0
  8 35  1  0  0  0
 11 12  2  0  0  0
 11 13  1  0  0  0
 13 14  1  0  0  0
 13 36  1  0  0  0
 14 19  2  0  0  0
 14 15  1  0  0  0
 15 16  2  0  0  0
 15 37  1  0  0  0
 16 17  1  0  0  0
 16 38  1  0  0  0
 17 18  2  0  0  0
 17 20  1  0  0  0
 18 19  1  0  0  0
 18 39  1  0  0  0
 19 40  1  0  0  0
 20 21  2  0  0  0
 20 22  2  0  0  0
 20 23  1  0  0  0
 23 24  2  0  0  0
 24 30  1  0  0  0
 24 25  1  0  0  0
 25 26  1  0  0  0
 25 41  1  0  0  0
 25 42  1  0  0  0
 26 27  1  0  0  0
 26 43  1  0  0  0
 26 44  1  0  0  0
 27 28  1  0  0  0
 27 45  1  0  0  0
 27 46  1  0  0  0
 28 29  1  0  0  0
 28 47  1  0  0  0
 28 48  1  0  0  0
 29 30  1  0  0  0
 29 49  1  0  0  0
 29 50  1  0  0  0
 30 51  1  0  0  0
M  END
> <i_i_glide_confnum>
128

> <i_i_glide_lignum>
2279

> <i_i_glide_posenum>
299

> <i_i_glide_rotatable_bonds>
7

> <i_m_Source_File_Index>
550

> <b_m_subgroup_collapsed>
0

> <r_i_docking_score>
-5.22051

> <r_i_glide_ecoul>
-5.67842

> <r_i_glide_eff_state_penalty>
0

> <r_i_glide_einternal>
8.97916

> <r_i_glide_emodel>
-59.0163

> <r_i_glide_energy>
-50.0576

> <r_i_glide_erotb>
0.625217

> <r_i_glide_esite>
-0.0635648

> <r_i_glide_evdw>
-44.3792

> <r_i_glide_gscore>
-5.22051

> <r_i_glide_hbond>
-0.298436

> <r_i_glide_ligand_efficiency>
-0.174017

> <r_i_glide_ligand_efficiency_ln>
-1.18616

> <r_i_glide_ligand_efficiency_sa>
-0.540712

> <r_i_glide_lipo>
-2.22201

> <r_i_glide_metal>
0

> <r_i_glide_rewards>
-0.190999

> <s_i_glide_gridfile>
wee1_glide-grid

> <s_m_Source_File>
wee1_decoys_glide_SP.sdf

> <s_m_Source_Path>
/Users/zhangxujun/Desktop

> <s_m_entry_id>
825

> <s_m_entry_name>
wee1_decoys_glide_SP.550

> <s_m_subgroup_title>
wee1_decoys_glide_SP

> <s_m_subgroupid>
wee1_decoys_glide_SP


$$$$
