ZINC17026773_5679
                    3D
 Schrodinger Suite 2024-2.
 71 74  0  0  1  0            999 V2000
    5.2437   54.7752   26.7149 C   0  0  0  0  0  0
    4.3245   54.0909   27.7102 C   0  0  0  0  0  0
    4.6980   54.0036   29.0475 C   0  0  0  0  0  0
    3.9073   53.3435   29.9881 C   0  0  0  0  0  0
    2.6881   52.7656   29.6472 C   0  0  0  0  0  0
    2.2791   52.8261   28.2971 C   0  0  0  0  0  0
    3.1031   53.4995   27.3582 C   0  0  0  0  0  0
    2.3419   53.4321   25.7974 S   0  0  0  0  0  0
    1.0107   52.5060   26.4813 C   0  0  0  0  0  0
    1.1474   52.2815   27.7668 N   0  0  0  0  0  0
   -0.1465   52.1026   25.7550 N   0  0  0  0  0  0
   -1.2247   51.4144   26.5192 C   0  0  0  0  0  0
   -1.7305   50.0907   25.8847 C   0  0  0  0  0  0
   -1.1774   47.7365   25.1283 C   0  0  0  0  0  0
    0.7449   49.1444   26.0162 C   0  0  0  0  0  0
   -0.4327   52.4671   24.4582 C   0  0  0  0  0  0
   -1.5863   52.5562   24.0312 O   0  0  0  0  0  0
    0.6540   52.4880   23.4185 C   0  0  0  0  0  0
    1.2211   53.6942   23.0030 C   0  0  0  0  0  0
    2.2602   53.6934   22.0819 C   0  0  0  0  0  0
    2.6655   52.4981   21.5044 C   0  0  0  0  0  0
    2.0735   51.2910   21.8727 C   0  0  0  0  0  0
    1.0662   51.2879   22.8294 C   0  0  0  0  0  0
    3.9468   52.5085   20.2754 S   0  0  0  0  0  0
    4.5614   53.8422   20.3054 O   0  0  0  0  0  0
    4.7214   51.3009   20.5725 O   0  0  0  0  0  0
    3.0821   52.3057   18.7367 N   0  0  0  0  0  0
    2.7022   50.9651   18.2518 C   0  0  0  0  0  0
    1.1742   50.7617   18.2602 C   0  0  0  0  0  0
    0.4702   51.9153   17.5175 C   0  0  0  0  0  0
    0.8890   53.2915   18.0837 C   0  0  1  0  0  0
    0.5922   53.2977   19.1337 H   0  0  0  0  0  0
    2.4310   53.4398   18.0362 C   0  0  0  0  0  0
    0.1906   54.4409   17.3328 C   0  0  0  0  0  0
    1.9655   52.1007   30.6129 O   0  0  0  0  0  0
    0.6035   52.4844   30.7880 C   0  0  0  0  0  0
    4.6870   55.4864   26.1034 H   0  0  0  0  0  0
    6.0567   55.3116   27.2035 H   0  0  0  0  0  0
    5.6753   54.0310   26.0433 H   0  0  0  0  0  0
    5.6340   54.4474   29.3579 H   0  0  0  0  0  0
    4.2739   53.2658   31.0030 H   0  0  0  0  0  0
   -0.9307   51.1827   27.5419 H   0  0  0  0  0  0
   -2.0534   52.1152   26.6343 H   0  0  0  0  0  0
   -2.6564   49.7644   26.3643 H   0  0  0  0  0  0
   -1.9131   50.1743   24.8122 H   0  0  0  0  0  0
   -1.0989   48.1048   24.1042 H   0  0  0  0  0  0
   -0.5004   46.8980   25.2815 H   0  0  0  0  0  0
   -2.2020   47.4585   25.3822 H   0  0  0  0  0  0
    0.9736   49.6402   25.0785 H   0  0  0  0  0  0
    0.9987   49.7612   26.8744 H   0  0  0  0  0  0
    1.2763   48.1956   26.0814 H   0  0  0  0  0  0
    0.8991   54.6336   23.4273 H   0  0  0  0  0  0
    2.7196   54.6284   21.7966 H   0  0  0  0  0  0
    2.3897   50.3634   21.4155 H   0  0  0  0  0  0
    0.5999   50.3497   23.0866 H   0  0  0  0  0  0
    3.1005   50.8965   17.2411 H   0  0  0  0  0  0
    3.1863   50.2037   18.8616 H   0  0  0  0  0  0
    0.9308   49.8070   17.7907 H   0  0  0  0  0  0
    0.8125   50.7001   19.2875 H   0  0  0  0  0  0
    0.7145   51.8689   16.4548 H   0  0  0  0  0  0
   -0.6131   51.8001   17.5589 H   0  0  0  0  0  0
    2.7523   54.3759   18.4907 H   0  0  0  0  0  0
    2.8029   53.4438   17.0109 H   0  0  0  0  0  0
    0.4007   54.3997   16.2629 H   0  0  0  0  0  0
   -0.8921   54.4007   17.4598 H   0  0  0  0  0  0
    0.5249   55.4174   17.6833 H   0  0  0  0  0  0
    0.3148   52.2923   31.8194 H   0  0  0  0  0  0
   -0.0575   51.8951   30.1537 H   0  0  0  0  0  0
    0.4290   53.5436   30.5947 H   0  0  0  0  0  0
   -0.7741   48.8818   26.0815 N   0  3  0  0  0  0
   -0.9712   48.5438   27.0450 H   0  0  0  0  0  0
  1  2  1  0  0  0
  1 37  1  0  0  0
  1 38  1  0  0  0
  1 39  1  0  0  0
  2  7  2  0  0  0
  2  3  1  0  0  0
  3  4  2  0  0  0
  3 40  1  0  0  0
  4  5  1  0  0  0
  4 41  1  0  0  0
  5  6  2  0  0  0
  5 35  1  0  0  0
  6 10  1  0  0  0
  6  7  1  0  0  0
  7  8  1  0  0  0
  8  9  1  0  0  0
  9 10  2  0  0  0
  9 11  1  0  0  0
 11 12  1  0  0  0
 11 16  1  0  0  0
 12 13  1  0  0  0
 12 42  1  0  0  0
 12 43  1  0  0  0
 13 44  1  0  0  0
 13 45  1  0  0  0
 13 70  1  0  0  0
 14 46  1  0  0  0
 14 47  1  0  0  0
 14 48  1  0  0  0
 14 70  1  0  0  0
 15 49  1  0  0  0
 15 50  1  0  0  0
 15 51  1  0  0  0
 15 70  1  0  0  0
 16 17  2  0  0  0
 16 18  1  0  0  0
 18 23  2  0  0  0
 18 19  1  0  0  0
 19 20  2  0  0  0
 19 52  1  0  0  0
 20 21  1  0  0  0
 20 53  1  0  0  0
 21 22  2  0  0  0
 21 24  1  0  0  0
 22 23  1  0  0  0
 22 54  1  0  0  0
 23 55  1  0  0  0
 24 25  2  0  0  0
 24 26  2  0  0  0
 24 27  1  0  0  0
 27 33  1  0  0  0
 27 28  1  0  0  0
 28 29  1  0  0  0
 28 56  1  0  0  0
 28 57  1  0  0  0
 29 30  1  0  0  0
 29 58  1  0  0  0
 29 59  1  0  0  0
 30 31  1  0  0  0
 30 60  1  0  0  0
 30 61  1  0  0  0
 31 32  1  0  0  0
 31 33  1  0  0  0
 31 34  1  0  0  0
 33 62  1  0  0  0
 33 63  1  0  0  0
 34 64  1  0  0  0
 34 65  1  0  0  0
 34 66  1  0  0  0
 35 36  1  0  0  0
 36 67  1  0  0  0
 36 68  1  0  0  0
 36 69  1  0  0  0
 70 71  1  0  0  0
M  CHG  1  70   1
M  END
> <i_i_glide_confnum>
182

> <i_i_glide_lignum>
5680

> <i_i_glide_posenum>
174

> <i_i_glide_rotatable_bonds>
9

> <i_m_Source_File_Index>
732

> <b_m_subgroup_collapsed>
0

> <r_i_docking_score>
-5.61577

> <r_i_glide_ecoul>
-11.0734

> <r_i_glide_eff_state_penalty>
0

> <r_i_glide_einternal>
17.7892

> <r_i_glide_emodel>
-59.6301

> <r_i_glide_energy>
-50.1687

> <r_i_glide_erotb>
0.510585

> <r_i_glide_esite>
-0.266141

> <r_i_glide_evdw>
-39.0952

> <r_i_glide_gscore>
-5.61577

> <r_i_glide_hbond>
-0.368584

> <r_i_glide_ligand_efficiency>
-0.155994

> <r_i_glide_ligand_efficiency_ln>
-1.22521

> <r_i_glide_ligand_efficiency_sa>
-0.51508

> <r_i_glide_lipo>
-2.06863

> <r_i_glide_metal>
0

> <r_i_glide_rewards>
0.192767

> <s_i_glide_gridfile>
wee1_glide-grid

> <s_m_Source_File>
wee1_decoys_glide_SP.sdf

> <s_m_Source_Path>
/Users/zhangxujun/Desktop

> <s_m_entry_id>
1007

> <s_m_entry_name>
wee1_decoys_glide_SP.732

> <s_m_subgroup_title>
wee1_decoys_glide_SP

> <s_m_subgroupid>
wee1_decoys_glide_SP


$$$$
