ZINC17304830_2713
                    3D
 Schrodinger Suite 2024-2.
 53 56  0  0  1  0            999 V2000
   10.9742   54.0695   17.5391 C   0  0  0  0  0  0
    9.4706   53.8757   17.5376 C   0  0  0  0  0  0
    8.9164   52.7784   16.8813 C   0  0  0  0  0  0
    7.5378   52.5913   16.8825 C   0  0  0  0  0  0
    6.6925   53.4972   17.5325 C   0  0  0  0  0  0
    7.2492   54.6019   18.2114 C   0  0  0  0  0  0
    8.6403   54.7755   18.2137 C   0  0  0  0  0  0
    6.2184   55.8250   19.0400 S   0  0  0  0  0  0
    5.3393   56.4015   18.0193 O   0  0  0  0  0  0
    7.0637   56.7010   19.8643 O   0  0  0  0  0  0
    5.1582   54.8964   20.1178 N   0  0  0  0  0  0
    5.3361   54.6748   21.4880 C   0  0  0  0  0  0
    4.2093   54.2457   22.1843 C   0  0  0  0  0  0
    4.2485   54.0968   23.5620 C   0  0  0  0  0  0
    5.4269   54.3614   24.2796 C   0  0  0  0  0  0
    6.5722   54.7377   23.5670 C   0  0  0  0  0  0
    6.5292   54.8966   22.1831 C   0  0  0  0  0  0
    5.4783   54.2089   25.7874 C   0  0  0  0  0  0
    6.5581   54.1032   26.3765 O   0  0  0  0  0  0
    4.2720   54.2180   26.3941 N   0  0  0  0  0  0
    3.9074   53.7917   27.6787 C   0  0  0  0  0  0
    4.6906   52.9442   28.4821 C   0  0  0  0  0  0
    4.1804   52.4406   29.6808 C   0  0  0  0  0  0
    2.8934   52.7791   30.0823 C   0  0  0  0  0  0
    2.1281   53.6685   29.3098 C   0  0  0  0  0  0
    2.6289   54.1593   28.1075 C   0  0  0  0  0  0
    0.8476   54.0355   29.6649 O   0  0  0  0  0  0
    0.5689   53.8490   31.0553 C   0  0  0  0  0  0
    1.0347   52.4445   31.5080 C   0  0  0  0  0  0
    2.4417   52.2696   31.2828 O   0  0  0  0  0  0
    5.1922   53.2400   17.4603 C   0  0  0  0  0  0
   11.4949   53.1155   17.4355 H   0  0  0  0  0  0
   11.2793   54.7338   16.7297 H   0  0  0  0  0  0
   11.3025   54.4951   18.4814 H   0  0  0  0  0  0
    9.5508   52.0665   16.3713 H   0  0  0  0  0  0
    7.1249   51.7302   16.3764 H   0  0  0  0  0  0
    9.0800   55.6199   18.7257 H   0  0  0  0  0  0
    4.2563   54.6624   19.7306 H   0  0  0  0  0  0
    3.2830   54.0555   21.6581 H   0  0  0  0  0  0
    3.3436   53.7654   24.0508 H   0  0  0  0  0  0
    7.5042   54.9250   24.0829 H   0  0  0  0  0  0
    7.4329   55.1900   21.6734 H   0  0  0  0  0  0
    3.4962   54.4872   25.8130 H   0  0  0  0  0  0
    5.6743   52.6295   28.1648 H   0  0  0  0  0  0
    4.7789   51.7767   30.2875 H   0  0  0  0  0  0
    2.0047   54.8051   27.5046 H   0  0  0  0  0  0
    1.1042   54.6103   31.6249 H   0  0  0  0  0  0
   -0.4950   53.9784   31.2412 H   0  0  0  0  0  0
    0.8057   52.2835   32.5613 H   0  0  0  0  0  0
    0.4809   51.6985   30.9383 H   0  0  0  0  0  0
    4.9458   52.5010   16.6962 H   0  0  0  0  0  0
    4.8156   52.8703   18.4145 H   0  0  0  0  0  0
    4.6448   54.1436   17.1988 H   0  0  0  0  0  0
  1  2  1  0  0  0
  1 32  1  0  0  0
  1 33  1  0  0  0
  1 34  1  0  0  0
  2  7  2  0  0  0
  2  3  1  0  0  0
  3  4  2  0  0  0
  3 35  1  0  0  0
  4  5  1  0  0  0
  4 36  1  0  0  0
  5  6  2  0  0  0
  5 31  1  0  0  0
  6  7  1  0  0  0
  6  8  1  0  0  0
  7 37  1  0  0  0
  8  9  2  0  0  0
  8 10  2  0  0  0
  8 11  1  0  0  0
 11 12  1  0  0  0
 11 38  1  0  0  0
 12 17  2  0  0  0
 12 13  1  0  0  0
 13 14  2  0  0  0
 13 39  1  0  0  0
 14 15  1  0  0  0
 14 40  1  0  0  0
 15 16  2  0  0  0
 15 18  1  0  0  0
 16 17  1  0  0  0
 16 41  1  0  0  0
 17 42  1  0  0  0
 18 19  2  0  0  0
 18 20  1  0  0  0
 20 21  1  0  0  0
 20 43  1  0  0  0
 21 26  2  0  0  0
 21 22  1  0  0  0
 22 23  2  0  0  0
 22 44  1  0  0  0
 23 24  1  0  0  0
 23 45  1  0  0  0
 24 30  1  0  0  0
 24 25  2  0  0  0
 25 26  1  0  0  0
 25 27  1  0  0  0
 26 46  1  0  0  0
 27 28  1  0  0  0
 28 29  1  0  0  0
 28 47  1  0  0  0
 28 48  1  0  0  0
 29 30  1  0  0  0
 29 49  1  0  0  0
 29 50  1  0  0  0
 31 51  1  0  0  0
 31 52  1  0  0  0
 31 53  1  0  0  0
M  END
> <i_i_glide_confnum>
22

> <i_i_glide_lignum>
2714

> <i_i_glide_posenum>
287

> <i_i_glide_rotatable_bonds>
6

> <i_m_Source_File_Index>
5801

> <b_m_subgroup_collapsed>
0

> <r_i_docking_score>
-6.29465

> <r_i_glide_ecoul>
-7.3855

> <r_i_glide_eff_state_penalty>
0

> <r_i_glide_einternal>
5.14846

> <r_i_glide_emodel>
-70.4711

> <r_i_glide_energy>
-53.9899

> <r_i_glide_erotb>
0.62254

> <r_i_glide_esite>
-0.038312

> <r_i_glide_evdw>
-46.6044

> <r_i_glide_gscore>
-6.29465

> <r_i_glide_hbond>
-0.235905

> <r_i_glide_ligand_efficiency>
-0.203053

> <r_i_glide_ligand_efficiency_ln>
-1.41964

> <r_i_glide_ligand_efficiency_sa>
-0.637868

> <r_i_glide_lipo>
-3.10797

> <r_i_glide_metal>
0

> <r_i_glide_rewards>
-0.096968

> <s_i_glide_gridfile>
wee1_glide-grid

> <s_m_Source_File>
wee1_decoys_glide_SP.sdf

> <s_m_Source_Path>
/Users/zhangxujun/Desktop

> <s_m_entry_id>
6076

> <s_m_entry_name>
wee1_decoys_glide_SP.5801

> <s_m_subgroup_title>
wee1_decoys_glide_SP

> <s_m_subgroupid>
wee1_decoys_glide_SP


$$$$
