ZINC00705515_2640
                    3D
 Schrodinger Suite 2024-2.
 52 56  0  0  1  0            999 V2000
   -0.6393   49.4236   23.2345 C   0  0  0  0  0  0
    0.3986   49.1152   22.3093 O   0  0  0  0  0  0
    1.1780   50.1354   21.8044 C   0  0  0  0  0  0
    2.2439   49.7559   20.9891 C   0  0  0  0  0  0
    3.0920   50.7151   20.4421 C   0  0  0  0  0  0
    2.8837   52.0676   20.7110 C   0  0  0  0  0  0
    1.7957   52.4580   21.4970 C   0  0  0  0  0  0
    0.9531   51.4991   22.0507 C   0  0  0  0  0  0
    3.7656   53.0399   20.1755 N   0  0  0  0  0  0
    4.7660   53.5891   21.0034 C   0  0  0  0  0  0
    5.5530   54.6185   20.5590 C   0  0  0  0  0  0
    5.4928   55.1254   19.0921 C   0  0  2  0  0  0
    5.3202   56.2033   19.1091 H   0  0  0  0  0  0
    4.3276   54.4872   18.3367 C   0  0  0  0  0  0
    3.5726   53.4972   18.8636 C   0  0  0  0  0  0
    2.5792   52.8831   18.1278 N   0  0  0  0  0  0
    4.0907   54.9386   16.9997 C   0  0  0  0  0  0
    3.8721   55.2895   15.9193 N   0  0  0  0  0  0
    6.8356   54.9648   18.3554 C   0  0  0  0  0  0
    7.2291   53.6906   17.8921 C   0  0  0  0  0  0
    8.4694   53.4946   17.2701 C   0  0  0  0  0  0
    9.3009   54.5982   17.1355 C   0  0  0  0  0  0
    8.9266   55.8383   17.5656 C   0  0  0  0  0  0
    7.6935   56.0664   18.1654 C   0  0  0  0  0  0
    9.9161   56.7283   17.2875 O   0  0  0  0  0  0
   11.0094   55.9541   16.8718 C   0  0  0  0  0  0
   10.5341   54.6697   16.5717 O   0  0  0  0  0  0
    6.5093   55.3192   21.4561 C   0  0  0  0  0  0
    7.0807   56.3597   21.1281 O   0  0  0  0  0  0
    6.7157   54.7599   22.8681 C   0  0  0  0  0  0
    5.4317   54.1303   23.4139 C   0  0  0  0  0  0
    4.8947   53.0633   22.4510 C   0  0  0  0  0  0
   -1.1297   48.5001   23.5450 H   0  0  0  0  0  0
   -0.2441   49.9047   24.1304 H   0  0  0  0  0  0
   -1.3998   50.0655   22.7866 H   0  0  0  0  0  0
    2.4178   48.7107   20.7795 H   0  0  0  0  0  0
    3.9044   50.4141   19.7985 H   0  0  0  0  0  0
    1.6218   53.5070   21.6889 H   0  0  0  0  0  0
    0.1322   51.8291   22.6671 H   0  0  0  0  0  0
    2.3990   53.1697   17.1777 H   0  0  0  0  0  0
    2.2395   51.9711   18.4050 H   0  0  0  0  0  0
    6.5744   52.8397   18.0307 H   0  0  0  0  0  0
    8.7631   52.5160   16.9237 H   0  0  0  0  0  0
    7.4149   57.0537   18.5031 H   0  0  0  0  0  0
   11.4863   56.4006   15.9977 H   0  0  0  0  0  0
   11.7368   55.8853   17.6844 H   0  0  0  0  0  0
    7.1029   55.5473   23.5136 H   0  0  0  0  0  0
    7.4911   53.9978   22.8005 H   0  0  0  0  0  0
    4.6740   54.8968   23.5734 H   0  0  0  0  0  0
    5.6193   53.6852   24.3925 H   0  0  0  0  0  0
    3.9157   52.8689   22.8825 H   0  0  0  0  0  0
    5.4493   52.1234   22.4809 H   0  0  0  0  0  0
  1  2  1  0  0  0
  1 33  1  0  0  0
  1 34  1  0  0  0
  1 35  1  0  0  0
  2  3  1  0  0  0
  3  8  2  0  0  0
  3  4  1  0  0  0
  4  5  2  0  0  0
  4 36  1  0  0  0
  5  6  1  0  0  0
  5 37  1  0  0  0
  6  7  2  0  0  0
  6  9  1  0  0  0
  7  8  1  0  0  0
  7 38  1  0  0  0
  8 39  1  0  0  0
  9 15  1  0  0  0
  9 10  1  0  0  0
 10 32  1  0  0  0
 10 11  2  0  0  0
 11 12  1  0  0  0
 11 28  1  0  0  0
 12 13  1  0  0  0
 12 14  1  0  0  0
 12 19  1  0  0  0
 14 15  2  0  0  0
 14 17  1  0  0  0
 15 16  1  0  0  0
 16 40  1  0  0  0
 16 41  1  0  0  0
 17 18  3  0  0  0
 19 24  2  0  0  0
 19 20  1  0  0  0
 20 21  2  0  0  0
 20 42  1  0  0  0
 21 22  1  0  0  0
 21 43  1  0  0  0
 22 27  1  0  0  0
 22 23  2  0  0  0
 23 24  1  0  0  0
 23 25  1  0  0  0
 24 44  1  0  0  0
 25 26  1  0  0  0
 26 27  1  0  0  0
 26 45  1  0  0  0
 26 46  1  0  0  0
 28 29  2  0  0  0
 28 30  1  0  0  0
 30 31  1  0  0  0
 30 47  1  0  0  0
 30 48  1  0  0  0
 31 32  1  0  0  0
 31 49  1  0  0  0
 31 50  1  0  0  0
 32 51  1  0  0  0
 32 52  1  0  0  0
M  END
> <i_i_glide_confnum>
3

> <i_i_glide_lignum>
2641

> <i_i_glide_posenum>
282

> <i_i_glide_rotatable_bonds>
4

> <i_m_Source_File_Index>
2164

> <b_m_subgroup_collapsed>
0

> <r_i_docking_score>
-4.10329

> <r_i_glide_ecoul>
-2.12086

> <r_i_glide_eff_state_penalty>
0

> <r_i_glide_einternal>
2.24559

> <r_i_glide_emodel>
-40.8225

> <r_i_glide_energy>
-33.181

> <r_i_glide_erotb>
0.228827

> <r_i_glide_esite>
-0.0235155

> <r_i_glide_evdw>
-31.0602

> <r_i_glide_gscore>
-4.10329

> <r_i_glide_hbond>
-0.22349

> <r_i_glide_ligand_efficiency>
-0.132364

> <r_i_glide_ligand_efficiency_ln>
-0.925418

> <r_i_glide_ligand_efficiency_sa>
-0.415807

> <r_i_glide_lipo>
-1.27714

> <r_i_glide_metal>
0

> <r_i_glide_rewards>
-0.936841

> <s_i_glide_gridfile>
wee1_glide-grid

> <s_m_Source_File>
wee1_decoys_glide_SP.sdf

> <s_m_Source_Path>
/Users/zhangxujun/Desktop

> <s_m_entry_id>
2439

> <s_m_entry_name>
wee1_decoys_glide_SP.2164

> <s_m_subgroup_title>
wee1_decoys_glide_SP

> <s_m_subgroupid>
wee1_decoys_glide_SP


$$$$
