ZINC35752352_3389
                    3D
 Schrodinger Suite 2024-2.
 61 65  0  0  1  0            999 V2000
    1.6078   50.2340   17.9044 C   0  0  0  0  0  0
    1.6574   50.8383   19.2953 C   0  0  0  0  0  0
    0.5672   51.5528   19.7925 C   0  0  0  0  0  0
    0.6216   52.0953   21.0727 C   0  0  0  0  0  0
    1.7679   51.9268   21.8556 C   0  0  0  0  0  0
    2.8591   51.2088   21.3583 C   0  0  0  0  0  0
    2.7983   50.6648   20.0787 C   0  0  0  0  0  0
    1.8054   52.4723   23.1581 N   0  0  0  0  0  0
    2.7491   53.3149   23.7333 C   0  0  0  0  0  0
    2.4170   53.5817   24.9745 N   0  0  0  0  0  0
    1.2429   52.9009   25.2548 N   0  0  0  0  0  0
    0.9009   52.2337   24.1816 C   0  0  0  0  0  0
   -0.4870   51.1306   24.0648 S   0  0  0  0  0  0
   -1.2866   51.2563   25.7054 C   0  0  0  0  0  0
   -2.6897   51.8381   25.6654 C   0  0  0  0  0  0
   -3.5671   51.5891   26.6082 N   0  0  0  0  0  0
   -4.7365   52.1921   26.4258 C   0  0  0  0  0  0
   -4.7996   52.9950   25.2861 C   0  0  0  0  0  0
   -3.2960   52.9011   24.4286 S   0  0  0  0  0  0
   -5.8084   52.0480   27.3935 C   0  0  0  0  0  0
   -6.7598   52.8312   27.4053 O   0  0  0  0  0  0
   -5.6959   51.0046   28.2411 N   0  0  0  0  0  0
   -6.6170   50.6321   29.3264 C   0  0  1  0  0  0
   -7.5844   51.0862   29.0961 H   0  0  0  0  0  0
   -6.9667   49.1270   29.3552 C   0  0  0  0  0  0
   -5.7555   48.1836   29.4170 C   0  0  0  0  0  0
   -4.8966   48.3526   30.6784 C   0  0  0  0  0  0
   -4.2559   49.7440   30.8739 C   0  0  0  0  0  0
   -5.1681   50.8135   31.2821 N   0  0  0  0  0  0
   -6.2732   51.2984   30.6829 C   0  0  0  0  0  0
   -6.8918   52.2632   31.1308 O   0  0  0  0  0  0
    4.0033   53.8573   23.1042 C   0  0  0  0  0  0
    5.1362   54.0968   23.8990 C   0  0  0  0  0  0
    6.3035   54.6132   23.3319 C   0  0  0  0  0  0
    6.3045   54.8966   21.9671 C   0  0  0  0  0  0
    5.2315   54.6679   21.1693 N   0  0  0  0  0  0
    4.1078   54.1598   21.7399 C   0  0  0  0  0  0
    0.6085   50.2705   17.4712 H   0  0  0  0  0  0
    2.3047   50.7486   17.2423 H   0  0  0  0  0  0
    1.9144   49.1883   17.9381 H   0  0  0  0  0  0
   -0.3191   51.6880   19.1907 H   0  0  0  0  0  0
   -0.2269   52.6434   21.4525 H   0  0  0  0  0  0
    3.7490   51.0675   21.9535 H   0  0  0  0  0  0
    3.6383   50.1125   19.6839 H   0  0  0  0  0  0
   -0.6766   51.8279   26.4012 H   0  0  0  0  0  0
   -1.3036   50.2501   26.1285 H   0  0  0  0  0  0
   -5.6247   53.5907   24.9217 H   0  0  0  0  0  0
   -4.8581   50.4437   28.1858 H   0  0  0  0  0  0
   -7.5530   48.8791   28.4687 H   0  0  0  0  0  0
   -7.6102   48.9107   30.2100 H   0  0  0  0  0  0
   -6.1128   47.1539   29.3739 H   0  0  0  0  0  0
   -5.1348   48.3112   28.5285 H   0  0  0  0  0  0
   -5.4800   48.0860   31.5608 H   0  0  0  0  0  0
   -4.0919   47.6195   30.6107 H   0  0  0  0  0  0
   -3.5008   49.6921   31.6609 H   0  0  0  0  0  0
   -3.6960   50.0542   29.9898 H   0  0  0  0  0  0
   -4.9573   51.2371   32.1799 H   0  0  0  0  0  0
    5.1158   53.8754   24.9566 H   0  0  0  0  0  0
    7.1814   54.7946   23.9346 H   0  0  0  0  0  0
    7.1871   55.2942   21.4875 H   0  0  0  0  0  0
    3.2699   54.0259   21.0705 H   0  0  0  0  0  0
  1  2  1  0  0  0
  1 38  1  0  0  0
  1 39  1  0  0  0
  1 40  1  0  0  0
  2  7  2  0  0  0
  2  3  1  0  0  0
  3  4  2  0  0  0
  3 41  1  0  0  0
  4  5  1  0  0  0
  4 42  1  0  0  0
  5  6  2  0  0  0
  5  8  1  0  0  0
  6  7  1  0  0  0
  6 43  1  0  0  0
  7 44  1  0  0  0
  8 12  1  0  0  0
  8  9  1  0  0  0
  9 10  2  0  0  0
  9 32  1  0  0  0
 10 11  1  0  0  0
 11 12  2  0  0  0
 12 13  1  0  0  0
 13 14  1  0  0  0
 14 15  1  0  0  0
 14 45  1  0  0  0
 14 46  1  0  0  0
 15 19  1  0  0  0
 15 16  2  0  0  0
 16 17  1  0  0  0
 17 18  2  0  0  0
 17 20  1  0  0  0
 18 19  1  0  0  0
 18 47  1  0  0  0
 20 21  2  0  0  0
 20 22  1  0  0  0
 22 23  1  0  0  0
 22 48  1  0  0  0
 23 24  1  0  0  0
 23 30  1  0  0  0
 23 25  1  0  0  0
 25 26  1  0  0  0
 25 49  1  0  0  0
 25 50  1  0  0  0
 26 27  1  0  0  0
 26 51  1  0  0  0
 26 52  1  0  0  0
 27 28  1  0  0  0
 27 53  1  0  0  0
 27 54  1  0  0  0
 28 29  1  0  0  0
 28 55  1  0  0  0
 28 56  1  0  0  0
 29 30  1  0  0  0
 29 57  1  0  0  0
 30 31  2  0  0  0
 32 37  2  0  0  0
 32 33  1  0  0  0
 33 34  2  0  0  0
 33 58  1  0  0  0
 34 35  1  0  0  0
 34 59  1  0  0  0
 35 36  2  0  0  0
 35 60  1  0  0  0
 36 37  1  0  0  0
 37 61  1  0  0  0
M  END
> <i_i_glide_confnum>
44

> <i_i_glide_lignum>
3390

> <i_i_glide_posenum>
297

> <i_i_glide_rotatable_bonds>
8

> <i_m_Source_File_Index>
2225

> <b_m_subgroup_collapsed>
0

> <r_i_docking_score>
-4.95511

> <r_i_glide_ecoul>
-5.79159

> <r_i_glide_eff_state_penalty>
0

> <r_i_glide_einternal>
3.96971

> <r_i_glide_emodel>
-63.7806

> <r_i_glide_energy>
-48.4802

> <r_i_glide_erotb>
0.608707

> <r_i_glide_esite>
-0.123927

> <r_i_glide_evdw>
-42.6886

> <r_i_glide_gscore>
-4.95511

> <r_i_glide_hbond>
-0.272918

> <r_i_glide_ligand_efficiency>
-0.137642

> <r_i_glide_ligand_efficiency_ln>
-1.08107

> <r_i_glide_ligand_efficiency_sa>
-0.454483

> <r_i_glide_lipo>
-1.55247

> <r_i_glide_metal>
0

> <r_i_glide_rewards>
-0.611328

> <s_i_glide_gridfile>
wee1_glide-grid

> <s_m_Source_File>
wee1_decoys_glide_SP.sdf

> <s_m_Source_Path>
/Users/zhangxujun/Desktop

> <s_m_entry_id>
2500

> <s_m_entry_name>
wee1_decoys_glide_SP.2225

> <s_m_subgroup_title>
wee1_decoys_glide_SP

> <s_m_subgroupid>
wee1_decoys_glide_SP


$$$$
