ZINC38565700_5210
                    3D
 Schrodinger Suite 2024-2.
 57 60  0  0  1  0            999 V2000
    7.1978   55.3236   19.7217 C   0  0  0  0  0  0
    6.0718   54.5456   19.4713 C   0  0  0  0  0  0
    5.2773   54.1264   20.5337 C   0  0  0  0  0  0
    5.5799   54.4965   21.8551 C   0  0  0  0  0  0
    6.7038   55.3029   22.0824 C   0  0  0  0  0  0
    7.5200   55.6969   21.0233 C   0  0  0  0  0  0
    4.6805   53.9599   22.9927 C   0  0  0  0  0  0
    5.0039   54.3170   24.4699 C   0  0  0  0  0  0
    6.2876   54.0960   24.9852 C   0  0  0  0  0  0
    6.5480   54.2509   26.3444 C   0  0  0  0  0  0
    5.5311   54.6338   27.2061 C   0  0  0  0  0  0
    4.2552   54.8802   26.7144 C   0  0  0  0  0  0
    3.9981   54.7350   25.3552 C   0  0  0  0  0  0
    3.2567   54.0209   22.6110 N   0  0  0  0  0  0
    2.2908   53.1651   22.9834 C   0  0  0  0  0  0
    2.3039   52.4971   24.0160 O   0  0  0  0  0  0
    1.3069   53.1135   22.0824 N   0  0  0  0  0  0
    0.0289   52.4263   22.2733 C   0  0  0  0  0  0
    0.0906   50.8820   22.1757 C   0  0  2  0  0  0
    0.5326   50.4943   23.0942 H   0  0  0  0  0  0
    0.8838   50.3637   20.9869 C   0  0  0  0  0  0
    1.7519   49.2746   20.9361 C   0  0  0  0  0  0
    2.3044   49.0373   19.6775 C   0  0  0  0  0  0
    1.9040   49.9627   18.7353 C   0  0  0  0  0  0
    0.7973   51.1105   19.4046 S   0  0  0  0  0  0
   -1.6819   50.2006   22.1769 S   0  0  0  0  0  0
   -1.6150   48.7356   22.2200 O   0  0  0  0  0  0
   -2.4404   50.8787   21.1170 O   0  0  0  0  0  0
   -2.3766   50.7406   23.7370 C   0  0  0  0  0  0
   -3.0683   51.9517   23.7989 C   0  0  0  0  0  0
   -3.6419   52.3594   24.9985 C   0  0  0  0  0  0
   -3.5261   51.5533   26.1282 C   0  0  0  0  0  0
   -2.8264   50.3509   26.0744 C   0  0  0  0  0  0
   -2.2429   49.9428   24.8767 C   0  0  0  0  0  0
   -4.1070   51.9429   27.2823 F   0  0  0  0  0  0
    7.8302   55.6300   18.8997 H   0  0  0  0  0  0
    5.8271   54.2493   18.4619 H   0  0  0  0  0  0
    4.4267   53.4970   20.3182 H   0  0  0  0  0  0
    6.9725   55.6378   23.0695 H   0  0  0  0  0  0
    8.4076   56.2826   21.2136 H   0  0  0  0  0  0
    4.9267   52.8968   22.9676 H   0  0  0  0  0  0
    7.0772   53.7347   24.3436 H   0  0  0  0  0  0
    7.5224   54.0372   26.7469 H   0  0  0  0  0  0
    5.7335   54.7422   28.2617 H   0  0  0  0  0  0
    3.4611   55.1716   27.3853 H   0  0  0  0  0  0
    2.9928   54.9044   25.0101 H   0  0  0  0  0  0
    3.0321   54.6908   21.8877 H   0  0  0  0  0  0
    1.4330   53.6016   21.2042 H   0  0  0  0  0  0
   -0.6552   52.8030   21.5134 H   0  0  0  0  0  0
   -0.3866   52.7266   23.2363 H   0  0  0  0  0  0
    1.9757   48.6638   21.7994 H   0  0  0  0  0  0
    2.9969   48.2374   19.4599 H   0  0  0  0  0  0
    2.2182   50.0210   17.7013 H   0  0  0  0  0  0
   -3.1711   52.5711   22.9199 H   0  0  0  0  0  0
   -4.1896   53.2887   25.0550 H   0  0  0  0  0  0
   -2.7463   49.7294   26.9562 H   0  0  0  0  0  0
   -1.7042   49.0062   24.8371 H   0  0  0  0  0  0
  1  6  2  0  0  0
  1  2  1  0  0  0
  1 36  1  0  0  0
  2  3  2  0  0  0
  2 37  1  0  0  0
  3  4  1  0  0  0
  3 38  1  0  0  0
  4  5  2  0  0  0
  4  7  1  0  0  0
  5  6  1  0  0  0
  5 39  1  0  0  0
  6 40  1  0  0  0
  7  8  1  0  0  0
  7 14  1  0  0  0
  7 41  1  0  0  0
  8 13  2  0  0  0
  8  9  1  0  0  0
  9 10  2  0  0  0
  9 42  1  0  0  0
 10 11  1  0  0  0
 10 43  1  0  0  0
 11 12  2  0  0  0
 11 44  1  0  0  0
 12 13  1  0  0  0
 12 45  1  0  0  0
 13 46  1  0  0  0
 14 15  1  0  0  0
 14 47  1  0  0  0
 15 16  2  0  0  0
 15 17  1  0  0  0
 17 18  1  0  0  0
 17 48  1  0  0  0
 18 19  1  0  0  0
 18 49  1  0  0  0
 18 50  1  0  0  0
 19 20  1  0  0  0
 19 21  1  0  0  0
 19 26  1  0  0  0
 21 25  1  0  0  0
 21 22  2  0  0  0
 22 23  1  0  0  0
 22 51  1  0  0  0
 23 24  2  0  0  0
 23 52  1  0  0  0
 24 25  1  0  0  0
 24 53  1  0  0  0
 26 27  2  0  0  0
 26 28  2  0  0  0
 26 29  1  0  0  0
 29 34  2  0  0  0
 29 30  1  0  0  0
 30 31  2  0  0  0
 30 54  1  0  0  0
 31 32  1  0  0  0
 31 55  1  0  0  0
 32 33  2  0  0  0
 32 35  1  0  0  0
 33 34  1  0  0  0
 33 56  1  0  0  0
 34 57  1  0  0  0
M  END
> <i_i_glide_confnum>
130

> <i_i_glide_lignum>
5211

> <i_i_glide_posenum>
78

> <i_i_glide_rotatable_bonds>
10

> <i_m_Source_File_Index>
3626

> <b_m_subgroup_collapsed>
0

> <r_i_docking_score>
-5.4672

> <r_i_glide_ecoul>
-5.66595

> <r_i_glide_eff_state_penalty>
0

> <r_i_glide_einternal>
7.91199

> <r_i_glide_emodel>
-58.2919

> <r_i_glide_energy>
-45.7344

> <r_i_glide_erotb>
0.833072

> <r_i_glide_esite>
-0.0191622

> <r_i_glide_evdw>
-40.0685

> <r_i_glide_gscore>
-5.4672

> <r_i_glide_hbond>
-0.32

> <r_i_glide_ligand_efficiency>
-0.1608

> <r_i_glide_ligand_efficiency_ln>
-1.20786

> <r_i_glide_ligand_efficiency_sa>
-0.520929

> <r_i_glide_lipo>
-2.87819

> <r_i_glide_metal>
0

> <r_i_glide_rewards>
-0.229598

> <s_i_glide_gridfile>
wee1_glide-grid

> <s_m_Source_File>
wee1_decoys_glide_SP.sdf

> <s_m_Source_Path>
/Users/zhangxujun/Desktop

> <s_m_entry_id>
3901

> <s_m_entry_name>
wee1_decoys_glide_SP.3626

> <s_m_subgroup_title>
wee1_decoys_glide_SP

> <s_m_subgroupid>
wee1_decoys_glide_SP


$$$$
