ZINC39684666_790
                    3D
 Schrodinger Suite 2024-2.
 65 67  0  0  1  0            999 V2000
   -0.4855   52.2997   21.1703 C   0  0  0  0  0  0
    0.4554   52.2300   19.9446 C   0  0  2  0  0  0
    0.8471   53.2343   19.7746 H   0  0  0  0  0  0
   -0.2405   51.8161   18.5945 C   0  0  0  0  0  0
    0.8030   51.7591   17.4465 C   0  0  0  0  0  0
   -1.3169   52.8477   18.1746 C   0  0  0  0  0  0
   -0.9070   50.4209   18.7043 C   0  0  0  0  0  0
    1.5595   51.3327   20.2871 N   0  0  0  0  0  0
    2.7436   51.5663   20.8686 C   0  0  0  0  0  0
    3.3889   50.5858   21.2298 O   0  0  0  0  0  0
    3.2607   53.0113   21.1707 C   0  0  1  0  0  0
    2.4229   53.6960   21.2811 H   0  0  0  0  0  0
    4.0107   52.9464   22.5048 C   0  0  0  0  0  0
    4.9307   54.0767   22.4916 N   0  0  0  0  0  0
    5.1691   54.5483   21.1225 C   0  0  0  0  0  0
    4.3638   53.5892   20.2135 C   0  0  0  0  0  0
    3.7340   54.2511   18.9606 C   0  0  0  0  0  0
    4.7450   54.8286   17.9611 C   0  0  0  0  0  0
    5.5912   53.6536   17.4472 N   0  3  0  0  0  0
    6.3358   52.9492   18.5913 C   0  0  0  0  0  0
    5.3334   52.4955   19.6820 C   0  0  0  0  0  0
    5.6861   54.4975   23.5390 C   0  0  0  0  0  0
    6.7044   55.1683   23.3593 O   0  0  0  0  0  0
    5.2446   54.2458   24.9694 C   0  0  0  0  0  0
    3.8959   54.2679   25.3590 C   0  0  0  0  0  0
    3.5310   54.0798   26.6951 C   0  0  0  0  0  0
    4.5114   53.8870   27.6754 C   0  0  0  0  0  0
    5.8591   53.9074   27.3041 C   0  0  0  0  0  0
    6.2127   54.0971   25.9697 C   0  0  0  0  0  0
    7.1042   53.6966   28.4800 Cl  0  0  0  0  0  0
    4.1546   53.7174   28.9931 O   0  0  0  0  0  0
    3.9946   52.3599   29.3830 C   0  0  0  0  0  0
    1.8582   54.0938   27.1242 Cl  0  0  0  0  0  0
   -1.3856   52.8799   20.9796 H   0  0  0  0  0  0
   -0.8224   51.3085   21.4767 H   0  0  0  0  0  0
    0.0114   52.7676   22.0210 H   0  0  0  0  0  0
    1.6046   51.0465   17.6481 H   0  0  0  0  0  0
    0.3487   51.4586   16.5014 H   0  0  0  0  0  0
    1.2653   52.7314   17.2786 H   0  0  0  0  0  0
   -2.1473   52.8900   18.8782 H   0  0  0  0  0  0
   -0.9009   53.8522   18.0816 H   0  0  0  0  0  0
   -1.7486   52.5965   17.2045 H   0  0  0  0  0  0
   -1.7008   50.4053   19.4522 H   0  0  0  0  0  0
   -1.3586   50.1182   17.7580 H   0  0  0  0  0  0
   -0.1880   49.6462   18.9734 H   0  0  0  0  0  0
    1.3671   50.3547   20.1307 H   0  0  0  0  0  0
    3.3553   52.8335   23.3652 H   0  0  0  0  0  0
    4.6946   52.0984   22.4815 H   0  0  0  0  0  0
    6.2123   54.6210   20.8128 H   0  0  0  0  0  0
    4.7048   55.5267   21.0612 H   0  0  0  0  0  0
    3.1067   55.0745   19.2724 H   0  0  0  0  0  0
    3.0683   53.5484   18.4584 H   0  0  0  0  0  0
    5.4246   55.5628   18.4001 H   0  0  0  0  0  0
    4.2605   55.2644   17.0851 H   0  0  0  0  0  0
    6.2514   53.9700   16.7492 H   0  0  0  0  0  0
    7.0784   53.6647   18.9486 H   0  0  0  0  0  0
    6.8456   52.1058   18.1189 H   0  0  0  0  0  0
    4.7056   51.7088   19.2817 H   0  0  0  0  0  0
    5.8962   52.0233   20.4906 H   0  0  0  0  0  0
    3.1157   54.4636   24.6378 H   0  0  0  0  0  0
    7.2557   54.1229   25.7089 H   0  0  0  0  0  0
    3.7010   52.3175   30.4315 H   0  0  0  0  0  0
    3.2169   51.8631   28.8010 H   0  0  0  0  0  0
    4.9233   51.7982   29.2786 H   0  0  0  0  0  0
    4.9913   52.9722   16.9972 H   0  0  0  0  0  0
  1  2  1  0  0  0
  1 34  1  0  0  0
  1 35  1  0  0  0
  1 36  1  0  0  0
  2  3  1  0  0  0
  2  4  1  0  0  0
  2  8  1  0  0  0
  4  5  1  0  0  0
  4  6  1  0  0  0
  4  7  1  0  0  0
  5 37  1  0  0  0
  5 38  1  0  0  0
  5 39  1  0  0  0
  6 40  1  0  0  0
  6 41  1  0  0  0
  6 42  1  0  0  0
  7 43  1  0  0  0
  7 44  1  0  0  0
  7 45  1  0  0  0
  8  9  1  0  0  0
  8 46  1  0  0  0
  9 10  2  0  0  0
  9 11  1  0  0  0
 11 12  1  0  0  0
 11 16  1  0  0  0
 11 13  1  0  0  0
 13 14  1  0  0  0
 13 47  1  0  0  0
 13 48  1  0  0  0
 14 15  1  0  0  0
 14 22  1  0  0  0
 15 16  1  0  0  0
 15 49  1  0  0  0
 15 50  1  0  0  0
 16 21  1  0  0  0
 16 17  1  0  0  0
 17 18  1  0  0  0
 17 51  1  0  0  0
 17 52  1  0  0  0
 18 19  1  0  0  0
 18 53  1  0  0  0
 18 54  1  0  0  0
 19 20  1  0  0  0
 19 55  1  0  0  0
 19 65  1  0  0  0
 20 21  1  0  0  0
 20 56  1  0  0  0
 20 57  1  0  0  0
 21 58  1  0  0  0
 21 59  1  0  0  0
 22 23  2  0  0  0
 22 24  1  0  0  0
 24 29  2  0  0  0
 24 25  1  0  0  0
 25 26  2  0  0  0
 25 60  1  0  0  0
 26 27  1  0  0  0
 26 33  1  0  0  0
 27 28  2  0  0  0
 27 31  1  0  0  0
 28 29  1  0  0  0
 28 30  1  0  0  0
 29 61  1  0  0  0
 31 32  1  0  0  0
 32 62  1  0  0  0
 32 63  1  0  0  0
 32 64  1  0  0  0
M  CHG  1  19   1
M  END
> <i_i_glide_confnum>
35

> <i_i_glide_lignum>
791

> <i_i_glide_posenum>
333

> <i_i_glide_rotatable_bonds>
7

> <i_m_Source_File_Index>
2230

> <b_m_subgroup_collapsed>
0

> <r_i_docking_score>
-2.91045

> <r_i_glide_ecoul>
-1.61557

> <r_i_glide_eff_state_penalty>
0

> <r_i_glide_einternal>
9.35287

> <r_i_glide_emodel>
-25.5683

> <r_i_glide_energy>
-32.3509

> <r_i_glide_erotb>
0.454715

> <r_i_glide_esite>
-0.0551805

> <r_i_glide_evdw>
-30.7353

> <r_i_glide_gscore>
-2.91045

> <r_i_glide_hbond>
0

> <r_i_glide_ligand_efficiency>
-0.0938855

> <r_i_glide_ligand_efficiency_ln>
-0.656396

> <r_i_glide_ligand_efficiency_sa>
-0.29493

> <r_i_glide_lipo>
-2.27516

> <r_i_glide_metal>
0

> <r_i_glide_rewards>
0.74428

> <s_i_glide_gridfile>
wee1_glide-grid

> <s_m_Source_File>
wee1_decoys_glide_SP.sdf

> <s_m_Source_Path>
/Users/zhangxujun/Desktop

> <s_m_entry_id>
2505

> <s_m_entry_name>
wee1_decoys_glide_SP.2230

> <s_m_subgroup_title>
wee1_decoys_glide_SP

> <s_m_subgroupid>
wee1_decoys_glide_SP


$$$$
