ZINC44882327_1199
                    3D
 Schrodinger Suite 2024-2.
 67 70  0  0  1  0            999 V2000
    2.8562   51.1312   21.4666 C   0  0  0  0  0  0
    3.5850   52.1904   22.0814 O   0  0  0  0  0  0
    4.3736   53.0249   21.3060 C   0  0  0  0  0  0
    4.4836   52.8921   19.9156 C   0  0  0  0  0  0
    5.2444   53.7815   19.1707 C   0  0  0  0  0  0
    5.8899   54.8490   19.7935 C   0  0  0  0  0  0
    5.8375   54.9666   21.1875 C   0  0  0  0  0  0
    5.0942   54.0473   21.9516 C   0  0  0  0  0  0
    4.9813   54.0964   23.3576 N   0  0  0  0  0  0
    5.7327   54.7352   24.2830 C   0  0  0  0  0  0
    6.7228   55.4056   24.0117 O   0  0  0  0  0  0
    5.2858   54.6644   25.7649 C   0  0  2  0  0  0
    5.2050   55.7200   26.0232 H   0  0  0  0  0  0
    6.3614   53.9731   26.6401 C   0  0  0  0  0  0
    5.9117   53.9977   28.1191 C   0  0  0  0  0  0
    4.5168   53.3704   28.3283 C   0  0  0  0  0  0
    3.4968   54.1087   27.4260 N   0  3  1  0  0  0
    3.8970   54.0074   25.9357 C   0  0  0  0  0  0
    2.0676   53.5436   27.5765 C   0  0  0  0  0  0
    1.4670   53.6615   28.9656 C   0  0  0  0  0  0
    1.2757   54.9159   29.5506 C   0  0  0  0  0  0
    0.7043   55.0135   30.8183 C   0  0  0  0  0  0
    0.3040   53.8624   31.4990 C   0  0  0  0  0  0
    0.4781   52.6124   30.9100 C   0  0  0  0  0  0
    1.0685   52.5112   29.6521 C   0  0  0  0  0  0
    1.2471   51.2967   29.0931 F   0  0  0  0  0  0
    6.7835   56.0459   18.7945 S   0  0  0  0  0  0
    7.8439   55.2972   18.1116 O   0  0  0  0  0  0
    7.1045   57.1710   19.6817 O   0  0  0  0  0  0
    5.6177   56.6163   17.5715 N   0  0  0  0  0  0
    5.4644   55.8408   16.3119 C   0  0  0  0  0  0
    6.3941   56.3766   15.2082 C   0  0  0  0  0  0
    6.1674   57.8828   14.9834 C   0  0  0  0  0  0
    6.2355   58.6919   16.2976 C   0  0  0  0  0  0
    5.3749   58.0781   17.4300 C   0  0  0  0  0  0
    2.3082   50.5792   22.2305 H   0  0  0  0  0  0
    2.1280   51.5122   20.7498 H   0  0  0  0  0  0
    3.5178   50.4251   20.9636 H   0  0  0  0  0  0
    3.9872   52.0948   19.3817 H   0  0  0  0  0  0
    5.3105   53.6225   18.1084 H   0  0  0  0  0  0
    6.3603   55.7848   21.6596 H   0  0  0  0  0  0
    4.2391   53.5060   23.7049 H   0  0  0  0  0  0
    6.4748   52.9208   26.3776 H   0  0  0  0  0  0
    7.3182   54.4965   26.5980 H   0  0  0  0  0  0
    6.6445   53.4688   28.7305 H   0  0  0  0  0  0
    5.9069   55.0242   28.4889 H   0  0  0  0  0  0
    4.4840   52.3091   28.0790 H   0  0  0  0  0  0
    4.1907   53.5097   29.3596 H   0  0  0  0  0  0
    3.1294   54.5497   25.3746 H   0  0  0  0  0  0
    3.8912   52.9441   25.6894 H   0  0  0  0  0  0
    1.4632   54.1081   26.8670 H   0  0  0  0  0  0
    2.1163   52.5089   27.2276 H   0  0  0  0  0  0
    1.5732   55.8171   29.0327 H   0  0  0  0  0  0
    0.6081   55.9840   31.2812 H   0  0  0  0  0  0
   -0.1377   53.9281   32.4840 H   0  0  0  0  0  0
    0.1463   51.7264   31.4362 H   0  0  0  0  0  0
    4.4275   55.9274   15.9861 H   0  0  0  0  0  0
    5.6617   54.7888   16.4907 H   0  0  0  0  0  0
    6.2230   55.8309   14.2797 H   0  0  0  0  0  0
    7.4356   56.1913   15.4828 H   0  0  0  0  0  0
    6.8937   58.2711   14.2665 H   0  0  0  0  0  0
    5.1837   58.0337   14.5292 H   0  0  0  0  0  0
    7.2711   58.7611   16.6354 H   0  0  0  0  0  0
    5.9168   59.7146   16.0894 H   0  0  0  0  0  0
    4.3099   58.2296   17.2458 H   0  0  0  0  0  0
    5.5843   58.5781   18.3747 H   0  0  0  0  0  0
    3.4805   55.0853   27.6905 H   0  0  0  0  0  0
  1  2  1  0  0  0
  1 36  1  0  0  0
  1 37  1  0  0  0
  1 38  1  0  0  0
  2  3  1  0  0  0
  3  8  2  0  0  0
  3  4  1  0  0  0
  4  5  2  0  0  0
  4 39  1  0  0  0
  5  6  1  0  0  0
  5 40  1  0  0  0
  6  7  2  0  0  0
  6 27  1  0  0  0
  7  8  1  0  0  0
  7 41  1  0  0  0
  8  9  1  0  0  0
  9 10  1  0  0  0
  9 42  1  0  0  0
 10 11  2  0  0  0
 10 12  1  0  0  0
 12 13  1  0  0  0
 12 18  1  0  0  0
 12 14  1  0  0  0
 14 15  1  0  0  0
 14 43  1  0  0  0
 14 44  1  0  0  0
 15 16  1  0  0  0
 15 45  1  0  0  0
 15 46  1  0  0  0
 16 17  1  0  0  0
 16 47  1  0  0  0
 16 48  1  0  0  0
 17 18  1  0  0  0
 17 19  1  0  0  0
 17 67  1  0  0  0
 18 49  1  0  0  0
 18 50  1  0  0  0
 19 20  1  0  0  0
 19 51  1  0  0  0
 19 52  1  0  0  0
 20 25  2  0  0  0
 20 21  1  0  0  0
 21 22  2  0  0  0
 21 53  1  0  0  0
 22 23  1  0  0  0
 22 54  1  0  0  0
 23 24  2  0  0  0
 23 55  1  0  0  0
 24 25  1  0  0  0
 24 56  1  0  0  0
 25 26  1  0  0  0
 27 28  2  0  0  0
 27 29  2  0  0  0
 27 30  1  0  0  0
 30 35  1  0  0  0
 30 31  1  0  0  0
 31 32  1  0  0  0
 31 57  1  0  0  0
 31 58  1  0  0  0
 32 33  1  0  0  0
 32 59  1  0  0  0
 32 60  1  0  0  0
 33 34  1  0  0  0
 33 61  1  0  0  0
 33 62  1  0  0  0
 34 35  1  0  0  0
 34 63  1  0  0  0
 34 64  1  0  0  0
 35 65  1  0  0  0
 35 66  1  0  0  0
M  CHG  1  17   1
M  END
> <i_i_glide_confnum>
188

> <i_i_glide_lignum>
1200

> <i_i_glide_posenum>
105

> <i_i_glide_rotatable_bonds>
8

> <i_m_Source_File_Index>
5720

> <b_m_subgroup_collapsed>
0

> <r_i_docking_score>
-5.25077

> <r_i_glide_ecoul>
-4.64466

> <r_i_glide_eff_state_penalty>
0

> <r_i_glide_einternal>
10.9139

> <r_i_glide_emodel>
-57.9587

> <r_i_glide_energy>
-48.6686

> <r_i_glide_erotb>
0.591867

> <r_i_glide_esite>
-0.0476233

> <r_i_glide_evdw>
-44.0239

> <r_i_glide_gscore>
-5.25077

> <r_i_glide_hbond>
0

> <r_i_glide_ligand_efficiency>
-0.154434

> <r_i_glide_ligand_efficiency_ln>
-1.16004

> <r_i_glide_ligand_efficiency_sa>
-0.500308

> <r_i_glide_lipo>
-3.13478

> <r_i_glide_metal>
0

> <r_i_glide_rewards>
0.237661

> <s_i_glide_gridfile>
wee1_glide-grid

> <s_m_Source_File>
wee1_decoys_glide_SP.sdf

> <s_m_Source_Path>
/Users/zhangxujun/Desktop

> <s_m_entry_id>
5995

> <s_m_entry_name>
wee1_decoys_glide_SP.5720

> <s_m_subgroup_title>
wee1_decoys_glide_SP

> <s_m_subgroupid>
wee1_decoys_glide_SP


$$$$
