ZINC16611054_3004
                    3D
 Schrodinger Suite 2024-2.
 65 67  0  0  1  0            999 V2000
    1.0382   55.0711   15.3980 C   0  0  0  0  0  0
    1.3657   55.4146   16.8652 C   0  0  0  0  0  0
    2.7972   55.2069   17.2404 N   0  0  0  0  0  0
    3.7155   56.2616   17.2463 C   0  0  0  0  0  0
    4.9596   56.1269   17.7956 C   0  0  0  0  0  0
    5.4327   54.7986   18.4339 C   0  0  2  0  0  0
    6.3413   54.4889   17.9127 H   0  0  0  0  0  0
    4.4380   53.7585   18.1016 N   0  0  0  0  0  0
    3.1624   53.9223   17.6478 C   0  0  0  0  0  0
    2.2396   52.5245   17.6744 S   0  0  0  0  0  0
    5.8348   54.8504   19.9155 C   0  0  0  0  0  0
    7.1126   55.2984   20.2595 C   0  0  0  0  0  0
    7.5061   55.3584   21.5905 C   0  0  0  0  0  0
    6.6451   54.9346   22.5983 C   0  0  0  0  0  0
    5.3482   54.4941   22.2829 C   0  0  0  0  0  0
    4.9554   54.4601   20.9380 C   0  0  0  0  0  0
    4.3887   54.0964   23.2393 N   0  0  0  0  0  0
    4.3881   54.2942   24.5754 C   0  0  0  0  0  0
    5.2622   54.9028   25.1916 O   0  0  0  0  0  0
    3.2911   53.7423   25.1362 N   0  0  0  0  0  0
    2.8856   53.6957   26.4925 C   0  0  0  0  0  0
    3.5575   54.3619   27.5311 C   0  0  0  0  0  0
    3.0979   54.2796   28.8406 C   0  0  0  0  0  0
    1.9653   53.5362   29.1540 C   0  0  0  0  0  0
    1.2925   52.8639   28.1246 C   0  0  0  0  0  0
    1.7418   52.9312   26.7934 C   0  0  0  0  0  0
    1.1045   52.2811   25.7457 O   0  0  0  0  0  0
   -0.0002   51.4218   26.0150 C   0  0  0  0  0  0
    1.5893   53.5214   30.4822 O   0  0  0  0  0  0
    0.4161   52.8105   30.8725 C   0  0  0  0  0  0
    5.9298   57.2341   17.8216 C   0  0  0  0  0  0
    6.3036   57.7830   18.8625 O   0  0  0  0  0  0
    6.3901   57.5427   16.5836 O   0  0  0  0  0  0
    7.2987   58.6214   16.3749 C   0  0  0  0  0  0
    8.7351   58.2583   16.7830 C   0  0  0  0  0  0
    3.2454   57.5548   16.5360 C   0  0  0  0  0  0
   -0.0130   55.2681   15.1863 H   0  0  0  0  0  0
    1.2145   54.0193   15.1774 H   0  0  0  0  0  0
    1.6259   55.6646   14.7002 H   0  0  0  0  0  0
    1.0457   56.4328   17.0665 H   0  0  0  0  0  0
    0.7073   54.8521   17.5276 H   0  0  0  0  0  0
    4.6784   52.7882   18.2708 H   0  0  0  0  0  0
    7.8087   55.6066   19.4925 H   0  0  0  0  0  0
    8.4954   55.7142   21.8333 H   0  0  0  0  0  0
    7.0129   54.9702   23.6114 H   0  0  0  0  0  0
    3.9567   54.1345   20.6825 H   0  0  0  0  0  0
    3.5717   53.6534   22.8482 H   0  0  0  0  0  0
    2.6659   53.2452   24.5203 H   0  0  0  0  0  0
    4.4361   54.9614   27.3598 H   0  0  0  0  0  0
    3.6277   54.8043   29.6215 H   0  0  0  0  0  0
    0.4138   52.2879   28.3626 H   0  0  0  0  0  0
   -0.3360   50.9630   25.0846 H   0  0  0  0  0  0
    0.2756   50.6149   26.6972 H   0  0  0  0  0  0
   -0.8441   51.9730   26.4335 H   0  0  0  0  0  0
    0.3018   52.8769   31.9552 H   0  0  0  0  0  0
   -0.4816   53.2321   30.4151 H   0  0  0  0  0  0
    0.4808   51.7521   30.6156 H   0  0  0  0  0  0
    7.2775   58.8691   15.3129 H   0  0  0  0  0  0
    6.9593   59.5158   16.9027 H   0  0  0  0  0  0
    9.4216   59.0659   16.5286 H   0  0  0  0  0  0
    8.8129   58.0868   17.8567 H   0  0  0  0  0  0
    9.0740   57.3548   16.2750 H   0  0  0  0  0  0
    3.0055   57.3457   15.4961 H   0  0  0  0  0  0
    2.3690   58.0035   16.9959 H   0  0  0  0  0  0
    3.9792   58.3575   16.5179 H   0  0  0  0  0  0
  1  2  1  0  0  0
  1 37  1  0  0  0
  1 38  1  0  0  0
  1 39  1  0  0  0
  2  3  1  0  0  0
  2 40  1  0  0  0
  2 41  1  0  0  0
  3  9  1  0  0  0
  3  4  1  0  0  0
  4  5  2  0  0  0
  4 36  1  0  0  0
  5  6  1  0  0  0
  5 31  1  0  0  0
  6  7  1  0  0  0
  6  8  1  0  0  0
  6 11  1  0  0  0
  8  9  1  0  0  0
  8 42  1  0  0  0
  9 10  2  0  0  0
 11 16  2  0  0  0
 11 12  1  0  0  0
 12 13  2  0  0  0
 12 43  1  0  0  0
 13 14  1  0  0  0
 13 44  1  0  0  0
 14 15  2  0  0  0
 14 45  1  0  0  0
 15 16  1  0  0  0
 15 17  1  0  0  0
 16 46  1  0  0  0
 17 18  1  0  0  0
 17 47  1  0  0  0
 18 19  2  0  0  0
 18 20  1  0  0  0
 20 21  1  0  0  0
 20 48  1  0  0  0
 21 26  2  0  0  0
 21 22  1  0  0  0
 22 23  2  0  0  0
 22 49  1  0  0  0
 23 24  1  0  0  0
 23 50  1  0  0  0
 24 25  2  0  0  0
 24 29  1  0  0  0
 25 26  1  0  0  0
 25 51  1  0  0  0
 26 27  1  0  0  0
 27 28  1  0  0  0
 28 52  1  0  0  0
 28 53  1  0  0  0
 28 54  1  0  0  0
 29 30  1  0  0  0
 30 55  1  0  0  0
 30 56  1  0  0  0
 30 57  1  0  0  0
 31 32  2  0  0  0
 31 33  1  0  0  0
 33 34  1  0  0  0
 34 35  1  0  0  0
 34 58  1  0  0  0
 34 59  1  0  0  0
 35 60  1  0  0  0
 35 61  1  0  0  0
 35 62  1  0  0  0
 36 63  1  0  0  0
 36 64  1  0  0  0
 36 65  1  0  0  0
M  END
> <i_i_glide_confnum>
15

> <i_i_glide_lignum>
3005

> <i_i_glide_posenum>
356

> <i_i_glide_rotatable_bonds>
11

> <i_m_Source_File_Index>
2855

> <b_m_subgroup_collapsed>
0

> <r_i_docking_score>
-5.21589

> <r_i_glide_ecoul>
-6.09239

> <r_i_glide_eff_state_penalty>
0

> <r_i_glide_einternal>
6.41329

> <r_i_glide_emodel>
-63.9439

> <r_i_glide_energy>
-50.3881

> <r_i_glide_erotb>
0.574622

> <r_i_glide_esite>
-0.0708457

> <r_i_glide_evdw>
-44.2957

> <r_i_glide_gscore>
-5.21589

> <r_i_glide_hbond>
-0.142067

> <r_i_glide_ligand_efficiency>
-0.149025

> <r_i_glide_ligand_efficiency_ln>
-1.145

> <r_i_glide_ligand_efficiency_sa>
-0.487472

> <r_i_glide_lipo>
-2.12583

> <r_i_glide_metal>
0

> <r_i_glide_rewards>
-0.323134

> <s_i_glide_gridfile>
wee1_glide-grid

> <s_m_Source_File>
wee1_decoys_glide_SP.sdf

> <s_m_Source_Path>
/Users/zhangxujun/Desktop

> <s_m_entry_id>
3130

> <s_m_entry_name>
wee1_decoys_glide_SP.2855

> <s_m_subgroup_title>
wee1_decoys_glide_SP

> <s_m_subgroupid>
wee1_decoys_glide_SP


$$$$
