ZINC04258889_2793
                    3D
 Schrodinger Suite 2024-2.
 62 67  0  0  1  0            999 V2000
   -3.7103   55.3918   13.0973 C   0  0  0  0  0  0
   -4.2218   54.7615   14.2310 C   0  0  0  0  0  0
   -3.3517   54.2537   15.1934 C   0  0  0  0  0  0
   -1.9647   54.3781   15.0171 C   0  0  0  0  0  0
   -1.4612   55.0294   13.8861 C   0  0  0  0  0  0
   -2.3344   55.5290   12.9229 C   0  0  0  0  0  0
   -1.0251   53.9170   15.9574 N   0  0  0  0  0  0
   -1.1558   52.8738   16.8007 C   0  0  0  0  0  0
   -2.1032   52.0857   16.7936 O   0  0  0  0  0  0
   -0.1176   52.8149   17.6639 N   0  0  0  0  0  0
    0.0384   51.9599   18.7342 C   0  0  0  0  0  0
    1.2415   51.3521   18.8544 C   0  0  0  0  0  0
    1.5014   50.4897   19.9843 C   0  0  0  0  0  0
    0.5362   50.3247   20.9162 C   0  0  0  0  0  0
   -0.7260   50.9395   20.7995 N   0  0  0  0  0  0
   -1.0230   51.7937   19.7504 C   0  0  0  0  0  0
   -2.0949   52.4128   19.6848 O   0  0  0  0  0  0
   -1.8436   50.7163   21.7676 C   0  0  0  0  0  0
   -1.5333   49.7669   22.9543 C   0  0  1  0  0  0
   -2.4483   49.2302   23.2159 H   0  0  0  0  0  0
   -0.5130   48.7104   22.5300 C   0  0  0  0  0  0
    0.7802   49.4468   22.1581 C   0  0  2  0  0  0
    1.5394   48.7071   21.8999 H   0  0  0  0  0  0
    1.3369   50.2634   23.3608 C   0  0  0  0  0  0
    0.2809   51.1848   23.8327 N   0  0  0  0  0  0
   -0.9966   50.5301   24.1929 C   0  0  0  0  0  0
    0.3948   52.5440   23.8429 C   0  0  0  0  0  0
   -0.5518   53.2968   24.0818 O   0  0  0  0  0  0
    1.7569   53.1497   23.6245 C   0  0  0  0  0  0
    2.3205   53.2063   22.3466 C   0  0  0  0  0  0
    3.6168   53.6754   22.1596 C   0  0  0  0  0  0
    4.3942   54.0928   23.2665 C   0  0  0  0  0  0
    5.7443   54.4967   23.1230 C   0  0  0  0  0  0
    6.4789   54.8979   24.2355 C   0  0  0  0  0  0
    5.9037   54.9094   25.5017 C   0  0  0  0  0  0
    4.5820   54.5065   25.6801 C   0  0  0  0  0  0
    3.8067   54.0876   24.5694 C   0  0  0  0  0  0
    2.4768   53.6233   24.7238 C   0  0  0  0  0  0
   -4.3874   55.7790   12.3485 H   0  0  0  0  0  0
   -5.2926   54.6677   14.3649 H   0  0  0  0  0  0
   -3.7643   53.7807   16.0743 H   0  0  0  0  0  0
   -0.3950   55.1437   13.7450 H   0  0  0  0  0  0
   -1.9446   56.0188   12.0428 H   0  0  0  0  0  0
   -0.1299   54.3815   15.9295 H   0  0  0  0  0  0
    0.6847   53.3865   17.4484 H   0  0  0  0  0  0
    2.0241   51.5016   18.1202 H   0  0  0  0  0  0
    2.4649   50.0101   20.0817 H   0  0  0  0  0  0
   -2.7120   50.3408   21.2240 H   0  0  0  0  0  0
   -2.1886   51.6800   22.1488 H   0  0  0  0  0  0
   -0.3322   48.0100   23.3464 H   0  0  0  0  0  0
   -0.8843   48.1182   21.6917 H   0  0  0  0  0  0
    2.2749   50.7556   23.1083 H   0  0  0  0  0  0
    1.5768   49.5771   24.1741 H   0  0  0  0  0  0
   -0.7976   49.8249   25.0002 H   0  0  0  0  0  0
   -1.7282   51.2288   24.5987 H   0  0  0  0  0  0
    1.7577   52.8703   21.4868 H   0  0  0  0  0  0
    4.0480   53.6908   21.1704 H   0  0  0  0  0  0
    6.1997   54.4971   22.1428 H   0  0  0  0  0  0
    7.5042   55.2089   24.1037 H   0  0  0  0  0  0
    6.4872   55.2250   26.3551 H   0  0  0  0  0  0
    4.1464   54.5038   26.6693 H   0  0  0  0  0  0
    2.0428   53.5974   25.7155 H   0  0  0  0  0  0
  1  6  2  0  0  0
  1  2  1  0  0  0
  1 39  1  0  0  0
  2  3  2  0  0  0
  2 40  1  0  0  0
  3  4  1  0  0  0
  3 41  1  0  0  0
  4  5  2  0  0  0
  4  7  1  0  0  0
  5  6  1  0  0  0
  5 42  1  0  0  0
  6 43  1  0  0  0
  7  8  1  0  0  0
  7 44  1  0  0  0
  8  9  2  0  0  0
  8 10  1  0  0  0
 10 11  1  0  0  0
 10 45  1  0  0  0
 11 16  1  0  0  0
 11 12  2  0  0  0
 12 13  1  0  0  0
 12 46  1  0  0  0
 13 14  2  0  0  0
 13 47  1  0  0  0
 14 22  1  0  0  0
 14 15  1  0  0  0
 15 16  1  0  0  0
 15 18  1  0  0  0
 16 17  2  0  0  0
 18 19  1  0  0  0
 18 48  1  0  0  0
 18 49  1  0  0  0
 19 20  1  0  0  0
 19 26  1  0  0  0
 19 21  1  0  0  0
 21 22  1  0  0  0
 21 50  1  0  0  0
 21 51  1  0  0  0
 22 23  1  0  0  0
 22 24  1  0  0  0
 24 25  1  0  0  0
 24 52  1  0  0  0
 24 53  1  0  0  0
 25 26  1  0  0  0
 25 27  1  0  0  0
 26 54  1  0  0  0
 26 55  1  0  0  0
 27 28  2  0  0  0
 27 29  1  0  0  0
 29 38  2  0  0  0
 29 30  1  0  0  0
 30 31  2  0  0  0
 30 56  1  0  0  0
 31 32  1  0  0  0
 31 57  1  0  0  0
 32 37  2  0  0  0
 32 33  1  0  0  0
 33 34  2  0  0  0
 33 58  1  0  0  0
 34 35  1  0  0  0
 34 59  1  0  0  0
 35 36  2  0  0  0
 35 60  1  0  0  0
 36 37  1  0  0  0
 36 61  1  0  0  0
 37 38  1  0  0  0
 38 62  1  0  0  0
M  END
> <i_i_glide_confnum>
58

> <i_i_glide_lignum>
2794

> <i_i_glide_posenum>
300

> <i_i_glide_rotatable_bonds>
6

> <i_m_Source_File_Index>
3195

> <b_m_subgroup_collapsed>
0

> <r_i_docking_score>
-5.71209

> <r_i_glide_ecoul>
-8.70731

> <r_i_glide_eff_state_penalty>
0

> <r_i_glide_einternal>
5.6795

> <r_i_glide_emodel>
-57.9829

> <r_i_glide_energy>
-43.2956

> <r_i_glide_erotb>
0.442468

> <r_i_glide_esite>
-0.0131772

> <r_i_glide_evdw>
-34.5883

> <r_i_glide_gscore>
-5.71209

> <r_i_glide_hbond>
-0.32

> <r_i_glide_ligand_efficiency>
-0.158669

> <r_i_glide_ligand_efficiency_ln>
-1.24622

> <r_i_glide_ligand_efficiency_sa>
-0.523914

> <r_i_glide_lipo>
-2.33315

> <r_i_glide_metal>
0

> <r_i_glide_rewards>
-0.45272

> <s_i_glide_gridfile>
wee1_glide-grid

> <s_m_Source_File>
wee1_decoys_glide_SP.sdf

> <s_m_Source_Path>
/Users/zhangxujun/Desktop

> <s_m_entry_id>
3470

> <s_m_entry_name>
wee1_decoys_glide_SP.3195

> <s_m_subgroup_title>
wee1_decoys_glide_SP

> <s_m_subgroupid>
wee1_decoys_glide_SP


$$$$
