ZINC08835686_4473
                    3D
 Schrodinger Suite 2024-2.
 57 61  0  0  1  0            999 V2000
    7.1046   54.0198   28.0555 C   0  0  0  0  0  0
    5.7013   54.1311   27.8851 O   0  0  0  0  0  0
    5.1698   54.2045   26.6077 C   0  0  0  0  0  0
    5.9689   54.3533   25.4588 C   0  0  0  0  0  0
    5.3997   54.3311   24.1623 C   0  0  0  0  0  0
    6.1894   54.4573   22.9897 C   0  0  0  0  0  0
    5.5930   54.4066   21.7297 C   0  0  0  0  0  0
    4.2222   54.2089   21.6048 C   0  0  0  0  0  0
    3.4192   54.0969   22.7355 C   0  0  0  0  0  0
    3.9910   54.1703   24.0291 C   0  0  0  0  0  0
    3.1980   54.0944   25.1904 C   0  0  0  0  0  0
    3.7749   54.0974   26.4670 C   0  0  0  0  0  0
    2.8844   53.9309   27.6745 C   0  0  0  0  0  0
    3.0009   54.6724   28.6534 O   0  0  0  0  0  0
    1.9893   52.9214   27.5367 N   0  0  0  0  0  0
    0.9773   52.4336   28.3217 C   0  0  0  0  0  0
    0.6390   52.8370   29.9088 S   0  0  0  0  0  0
    0.1960   51.4826   27.7251 N   0  0  0  0  0  0
    0.2081   51.0731   26.3760 C   0  0  0  0  0  0
    0.2828   49.7099   26.0858 C   0  0  0  0  0  0
    0.3637   49.2853   24.7614 C   0  0  0  0  0  0
    0.3527   50.2205   23.7223 C   0  0  0  0  0  0
    0.2495   51.5867   24.0114 C   0  0  0  0  0  0
    0.1656   52.0077   25.3345 C   0  0  0  0  0  0
    0.4977   49.7234   22.4188 N   0  0  0  0  0  0
    0.0113   50.2477   21.2717 C   0  0  0  0  0  0
   -0.6617   51.2790   21.1805 O   0  0  0  0  0  0
    0.3217   49.4469   20.1162 C   0  0  0  0  0  0
    1.4441   48.6701   19.8078 C   0  0  0  0  0  0
    1.2210   48.1464   18.4972 C   0  0  0  0  0  0
    1.9064   47.2965   17.6158 C   0  0  0  0  0  0
    1.3382   47.0215   16.3657 C   0  0  0  0  0  0
    0.1102   47.5705   15.9875 C   0  0  0  0  0  0
   -0.5967   48.4189   16.8398 C   0  0  0  0  0  0
   -0.0190   48.6905   18.0881 C   0  0  0  0  0  0
   -0.5435   49.4968   19.0578 O   0  0  0  0  0  0
    7.3354   53.9278   29.1153 H   0  0  0  0  0  0
    7.5038   53.1343   27.5543 H   0  0  0  0  0  0
    7.6281   54.9011   27.6822 H   0  0  0  0  0  0
    7.0413   54.4560   25.5290 H   0  0  0  0  0  0
    7.2592   54.5901   23.0765 H   0  0  0  0  0  0
    6.1993   54.5038   20.8392 H   0  0  0  0  0  0
    3.7713   54.1594   20.6216 H   0  0  0  0  0  0
    2.3490   53.9734   22.6232 H   0  0  0  0  0  0
    2.1269   54.0112   25.0663 H   0  0  0  0  0  0
    2.0807   52.4348   26.6558 H   0  0  0  0  0  0
   -0.4736   51.0098   28.3158 H   0  0  0  0  0  0
    0.3029   48.9730   26.8785 H   0  0  0  0  0  0
    0.4521   48.2273   24.5598 H   0  0  0  0  0  0
    0.2567   52.3326   23.2270 H   0  0  0  0  0  0
    0.0955   53.0630   25.5470 H   0  0  0  0  0  0
    0.9698   48.8355   22.3440 H   0  0  0  0  0  0
    2.3097   48.5061   20.4350 H   0  0  0  0  0  0
    2.8757   46.8970   17.8762 H   0  0  0  0  0  0
    1.8700   46.3856   15.6713 H   0  0  0  0  0  0
   -0.2920   47.3407   15.0109 H   0  0  0  0  0  0
   -1.5411   48.8578   16.5527 H   0  0  0  0  0  0
  1  2  1  0  0  0
  1 37  1  0  0  0
  1 38  1  0  0  0
  1 39  1  0  0  0
  2  3  1  0  0  0
  3 12  2  0  0  0
  3  4  1  0  0  0
  4  5  2  0  0  0
  4 40  1  0  0  0
  5 10  1  0  0  0
  5  6  1  0  0  0
  6  7  2  0  0  0
  6 41  1  0  0  0
  7  8  1  0  0  0
  7 42  1  0  0  0
  8  9  2  0  0  0
  8 43  1  0  0  0
  9 10  1  0  0  0
  9 44  1  0  0  0
 10 11  2  0  0  0
 11 12  1  0  0  0
 11 45  1  0  0  0
 12 13  1  0  0  0
 13 14  2  0  0  0
 13 15  1  0  0  0
 15 16  1  0  0  0
 15 46  1  0  0  0
 16 17  2  0  0  0
 16 18  1  0  0  0
 18 19  1  0  0  0
 18 47  1  0  0  0
 19 24  2  0  0  0
 19 20  1  0  0  0
 20 21  2  0  0  0
 20 48  1  0  0  0
 21 22  1  0  0  0
 21 49  1  0  0  0
 22 23  2  0  0  0
 22 25  1  0  0  0
 23 24  1  0  0  0
 23 50  1  0  0  0
 24 51  1  0  0  0
 25 26  1  0  0  0
 25 52  1  0  0  0
 26 27  2  0  0  0
 26 28  1  0  0  0
 28 36  1  0  0  0
 28 29  2  0  0  0
 29 30  1  0  0  0
 29 53  1  0  0  0
 30 35  2  0  0  0
 30 31  1  0  0  0
 31 32  2  0  0  0
 31 54  1  0  0  0
 32 33  1  0  0  0
 32 55  1  0  0  0
 33 34  2  0  0  0
 33 56  1  0  0  0
 34 35  1  0  0  0
 34 57  1  0  0  0
 35 36  1  0  0  0
M  END
> <i_i_glide_confnum>
127

> <i_i_glide_lignum>
4474

> <i_i_glide_posenum>
62

> <i_i_glide_rotatable_bonds>
9

> <i_m_Source_File_Index>
1125

> <b_m_subgroup_collapsed>
0

> <r_i_docking_score>
-5.45807

> <r_i_glide_ecoul>
-3.94805

> <r_i_glide_eff_state_penalty>
0

> <r_i_glide_einternal>
7.09538

> <r_i_glide_emodel>
-71.2164

> <r_i_glide_energy>
-55.8189

> <r_i_glide_erotb>
0.664126

> <r_i_glide_esite>
-0.0245027

> <r_i_glide_evdw>
-51.8708

> <r_i_glide_gscore>
-5.45807

> <r_i_glide_hbond>
0

> <r_i_glide_ligand_efficiency>
-0.151613

> <r_i_glide_ligand_efficiency_ln>
-1.1908

> <r_i_glide_ligand_efficiency_sa>
-0.500615

> <r_i_glide_lipo>
-2.592

> <r_i_glide_metal>
0

> <r_i_glide_rewards>
-0.319944

> <s_i_glide_gridfile>
wee1_glide-grid

> <s_m_Source_File>
wee1_decoys_glide_SP.sdf

> <s_m_Source_Path>
/Users/zhangxujun/Desktop

> <s_m_entry_id>
1400

> <s_m_entry_name>
wee1_decoys_glide_SP.1125

> <s_m_subgroup_title>
wee1_decoys_glide_SP

> <s_m_subgroupid>
wee1_decoys_glide_SP


$$$$
