ZINC04965405_3909
                    3D
 Schrodinger Suite 2024-2.
 57 59  0  0  1  0            999 V2000
   -6.0316   49.1373   23.3593 C   0  0  0  0  0  0
   -4.8533   49.5555   24.2200 C   0  0  0  0  0  0
   -4.4431   48.7477   25.2804 C   0  0  0  0  0  0
   -3.3544   49.1268   26.0613 C   0  0  0  0  0  0
   -2.6742   50.3164   25.7939 C   0  0  0  0  0  0
   -3.0806   51.1190   24.7165 C   0  0  0  0  0  0
   -4.1681   50.7370   23.9350 C   0  0  0  0  0  0
   -1.5765   50.6207   26.6201 N   0  0  0  0  0  0
   -1.0747   51.8401   26.9008 C   0  0  0  0  0  0
   -1.6112   52.8960   26.5704 O   0  0  0  0  0  0
    0.0836   51.7625   27.5852 N   0  0  0  0  0  0
    0.6419   52.6856   28.6032 C   0  0  0  0  0  0
    0.0786   52.3558   30.0169 C   0  0  0  0  0  0
    0.6983   53.1670   31.1843 C   0  0  0  0  0  0
    0.5485   54.6840   30.9393 C   0  0  0  0  0  0
    0.9862   55.1258   29.5335 C   0  0  0  0  0  0
    0.3463   54.2205   28.4476 C   0  0  0  0  0  0
    2.1968   52.5084   28.5462 C   0  0  0  0  0  0
    2.7630   51.6965   29.2815 O   0  0  0  0  0  0
    2.8323   53.2041   27.5743 N   0  0  0  0  0  0
    4.1972   53.4995   27.4154 C   0  0  0  0  0  0
    5.1142   53.3375   28.4632 C   0  0  0  0  0  0
    6.4433   53.6967   28.2934 C   0  0  0  0  0  0
    6.8654   54.2335   27.0879 C   0  0  0  0  0  0
    5.9743   54.4280   26.0338 C   0  0  0  0  0  0
    4.6263   54.0469   26.1852 C   0  0  0  0  0  0
    3.6378   54.1854   25.0227 C   0  0  0  0  0  0
    6.5050   55.0641   24.7581 C   0  0  0  0  0  0
   -6.0992   48.0508   23.2910 H   0  0  0  0  0  0
   -6.9649   49.5187   23.7754 H   0  0  0  0  0  0
   -5.9257   49.5073   22.3385 H   0  0  0  0  0  0
   -4.9641   47.8270   25.5025 H   0  0  0  0  0  0
   -3.0481   48.4923   26.8809 H   0  0  0  0  0  0
   -2.5587   52.0311   24.4687 H   0  0  0  0  0  0
   -4.4751   51.3591   23.1086 H   0  0  0  0  0  0
   -1.2533   49.8366   27.1784 H   0  0  0  0  0  0
    0.4684   50.8305   27.6432 H   0  0  0  0  0  0
   -1.0099   52.4000   30.0086 H   0  0  0  0  0  0
    0.2278   51.2967   30.1851 H   0  0  0  0  0  0
    0.2132   52.8969   32.1228 H   0  0  0  0  0  0
    1.7485   52.9112   31.3171 H   0  0  0  0  0  0
   -0.4955   54.9430   31.0780 H   0  0  0  0  0  0
    1.0938   55.2609   31.6820 H   0  0  0  0  0  0
    0.7047   56.1679   29.3730 H   0  0  0  0  0  0
    2.0747   55.1095   29.4666 H   0  0  0  0  0  0
    0.7053   54.5586   27.4826 H   0  0  0  0  0  0
   -0.7196   54.3943   28.3440 H   0  0  0  0  0  0
    2.2378   53.6123   26.8699 H   0  0  0  0  0  0
    4.8157   52.9499   29.4240 H   0  0  0  0  0  0
    7.1498   53.5841   29.1013 H   0  0  0  0  0  0
    7.9041   54.4972   26.9889 H   0  0  0  0  0  0
    2.8518   54.8963   25.2744 H   0  0  0  0  0  0
    3.1533   53.2251   24.8324 H   0  0  0  0  0  0
    4.0909   54.4981   24.0802 H   0  0  0  0  0  0
    7.5249   55.4233   24.8790 H   0  0  0  0  0  0
    6.4796   54.3547   23.9298 H   0  0  0  0  0  0
    5.9025   55.9295   24.4838 H   0  0  0  0  0  0
  1  2  1  0  0  0
  1 29  1  0  0  0
  1 30  1  0  0  0
  1 31  1  0  0  0
  2  7  2  0  0  0
  2  3  1  0  0  0
  3  4  2  0  0  0
  3 32  1  0  0  0
  4  5  1  0  0  0
  4 33  1  0  0  0
  5  6  2  0  0  0
  5  8  1  0  0  0
  6  7  1  0  0  0
  6 34  1  0  0  0
  7 35  1  0  0  0
  8  9  1  0  0  0
  8 36  1  0  0  0
  9 10  2  0  0  0
  9 11  1  0  0  0
 11 12  1  0  0  0
 11 37  1  0  0  0
 12 17  1  0  0  0
 12 13  1  0  0  0
 12 18  1  0  0  0
 13 14  1  0  0  0
 13 38  1  0  0  0
 13 39  1  0  0  0
 14 15  1  0  0  0
 14 40  1  0  0  0
 14 41  1  0  0  0
 15 16  1  0  0  0
 15 42  1  0  0  0
 15 43  1  0  0  0
 16 17  1  0  0  0
 16 44  1  0  0  0
 16 45  1  0  0  0
 17 46  1  0  0  0
 17 47  1  0  0  0
 18 19  2  0  0  0
 18 20  1  0  0  0
 20 21  1  0  0  0
 20 48  1  0  0  0
 21 26  2  0  0  0
 21 22  1  0  0  0
 22 23  2  0  0  0
 22 49  1  0  0  0
 23 24  1  0  0  0
 23 50  1  0  0  0
 24 25  2  0  0  0
 24 51  1  0  0  0
 25 26  1  0  0  0
 25 28  1  0  0  0
 26 27  1  0  0  0
 27 52  1  0  0  0
 27 53  1  0  0  0
 27 54  1  0  0  0
 28 55  1  0  0  0
 28 56  1  0  0  0
 28 57  1  0  0  0
M  END
> <i_i_glide_confnum>
11

> <i_i_glide_lignum>
3910

> <i_i_glide_posenum>
182

> <i_i_glide_rotatable_bonds>
7

> <i_m_Source_File_Index>
3997

> <b_m_subgroup_collapsed>
0

> <r_i_docking_score>
-5.52665

> <r_i_glide_ecoul>
-4.43275

> <r_i_glide_eff_state_penalty>
0

> <r_i_glide_einternal>
9.92419

> <r_i_glide_emodel>
-45.0148

> <r_i_glide_energy>
-37.0208

> <r_i_glide_erotb>
0.942483

> <r_i_glide_esite>
-0.142177

> <r_i_glide_evdw>
-32.588

> <r_i_glide_gscore>
-5.52665

> <r_i_glide_hbond>
-0.323198

> <r_i_glide_ligand_efficiency>
-0.19738

> <r_i_glide_ligand_efficiency_ln>
-1.27571

> <r_i_glide_ligand_efficiency_sa>
-0.599363

> <r_i_glide_lipo>
-2.91885

> <r_i_glide_metal>
0

> <r_i_glide_rewards>
-0.790591

> <s_i_glide_gridfile>
wee1_glide-grid

> <s_m_Source_File>
wee1_decoys_glide_SP.sdf

> <s_m_Source_Path>
/Users/zhangxujun/Desktop

> <s_m_entry_id>
4272

> <s_m_entry_name>
wee1_decoys_glide_SP.3997

> <s_m_subgroup_title>
wee1_decoys_glide_SP

> <s_m_subgroupid>
wee1_decoys_glide_SP


$$$$
