ZINC15218244_3569
                    3D
 Schrodinger Suite 2024-2.
 55 58  0  0  1  0            999 V2000
    2.6589   52.4071   29.4277 C   0  0  0  0  0  0
    1.8167   53.5987   28.8995 C   0  0  0  0  0  0
    0.3998   53.4846   29.5209 C   0  0  0  0  0  0
    2.4472   54.9226   29.4056 C   0  0  0  0  0  0
    1.7365   53.6286   27.3284 C   0  0  1  0  0  0
    1.1225   54.4886   27.0837 H   0  0  0  0  0  0
    3.1018   53.9087   26.6464 C   0  0  0  0  0  0
    3.0627   53.6946   25.1422 C   0  0  0  0  0  0
    2.0761   53.0828   24.4411 C   0  0  0  0  0  0
    0.8220   52.5415   25.1508 C   0  0  2  0  0  0
    0.0500   53.2969   25.0039 H   0  0  0  0  0  0
    1.0700   52.3902   26.6787 C   0  0  0  0  0  0
    0.3207   51.2230   24.4742 C   0  0  2  0  0  0
    1.0946   50.4782   24.6729 H   0  0  0  0  0  0
    0.1908   51.3556   22.9132 C   0  0  0  0  0  0
    1.3256   52.1737   22.2737 C   0  0  0  0  0  0
    2.1811   52.9378   22.9885 C   0  0  0  0  0  0
    3.2299   53.6236   22.2903 C   0  0  0  0  0  0
    4.1009   54.1464   21.7367 N   0  0  0  0  0  0
    1.3840   52.0970   20.8965 N   0  0  0  0  0  0
   -1.0863   51.9975   22.5679 C   0  0  0  0  0  0
   -2.0968   52.4927   22.2999 N   0  0  0  0  0  0
    0.1635   50.0160   22.2906 C   0  0  0  0  0  0
    0.1401   48.9729   21.7892 N   0  0  0  0  0  0
   -0.9894   50.7079   25.0901 C   0  0  0  0  0  0
   -2.0096   51.4574   25.6617 C   0  0  0  0  0  0
   -3.0646   50.6572   26.0106 N   0  0  0  0  0  0
   -3.9120   51.0130   26.4283 H   0  0  0  0  0  0
   -2.7850   49.3535   25.6812 C   0  0  0  0  0  0
   -1.4631   49.3415   25.1332 C   0  0  0  0  0  0
   -0.9226   48.1050   24.7395 C   0  0  0  0  0  0
   -1.6973   46.9516   24.8612 C   0  0  0  0  0  0
   -2.9863   47.0009   25.3825 C   0  0  0  0  0  0
   -3.5608   48.1966   25.8079 C   0  0  0  0  0  0
    2.6937   52.4050   30.5180 H   0  0  0  0  0  0
    3.6922   52.4372   29.0827 H   0  0  0  0  0  0
    2.2389   51.4483   29.1235 H   0  0  0  0  0  0
   -0.2793   54.2254   29.1020 H   0  0  0  0  0  0
   -0.0469   52.5023   29.3613 H   0  0  0  0  0  0
    0.4189   53.6386   30.6005 H   0  0  0  0  0  0
    1.9680   55.7955   28.9586 H   0  0  0  0  0  0
    2.3440   55.0333   30.4810 H   0  0  0  0  0  0
    3.5135   54.9839   29.1834 H   0  0  0  0  0  0
    3.4049   54.9403   26.8296 H   0  0  0  0  0  0
    3.8924   53.2816   27.0526 H   0  0  0  0  0  0
    3.9315   54.0537   24.6081 H   0  0  0  0  0  0
    1.6348   51.4868   26.8946 H   0  0  0  0  0  0
    0.1115   52.2115   27.1605 H   0  0  0  0  0  0
    0.7720   51.4924   20.3657 H   0  0  0  0  0  0
    2.0300   52.6722   20.3725 H   0  0  0  0  0  0
   -2.0816   52.5229   25.8290 H   0  0  0  0  0  0
    0.0802   48.0446   24.3442 H   0  0  0  0  0  0
   -1.2933   46.0036   24.5467 H   0  0  0  0  0  0
   -3.5574   46.0901   25.4719 H   0  0  0  0  0  0
   -4.5557   48.2194   26.2254 H   0  0  0  0  0  0
  1  2  1  0  0  0
  1 35  1  0  0  0
  1 36  1  0  0  0
  1 37  1  0  0  0
  2  3  1  0  0  0
  2  4  1  0  0  0
  2  5  1  0  0  0
  3 38  1  0  0  0
  3 39  1  0  0  0
  3 40  1  0  0  0
  4 41  1  0  0  0
  4 42  1  0  0  0
  4 43  1  0  0  0
  5  6  1  0  0  0
  5 12  1  0  0  0
  5  7  1  0  0  0
  7  8  1  0  0  0
  7 44  1  0  0  0
  7 45  1  0  0  0
  8  9  2  0  0  0
  8 46  1  0  0  0
  9 17  1  0  0  0
  9 10  1  0  0  0
 10 11  1  0  0  0
 10 12  1  0  0  0
 10 13  1  0  0  0
 12 47  1  0  0  0
 12 48  1  0  0  0
 13 14  1  0  0  0
 13 15  1  0  0  0
 13 25  1  0  0  0
 15 16  1  0  0  0
 15 21  1  0  0  0
 15 23  1  0  0  0
 16 17  2  0  0  0
 16 20  1  0  0  0
 17 18  1  0  0  0
 18 19  3  0  0  0
 20 49  1  0  0  0
 20 50  1  0  0  0
 21 22  3  0  0  0
 23 24  3  0  0  0
 25 30  1  0  0  0
 25 26  2  0  0  0
 26 27  1  0  0  0
 26 51  1  0  0  0
 27 28  1  0  0  0
 27 29  1  0  0  0
 29 34  2  0  0  0
 29 30  1  0  0  0
 30 31  2  0  0  0
 31 32  1  0  0  0
 31 52  1  0  0  0
 32 33  2  0  0  0
 32 53  1  0  0  0
 33 34  1  0  0  0
 33 54  1  0  0  0
 34 55  1  0  0  0
M  END
> <i_i_glide_confnum>
1

> <i_i_glide_lignum>
3570

> <i_i_glide_posenum>
256

> <i_i_glide_rotatable_bonds>
5

> <i_m_Source_File_Index>
1685

> <b_m_subgroup_collapsed>
0

> <r_i_docking_score>
-4.41675

> <r_i_glide_ecoul>
-0.241192

> <r_i_glide_eff_state_penalty>
0

> <r_i_glide_einternal>
5.49989

> <r_i_glide_emodel>
-38.3025

> <r_i_glide_energy>
-31.9051

> <r_i_glide_erotb>
0.125019

> <r_i_glide_esite>
-0.0528967

> <r_i_glide_evdw>
-31.6639

> <r_i_glide_gscore>
-4.41675

> <r_i_glide_hbond>
0

> <r_i_glide_ligand_efficiency>
-0.147225

> <r_i_glide_ligand_efficiency_ln>
-1.00353

> <r_i_glide_ligand_efficiency_sa>
-0.457462

> <r_i_glide_lipo>
-1.98102

> <r_i_glide_metal>
0

> <r_i_glide_rewards>
-0.888478

> <s_i_glide_gridfile>
wee1_glide-grid

> <s_m_Source_File>
wee1_decoys_glide_SP.sdf

> <s_m_Source_Path>
/Users/zhangxujun/Desktop

> <s_m_entry_id>
1960

> <s_m_entry_name>
wee1_decoys_glide_SP.1685

> <s_m_subgroup_title>
wee1_decoys_glide_SP

> <s_m_subgroupid>
wee1_decoys_glide_SP


$$$$
