ZINC65083487_3400
                    3D
 Schrodinger Suite 2024-2.
 57 60  0  0  1  0            999 V2000
    7.7147   51.6767   14.2190 C   0  0  0  0  0  0
    6.7794   52.5303   15.0552 C   0  0  0  0  0  0
    7.2410   53.7267   15.6069 C   0  0  0  0  0  0
    6.3892   54.5095   16.3823 C   0  0  0  0  0  0
    5.0750   54.0931   16.6047 C   0  0  0  0  0  0
    4.6125   52.8967   16.0540 C   0  0  0  0  0  0
    5.4621   52.1223   15.2693 C   0  0  0  0  0  0
    3.9911   55.0748   17.6397 S   0  0  0  0  0  0
    2.6125   54.7201   17.2811 O   0  0  0  0  0  0
    4.4629   56.4625   17.5580 O   0  0  0  0  0  0
    4.3084   54.4972   19.2843 N   0  0  0  0  0  0
    3.7614   53.1737   19.6899 C   0  0  0  0  0  0
    3.4369   53.1441   21.2098 C   0  0  0  0  0  0
    4.5776   53.8002   21.9873 C   0  0  0  0  0  0
    5.5670   54.5652   21.3616 C   0  0  0  0  0  0
    6.7044   55.1186   22.5526 S   0  0  0  0  0  0
    5.7251   54.3573   23.7637 C   0  0  0  0  0  0
    4.6837   53.6990   23.2978 N   0  0  0  0  0  0
    6.1279   54.4968   25.0913 N   0  0  0  0  0  0
    5.4327   54.2710   26.2322 C   0  0  0  0  0  0
    6.0134   54.3614   27.3101 O   0  0  0  0  0  0
    4.1243   53.9609   26.0944 N   0  0  0  0  0  0
    3.1866   53.4291   27.0055 C   0  0  0  0  0  0
    3.4745   53.1161   28.3468 C   0  0  0  0  0  0
    2.5112   52.4976   29.1628 C   0  0  0  0  0  0
    1.2543   52.2242   28.6287 C   0  0  0  0  0  0
    0.9569   52.5318   27.3039 C   0  0  0  0  0  0
    1.9185   53.1283   26.4736 C   0  0  0  0  0  0
    1.6924   53.4191   25.1361 O   0  0  0  0  0  0
    0.5467   52.8831   24.4832 C   0  0  0  0  0  0
    2.7117   52.1125   30.4747 O   0  0  0  0  0  0
    4.0014   52.2564   31.0518 C   0  0  0  0  0  0
    5.6331   54.8360   19.8692 C   0  0  0  0  0  0
    8.4438   51.1758   14.8576 H   0  0  0  0  0  0
    7.1742   50.9264   13.6400 H   0  0  0  0  0  0
    8.2627   52.2995   13.5110 H   0  0  0  0  0  0
    8.2594   54.0467   15.4406 H   0  0  0  0  0  0
    6.7522   55.4321   16.8123 H   0  0  0  0  0  0
    3.6035   52.5565   16.2390 H   0  0  0  0  0  0
    5.0986   51.1914   14.8575 H   0  0  0  0  0  0
    2.8821   52.9396   19.0893 H   0  0  0  0  0  0
    4.5363   52.4290   19.4960 H   0  0  0  0  0  0
    3.2696   52.1162   21.5338 H   0  0  0  0  0  0
    2.5132   53.6960   21.3869 H   0  0  0  0  0  0
    7.0660   54.8420   25.2179 H   0  0  0  0  0  0
    3.7569   54.0346   25.1572 H   0  0  0  0  0  0
    4.4509   53.3215   28.7506 H   0  0  0  0  0  0
    0.5037   51.7490   29.2444 H   0  0  0  0  0  0
   -0.0268   52.2852   26.9350 H   0  0  0  0  0  0
    0.5894   53.1372   23.4241 H   0  0  0  0  0  0
    0.5159   51.7948   24.5599 H   0  0  0  0  0  0
   -0.3807   53.2945   24.8817 H   0  0  0  0  0  0
    3.9885   51.8686   32.0704 H   0  0  0  0  0  0
    4.3031   53.3028   31.1006 H   0  0  0  0  0  0
    4.7522   51.6966   30.4931 H   0  0  0  0  0  0
    5.8535   55.8817   19.6524 H   0  0  0  0  0  0
    6.3920   54.2170   19.3892 H   0  0  0  0  0  0
  1  2  1  0  0  0
  1 34  1  0  0  0
  1 35  1  0  0  0
  1 36  1  0  0  0
  2  7  2  0  0  0
  2  3  1  0  0  0
  3  4  2  0  0  0
  3 37  1  0  0  0
  4  5  1  0  0  0
  4 38  1  0  0  0
  5  6  2  0  0  0
  5  8  1  0  0  0
  6  7  1  0  0  0
  6 39  1  0  0  0
  7 40  1  0  0  0
  8  9  2  0  0  0
  8 10  2  0  0  0
  8 11  1  0  0  0
 11 33  1  0  0  0
 11 12  1  0  0  0
 12 13  1  0  0  0
 12 41  1  0  0  0
 12 42  1  0  0  0
 13 14  1  0  0  0
 13 43  1  0  0  0
 13 44  1  0  0  0
 14 18  1  0  0  0
 14 15  2  0  0  0
 15 16  1  0  0  0
 15 33  1  0  0  0
 16 17  1  0  0  0
 17 18  2  0  0  0
 17 19  1  0  0  0
 19 20  1  0  0  0
 19 45  1  0  0  0
 20 21  2  0  0  0
 20 22  1  0  0  0
 22 23  1  0  0  0
 22 46  1  0  0  0
 23 28  2  0  0  0
 23 24  1  0  0  0
 24 25  2  0  0  0
 24 47  1  0  0  0
 25 26  1  0  0  0
 25 31  1  0  0  0
 26 27  2  0  0  0
 26 48  1  0  0  0
 27 28  1  0  0  0
 27 49  1  0  0  0
 28 29  1  0  0  0
 29 30  1  0  0  0
 30 50  1  0  0  0
 30 51  1  0  0  0
 30 52  1  0  0  0
 31 32  1  0  0  0
 32 53  1  0  0  0
 32 54  1  0  0  0
 32 55  1  0  0  0
 33 56  1  0  0  0
 33 57  1  0  0  0
M  END
> <i_i_glide_confnum>
56

> <i_i_glide_lignum>
3401

> <i_i_glide_posenum>
94

> <i_i_glide_rotatable_bonds>
8

> <i_m_Source_File_Index>
1378

> <b_m_subgroup_collapsed>
0

> <r_i_docking_score>
-4.16806

> <r_i_glide_ecoul>
-0.691821

> <r_i_glide_eff_state_penalty>
0

> <r_i_glide_einternal>
6.20957

> <r_i_glide_emodel>
-56.3786

> <r_i_glide_energy>
-46.8547

> <r_i_glide_erotb>
0.511179

> <r_i_glide_esite>
-0.00746185

> <r_i_glide_evdw>
-46.1629

> <r_i_glide_gscore>
-4.16806

> <r_i_glide_hbond>
-0.32

> <r_i_glide_ligand_efficiency>
-0.126305

> <r_i_glide_ligand_efficiency_ln>
-0.926955

> <r_i_glide_ligand_efficiency_sa>
-0.405127

> <r_i_glide_lipo>
-2.20642

> <r_i_glide_metal>
0

> <r_i_glide_rewards>
0.266562

> <s_i_glide_gridfile>
wee1_glide-grid

> <s_m_Source_File>
wee1_decoys_glide_SP.sdf

> <s_m_Source_Path>
/Users/zhangxujun/Desktop

> <s_m_entry_id>
1653

> <s_m_entry_name>
wee1_decoys_glide_SP.1378

> <s_m_subgroup_title>
wee1_decoys_glide_SP

> <s_m_subgroupid>
wee1_decoys_glide_SP


$$$$
