ZINC53103429_1656
                    3D
 Schrodinger Suite 2024-2.
 43 44  0  0  1  0            999 V2000
    3.2183   54.2994   25.7211 C   0  0  0  0  0  0
    3.5045   53.7644   27.1287 C   0  0  0  0  0  0
    4.8552   53.9345   27.6494 C   0  0  0  0  0  0
    5.1100   53.5518   28.8564 N   0  0  0  0  0  0
    4.2127   52.9725   29.6811 N   0  5  0  0  0  0
    2.9634   52.7173   29.2970 C   0  0  0  0  0  0
    2.1620   52.1001   30.0021 O   0  0  0  0  0  0
    2.5579   53.1841   27.9517 C   0  0  0  0  0  0
    1.1909   52.9626   27.5092 C   0  0  0  0  0  0
    0.2194   53.4594   28.0814 O   0  0  0  0  0  0
    1.1035   52.1130   26.4672 N   0  0  0  0  0  0
   -0.0704   51.4677   25.8498 C   0  0  2  0  0  0
    0.4228   50.3769   24.8493 C   0  0  0  0  0  0
    1.2729   50.9827   23.7074 C   0  0  0  0  0  0
    0.4442   52.0135   22.9060 C   0  0  1  0  0  0
   -0.2022   53.0697   23.8409 C   0  0  0  0  0  0
   -0.9649   52.4174   25.0072 C   0  0  0  0  0  0
    1.2554   52.6457   21.7641 C   0  0  0  0  0  0
   -0.9132   50.8088   26.9745 C   0  0  0  0  0  0
   -2.0257   50.0951   26.4814 O   0  0  0  0  0  0
    6.0301   54.5107   26.8684 C   0  0  0  0  0  0
    2.1615   54.4204   25.5151 H   0  0  0  0  0  0
    3.6580   55.2859   25.5755 H   0  0  0  0  0  0
    3.6343   53.6287   24.9695 H   0  0  0  0  0  0
    1.9897   51.8147   26.0934 H   0  0  0  0  0  0
    1.0245   49.6337   25.3769 H   0  0  0  0  0  0
   -0.4176   49.8266   24.4230 H   0  0  0  0  0  0
    2.1715   51.4620   24.0961 H   0  0  0  0  0  0
    1.6408   50.1977   23.0446 H   0  0  0  0  0  0
   -0.3841   51.4539   22.4668 H   0  0  0  0  0  0
    0.5572   53.7467   24.2246 H   0  0  0  0  0  0
   -0.8995   53.6892   23.2865 H   0  0  0  0  0  0
   -1.8240   51.8778   24.6042 H   0  0  0  0  0  0
   -1.3833   53.1917   25.6489 H   0  0  0  0  0  0
    2.0843   53.2438   22.1471 H   0  0  0  0  0  0
    1.6738   51.8818   21.1070 H   0  0  0  0  0  0
    0.6372   53.2966   21.1484 H   0  0  0  0  0  0
   -0.2847   50.1257   27.5475 H   0  0  0  0  0  0
   -1.2885   51.5325   27.6966 H   0  0  0  0  0  0
   -2.1099   49.3380   27.0887 H   0  0  0  0  0  0
    6.3060   53.8463   26.0492 H   0  0  0  0  0  0
    5.7841   55.4834   26.4414 H   0  0  0  0  0  0
    6.9180   54.6501   27.4903 H   0  0  0  0  0  0
  1  2  1  0  0  0
  1 22  1  0  0  0
  1 23  1  0  0  0
  1 24  1  0  0  0
  2  8  2  0  0  0
  2  3  1  0  0  0
  3  4  2  0  0  0
  3 21  1  0  0  0
  4  5  1  0  0  0
  5  6  1  0  0  0
  6  7  2  0  0  0
  6  8  1  0  0  0
  8  9  1  0  0  0
  9 10  2  0  0  0
  9 11  1  0  0  0
 11 12  1  0  0  0
 11 25  1  0  0  0
 12 17  1  0  0  0
 12 13  1  0  0  0
 12 19  1  0  0  0
 13 14  1  0  0  0
 13 26  1  0  0  0
 13 27  1  0  0  0
 14 15  1  0  0  0
 14 28  1  0  0  0
 14 29  1  0  0  0
 15 16  1  0  0  0
 15 18  1  0  0  0
 15 30  1  0  0  0
 16 17  1  0  0  0
 16 31  1  0  0  0
 16 32  1  0  0  0
 17 33  1  0  0  0
 17 34  1  0  0  0
 18 35  1  0  0  0
 18 36  1  0  0  0
 18 37  1  0  0  0
 19 20  1  0  0  0
 19 38  1  0  0  0
 19 39  1  0  0  0
 20 40  1  0  0  0
 21 41  1  0  0  0
 21 42  1  0  0  0
 21 43  1  0  0  0
M  CHG  1   5  -1
M  END
> <i_i_glide_confnum>
31

> <i_i_glide_lignum>
1657

> <i_i_glide_posenum>
375

> <i_i_glide_rotatable_bonds>
5

> <i_m_Source_File_Index>
2664

> <b_m_subgroup_collapsed>
0

> <r_i_docking_score>
-5.09117

> <r_i_glide_ecoul>
-6.96926

> <r_i_glide_eff_state_penalty>
0

> <r_i_glide_einternal>
3.71247

> <r_i_glide_emodel>
-43.9857

> <r_i_glide_energy>
-32.7939

> <r_i_glide_erotb>
0.854359

> <r_i_glide_esite>
0

> <r_i_glide_evdw>
-25.8247

> <r_i_glide_gscore>
-5.09117

> <r_i_glide_hbond>
-0.326525

> <r_i_glide_ligand_efficiency>
-0.242437

> <r_i_glide_ligand_efficiency_ln>
-1.25878

> <r_i_glide_ligand_efficiency_sa>
-0.668865

> <r_i_glide_lipo>
-1.6662

> <r_i_glide_metal>
0

> <r_i_glide_rewards>
-1.61618

> <s_i_glide_gridfile>
wee1_glide-grid

> <s_m_Source_File>
wee1_decoys_glide_SP.sdf

> <s_m_Source_Path>
/Users/zhangxujun/Desktop

> <s_m_entry_id>
2939

> <s_m_entry_name>
wee1_decoys_glide_SP.2664

> <s_m_subgroup_title>
wee1_decoys_glide_SP

> <s_m_subgroupid>
wee1_decoys_glide_SP


$$$$
