ZINC02863578_2182
                    3D
 Schrodinger Suite 2024-2.
 52 55  0  0  1  0            999 V2000
    2.4656   48.5588   19.0346 C   0  0  0  0  0  0
    2.5421   49.6967   19.8836 O   0  0  0  0  0  0
    1.6257   49.9042   20.8458 C   0  0  0  0  0  0
    0.7025   49.1223   21.0951 O   0  0  0  0  0  0
    1.8796   51.1418   21.6213 C   0  0  0  0  0  0
    2.6761   52.2741   21.2344 C   0  0  0  0  0  0
    2.8632   53.1994   22.2825 C   0  0  0  0  0  0
    1.9043   52.7844   23.6506 S   0  0  0  0  0  0
    1.2979   51.3737   22.8776 C   0  0  0  0  0  0
    0.4030   50.5662   23.5484 N   0  0  0  0  0  0
   -0.7776   50.9697   24.3161 C   0  0  2  0  0  0
   -1.2522   49.7331   25.0822 C   0  0  0  0  0  0
   -1.6319   48.6480   24.6460 O   0  0  0  0  0  0
   -1.1024   50.0967   26.4817 N   0  0  0  0  0  0
   -0.5962   51.3168   26.6301 C   0  0  0  0  0  0
   -0.1849   51.9744   27.8660 C   0  0  0  0  0  0
    0.8744   52.8967   27.8477 C   0  0  0  0  0  0
    1.2763   53.5309   29.0206 C   0  0  0  0  0  0
    0.6313   53.2368   30.2185 C   0  0  0  0  0  0
   -0.4118   52.3176   30.2493 C   0  0  0  0  0  0
   -0.8301   51.6967   29.0765 C   0  0  0  0  0  0
   -1.9235   51.5439   23.4161 C   0  0  0  0  0  0
   -2.2248   50.7322   22.3998 F   0  0  0  0  0  0
   -3.0554   51.7634   24.0918 F   0  0  0  0  0  0
   -1.5719   52.7158   22.8818 F   0  0  0  0  0  0
    3.7021   54.4622   22.2970 C   0  0  0  0  0  0
    5.1616   54.2762   21.8379 C   0  0  0  0  0  0
    5.3432   54.0315   20.3293 C   0  0  0  0  0  0
    4.8014   52.6884   19.8088 C   0  0  0  0  0  0
    3.2695   52.5587   19.8529 C   0  0  0  0  0  0
    3.3965   48.4416   18.4825 H   0  0  0  0  0  0
    2.3044   47.6437   19.6057 H   0  0  0  0  0  0
    1.6538   48.6673   18.3147 H   0  0  0  0  0  0
    0.2497   49.6488   23.1450 H   0  0  0  0  0  0
   -1.2956   49.4313   27.2493 H   0  0  0  0  0  0
    1.4052   53.1287   26.9342 H   0  0  0  0  0  0
    2.0901   54.2416   29.0013 H   0  0  0  0  0  0
    0.9402   53.7187   31.1349 H   0  0  0  0  0  0
   -0.8956   52.0842   31.1871 H   0  0  0  0  0  0
   -1.6433   50.9829   29.1321 H   0  0  0  0  0  0
    3.7279   54.8787   23.3050 H   0  0  0  0  0  0
    3.2232   55.2188   21.6817 H   0  0  0  0  0  0
    5.6300   53.4704   22.4059 H   0  0  0  0  0  0
    5.7212   55.1763   22.0963 H   0  0  0  0  0  0
    6.4023   54.0967   20.0817 H   0  0  0  0  0  0
    4.8783   54.8477   19.7736 H   0  0  0  0  0  0
    5.2635   51.8525   20.3357 H   0  0  0  0  0  0
    5.1194   52.5797   18.7705 H   0  0  0  0  0  0
    2.8462   53.4920   19.4812 H   0  0  0  0  0  0
    2.9558   51.8530   19.0885 H   0  0  0  0  0  0
   -0.5123   51.8750   25.4299 N   0  3  0  0  0  0
   -0.1835   52.8155   25.2797 H   0  0  0  0  0  0
  1  2  1  0  0  0
  1 31  1  0  0  0
  1 32  1  0  0  0
  1 33  1  0  0  0
  2  3  1  0  0  0
  3  4  2  0  0  0
  3  5  1  0  0  0
  5  9  2  0  0  0
  5  6  1  0  0  0
  6 30  1  0  0  0
  6  7  2  0  0  0
  7  8  1  0  0  0
  7 26  1  0  0  0
  8  9  1  0  0  0
  9 10  1  0  0  0
 10 11  1  0  0  0
 10 34  1  0  0  0
 11 12  1  0  0  0
 11 22  1  0  0  0
 11 51  1  0  0  0
 12 13  2  0  0  0
 12 14  1  0  0  0
 14 15  1  0  0  0
 14 35  1  0  0  0
 15 16  1  0  0  0
 15 51  2  0  0  0
 16 21  2  0  0  0
 16 17  1  0  0  0
 17 18  2  0  0  0
 17 36  1  0  0  0
 18 19  1  0  0  0
 18 37  1  0  0  0
 19 20  2  0  0  0
 19 38  1  0  0  0
 20 21  1  0  0  0
 20 39  1  0  0  0
 21 40  1  0  0  0
 22 23  1  0  0  0
 22 24  1  0  0  0
 22 25  1  0  0  0
 26 27  1  0  0  0
 26 41  1  0  0  0
 26 42  1  0  0  0
 27 28  1  0  0  0
 27 43  1  0  0  0
 27 44  1  0  0  0
 28 29  1  0  0  0
 28 45  1  0  0  0
 28 46  1  0  0  0
 29 30  1  0  0  0
 29 47  1  0  0  0
 29 48  1  0  0  0
 30 49  1  0  0  0
 30 50  1  0  0  0
 51 52  1  0  0  0
M  CHG  1  51   1
M  END
> <i_i_glide_confnum>
120

> <i_i_glide_lignum>
2183

> <i_i_glide_posenum>
209

> <i_i_glide_rotatable_bonds>
6

> <i_m_Source_File_Index>
1084

> <b_m_subgroup_collapsed>
0

> <r_i_docking_score>
-4.51167

> <r_i_glide_ecoul>
-9.74385

> <r_i_glide_eff_state_penalty>
0

> <r_i_glide_einternal>
9.32859

> <r_i_glide_emodel>
-51.9237

> <r_i_glide_energy>
-42.4691

> <r_i_glide_erotb>
0.392036

> <r_i_glide_esite>
-0.198414

> <r_i_glide_evdw>
-32.7252

> <r_i_glide_gscore>
-4.51167

> <r_i_glide_hbond>
-0.16

> <r_i_glide_ligand_efficiency>
-0.145538

> <r_i_glide_ligand_efficiency_ln>
-1.01752

> <r_i_glide_ligand_efficiency_sa>
-0.45719

> <r_i_glide_lipo>
-1.08481

> <r_i_glide_metal>
0

> <r_i_glide_rewards>
-0.362646

> <s_i_glide_gridfile>
wee1_glide-grid

> <s_m_Source_File>
wee1_decoys_glide_SP.sdf

> <s_m_Source_Path>
/Users/zhangxujun/Desktop

> <s_m_entry_id>
1359

> <s_m_entry_name>
wee1_decoys_glide_SP.1084

> <s_m_subgroup_title>
wee1_decoys_glide_SP

> <s_m_subgroupid>
wee1_decoys_glide_SP


$$$$
