ZINC12060029_2446
                    3D
 Schrodinger Suite 2024-2.
 57 60  0  0  1  0            999 V2000
    4.1047   53.9404   28.9401 C   0  0  0  0  0  0
    2.8997   53.9566   28.2499 C   0  0  0  0  0  0
    2.8784   54.0969   26.8644 C   0  0  0  0  0  0
    4.0864   54.2175   26.1176 C   0  0  0  0  0  0
    5.3230   54.1958   26.8456 C   0  0  0  0  0  0
    5.3084   54.0587   28.2561 C   0  0  0  0  0  0
    6.5480   54.3192   26.1508 C   0  0  0  0  0  0
    6.5627   54.4670   24.7703 C   0  0  0  0  0  0
    5.3732   54.4934   24.0541 C   0  0  0  0  0  0
    4.1327   54.3737   24.6880 C   0  0  0  0  0  0
    2.8599   54.4965   23.8283 C   0  0  0  0  0  0
    2.0688   53.1950   23.5947 C   0  0  0  0  0  0
    1.9586   52.3571   24.4899 O   0  0  0  0  0  0
    1.5039   53.0595   22.3748 N   0  0  0  0  0  0
    0.8627   51.8651   22.0327 N   0  0  0  0  0  0
   -0.4419   51.6583   22.3245 C   0  0  0  0  0  0
   -1.1702   52.4903   22.8746 O   0  0  0  0  0  0
   -0.9949   50.2758   21.9109 C   0  0  0  0  0  0
   -0.8235   49.2831   23.0841 C   0  0  0  0  0  0
   -1.2435   47.8810   22.5958 C   0  0  0  0  0  0
   -2.5972   47.8661   21.9784 N   0  0  0  0  0  0
   -2.9357   48.9522   21.0120 C   0  0  0  0  0  0
   -2.4799   50.3505   21.4833 C   0  0  0  0  0  0
   -3.8995   46.9637   22.7765 S   0  0  0  0  0  0
   -5.0707   46.9716   21.8918 O   0  0  0  0  0  0
   -3.3441   45.6967   23.2720 O   0  0  0  0  0  0
   -4.3261   47.9703   24.1993 C   0  0  0  0  0  0
   -5.2433   49.0152   24.0285 C   0  0  0  0  0  0
   -5.5903   49.8325   25.1043 C   0  0  0  0  0  0
   -5.0252   49.6073   26.3588 C   0  0  0  0  0  0
   -4.1113   48.5680   26.5340 C   0  0  0  0  0  0
   -3.7480   47.7552   25.4603 C   0  0  0  0  0  0
   -2.8460   46.7662   25.6637 F   0  0  0  0  0  0
    4.1128   53.8325   30.0138 H   0  0  0  0  0  0
    1.9709   53.8617   28.7929 H   0  0  0  0  0  0
    1.9257   54.1026   26.3580 H   0  0  0  0  0  0
    6.2430   54.0473   28.7998 H   0  0  0  0  0  0
    7.4752   54.2886   26.7051 H   0  0  0  0  0  0
    7.5050   54.5562   24.2476 H   0  0  0  0  0  0
    5.4229   54.6153   22.9812 H   0  0  0  0  0  0
    2.1913   55.2294   24.2737 H   0  0  0  0  0  0
    3.1311   54.9036   22.8529 H   0  0  0  0  0  0
    1.5682   53.7221   21.6127 H   0  0  0  0  0  0
    1.4672   51.2030   21.5674 H   0  0  0  0  0  0
   -0.3710   49.9576   21.0711 H   0  0  0  0  0  0
    0.2178   49.1900   23.3988 H   0  0  0  0  0  0
   -1.4686   49.5343   23.9307 H   0  0  0  0  0  0
   -0.5430   47.4802   21.8626 H   0  0  0  0  0  0
   -1.2340   47.1827   23.4346 H   0  0  0  0  0  0
   -2.4990   48.6851   20.0489 H   0  0  0  0  0  0
   -4.0131   48.9599   20.8496 H   0  0  0  0  0  0
   -3.1288   50.6290   22.3173 H   0  0  0  0  0  0
   -2.6228   51.0193   20.6324 H   0  0  0  0  0  0
   -5.6901   49.1986   23.0606 H   0  0  0  0  0  0
   -6.2991   50.6369   24.9670 H   0  0  0  0  0  0
   -5.2965   50.2320   27.1970 H   0  0  0  0  0  0
   -3.6881   48.3922   27.5133 H   0  0  0  0  0  0
  1  6  2  0  0  0
  1  2  1  0  0  0
  1 34  1  0  0  0
  2  3  2  0  0  0
  2 35  1  0  0  0
  3  4  1  0  0  0
  3 36  1  0  0  0
  4 10  2  0  0  0
  4  5  1  0  0  0
  5  6  1  0  0  0
  5  7  2  0  0  0
  6 37  1  0  0  0
  7  8  1  0  0  0
  7 38  1  0  0  0
  8  9  2  0  0  0
  8 39  1  0  0  0
  9 10  1  0  0  0
  9 40  1  0  0  0
 10 11  1  0  0  0
 11 12  1  0  0  0
 11 41  1  0  0  0
 11 42  1  0  0  0
 12 13  2  0  0  0
 12 14  1  0  0  0
 14 15  1  0  0  0
 14 43  1  0  0  0
 15 16  1  0  0  0
 15 44  1  0  0  0
 16 17  2  0  0  0
 16 18  1  0  0  0
 18 23  1  0  0  0
 18 19  1  0  0  0
 18 45  1  0  0  0
 19 20  1  0  0  0
 19 46  1  0  0  0
 19 47  1  0  0  0
 20 21  1  0  0  0
 20 48  1  0  0  0
 20 49  1  0  0  0
 21 22  1  0  0  0
 21 24  1  0  0  0
 22 23  1  0  0  0
 22 50  1  0  0  0
 22 51  1  0  0  0
 23 52  1  0  0  0
 23 53  1  0  0  0
 24 25  2  0  0  0
 24 26  2  0  0  0
 24 27  1  0  0  0
 27 32  2  0  0  0
 27 28  1  0  0  0
 28 29  2  0  0  0
 28 54  1  0  0  0
 29 30  1  0  0  0
 29 55  1  0  0  0
 30 31  2  0  0  0
 30 56  1  0  0  0
 31 32  1  0  0  0
 31 57  1  0  0  0
 32 33  1  0  0  0
M  END
> <i_i_glide_confnum>
76

> <i_i_glide_lignum>
2447

> <i_i_glide_posenum>
60

> <i_i_glide_rotatable_bonds>
8

> <i_m_Source_File_Index>
1798

> <b_m_subgroup_collapsed>
0

> <r_i_docking_score>
-5.66979

> <r_i_glide_ecoul>
-4.26388

> <r_i_glide_eff_state_penalty>
0

> <r_i_glide_einternal>
2.04576

> <r_i_glide_emodel>
-56.231

> <r_i_glide_energy>
-40.4399

> <r_i_glide_erotb>
0.641335

> <r_i_glide_esite>
-0.15412

> <r_i_glide_evdw>
-36.176

> <r_i_glide_gscore>
-5.66979

> <r_i_glide_hbond>
-0.245342

> <r_i_glide_ligand_efficiency>
-0.171812

> <r_i_glide_ligand_efficiency_ln>
-1.26093

> <r_i_glide_ligand_efficiency_sa>
-0.551093

> <r_i_glide_lipo>
-2.82554

> <r_i_glide_metal>
0

> <r_i_glide_rewards>
-0.637741

> <s_i_glide_gridfile>
wee1_glide-grid

> <s_m_Source_File>
wee1_decoys_glide_SP.sdf

> <s_m_Source_Path>
/Users/zhangxujun/Desktop

> <s_m_entry_id>
2073

> <s_m_entry_name>
wee1_decoys_glide_SP.1798

> <s_m_subgroup_title>
wee1_decoys_glide_SP

> <s_m_subgroupid>
wee1_decoys_glide_SP


$$$$
