ZINC53241253_1383
                    3D
 Schrodinger Suite 2024-2.
 52 55  0  0  1  0            999 V2000
    6.1375   54.0974   24.6218 C   0  0  0  0  0  0
    5.9114   54.0951   23.2507 C   0  0  0  0  0  0
    4.6351   54.1023   22.9653 N   0  0  0  0  0  0
    3.9955   54.1088   24.1482 N   0  0  0  0  0  0
    4.8778   54.1178   25.2162 C   0  0  0  0  0  0
    4.4790   54.2074   26.5467 N   0  0  0  0  0  0
    5.3144   54.4400   27.5893 C   0  0  0  0  0  0
    6.5377   54.5177   27.4757 O   0  0  0  0  0  0
    4.7355   54.6552   29.0099 C   0  0  0  0  0  0
    3.3313   54.2237   29.1784 N   0  0  0  0  0  0
    2.9888   52.9644   29.5328 C   0  0  0  0  0  0
    3.7122   52.0638   29.9638 O   0  0  0  0  0  0
    1.5118   52.8508   29.1920 C   0  0  1  0  0  0
    1.3210   51.7040   28.1732 C   0  0  0  0  0  0
   -0.1856   51.4756   28.0200 C   0  0  0  0  0  0
   -0.8577   51.6974   29.6805 S   0  0  0  0  0  0
    0.6378   52.4348   30.3952 C   0  0  0  0  0  0
    1.2443   54.1696   28.6988 N   0  0  0  0  0  0
    2.2738   55.0045   28.8425 C   0  0  0  0  0  0
    2.2051   56.2268   28.8821 O   0  0  0  0  0  0
    2.5391   54.3240   24.1509 C   0  0  0  0  0  0
    1.6356   53.2738   23.4307 C   0  0  0  0  0  0
    2.1071   52.8096   22.0300 C   0  0  0  0  0  0
    1.0579   51.9150   21.3408 C   0  0  0  0  0  0
    0.7116   50.6912   22.2156 C   0  0  0  0  0  0
    0.3218   51.0938   23.6528 C   0  0  0  0  0  0
    1.3709   52.0266   24.2912 C   0  0  0  0  0  0
    7.1004   54.1023   25.1087 H   0  0  0  0  0  0
    6.6685   54.1082   22.4822 H   0  0  0  0  0  0
    3.4912   54.1482   26.7289 H   0  0  0  0  0  0
    4.8633   55.6946   29.3098 H   0  0  0  0  0  0
    5.3584   54.0741   29.6803 H   0  0  0  0  0  0
    1.7824   50.7816   28.5333 H   0  0  0  0  0  0
    1.8099   51.9211   27.2246 H   0  0  0  0  0  0
   -0.4347   50.4798   27.6560 H   0  0  0  0  0  0
   -0.6434   52.2154   27.3624 H   0  0  0  0  0  0
    0.3497   53.2758   31.0273 H   0  0  0  0  0  0
    1.1165   51.6972   31.0372 H   0  0  0  0  0  0
    0.4078   54.3888   28.1765 H   0  0  0  0  0  0
    2.2067   54.4612   25.1783 H   0  0  0  0  0  0
    2.3791   55.2895   23.6827 H   0  0  0  0  0  0
    0.6693   53.7583   23.2848 H   0  0  0  0  0  0
    2.3085   53.6818   21.4085 H   0  0  0  0  0  0
    3.0598   52.2818   22.0922 H   0  0  0  0  0  0
    0.1552   52.4953   21.1395 H   0  0  0  0  0  0
    1.4315   51.5849   20.3698 H   0  0  0  0  0  0
   -0.0928   50.1169   21.7552 H   0  0  0  0  0  0
    1.5743   50.0245   22.2564 H   0  0  0  0  0  0
   -0.6487   51.5926   23.6379 H   0  0  0  0  0  0
    0.1967   50.2016   24.2673 H   0  0  0  0  0  0
    2.3044   51.5060   24.4808 H   0  0  0  0  0  0
    0.9977   52.3429   25.2616 H   0  0  0  0  0  0
  1  5  2  0  0  0
  1  2  1  0  0  0
  1 28  1  0  0  0
  2  3  2  0  0  0
  2 29  1  0  0  0
  3  4  1  0  0  0
  4  5  1  0  0  0
  4 21  1  0  0  0
  5  6  1  0  0  0
  6  7  1  0  0  0
  6 30  1  0  0  0
  7  8  2  0  0  0
  7  9  1  0  0  0
  9 10  1  0  0  0
  9 31  1  0  0  0
  9 32  1  0  0  0
 10 19  1  0  0  0
 10 11  1  0  0  0
 11 12  2  0  0  0
 11 13  1  0  0  0
 13 17  1  0  0  0
 13 14  1  0  0  0
 13 18  1  0  0  0
 14 15  1  0  0  0
 14 33  1  0  0  0
 14 34  1  0  0  0
 15 16  1  0  0  0
 15 35  1  0  0  0
 15 36  1  0  0  0
 16 17  1  0  0  0
 17 37  1  0  0  0
 17 38  1  0  0  0
 18 19  1  0  0  0
 18 39  1  0  0  0
 19 20  2  0  0  0
 21 22  1  0  0  0
 21 40  1  0  0  0
 21 41  1  0  0  0
 22 27  1  0  0  0
 22 23  1  0  0  0
 22 42  1  0  0  0
 23 24  1  0  0  0
 23 43  1  0  0  0
 23 44  1  0  0  0
 24 25  1  0  0  0
 24 45  1  0  0  0
 24 46  1  0  0  0
 25 26  1  0  0  0
 25 47  1  0  0  0
 25 48  1  0  0  0
 26 27  1  0  0  0
 26 49  1  0  0  0
 26 50  1  0  0  0
 27 51  1  0  0  0
 27 52  1  0  0  0
M  END
> <i_i_glide_confnum>
14

> <i_i_glide_lignum>
1384

> <i_i_glide_posenum>
77

> <i_i_glide_rotatable_bonds>
6

> <i_m_Source_File_Index>
455

> <b_m_subgroup_collapsed>
0

> <r_i_docking_score>
-6.36541

> <r_i_glide_ecoul>
-0.361404

> <r_i_glide_eff_state_penalty>
0

> <r_i_glide_einternal>
6.09221

> <r_i_glide_emodel>
-60.4911

> <r_i_glide_energy>
-45.3929

> <r_i_glide_erotb>
0.636653

> <r_i_glide_esite>
0

> <r_i_glide_evdw>
-45.0315

> <r_i_glide_gscore>
-6.36541

> <r_i_glide_hbond>
-0.134866

> <r_i_glide_ligand_efficiency>
-0.235756

> <r_i_glide_ligand_efficiency_ln>
-1.48176

> <r_i_glide_ligand_efficiency_sa>
-0.707268

> <r_i_glide_lipo>
-2.1563

> <r_i_glide_metal>
0

> <r_i_glide_rewards>
-2.40511

> <s_i_glide_gridfile>
wee1_glide-grid

> <s_m_Source_File>
wee1_decoys_glide_SP.sdf

> <s_m_Source_Path>
/Users/zhangxujun/Desktop

> <s_m_entry_id>
730

> <s_m_entry_name>
wee1_decoys_glide_SP.455

> <s_m_subgroup_title>
wee1_decoys_glide_SP

> <s_m_subgroupid>
wee1_decoys_glide_SP


$$$$
