ZINC00038517_1873
                    3D
 Schrodinger Suite 2024-2.
 43 45  0  0  1  0            999 V2000
    8.0709   57.4445   17.9290 C   0  0  0  0  0  0
    6.6999   57.7766   18.5501 C   0  0  0  0  0  0
    5.7521   56.5581   18.5082 C   0  0  0  0  0  0
    6.3098   55.2430   19.1273 C   0  0  0  0  0  0
    7.7336   54.9780   18.5489 C   0  0  0  0  0  0
    8.7079   56.1809   18.5403 C   0  0  0  0  0  0
    6.3757   55.3614   20.6774 C   0  0  0  0  0  0
    7.2032   56.0997   21.2101 O   0  0  0  0  0  0
    5.4649   54.6383   21.3702 N   0  0  0  0  0  0
    5.3578   54.4925   22.7601 C   0  0  0  0  0  0
    4.2101   54.0959   23.4842 C   0  0  0  0  0  0
    4.4181   54.1760   24.8931 C   0  0  0  0  0  0
    5.7446   54.4895   25.2224 C   0  0  0  0  0  0
    6.7044   54.7956   23.8271 S   0  0  0  0  0  0
    6.3060   54.6065   26.6322 C   0  0  0  0  0  0
    5.3861   53.8351   27.5956 C   0  0  0  0  0  0
    3.9132   54.2286   27.4002 C   0  0  0  0  0  0
    3.3723   53.9063   25.9862 C   0  0  0  0  0  0
    2.9288   53.7579   22.8841 C   0  0  0  0  0  0
    1.8548   54.0959   23.3736 O   0  0  0  0  0  0
    2.9854   53.0654   21.7444 N   0  0  0  0  0  0
    7.9493   57.2993   16.8546 H   0  0  0  0  0  0
    8.7465   58.2928   18.0442 H   0  0  0  0  0  0
    6.2477   58.6163   18.0191 H   0  0  0  0  0  0
    6.8271   58.1161   19.5775 H   0  0  0  0  0  0
    5.5000   56.3368   17.4701 H   0  0  0  0  0  0
    4.7552   56.7821   18.8883 H   0  0  0  0  0  0
    5.6488   54.3991   18.9176 H   0  0  0  0  0  0
    8.1769   54.0946   19.0095 H   0  0  0  0  0  0
    7.6018   54.6031   17.5336 H   0  0  0  0  0  0
    9.6095   55.9176   17.9851 H   0  0  0  0  0  0
    9.0515   56.3978   19.5522 H   0  0  0  0  0  0
    4.6808   54.2879   20.8393 H   0  0  0  0  0  0
    6.3577   55.6549   26.9300 H   0  0  0  0  0  0
    7.3203   54.2123   26.6933 H   0  0  0  0  0  0
    5.6926   54.0259   28.6252 H   0  0  0  0  0  0
    5.5024   52.7610   27.4395 H   0  0  0  0  0  0
    3.8047   55.2960   27.5929 H   0  0  0  0  0  0
    3.2935   53.7321   28.1477 H   0  0  0  0  0  0
    3.0636   52.8629   25.9439 H   0  0  0  0  0  0
    2.4713   54.4949   25.8205 H   0  0  0  0  0  0
    3.8402   52.6206   21.4484 H   0  0  0  0  0  0
    2.1276   52.8851   21.2444 H   0  0  0  0  0  0
  1  6  1  0  0  0
  1  2  1  0  0  0
  1 22  1  0  0  0
  1 23  1  0  0  0
  2  3  1  0  0  0
  2 24  1  0  0  0
  2 25  1  0  0  0
  3  4  1  0  0  0
  3 26  1  0  0  0
  3 27  1  0  0  0
  4  5  1  0  0  0
  4  7  1  0  0  0
  4 28  1  0  0  0
  5  6  1  0  0  0
  5 29  1  0  0  0
  5 30  1  0  0  0
  6 31  1  0  0  0
  6 32  1  0  0  0
  7  8  2  0  0  0
  7  9  1  0  0  0
  9 10  1  0  0  0
  9 33  1  0  0  0
 10 14  1  0  0  0
 10 11  2  0  0  0
 11 12  1  0  0  0
 11 19  1  0  0  0
 12 18  1  0  0  0
 12 13  2  0  0  0
 13 14  1  0  0  0
 13 15  1  0  0  0
 15 16  1  0  0  0
 15 34  1  0  0  0
 15 35  1  0  0  0
 16 17  1  0  0  0
 16 36  1  0  0  0
 16 37  1  0  0  0
 17 18  1  0  0  0
 17 38  1  0  0  0
 17 39  1  0  0  0
 18 40  1  0  0  0
 18 41  1  0  0  0
 19 20  2  0  0  0
 19 21  1  0  0  0
 21 42  1  0  0  0
 21 43  1  0  0  0
M  END
> <i_i_glide_confnum>
27

> <i_i_glide_lignum>
1874

> <i_i_glide_posenum>
367

> <i_i_glide_rotatable_bonds>
4

> <i_m_Source_File_Index>
53

> <b_m_subgroup_collapsed>
0

> <r_i_docking_score>
-6.19578

> <r_i_glide_ecoul>
-2.50798

> <r_i_glide_eff_state_penalty>
0

> <r_i_glide_einternal>
16.9988

> <r_i_glide_emodel>
-50.4533

> <r_i_glide_energy>
-41.2462

> <r_i_glide_erotb>
0.590181

> <r_i_glide_esite>
0

> <r_i_glide_evdw>
-38.7383

> <r_i_glide_gscore>
-6.19578

> <r_i_glide_hbond>
-0.0886243

> <r_i_glide_ligand_efficiency>
-0.295037

> <r_i_glide_ligand_efficiency_ln>
-1.53189

> <r_i_glide_ligand_efficiency_sa>
-0.813985

> <r_i_glide_lipo>
-2.51742

> <r_i_glide_metal>
0

> <r_i_glide_rewards>
-1.86681

> <s_i_glide_gridfile>
wee1_glide-grid

> <s_m_Source_File>
wee1_decoys_glide_SP.sdf

> <s_m_Source_Path>
/Users/zhangxujun/Desktop

> <s_m_entry_id>
328

> <s_m_entry_name>
wee1_decoys_glide_SP.53

> <s_m_subgroup_title>
wee1_decoys_glide_SP

> <s_m_subgroupid>
wee1_decoys_glide_SP


$$$$
