ZINC40520845_1640
                    3D
 Schrodinger Suite 2024-2.
 29 30  0  0  1  0            999 V2000
    3.8231   54.0955   26.5814 C   0  0  0  0  0  0
    4.5102   54.4567   25.4289 C   0  0  0  0  0  0
    5.9092   54.5362   25.4382 C   0  0  0  0  0  0
    6.5988   54.3279   26.6338 C   0  0  0  0  0  0
    5.9081   53.9679   27.7875 C   0  0  0  0  0  0
    4.5181   53.8254   27.7636 C   0  0  0  0  0  0
    3.8221   53.3746   28.9832 C   0  0  0  0  0  0
    2.4906   53.4289   29.2095 C   0  0  0  0  0  0
    1.8196   52.8964   30.4794 C   0  0  0  0  0  0
    0.6817   53.3729   30.6744 O   0  0  0  0  0  0
    2.5056   52.0968   31.1579 O   0  5  0  0  0  0
    6.6612   54.8459   24.2876 N   0  0  0  0  0  0
    6.3020   54.6237   23.0054 C   0  0  0  0  0  0
    5.3441   53.9310   22.6620 O   0  0  0  0  0  0
    7.1046   55.2965   22.1609 N   0  0  0  0  0  0
    6.9508   55.4584   20.7907 C   0  0  0  0  0  0
    7.8521   56.0965   20.0855 N   0  0  0  0  0  0
    7.5256   56.1794   18.7371 N   0  0  0  0  0  0
    6.3823   55.6002   18.4646 C   0  0  0  0  0  0
    5.5894   54.8968   19.8392 S   0  0  0  0  0  0
    2.7507   54.0027   26.5283 H   0  0  0  0  0  0
    3.9386   54.6487   24.5332 H   0  0  0  0  0  0
    7.6716   54.4125   26.6802 H   0  0  0  0  0  0
    6.4631   53.7863   28.6974 H   0  0  0  0  0  0
    4.4536   52.9389   29.7456 H   0  0  0  0  0  0
    1.8382   53.8648   28.4695 H   0  0  0  0  0  0
    7.5916   55.2036   24.4459 H   0  0  0  0  0  0
    7.9153   55.7479   22.5611 H   0  0  0  0  0  0
    5.9489   55.5517   17.4762 H   0  0  0  0  0  0
  1  6  2  0  0  0
  1  2  1  0  0  0
  1 21  1  0  0  0
  2  3  2  0  0  0
  2 22  1  0  0  0
  3  4  1  0  0  0
  3 12  1  0  0  0
  4  5  2  0  0  0
  4 23  1  0  0  0
  5  6  1  0  0  0
  5 24  1  0  0  0
  6  7  1  0  0  0
  7  8  2  0  0  0
  7 25  1  0  0  0
  8  9  1  0  0  0
  8 26  1  0  0  0
  9 10  2  0  0  0
  9 11  1  0  0  0
 12 13  1  0  0  0
 12 27  1  0  0  0
 13 14  2  0  0  0
 13 15  1  0  0  0
 15 16  1  0  0  0
 15 28  1  0  0  0
 16 20  1  0  0  0
 16 17  2  0  0  0
 17 18  1  0  0  0
 18 19  2  0  0  0
 19 20  1  0  0  0
 19 29  1  0  0  0
M  CHG  1  11  -1
M  END
> <i_i_glide_confnum>
15

> <i_i_glide_lignum>
1641

> <i_i_glide_posenum>
129

> <i_i_glide_rotatable_bonds>
6

> <i_m_Source_File_Index>
3197

> <b_m_subgroup_collapsed>
0

> <r_i_docking_score>
-5.83002

> <r_i_glide_ecoul>
-2.74381

> <r_i_glide_eff_state_penalty>
0

> <r_i_glide_einternal>
4.69621

> <r_i_glide_emodel>
-52.5204

> <r_i_glide_energy>
-38.6369

> <r_i_glide_erotb>
1.08775

> <r_i_glide_esite>
0

> <r_i_glide_evdw>
-35.8931

> <r_i_glide_gscore>
-5.83002

> <r_i_glide_hbond>
-0.493055

> <r_i_glide_ligand_efficiency>
-0.291501

> <r_i_glide_ligand_efficiency_ln>
-1.45906

> <r_i_glide_ligand_efficiency_sa>
-0.791256

> <r_i_glide_lipo>
-2.38175

> <r_i_glide_metal>
0

> <r_i_glide_rewards>
-1.83674

> <s_i_glide_gridfile>
wee1_glide-grid

> <s_m_Source_File>
wee1_decoys_glide_SP.sdf

> <s_m_Source_Path>
/Users/zhangxujun/Desktop

> <s_m_entry_id>
3472

> <s_m_entry_name>
wee1_decoys_glide_SP.3197

> <s_m_subgroup_title>
wee1_decoys_glide_SP

> <s_m_subgroupid>
wee1_decoys_glide_SP


$$$$
