ZINC08854971_4505
                    3D
 Schrodinger Suite 2024-2.
 52 56  0  0  1  0            999 V2000
    5.1881   54.1207   21.8756 C   0  0  0  0  0  0
    5.5048   54.8481   20.7293 C   0  0  0  0  0  0
    4.9388   54.4944   19.5050 C   0  0  0  0  0  0
    4.0579   53.4155   19.4242 C   0  0  0  0  0  0
    3.7404   52.6721   20.5681 C   0  0  0  0  0  0
    4.3127   53.0388   21.7932 C   0  0  0  0  0  0
    2.7796   51.4861   20.4389 C   0  0  0  0  0  0
    2.6164   50.7305   21.6469 O   0  0  0  0  0  0
    1.7320   51.1465   22.6261 C   0  0  0  0  0  0
    1.0903   52.3919   22.6315 C   0  0  0  0  0  0
    0.2571   52.7418   23.6888 C   0  0  0  0  0  0
    0.0603   51.8606   24.7584 C   0  0  0  0  0  0
    0.6765   50.6096   24.7437 C   0  0  0  0  0  0
    1.5043   50.2608   23.6804 C   0  0  0  0  0  0
   -0.8638   52.2622   25.9092 C   0  0  2  0  0  0
   -1.1330   53.2966   25.7207 H   0  0  0  0  0  0
   -0.3104   52.1738   27.3577 C   0  0  0  0  0  0
    0.9120   52.4183   28.0802 C   0  0  0  0  0  0
    0.7550   52.1133   29.3628 N   0  0  0  0  0  0
   -0.4965   51.6964   29.5239 N   0  0  0  0  0  0
   -0.8724   51.3732   30.4063 H   0  0  0  0  0  0
   -1.1544   51.6965   28.3447 C   0  0  0  0  0  0
   -2.4508   51.2693   28.2457 O   0  0  0  0  0  0
   -2.8944   51.1605   26.9664 C   0  0  0  0  0  0
   -2.2353   51.5583   25.8503 C   0  0  0  0  0  0
   -2.8489   51.3919   24.5701 C   0  0  0  0  0  0
   -3.3492   51.2925   23.5315 N   0  0  0  0  0  0
   -4.1201   50.5578   27.0213 N   0  0  0  0  0  0
    2.2560   52.9728   27.6232 C   0  0  0  0  0  0
    2.2962   53.6377   26.3888 C   0  0  0  0  0  0
    3.4745   54.1808   25.8761 C   0  0  0  0  0  0
    4.6526   54.0972   26.6069 C   0  0  0  0  0  0
    4.6463   53.4631   27.8440 C   0  0  0  0  0  0
    3.4735   52.8987   28.3549 C   0  0  0  0  0  0
    3.6420   52.0918   29.8806 Cl  0  0  0  0  0  0
    6.1108   54.7817   25.9850 Cl  0  0  0  0  0  0
    3.5055   53.1028   18.2298 F   0  0  0  0  0  0
    5.6202   54.3949   22.8271 H   0  0  0  0  0  0
    6.1850   55.6847   20.7887 H   0  0  0  0  0  0
    5.1763   55.0552   18.6141 H   0  0  0  0  0  0
    4.0741   52.4969   22.6911 H   0  0  0  0  0  0
    3.1943   50.8025   19.6958 H   0  0  0  0  0  0
    1.8181   51.8126   20.0376 H   0  0  0  0  0  0
    1.2406   53.1056   21.8344 H   0  0  0  0  0  0
   -0.2241   53.7081   23.6816 H   0  0  0  0  0  0
    0.5180   49.9110   25.5529 H   0  0  0  0  0  0
    1.9891   49.2972   23.6781 H   0  0  0  0  0  0
   -4.6380   50.3836   26.1735 H   0  0  0  0  0  0
   -4.3243   49.9615   27.8101 H   0  0  0  0  0  0
    1.3979   53.7745   25.8159 H   0  0  0  0  0  0
    3.4657   54.6826   24.9189 H   0  0  0  0  0  0
    5.5661   53.3929   28.4074 H   0  0  0  0  0  0
  1  6  2  0  0  0
  1  2  1  0  0  0
  1 38  1  0  0  0
  2  3  2  0  0  0
  2 39  1  0  0  0
  3  4  1  0  0  0
  3 40  1  0  0  0
  4  5  2  0  0  0
  4 37  1  0  0  0
  5  6  1  0  0  0
  5  7  1  0  0  0
  6 41  1  0  0  0
  7  8  1  0  0  0
  7 42  1  0  0  0
  7 43  1  0  0  0
  8  9  1  0  0  0
  9 14  2  0  0  0
  9 10  1  0  0  0
 10 11  2  0  0  0
 10 44  1  0  0  0
 11 12  1  0  0  0
 11 45  1  0  0  0
 12 13  2  0  0  0
 12 15  1  0  0  0
 13 14  1  0  0  0
 13 46  1  0  0  0
 14 47  1  0  0  0
 15 16  1  0  0  0
 15 25  1  0  0  0
 15 17  1  0  0  0
 17 22  2  0  0  0
 17 18  1  0  0  0
 18 19  2  0  0  0
 18 29  1  0  0  0
 19 20  1  0  0  0
 20 21  1  0  0  0
 20 22  1  0  0  0
 22 23  1  0  0  0
 23 24  1  0  0  0
 24 25  2  0  0  0
 24 28  1  0  0  0
 25 26  1  0  0  0
 26 27  3  0  0  0
 28 48  1  0  0  0
 28 49  1  0  0  0
 29 34  2  0  0  0
 29 30  1  0  0  0
 30 31  2  0  0  0
 30 50  1  0  0  0
 31 32  1  0  0  0
 31 51  1  0  0  0
 32 33  2  0  0  0
 32 36  1  0  0  0
 33 34  1  0  0  0
 33 52  1  0  0  0
 34 35  1  0  0  0
M  END
> <i_i_glide_confnum>
118

> <i_i_glide_lignum>
4506

> <i_i_glide_posenum>
47

> <i_i_glide_rotatable_bonds>
6

> <i_m_Source_File_Index>
4367

> <b_m_subgroup_collapsed>
0

> <r_i_docking_score>
-5.28607

> <r_i_glide_ecoul>
-2.94432

> <r_i_glide_eff_state_penalty>
0

> <r_i_glide_einternal>
10.1491

> <r_i_glide_emodel>
-56.9776

> <r_i_glide_energy>
-47.3036

> <r_i_glide_erotb>
0.397558

> <r_i_glide_esite>
-0.138357

> <r_i_glide_evdw>
-44.3593

> <r_i_glide_gscore>
-5.28607

> <r_i_glide_hbond>
0

> <r_i_glide_ligand_efficiency>
-0.15103

> <r_i_glide_ligand_efficiency_ln>
-1.16041

> <r_i_glide_ligand_efficiency_sa>
-0.494031

> <r_i_glide_lipo>
-2.84537

> <r_i_glide_metal>
0

> <r_i_glide_rewards>
-0.0402852

> <s_i_glide_gridfile>
wee1_glide-grid

> <s_m_Source_File>
wee1_decoys_glide_SP.sdf

> <s_m_Source_Path>
/Users/zhangxujun/Desktop

> <s_m_entry_id>
4642

> <s_m_entry_name>
wee1_decoys_glide_SP.4367

> <s_m_subgroup_title>
wee1_decoys_glide_SP

> <s_m_subgroupid>
wee1_decoys_glide_SP


$$$$
