ZINC39426043_4401
                    3D
 Schrodinger Suite 2024-2.
 50 53  0  0  1  0            999 V2000
    2.1354   52.3378   22.3994 C   0  0  0  0  0  0
    1.0404   51.6491   23.2423 C   0  0  0  0  0  0
    0.9273   52.3936   24.6063 C   0  0  0  0  0  0
   -0.3489   52.0090   25.4008 C   0  0  0  0  0  0
   -1.4675   51.5696   24.7458 C   0  0  0  0  0  0
   -2.7386   51.1070   25.5034 C   0  0  2  0  0  0
   -3.5170   51.8024   25.1929 H   0  0  0  0  0  0
   -2.5831   51.2745   27.0120 C   0  0  0  0  0  0
   -1.4217   51.6516   27.5842 C   0  0  0  0  0  0
   -0.3009   52.0141   26.8140 N   0  0  0  0  0  0
    0.8459   52.4717   27.4574 C   0  0  0  0  0  0
    1.3359   53.6885   27.3948 N   0  0  0  0  0  0
    2.5031   53.8364   28.1258 N   0  0  0  0  0  0
    2.8569   52.7303   28.7328 C   0  0  0  0  0  0
    1.7711   51.4125   28.4815 S   0  0  0  0  0  0
    4.3044   52.4968   29.6757 S   0  0  0  0  0  0
    5.4235   53.5009   28.6432 C   0  0  0  0  0  0
   -1.2960   51.6967   28.9604 N   0  0  0  0  0  0
   -3.7229   50.9690   27.8223 C   0  0  0  0  0  0
   -4.6559   50.7843   28.4814 N   0  0  0  0  0  0
   -3.2391   49.6971   25.1254 C   0  0  0  0  0  0
   -2.3600   48.6086   25.2587 C   0  0  0  0  0  0
   -2.7753   47.3146   24.9526 C   0  0  0  0  0  0
   -4.0744   47.0848   24.5067 C   0  0  0  0  0  0
   -4.9579   48.1531   24.3693 C   0  0  0  0  0  0
   -4.5538   49.4544   24.6761 C   0  0  0  0  0  0
   -5.7211   50.7192   24.4870 Cl  0  0  0  0  0  0
   -1.0888   48.7967   25.6817 F   0  0  0  0  0  0
   -1.5515   51.5367   23.2655 C   0  0  0  0  0  0
   -2.6254   51.4587   22.6694 O   0  0  0  0  0  0
   -0.2819   51.8467   22.4681 C   0  0  0  0  0  0
    1.3127   50.1376   23.4534 C   0  0  0  0  0  0
    2.2401   51.8664   21.4213 H   0  0  0  0  0  0
    1.9224   53.3949   22.2268 H   0  0  0  0  0  0
    3.1075   52.2827   22.8821 H   0  0  0  0  0  0
    0.9280   53.4796   24.5014 H   0  0  0  0  0  0
    1.8322   52.0979   25.1382 H   0  0  0  0  0  0
    6.4666   53.2968   28.8818 H   0  0  0  0  0  0
    5.2766   53.2841   27.5838 H   0  0  0  0  0  0
    5.2491   54.5643   28.8154 H   0  0  0  0  0  0
   -1.9431   51.1703   29.5333 H   0  0  0  0  0  0
   -0.4243   51.9606   29.3931 H   0  0  0  0  0  0
   -2.0793   46.4978   25.0733 H   0  0  0  0  0  0
   -4.4034   46.0840   24.2726 H   0  0  0  0  0  0
   -5.9667   47.9700   24.0283 H   0  0  0  0  0  0
   -0.3704   52.8967   22.2108 H   0  0  0  0  0  0
   -0.3052   51.2908   21.5310 H   0  0  0  0  0  0
    1.2923   49.5975   22.5061 H   0  0  0  0  0  0
    2.3004   49.9698   23.8861 H   0  0  0  0  0  0
    0.5869   49.6625   24.1107 H   0  0  0  0  0  0
  1  2  1  0  0  0
  1 33  1  0  0  0
  1 34  1  0  0  0
  1 35  1  0  0  0
  2 31  1  0  0  0
  2  3  1  0  0  0
  2 32  1  0  0  0
  3  4  1  0  0  0
  3 36  1  0  0  0
  3 37  1  0  0  0
  4 10  1  0  0  0
  4  5  2  0  0  0
  5  6  1  0  0  0
  5 29  1  0  0  0
  6  7  1  0  0  0
  6  8  1  0  0  0
  6 21  1  0  0  0
  8  9  2  0  0  0
  8 19  1  0  0  0
  9 10  1  0  0  0
  9 18  1  0  0  0
 10 11  1  0  0  0
 11 15  1  0  0  0
 11 12  2  0  0  0
 12 13  1  0  0  0
 13 14  2  0  0  0
 14 15  1  0  0  0
 14 16  1  0  0  0
 16 17  1  0  0  0
 17 38  1  0  0  0
 17 39  1  0  0  0
 17 40  1  0  0  0
 18 41  1  0  0  0
 18 42  1  0  0  0
 19 20  3  0  0  0
 21 26  2  0  0  0
 21 22  1  0  0  0
 22 23  2  0  0  0
 22 28  1  0  0  0
 23 24  1  0  0  0
 23 43  1  0  0  0
 24 25  2  0  0  0
 24 44  1  0  0  0
 25 26  1  0  0  0
 25 45  1  0  0  0
 26 27  1  0  0  0
 29 30  2  0  0  0
 29 31  1  0  0  0
 31 46  1  0  0  0
 31 47  1  0  0  0
 32 48  1  0  0  0
 32 49  1  0  0  0
 32 50  1  0  0  0
M  END
> <i_i_glide_confnum>
5

> <i_i_glide_lignum>
4402

> <i_i_glide_posenum>
14

> <i_i_glide_rotatable_bonds>
4

> <i_m_Source_File_Index>
1399

> <b_m_subgroup_collapsed>
0

> <r_i_docking_score>
-3.21026

> <r_i_glide_ecoul>
-0.554086

> <r_i_glide_eff_state_penalty>
0

> <r_i_glide_einternal>
3.9807

> <r_i_glide_emodel>
-39.6292

> <r_i_glide_energy>
-34.4366

> <r_i_glide_erotb>
0.178723

> <r_i_glide_esite>
-0.247971

> <r_i_glide_evdw>
-33.8825

> <r_i_glide_gscore>
-3.21026

> <r_i_glide_hbond>
0

> <r_i_glide_ligand_efficiency>
-0.103557

> <r_i_glide_ligand_efficiency_ln>
-0.724012

> <r_i_glide_ligand_efficiency_sa>
-0.325311

> <r_i_glide_lipo>
-1.18404

> <r_i_glide_metal>
0

> <r_i_glide_rewards>
-0.17973

> <s_i_glide_gridfile>
wee1_glide-grid

> <s_m_Source_File>
wee1_decoys_glide_SP.sdf

> <s_m_Source_Path>
/Users/zhangxujun/Desktop

> <s_m_entry_id>
1674

> <s_m_entry_name>
wee1_decoys_glide_SP.1399

> <s_m_subgroup_title>
wee1_decoys_glide_SP

> <s_m_subgroupid>
wee1_decoys_glide_SP


$$$$
