ZINC39852041_4647
                    3D
 Schrodinger Suite 2024-2.
 62 65  0  0  1  0            999 V2000
   -0.1008   50.6790   25.9240 C   0  0  0  0  0  0
    0.4190   51.2549   27.2479 C   0  0  0  0  0  0
   -0.7151   51.7230   28.1834 C   0  0  0  0  0  0
   -0.2605   52.1969   29.5793 C   0  0  0  0  0  0
    0.6311   53.3598   29.5473 N   0  0  0  0  0  0
    1.9578   53.3072   29.7115 C   0  0  0  0  0  0
    2.3970   52.6362   30.6496 O   0  0  0  0  0  0
    2.6827   53.9470   28.8384 N   0  5  0  0  0  0
    4.2477   53.8046   28.8270 S   0  0  0  0  0  0
    4.9372   54.8967   29.5172 O   0  0  0  0  0  0
    4.7439   52.4456   29.0651 O   0  0  0  0  0  0
    4.6306   54.0800   27.0827 C   0  0  0  0  0  0
    3.6585   53.9671   26.0812 C   0  0  0  0  0  0
    4.0109   54.1000   24.7434 C   0  0  0  0  0  0
    5.3440   54.3426   24.3870 C   0  0  0  0  0  0
    6.3083   54.4941   25.3856 C   0  0  0  0  0  0
    5.9541   54.3477   26.7276 C   0  0  0  0  0  0
    5.7718   54.4965   23.0541 N   0  0  0  0  0  0
    5.1139   54.1513   21.9246 C   0  0  0  0  0  0
    4.1446   53.3939   21.8721 O   0  0  0  0  0  0
    5.5964   54.8082   20.7342 C   0  0  0  0  0  0
    6.8558   55.2944   20.3366 C   0  0  0  0  0  0
    6.7164   55.6248   18.9685 C   0  0  0  0  0  0
    5.3771   55.4214   18.6576 C   0  0  0  0  0  0
    4.7156   54.8948   19.7063 O   0  0  0  0  0  0
    4.6612   55.6743   17.3442 C   0  0  0  0  0  0
    5.7263   55.8291   16.2353 C   0  0  0  0  0  0
    6.9390   56.6731   16.6882 C   0  0  0  0  0  0
    7.7164   56.0451   17.8833 C   0  0  0  0  0  0
    8.9428   57.2527   18.4815 S   0  0  0  0  0  0
   10.2708   56.7268   17.3807 C   0  0  0  0  0  0
   10.3242   55.2057   17.4802 C   0  0  0  0  0  0
    8.6389   54.5727   17.3168 S   0  0  0  0  0  0
    8.1454   55.2988   21.1373 C   0  0  0  0  0  0
    0.7208   50.3491   25.2866 H   0  0  0  0  0  0
   -0.6701   51.4247   25.3693 H   0  0  0  0  0  0
   -0.7518   49.8198   26.0972 H   0  0  0  0  0  0
    1.0188   50.4971   27.7484 H   0  0  0  0  0  0
    1.0956   52.0825   27.0392 H   0  0  0  0  0  0
   -1.2865   52.5143   27.6984 H   0  0  0  0  0  0
   -1.4167   50.8991   28.3217 H   0  0  0  0  0  0
   -1.1242   52.4408   30.1933 H   0  0  0  0  0  0
    0.2320   51.3624   30.0789 H   0  0  0  0  0  0
    0.1963   54.2485   29.7315 H   0  0  0  0  0  0
    2.6266   53.7556   26.3194 H   0  0  0  0  0  0
    3.2316   54.0157   24.0020 H   0  0  0  0  0  0
    7.3358   54.6918   25.1262 H   0  0  0  0  0  0
    6.7139   54.4256   27.4930 H   0  0  0  0  0  0
    6.6376   54.9975   22.9412 H   0  0  0  0  0  0
    3.9870   54.8525   17.0968 H   0  0  0  0  0  0
    4.0609   56.5801   17.4133 H   0  0  0  0  0  0
    6.0684   54.8420   15.9225 H   0  0  0  0  0  0
    5.2713   56.2705   15.3482 H   0  0  0  0  0  0
    7.6142   56.8277   15.8451 H   0  0  0  0  0  0
    6.5799   57.6676   16.9622 H   0  0  0  0  0  0
   10.0379   57.0474   16.3657 H   0  0  0  0  0  0
   11.2063   57.1894   17.6910 H   0  0  0  0  0  0
   10.9586   54.7641   16.7115 H   0  0  0  0  0  0
   10.7037   54.8854   18.4461 H   0  0  0  0  0  0
    9.0159   55.1524   20.4976 H   0  0  0  0  0  0
    8.2932   56.2344   21.6730 H   0  0  0  0  0  0
    8.1901   54.4974   21.8731 H   0  0  0  0  0  0
  1  2  1  0  0  0
  1 35  1  0  0  0
  1 36  1  0  0  0
  1 37  1  0  0  0
  2  3  1  0  0  0
  2 38  1  0  0  0
  2 39  1  0  0  0
  3  4  1  0  0  0
  3 40  1  0  0  0
  3 41  1  0  0  0
  4  5  1  0  0  0
  4 42  1  0  0  0
  4 43  1  0  0  0
  5  6  1  0  0  0
  5 44  1  0  0  0
  6  7  2  0  0  0
  6  8  1  0  0  0
  8  9  1  0  0  0
  9 10  2  0  0  0
  9 11  2  0  0  0
  9 12  1  0  0  0
 12 17  2  0  0  0
 12 13  1  0  0  0
 13 14  2  0  0  0
 13 45  1  0  0  0
 14 15  1  0  0  0
 14 46  1  0  0  0
 15 16  2  0  0  0
 15 18  1  0  0  0
 16 17  1  0  0  0
 16 47  1  0  0  0
 17 48  1  0  0  0
 18 19  1  0  0  0
 18 49  1  0  0  0
 19 20  2  0  0  0
 19 21  1  0  0  0
 21 25  1  0  0  0
 21 22  2  0  0  0
 22 23  1  0  0  0
 22 34  1  0  0  0
 23 29  1  0  0  0
 23 24  2  0  0  0
 24 25  1  0  0  0
 24 26  1  0  0  0
 26 27  1  0  0  0
 26 50  1  0  0  0
 26 51  1  0  0  0
 27 28  1  0  0  0
 27 52  1  0  0  0
 27 53  1  0  0  0
 28 29  1  0  0  0
 28 54  1  0  0  0
 28 55  1  0  0  0
 29 33  1  0  0  0
 29 30  1  0  0  0
 30 31  1  0  0  0
 31 32  1  0  0  0
 31 56  1  0  0  0
 31 57  1  0  0  0
 32 33  1  0  0  0
 32 58  1  0  0  0
 32 59  1  0  0  0
 34 60  1  0  0  0
 34 61  1  0  0  0
 34 62  1  0  0  0
M  CHG  1   8  -1
M  END
> <i_i_glide_confnum>
746

> <i_i_glide_lignum>
4648

> <i_i_glide_posenum>
183

> <i_i_glide_rotatable_bonds>
10

> <i_m_Source_File_Index>
4238

> <b_m_subgroup_collapsed>
0

> <r_i_docking_score>
-1.5442

> <r_i_glide_ecoul>
-3.23496

> <r_i_glide_eff_state_penalty>
0

> <r_i_glide_einternal>
17.3358

> <r_i_glide_emodel>
-38.0143

> <r_i_glide_energy>
-52.5256

> <r_i_glide_erotb>
0.677489

> <r_i_glide_esite>
0

> <r_i_glide_evdw>
-49.2907

> <r_i_glide_gscore>
-1.5442

> <r_i_glide_hbond>
-0.107389

> <r_i_glide_ligand_efficiency>
-0.0454177

> <r_i_glide_ligand_efficiency_ln>
-0.341157

> <r_i_glide_ligand_efficiency_sa>
-0.147136

> <r_i_glide_lipo>
-2.26997

> <r_i_glide_metal>
0

> <r_i_glide_rewards>
3.10544

> <s_i_glide_gridfile>
wee1_glide-grid

> <s_m_Source_File>
wee1_decoys_glide_SP.sdf

> <s_m_Source_Path>
/Users/zhangxujun/Desktop

> <s_m_entry_id>
4513

> <s_m_entry_name>
wee1_decoys_glide_SP.4238

> <s_m_subgroup_title>
wee1_decoys_glide_SP

> <s_m_subgroupid>
wee1_decoys_glide_SP


$$$$
