ZINC33630251_3180
                    3D
 Schrodinger Suite 2024-2.
 67 72  0  0  1  0            999 V2000
   -0.7537   53.1402   23.6817 C   0  0  0  0  0  0
   -0.4547   51.8869   24.4918 C   0  0  0  0  0  0
   -0.8149   51.8871   25.8432 C   0  0  0  0  0  0
   -0.5973   50.7628   26.6347 C   0  0  0  0  0  0
   -0.0283   49.6196   26.0817 C   0  0  0  0  0  0
    0.3209   49.5971   24.7369 C   0  0  0  0  0  0
    0.1274   50.7264   23.9273 C   0  0  0  0  0  0
    0.5789   50.6617   22.5882 N   0  0  0  0  0  0
    1.5487   51.4878   22.0810 C   0  0  0  0  0  0
    2.1755   52.3701   22.6631 O   0  0  0  0  0  0
    1.6079   51.1700   20.5970 C   0  0  1  0  0  0
    0.8918   51.8497   20.1252 H   0  0  0  0  0  0
    2.8453   51.1314   19.7000 C   0  0  1  0  0  0
    3.6673   50.5481   20.1181 H   0  0  0  0  0  0
    2.3044   50.1872   18.5747 N   0  3  0  0  0  0
    1.0835   49.3602   19.1244 C   0  0  1  0  0  0
    1.2366   49.7470   20.6108 C   0  0  2  0  0  0
    2.0274   49.0933   21.0081 H   0  0  0  0  0  0
    0.1800   49.7016   21.6929 C   0  0  0  0  0  0
   -0.7577   48.9083   21.7667 O   0  0  0  0  0  0
   -0.2975   49.8063   18.5264 C   0  0  0  0  0  0
   -0.3676   49.8351   17.0016 C   0  0  0  0  0  0
   -0.7083   48.6791   16.2941 C   0  0  0  0  0  0
   -0.7620   48.7053   14.9031 C   0  0  0  0  0  0
   -0.4793   49.8881   14.2240 C   0  0  0  0  0  0
   -0.1488   51.0486   14.9235 C   0  0  0  0  0  0
   -0.0989   51.0231   16.3145 C   0  0  0  0  0  0
    1.3384   47.8420   18.8023 C   0  0  0  0  0  0
    0.5413   47.0164   19.3030 O   0  0  0  0  0  0
    2.3016   47.4979   18.0823 O   0  5  0  0  0  0
    3.3830   52.4844   19.1939 C   0  0  0  0  0  0
    3.0030   52.9955   17.9512 C   0  0  0  0  0  0
    3.4519   54.2307   17.5079 C   0  0  0  0  0  0
    4.3032   55.0208   18.2861 C   0  0  0  0  0  0
    4.7315   54.5272   19.5516 C   0  0  0  0  0  0
    4.2753   53.2498   20.0168 C   0  0  0  0  0  0
    4.7217   52.8116   21.2973 C   0  0  0  0  0  0
    5.5045   53.6241   22.1086 C   0  0  0  0  0  0
    5.9472   54.8557   21.6515 C   0  0  0  0  0  0
    5.5915   55.2967   20.3836 C   0  0  0  0  0  0
    4.7449   56.2764   17.9018 O   0  0  0  0  0  0
    4.2757   56.8505   16.6868 C   0  0  0  0  0  0
   -1.6147   53.6750   24.0817 H   0  0  0  0  0  0
    0.1064   53.8106   23.6821 H   0  0  0  0  0  0
   -1.0110   52.8946   22.6520 H   0  0  0  0  0  0
   -1.2699   52.7602   26.2887 H   0  0  0  0  0  0
   -0.8825   50.7619   27.6780 H   0  0  0  0  0  0
    0.1383   48.7446   26.6942 H   0  0  0  0  0  0
    0.7701   48.6981   24.3356 H   0  0  0  0  0  0
    2.0194   50.7042   17.7585 H   0  0  0  0  0  0
   -0.5759   50.7979   18.8818 H   0  0  0  0  0  0
   -1.1020   49.1695   18.9008 H   0  0  0  0  0  0
   -0.9239   47.7590   16.8189 H   0  0  0  0  0  0
   -1.0201   47.8112   14.3546 H   0  0  0  0  0  0
   -0.5180   49.9060   13.1441 H   0  0  0  0  0  0
    0.0637   51.9622   14.3885 H   0  0  0  0  0  0
    0.1444   51.9258   16.8541 H   0  0  0  0  0  0
    2.3432   52.4450   17.3020 H   0  0  0  0  0  0
    3.1113   54.5674   16.5415 H   0  0  0  0  0  0
    4.4293   51.8480   21.6805 H   0  0  0  0  0  0
    5.7960   53.2795   23.0904 H   0  0  0  0  0  0
    6.5798   55.4665   22.2783 H   0  0  0  0  0  0
    5.9456   56.2581   20.0388 H   0  0  0  0  0  0
    4.7011   57.8481   16.5729 H   0  0  0  0  0  0
    4.5778   56.2598   15.8196 H   0  0  0  0  0  0
    3.1892   56.9588   16.6872 H   0  0  0  0  0  0
    3.0361   49.5661   18.2257 H   0  0  0  0  0  0
  1  2  1  0  0  0
  1 43  1  0  0  0
  1 44  1  0  0  0
  1 45  1  0  0  0
  2  7  2  0  0  0
  2  3  1  0  0  0
  3  4  2  0  0  0
  3 46  1  0  0  0
  4  5  1  0  0  0
  4 47  1  0  0  0
  5  6  2  0  0  0
  5 48  1  0  0  0
  6  7  1  0  0  0
  6 49  1  0  0  0
  7  8  1  0  0  0
  8 19  1  0  0  0
  8  9  1  0  0  0
  9 10  2  0  0  0
  9 11  1  0  0  0
 11 12  1  0  0  0
 11 17  1  0  0  0
 11 13  1  0  0  0
 13 14  1  0  0  0
 13 15  1  0  0  0
 13 31  1  0  0  0
 15 16  1  0  0  0
 15 50  1  0  0  0
 15 67  1  0  0  0
 16 17  1  0  0  0
 16 21  1  0  0  0
 16 28  1  0  0  0
 17 18  1  0  0  0
 17 19  1  0  0  0
 19 20  2  0  0  0
 21 22  1  0  0  0
 21 51  1  0  0  0
 21 52  1  0  0  0
 22 27  2  0  0  0
 22 23  1  0  0  0
 23 24  2  0  0  0
 23 53  1  0  0  0
 24 25  1  0  0  0
 24 54  1  0  0  0
 25 26  2  0  0  0
 25 55  1  0  0  0
 26 27  1  0  0  0
 26 56  1  0  0  0
 27 57  1  0  0  0
 28 29  2  0  0  0
 28 30  1  0  0  0
 31 36  2  0  0  0
 31 32  1  0  0  0
 32 33  2  0  0  0
 32 58  1  0  0  0
 33 34  1  0  0  0
 33 59  1  0  0  0
 34 35  2  0  0  0
 34 41  1  0  0  0
 35 40  1  0  0  0
 35 36  1  0  0  0
 36 37  1  0  0  0
 37 38  2  0  0  0
 37 60  1  0  0  0
 38 39  1  0  0  0
 38 61  1  0  0  0
 39 40  2  0  0  0
 39 62  1  0  0  0
 40 63  1  0  0  0
 41 42  1  0  0  0
 42 64  1  0  0  0
 42 65  1  0  0  0
 42 66  1  0  0  0
M  CHG  2  15   1  30  -1
M  END
> <i_i_glide_confnum>
42

> <i_i_glide_lignum>
3181

> <i_i_glide_posenum>
251

> <i_i_glide_rotatable_bonds>
6

> <i_m_Source_File_Index>
2365

> <b_m_subgroup_collapsed>
0

> <r_i_docking_score>
-2.95064

> <r_i_glide_ecoul>
-2.07874

> <r_i_glide_eff_state_penalty>
0

> <r_i_glide_einternal>
0.383265

> <r_i_glide_emodel>
-43.7706

> <r_i_glide_energy>
-34.82

> <r_i_glide_erotb>
0.303353

> <r_i_glide_esite>
-0.13858

> <r_i_glide_evdw>
-32.7412

> <r_i_glide_gscore>
-2.95064

> <r_i_glide_hbond>
-0.17485

> <r_i_glide_ligand_efficiency>
-0.0756576

> <r_i_glide_ligand_efficiency_ln>
-0.632702

> <r_i_glide_ligand_efficiency_sa>
-0.256571

> <r_i_glide_lipo>
-0.819569

> <r_i_glide_metal>
0

> <r_i_glide_rewards>
-0.172126

> <s_i_glide_gridfile>
wee1_glide-grid

> <s_m_Source_File>
wee1_decoys_glide_SP.sdf

> <s_m_Source_Path>
/Users/zhangxujun/Desktop

> <s_m_entry_id>
2640

> <s_m_entry_name>
wee1_decoys_glide_SP.2365

> <s_m_subgroup_title>
wee1_decoys_glide_SP

> <s_m_subgroupid>
wee1_decoys_glide_SP


$$$$
