ZINC20116205_2615
                    3D
 Schrodinger Suite 2024-2.
 51 53  0  0  1  0            999 V2000
   -5.6298   46.6243   23.9104 C   0  0  0  0  0  0
   -5.9117   45.7616   24.9671 C   0  0  0  0  0  0
   -5.1087   45.7630   26.1149 C   0  0  0  0  0  0
   -4.0063   46.6270   26.1825 C   0  0  0  0  0  0
   -3.7107   47.4884   25.1215 C   0  0  0  0  0  0
   -4.5423   47.4896   23.9889 C   0  0  0  0  0  0
   -2.6130   48.3543   25.2841 N   0  0  0  0  0  0
   -1.9325   49.0122   24.3161 C   0  0  0  0  0  0
   -2.0694   48.7825   23.1111 O   0  0  0  0  0  0
   -0.9571   50.0796   24.7714 C   0  0  0  0  0  0
   -0.0967   50.6612   23.8286 C   0  0  0  0  0  0
    0.8226   51.6275   24.2102 C   0  0  0  0  0  0
    0.8933   52.0368   25.5388 C   0  0  0  0  0  0
    0.0313   51.4838   26.4921 C   0  0  0  0  0  0
   -0.8901   50.5138   26.1075 C   0  0  0  0  0  0
    1.9476   52.8976   25.8457 N   0  0  0  0  0  0
    2.1432   53.6807   26.9245 C   0  0  0  0  0  0
    1.2856   53.8860   27.7830 O   0  0  0  0  0  0
    3.5622   54.3036   27.0837 C   0  0  2  0  0  0
    3.3871   55.2964   27.5000 H   0  0  0  0  0  0
    4.2473   54.4947   25.6845 C   0  0  0  0  0  0
    5.6899   55.0399   25.7866 C   0  0  0  0  0  0
    6.5547   54.2957   26.8254 C   0  0  0  0  0  0
    5.8428   54.2040   28.1842 C   0  0  0  0  0  0
    4.4942   53.4658   28.0268 C   0  0  1  0  0  0
    4.6558   52.4953   27.5685 H   0  0  0  0  0  0
    3.8993   53.2211   29.4379 C   0  0  0  0  0  0
    3.9044   52.0482   29.8755 O   0  0  0  0  0  0
    3.5033   54.2207   30.0816 O   0  5  0  0  0  0
   -5.4615   44.8482   27.2818 C   0  0  0  0  0  0
   -4.9875   43.6295   27.0305 F   0  0  0  0  0  0
   -6.7828   44.7674   27.4430 F   0  0  0  0  0  0
   -4.9389   45.3000   28.4240 F   0  0  0  0  0  0
   -6.2637   46.6366   23.0359 H   0  0  0  0  0  0
   -6.7678   45.1051   24.8979 H   0  0  0  0  0  0
   -3.3815   46.6368   27.0673 H   0  0  0  0  0  0
   -4.3761   48.1663   23.1663 H   0  0  0  0  0  0
   -2.2962   48.4966   26.2371 H   0  0  0  0  0  0
   -0.1177   50.3528   22.7936 H   0  0  0  0  0  0
    1.4930   52.0342   23.4684 H   0  0  0  0  0  0
    0.0939   51.7514   27.5377 H   0  0  0  0  0  0
   -1.5278   50.0976   26.8757 H   0  0  0  0  0  0
    2.6796   52.9320   25.1548 H   0  0  0  0  0  0
    4.3750   53.5311   25.1852 H   0  0  0  0  0  0
    3.6862   55.1890   25.0585 H   0  0  0  0  0  0
    5.6600   56.0953   26.0395 H   0  0  0  0  0  0
    6.1714   54.9897   24.8081 H   0  0  0  0  0  0
    7.5044   54.8119   26.9520 H   0  0  0  0  0  0
    6.7934   53.2959   26.4585 H   0  0  0  0  0  0
    5.6976   55.2171   28.5667 H   0  0  0  0  0  0
    6.4979   53.6820   28.8815 H   0  0  0  0  0  0
  1  6  2  0  0  0
  1  2  1  0  0  0
  1 34  1  0  0  0
  2  3  2  0  0  0
  2 35  1  0  0  0
  3  4  1  0  0  0
  3 30  1  0  0  0
  4  5  2  0  0  0
  4 36  1  0  0  0
  5  6  1  0  0  0
  5  7  1  0  0  0
  6 37  1  0  0  0
  7  8  1  0  0  0
  7 38  1  0  0  0
  8  9  2  0  0  0
  8 10  1  0  0  0
 10 15  2  0  0  0
 10 11  1  0  0  0
 11 12  2  0  0  0
 11 39  1  0  0  0
 12 13  1  0  0  0
 12 40  1  0  0  0
 13 14  2  0  0  0
 13 16  1  0  0  0
 14 15  1  0  0  0
 14 41  1  0  0  0
 15 42  1  0  0  0
 16 17  1  0  0  0
 16 43  1  0  0  0
 17 18  2  0  0  0
 17 19  1  0  0  0
 19 20  1  0  0  0
 19 25  1  0  0  0
 19 21  1  0  0  0
 21 22  1  0  0  0
 21 44  1  0  0  0
 21 45  1  0  0  0
 22 23  1  0  0  0
 22 46  1  0  0  0
 22 47  1  0  0  0
 23 24  1  0  0  0
 23 48  1  0  0  0
 23 49  1  0  0  0
 24 25  1  0  0  0
 24 50  1  0  0  0
 24 51  1  0  0  0
 25 26  1  0  0  0
 25 27  1  0  0  0
 27 28  2  0  0  0
 27 29  1  0  0  0
 30 31  1  0  0  0
 30 32  1  0  0  0
 30 33  1  0  0  0
M  CHG  1  29  -1
M  END
> <i_i_glide_confnum>
49

> <i_i_glide_lignum>
2616

> <i_i_glide_posenum>
275

> <i_i_glide_rotatable_bonds>
8

> <i_m_Source_File_Index>
1561

> <b_m_subgroup_collapsed>
0

> <r_i_docking_score>
-5.95158

> <r_i_glide_ecoul>
-10.6425

> <r_i_glide_eff_state_penalty>
0

> <r_i_glide_einternal>
9.77311

> <r_i_glide_emodel>
-61.6467

> <r_i_glide_energy>
-45.2657

> <r_i_glide_erotb>
0.635879

> <r_i_glide_esite>
-0.297344

> <r_i_glide_evdw>
-34.6232

> <r_i_glide_gscore>
-5.95158

> <r_i_glide_hbond>
-0.241849

> <r_i_glide_ligand_efficiency>
-0.191986

> <r_i_glide_ligand_efficiency_ln>
-1.34226

> <r_i_glide_ligand_efficiency_sa>
-0.603102

> <r_i_glide_lipo>
-1.78928

> <r_i_glide_metal>
0

> <r_i_glide_rewards>
-0.931456

> <s_i_glide_gridfile>
wee1_glide-grid

> <s_m_Source_File>
wee1_decoys_glide_SP.sdf

> <s_m_Source_Path>
/Users/zhangxujun/Desktop

> <s_m_entry_id>
1836

> <s_m_entry_name>
wee1_decoys_glide_SP.1561

> <s_m_subgroup_title>
wee1_decoys_glide_SP

> <s_m_subgroupid>
wee1_decoys_glide_SP


$$$$
