ZINC65074676_152
                    3D
 Schrodinger Suite 2024-2.
 58 61  0  0  1  0            999 V2000
    6.7148   54.9856   24.5584 C   0  0  0  0  0  0
    5.9923   54.4844   25.7955 C   0  0  0  0  0  0
    6.7048   54.2623   26.9746 C   0  0  0  0  0  0
    6.0486   53.7875   28.1047 C   0  0  0  0  0  0
    4.6744   53.5369   28.0678 C   0  0  0  0  0  0
    3.9626   53.7672   26.8895 C   0  0  0  0  0  0
    4.6178   54.2454   25.7569 C   0  0  0  0  0  0
    3.8792   52.9559   29.5696 S   0  0  0  0  0  0
    3.9042   54.0967   30.4814 O   0  0  0  0  0  0
    4.5399   51.6969   29.9137 O   0  0  0  0  0  0
    2.1828   52.5975   29.2230 N   0  0  0  0  0  0
    1.7424   51.2415   28.8821 C   0  0  0  0  0  0
    1.1093   51.2771   27.4895 C   0  0  0  0  0  0
   -0.0493   52.3027   27.3549 C   0  0  0  0  0  0
    0.3608   53.6803   27.9808 C   0  0  0  0  0  0
    1.1095   53.6040   29.3257 C   0  0  0  0  0  0
   -0.4342   52.4938   25.8652 C   0  0  0  0  0  0
   -1.6750   52.3044   25.3900 N   0  3  0  0  0  0
   -2.7468   51.6876   26.1565 C   0  0  0  0  0  0
   -2.0782   50.8958   27.2763 C   0  0  0  0  0  0
   -1.2461   51.8013   28.0505 N   0  0  0  0  0  0
    0.5664   52.8253   25.0322 N   0  0  0  0  0  0
    0.4814   53.1392   23.6040 C   0  0  0  0  0  0
    1.7241   52.7523   22.8236 C   0  0  0  0  0  0
    1.8573   51.4612   22.2999 C   0  0  0  0  0  0
    2.9692   51.1254   21.5251 C   0  0  0  0  0  0
    3.9620   52.0750   21.2804 C   0  0  0  0  0  0
    3.8425   53.3577   21.8124 C   0  0  0  0  0  0
    2.7246   53.6972   22.5753 C   0  0  0  0  0  0
    4.8041   54.2785   21.5809 F   0  0  0  0  0  0
    7.4051   55.7935   24.8081 H   0  0  0  0  0  0
    7.2972   54.1789   24.1088 H   0  0  0  0  0  0
    6.0165   55.3726   23.8140 H   0  0  0  0  0  0
    7.7652   54.4501   27.0266 H   0  0  0  0  0  0
    6.6120   53.6217   29.0107 H   0  0  0  0  0  0
    2.9115   53.5712   26.8351 H   0  0  0  0  0  0
    4.0613   54.4167   24.8507 H   0  0  0  0  0  0
    1.0587   50.8968   29.6587 H   0  0  0  0  0  0
    2.6017   50.5719   28.8817 H   0  0  0  0  0  0
    0.7998   50.2786   27.1757 H   0  0  0  0  0  0
    1.8984   51.5841   26.8189 H   0  0  0  0  0  0
    0.9980   54.2227   27.2889 H   0  0  0  0  0  0
   -0.5161   54.3154   28.0817 H   0  0  0  0  0  0
    0.4442   53.3210   30.1430 H   0  0  0  0  0  0
    1.5419   54.5695   29.5925 H   0  0  0  0  0  0
   -3.3978   52.4721   26.5439 H   0  0  0  0  0  0
   -3.3261   51.0373   25.5015 H   0  0  0  0  0  0
   -2.8204   50.4411   27.9360 H   0  0  0  0  0  0
   -1.4899   50.0610   26.8828 H   0  0  0  0  0  0
   -0.9646   51.3540   28.9153 H   0  0  0  0  0  0
    1.4882   52.8826   25.4399 H   0  0  0  0  0  0
    0.3023   54.2094   23.5341 H   0  0  0  0  0  0
   -0.3811   52.6328   23.1734 H   0  0  0  0  0  0
    1.0911   50.7178   22.4748 H   0  0  0  0  0  0
    3.0609   50.1324   21.1090 H   0  0  0  0  0  0
    4.8162   51.8210   20.6711 H   0  0  0  0  0  0
    2.6339   54.7049   22.9533 H   0  0  0  0  0  0
   -1.8363   52.5076   24.4144 H   0  0  0  0  0  0
  1  2  1  0  0  0
  1 31  1  0  0  0
  1 32  1  0  0  0
  1 33  1  0  0  0
  2  7  2  0  0  0
  2  3  1  0  0  0
  3  4  2  0  0  0
  3 34  1  0  0  0
  4  5  1  0  0  0
  4 35  1  0  0  0
  5  6  2  0  0  0
  5  8  1  0  0  0
  6  7  1  0  0  0
  6 36  1  0  0  0
  7 37  1  0  0  0
  8  9  2  0  0  0
  8 10  2  0  0  0
  8 11  1  0  0  0
 11 16  1  0  0  0
 11 12  1  0  0  0
 12 13  1  0  0  0
 12 38  1  0  0  0
 12 39  1  0  0  0
 13 14  1  0  0  0
 13 40  1  0  0  0
 13 41  1  0  0  0
 14 21  1  0  0  0
 14 15  1  0  0  0
 14 17  1  0  0  0
 15 16  1  0  0  0
 15 42  1  0  0  0
 15 43  1  0  0  0
 16 44  1  0  0  0
 16 45  1  0  0  0
 17 18  2  0  0  0
 17 22  1  0  0  0
 18 19  1  0  0  0
 18 58  1  0  0  0
 19 20  1  0  0  0
 19 46  1  0  0  0
 19 47  1  0  0  0
 20 21  1  0  0  0
 20 48  1  0  0  0
 20 49  1  0  0  0
 21 50  1  0  0  0
 22 23  1  0  0  0
 22 51  1  0  0  0
 23 24  1  0  0  0
 23 52  1  0  0  0
 23 53  1  0  0  0
 24 29  2  0  0  0
 24 25  1  0  0  0
 25 26  2  0  0  0
 25 54  1  0  0  0
 26 27  1  0  0  0
 26 55  1  0  0  0
 27 28  2  0  0  0
 27 56  1  0  0  0
 28 29  1  0  0  0
 28 30  1  0  0  0
 29 57  1  0  0  0
M  CHG  1  18   1
M  END
> <i_i_glide_confnum>
206

> <i_i_glide_lignum>
153

> <i_i_glide_posenum>
113

> <i_i_glide_rotatable_bonds>
5

> <i_m_Source_File_Index>
4587

> <b_m_subgroup_collapsed>
0

> <r_i_docking_score>
-3.78597

> <r_i_glide_ecoul>
-4.64973

> <r_i_glide_eff_state_penalty>
0

> <r_i_glide_einternal>
4.30711

> <r_i_glide_emodel>
-40.6325

> <r_i_glide_energy>
-41.0123

> <r_i_glide_erotb>
0.534029

> <r_i_glide_esite>
-0.0355247

> <r_i_glide_evdw>
-36.3626

> <r_i_glide_gscore>
-3.78597

> <r_i_glide_hbond>
0

> <r_i_glide_ligand_efficiency>
-0.126199

> <r_i_glide_ligand_efficiency_ln>
-0.860214

> <r_i_glide_ligand_efficiency_sa>
-0.39213

> <r_i_glide_lipo>
-2.96908

> <r_i_glide_metal>
0

> <r_i_glide_rewards>
1.20019

> <s_i_glide_gridfile>
wee1_glide-grid

> <s_m_Source_File>
wee1_decoys_glide_SP.sdf

> <s_m_Source_Path>
/Users/zhangxujun/Desktop

> <s_m_entry_id>
4862

> <s_m_entry_name>
wee1_decoys_glide_SP.4587

> <s_m_subgroup_title>
wee1_decoys_glide_SP

> <s_m_subgroupid>
wee1_decoys_glide_SP


$$$$
