ZINC09209200_487
                    3D
 Schrodinger Suite 2024-2.
 54 58  0  0  1  0            999 V2000
    0.5495   50.9095   20.7697 C   0  0  0  0  0  0
    1.4838   52.0614   21.2020 C   0  0  1  0  0  0
    1.2620   52.8964   20.5363 H   0  0  0  0  0  0
    1.2134   52.5851   22.6286 C   0  0  0  0  0  0
    1.3745   53.7796   22.8816 O   0  0  0  0  0  0
    0.7867   51.6927   23.5408 N   0  0  0  0  0  0
    0.6173   51.9185   24.9006 C   0  0  0  0  0  0
   -0.3457   51.3011   25.7245 C   0  0  0  0  0  0
   -0.1734   51.7271   27.0668 C   0  0  0  0  0  0
    0.8991   52.5734   27.2495 C   0  0  0  0  0  0
    1.7272   52.9453   25.7901 S   0  0  0  0  0  0
    1.0979   52.9989   28.6770 C   0  0  0  0  0  0
   -0.2255   52.5538   29.3128 C   0  0  0  0  0  0
   -0.8314   51.4707   28.4019 C   0  0  0  0  0  0
   -1.4092   50.4492   25.2097 C   0  0  0  0  0  0
   -1.7163   50.4269   24.0196 O   0  0  0  0  0  0
   -2.0662   49.6937   26.0818 N   0  0  0  0  0  0
    3.2452   51.6071   20.9861 S   0  0  0  0  0  0
    3.7230   52.8951   19.8714 C   0  0  0  0  0  0
    3.3123   52.8872   18.6318 N   0  0  0  0  0  0
    3.8515   53.9909   18.0064 N   0  0  0  0  0  0
    4.5701   54.6496   18.8826 C   0  0  0  0  0  0
    4.5420   53.9961   20.1210 N   0  0  0  0  0  0
    5.2063   54.3345   21.3368 C   0  0  0  0  0  0
    4.6191   54.0968   22.5860 C   0  0  0  0  0  0
    5.2704   54.4302   23.7696 C   0  0  0  0  0  0
    6.5142   55.0440   23.7100 C   0  0  0  0  0  0
    7.1044   55.2966   22.4771 C   0  0  0  0  0  0
    6.4807   54.8970   21.3034 C   0  0  0  0  0  0
    5.2646   55.8993   18.4707 C   0  0  0  0  0  0
    5.9041   56.9712   19.0934 C   0  0  0  0  0  0
    6.3090   57.8695   18.1061 C   0  0  0  0  0  0
    5.9171   57.3135   16.9058 C   0  0  0  0  0  0
    5.2918   56.1314   17.1257 O   0  0  0  0  0  0
   -0.5014   51.1643   20.9134 H   0  0  0  0  0  0
    0.6834   50.6860   19.7109 H   0  0  0  0  0  0
    0.7529   49.9904   21.3207 H   0  0  0  0  0  0
    0.3650   50.8461   23.1872 H   0  0  0  0  0  0
    1.2379   54.0750   28.7877 H   0  0  0  0  0  0
    1.9556   52.5044   29.1338 H   0  0  0  0  0  0
   -0.8956   53.4102   29.3690 H   0  0  0  0  0  0
   -0.0948   52.2019   30.3375 H   0  0  0  0  0  0
   -0.5450   50.4968   28.7814 H   0  0  0  0  0  0
   -1.9209   51.5125   28.3816 H   0  0  0  0  0  0
   -2.8427   49.1433   25.7539 H   0  0  0  0  0  0
   -1.6961   49.4787   27.0098 H   0  0  0  0  0  0
    3.6593   53.6416   22.6632 H   0  0  0  0  0  0
    4.8033   54.2279   24.7227 H   0  0  0  0  0  0
    7.0237   55.3290   24.6181 H   0  0  0  0  0  0
    8.0635   55.7834   22.4215 H   0  0  0  0  0  0
    7.0079   55.0253   20.3700 H   0  0  0  0  0  0
    6.0165   57.1278   20.1544 H   0  0  0  0  0  0
    6.8037   58.8210   18.2432 H   0  0  0  0  0  0
    5.9914   57.6347   15.8764 H   0  0  0  0  0  0
  1  2  1  0  0  0
  1 35  1  0  0  0
  1 36  1  0  0  0
  1 37  1  0  0  0
  2  3  1  0  0  0
  2  4  1  0  0  0
  2 18  1  0  0  0
  4  5  2  0  0  0
  4  6  1  0  0  0
  6  7  1  0  0  0
  6 38  1  0  0  0
  7 11  1  0  0  0
  7  8  2  0  0  0
  8  9  1  0  0  0
  8 15  1  0  0  0
  9 14  1  0  0  0
  9 10  2  0  0  0
 10 11  1  0  0  0
 10 12  1  0  0  0
 12 13  1  0  0  0
 12 39  1  0  0  0
 12 40  1  0  0  0
 13 14  1  0  0  0
 13 41  1  0  0  0
 13 42  1  0  0  0
 14 43  1  0  0  0
 14 44  1  0  0  0
 15 16  2  0  0  0
 15 17  1  0  0  0
 17 45  1  0  0  0
 17 46  1  0  0  0
 18 19  1  0  0  0
 19 23  1  0  0  0
 19 20  2  0  0  0
 20 21  1  0  0  0
 21 22  2  0  0  0
 22 23  1  0  0  0
 22 30  1  0  0  0
 23 24  1  0  0  0
 24 29  2  0  0  0
 24 25  1  0  0  0
 25 26  2  0  0  0
 25 47  1  0  0  0
 26 27  1  0  0  0
 26 48  1  0  0  0
 27 28  2  0  0  0
 27 49  1  0  0  0
 28 29  1  0  0  0
 28 50  1  0  0  0
 29 51  1  0  0  0
 30 34  1  0  0  0
 30 31  2  0  0  0
 31 32  1  0  0  0
 31 52  1  0  0  0
 32 33  2  0  0  0
 32 53  1  0  0  0
 33 34  1  0  0  0
 33 54  1  0  0  0
M  END
> <i_i_glide_confnum>
46

> <i_i_glide_lignum>
488

> <i_i_glide_posenum>
21

> <i_i_glide_rotatable_bonds>
8

> <i_m_Source_File_Index>
4768

> <b_m_subgroup_collapsed>
0

> <r_i_docking_score>
-4.39066

> <r_i_glide_ecoul>
-3.806

> <r_i_glide_eff_state_penalty>
0

> <r_i_glide_einternal>
7.14244

> <r_i_glide_emodel>
-51.2463

> <r_i_glide_energy>
-41.4325

> <r_i_glide_erotb>
0.617015

> <r_i_glide_esite>
-0.180442

> <r_i_glide_evdw>
-37.6265

> <r_i_glide_gscore>
-4.39066

> <r_i_glide_hbond>
-0.16

> <r_i_glide_ligand_efficiency>
-0.13305

> <r_i_glide_ligand_efficiency_ln>
-0.976459

> <r_i_glide_ligand_efficiency_sa>
-0.426763

> <r_i_glide_lipo>
-1.7738

> <r_i_glide_metal>
0

> <r_i_glide_rewards>
-0.4412

> <s_i_glide_gridfile>
wee1_glide-grid

> <s_m_Source_File>
wee1_decoys_glide_SP.sdf

> <s_m_Source_Path>
/Users/zhangxujun/Desktop

> <s_m_entry_id>
5043

> <s_m_entry_name>
wee1_decoys_glide_SP.4768

> <s_m_subgroup_title>
wee1_decoys_glide_SP

> <s_m_subgroupid>
wee1_decoys_glide_SP


$$$$
