ZINC51051786_6204
                    3D
 Schrodinger Suite 2024-2.
 64 65  0  0  1  0            999 V2000
    2.3295   54.8213   28.1861 C   0  0  0  0  0  0
    3.4787   54.3327   29.0805 C   0  0  0  0  0  0
    4.3573   53.2204   28.4623 C   0  0  0  0  0  0
    5.2797   53.6234   27.2835 C   0  0  2  0  0  0
    5.8667   52.7288   27.0647 H   0  0  0  0  0  0
    6.3027   54.7054   27.6774 C   0  0  0  0  0  0
    4.5235   53.8943   26.0529 N   0  0  0  0  0  0
    5.0309   54.0968   24.8202 C   0  0  0  0  0  0
    6.2308   54.3042   24.6372 O   0  0  0  0  0  0
    4.0741   53.9916   23.5939 C   0  0  1  0  0  0
    3.8486   55.0262   23.3485 H   0  0  0  0  0  0
    4.8470   53.3822   22.3832 C   0  0  0  0  0  0
    3.9329   52.8617   21.2658 C   0  0  0  0  0  0
    2.8054   51.9692   21.7946 C   0  0  0  0  0  0
    1.9013   52.8544   22.6888 N   0  3  2  0  0  0
    2.6850   53.3516   23.9387 C   0  0  0  0  0  0
    0.5702   52.1528   23.1315 C   0  0  1  0  0  0
    0.9282   51.2587   23.6472 H   0  0  0  0  0  0
   -0.3219   53.0029   24.0532 C   0  0  0  0  0  0
   -0.2756   51.7004   21.8994 C   0  0  0  0  0  0
   -0.1343   52.3041   20.8338 O   0  0  0  0  0  0
   -1.0816   50.6074   21.9977 N   0  0  0  0  0  0
   -1.7232   50.0165   20.8078 C   0  0  0  0  0  0
   -1.2004   48.5642   20.7041 C   0  0  0  0  0  0
   -1.4601   47.7376   21.9839 C   0  0  0  0  0  0
   -0.9364   48.5011   23.2310 C   0  0  1  0  0  0
    0.1548   48.5061   23.2005 H   0  0  0  0  0  0
   -1.4532   49.9651   23.2703 C   0  0  0  0  0  0
   -1.2774   47.7751   24.5551 C   0  0  0  0  0  0
   -1.6960   46.6176   24.5689 O   0  0  0  0  0  0
   -1.0777   48.4620   25.6817 N   0  0  0  0  0  0
    1.7157   55.5564   28.7080 H   0  0  0  0  0  0
    2.7043   55.2985   27.2835 H   0  0  0  0  0  0
    1.6781   53.9990   27.8887 H   0  0  0  0  0  0
    3.0471   53.9518   30.0067 H   0  0  0  0  0  0
    4.0999   55.1801   29.3742 H   0  0  0  0  0  0
    3.7180   52.3922   28.1528 H   0  0  0  0  0  0
    4.9809   52.8022   29.2550 H   0  0  0  0  0  0
    6.7046   54.4967   28.6687 H   0  0  0  0  0  0
    7.1594   54.7226   27.0049 H   0  0  0  0  0  0
    5.8609   55.6964   27.7116 H   0  0  0  0  0  0
    3.5264   53.7886   26.1422 H   0  0  0  0  0  0
    5.4035   52.4973   22.6970 H   0  0  0  0  0  0
    5.5324   54.1119   21.9466 H   0  0  0  0  0  0
    4.5216   52.3094   20.5300 H   0  0  0  0  0  0
    3.5016   53.7039   20.7206 H   0  0  0  0  0  0
    3.1330   51.1073   22.3762 H   0  0  0  0  0  0
    2.2323   51.6186   20.9373 H   0  0  0  0  0  0
    2.0482   54.1235   24.3740 H   0  0  0  0  0  0
    2.7491   52.4967   24.6155 H   0  0  0  0  0  0
   -1.3419   52.6259   24.1389 H   0  0  0  0  0  0
    0.1010   53.0233   25.0577 H   0  0  0  0  0  0
   -0.3760   54.0262   23.6824 H   0  0  0  0  0  0
   -1.5538   50.5866   19.8923 H   0  0  0  0  0  0
   -2.8015   50.0171   20.9741 H   0  0  0  0  0  0
   -0.1326   48.5799   20.4763 H   0  0  0  0  0  0
   -1.6705   48.0735   19.8508 H   0  0  0  0  0  0
   -0.9600   46.7753   21.8596 H   0  0  0  0  0  0
   -2.5439   47.6128   22.0376 H   0  0  0  0  0  0
   -2.5429   49.9741   23.3359 H   0  0  0  0  0  0
   -1.0980   50.5099   24.1421 H   0  0  0  0  0  0
   -0.6736   49.3819   25.6485 H   0  0  0  0  0  0
   -1.2948   48.0862   26.6085 H   0  0  0  0  0  0
    1.6491   53.6444   22.1066 H   0  0  0  0  0  0
  1  2  1  0  0  0
  1 32  1  0  0  0
  1 33  1  0  0  0
  1 34  1  0  0  0
  2  3  1  0  0  0
  2 35  1  0  0  0
  2 36  1  0  0  0
  3  4  1  0  0  0
  3 37  1  0  0  0
  3 38  1  0  0  0
  4  5  1  0  0  0
  4  6  1  0  0  0
  4  7  1  0  0  0
  6 39  1  0  0  0
  6 40  1  0  0  0
  6 41  1  0  0  0
  7  8  1  0  0  0
  7 42  1  0  0  0
  8  9  2  0  0  0
  8 10  1  0  0  0
 10 11  1  0  0  0
 10 16  1  0  0  0
 10 12  1  0  0  0
 12 13  1  0  0  0
 12 43  1  0  0  0
 12 44  1  0  0  0
 13 14  1  0  0  0
 13 45  1  0  0  0
 13 46  1  0  0  0
 14 15  1  0  0  0
 14 47  1  0  0  0
 14 48  1  0  0  0
 15 16  1  0  0  0
 15 17  1  0  0  0
 15 64  1  0  0  0
 16 49  1  0  0  0
 16 50  1  0  0  0
 17 18  1  0  0  0
 17 19  1  0  0  0
 17 20  1  0  0  0
 19 51  1  0  0  0
 19 52  1  0  0  0
 19 53  1  0  0  0
 20 21  2  0  0  0
 20 22  1  0  0  0
 22 28  1  0  0  0
 22 23  1  0  0  0
 23 24  1  0  0  0
 23 54  1  0  0  0
 23 55  1  0  0  0
 24 25  1  0  0  0
 24 56  1  0  0  0
 24 57  1  0  0  0
 25 26  1  0  0  0
 25 58  1  0  0  0
 25 59  1  0  0  0
 26 27  1  0  0  0
 26 28  1  0  0  0
 26 29  1  0  0  0
 28 60  1  0  0  0
 28 61  1  0  0  0
 29 30  2  0  0  0
 29 31  1  0  0  0
 31 62  1  0  0  0
 31 63  1  0  0  0
M  CHG  1  15   1
M  END
> <i_i_glide_confnum>
241

> <i_i_glide_lignum>
6205

> <i_i_glide_posenum>
254

> <i_i_glide_rotatable_bonds>
9

> <i_m_Source_File_Index>
4113

> <b_m_subgroup_collapsed>
0

> <r_i_docking_score>
-4.98793

> <r_i_glide_ecoul>
-4.64824

> <r_i_glide_eff_state_penalty>
0

> <r_i_glide_einternal>
18.5793

> <r_i_glide_emodel>
-37.5991

> <r_i_glide_energy>
-35.6982

> <r_i_glide_erotb>
0.933483

> <r_i_glide_esite>
-0.156675

> <r_i_glide_evdw>
-31.05

> <r_i_glide_gscore>
-4.98793

> <r_i_glide_hbond>
-0.16

> <r_i_glide_ligand_efficiency>
-0.184738

> <r_i_glide_ligand_efficiency_ln>
-1.16111

> <r_i_glide_ligand_efficiency_sa>
-0.554215

> <r_i_glide_lipo>
-2.20964

> <r_i_glide_metal>
0

> <r_i_glide_rewards>
-1.14537

> <s_i_glide_gridfile>
wee1_glide-grid

> <s_m_Source_File>
wee1_decoys_glide_SP.sdf

> <s_m_Source_Path>
/Users/zhangxujun/Desktop

> <s_m_entry_id>
4388

> <s_m_entry_name>
wee1_decoys_glide_SP.4113

> <s_m_subgroup_title>
wee1_decoys_glide_SP

> <s_m_subgroupid>
wee1_decoys_glide_SP


$$$$
