ZINC39633449_3666
                    3D
 Schrodinger Suite 2024-2.
 65 68  0  0  1  0            999 V2000
   -4.8947   49.8135   30.0976 C   0  0  0  0  0  0
   -4.4718   50.7157   29.1226 C   0  0  0  0  0  0
   -5.2137   50.8931   27.9469 C   0  0  0  0  0  0
   -6.3962   50.1588   27.7643 C   0  0  0  0  0  0
   -6.8197   49.2626   28.7482 C   0  0  0  0  0  0
   -6.0722   49.0746   29.9195 C   0  0  0  0  0  0
   -6.5207   48.0913   31.0009 C   0  0  0  0  0  0
   -7.7989   47.7343   30.8480 F   0  0  0  0  0  0
   -5.7645   46.9935   30.9345 F   0  0  0  0  0  0
   -6.3862   48.6355   32.2126 F   0  0  0  0  0  0
   -7.1368   50.2948   26.6380 F   0  0  0  0  0  0
   -4.7177   51.8432   26.8847 C   0  0  0  0  0  0
   -5.3599   52.8678   26.6430 O   0  0  0  0  0  0
   -3.5411   51.5506   26.2802 N   0  0  0  0  0  0
   -2.8356   52.5008   25.4150 C   0  0  0  0  0  0
   -1.4006   51.9306   25.3212 C   0  0  2  0  0  0
   -0.9558   52.1612   24.3563 H   0  0  0  0  0  0
   -1.6281   50.3926   25.4619 C   0  0  0  0  0  0
   -2.7793   50.3170   26.4809 C   0  0  0  0  0  0
   -0.4459   49.4951   25.9020 C   0  0  0  0  0  0
    0.7023   49.5522   24.8895 C   0  0  0  0  0  0
    0.1917   49.0271   23.5343 N   0  3  0  0  0  0
   -1.0759   49.7491   23.0214 C   0  0  0  0  0  0
   -2.1411   49.7380   24.1423 C   0  0  0  0  0  0
   -0.4591   52.4773   26.4316 C   0  0  0  0  0  0
   -0.8921   52.7130   27.5582 O   0  0  0  0  0  0
    0.7991   52.7764   26.0556 N   0  0  0  0  0  0
    1.8619   53.3954   26.8601 C   0  0  0  0  0  0
    2.1758   52.5560   28.1345 C   0  0  0  0  0  0
    3.4845   52.7975   28.9132 C   0  0  0  0  0  0
    4.0759   54.2146   28.8728 C   0  0  0  0  0  0
    4.8951   54.4678   27.5975 C   0  0  0  0  0  0
    4.0568   54.7667   26.3466 C   0  0  0  0  0  0
    3.0543   53.6875   25.9110 C   0  0  0  0  0  0
   -4.2903   49.6837   30.9861 H   0  0  0  0  0  0
   -3.5460   51.2559   29.2824 H   0  0  0  0  0  0
   -7.7328   48.7067   28.5844 H   0  0  0  0  0  0
   -2.8329   53.5241   25.7928 H   0  0  0  0  0  0
   -3.2784   52.5041   24.4179 H   0  0  0  0  0  0
   -3.3441   49.3849   26.4246 H   0  0  0  0  0  0
   -2.3415   50.3499   27.4807 H   0  0  0  0  0  0
   -0.0758   49.8051   26.8813 H   0  0  0  0  0  0
   -0.7702   48.4658   26.0760 H   0  0  0  0  0  0
    1.1058   50.5474   24.7093 H   0  0  0  0  0  0
    1.5041   48.8957   25.1998 H   0  0  0  0  0  0
    0.9334   49.0872   22.8477 H   0  0  0  0  0  0
   -0.7668   50.7470   22.7097 H   0  0  0  0  0  0
   -1.4019   49.2024   22.1361 H   0  0  0  0  0  0
   -2.4778   48.7158   24.3245 H   0  0  0  0  0  0
   -3.0340   50.2549   23.7837 H   0  0  0  0  0  0
    1.0428   52.6121   25.0927 H   0  0  0  0  0  0
    1.4776   54.3644   27.1837 H   0  0  0  0  0  0
    2.0893   51.4912   27.9103 H   0  0  0  0  0  0
    1.3637   52.7433   28.8407 H   0  0  0  0  0  0
    4.2419   52.0971   28.5619 H   0  0  0  0  0  0
    3.3157   52.5186   29.9525 H   0  0  0  0  0  0
    4.7369   54.3383   29.7310 H   0  0  0  0  0  0
    3.2962   54.9696   28.9960 H   0  0  0  0  0  0
    5.5545   53.6194   27.4014 H   0  0  0  0  0  0
    5.5717   55.2997   27.7758 H   0  0  0  0  0  0
    4.7419   54.9584   25.5177 H   0  0  0  0  0  0
    3.5087   55.6965   26.4816 H   0  0  0  0  0  0
    2.6792   53.9913   24.9302 H   0  0  0  0  0  0
    3.6030   52.7690   25.7415 H   0  0  0  0  0  0
   -0.0173   48.0448   23.6451 H   0  0  0  0  0  0
  1  6  2  0  0  0
  1  2  1  0  0  0
  1 35  1  0  0  0
  2  3  2  0  0  0
  2 36  1  0  0  0
  3  4  1  0  0  0
  3 12  1  0  0  0
  4  5  2  0  0  0
  4 11  1  0  0  0
  5  6  1  0  0  0
  5 37  1  0  0  0
  6  7  1  0  0  0
  7  8  1  0  0  0
  7  9  1  0  0  0
  7 10  1  0  0  0
 12 13  2  0  0  0
 12 14  1  0  0  0
 14 19  1  0  0  0
 14 15  1  0  0  0
 15 16  1  0  0  0
 15 38  1  0  0  0
 15 39  1  0  0  0
 16 17  1  0  0  0
 16 18  1  0  0  0
 16 25  1  0  0  0
 18 24  1  0  0  0
 18 19  1  0  0  0
 18 20  1  0  0  0
 19 40  1  0  0  0
 19 41  1  0  0  0
 20 21  1  0  0  0
 20 42  1  0  0  0
 20 43  1  0  0  0
 21 22  1  0  0  0
 21 44  1  0  0  0
 21 45  1  0  0  0
 22 23  1  0  0  0
 22 46  1  0  0  0
 22 65  1  0  0  0
 23 24  1  0  0  0
 23 47  1  0  0  0
 23 48  1  0  0  0
 24 49  1  0  0  0
 24 50  1  0  0  0
 25 26  2  0  0  0
 25 27  1  0  0  0
 27 28  1  0  0  0
 27 51  1  0  0  0
 28 34  1  0  0  0
 28 29  1  0  0  0
 28 52  1  0  0  0
 29 30  1  0  0  0
 29 53  1  0  0  0
 29 54  1  0  0  0
 30 31  1  0  0  0
 30 55  1  0  0  0
 30 56  1  0  0  0
 31 32  1  0  0  0
 31 57  1  0  0  0
 31 58  1  0  0  0
 32 33  1  0  0  0
 32 59  1  0  0  0
 32 60  1  0  0  0
 33 34  1  0  0  0
 33 61  1  0  0  0
 33 62  1  0  0  0
 34 63  1  0  0  0
 34 64  1  0  0  0
M  CHG  1  22   1
M  END
> <i_i_glide_confnum>
377

> <i_i_glide_lignum>
3667

> <i_i_glide_posenum>
244

> <i_i_glide_rotatable_bonds>
6

> <i_m_Source_File_Index>
5945

> <b_m_subgroup_collapsed>
0

> <r_i_docking_score>
-3.69067

> <r_i_glide_ecoul>
-3.22405

> <r_i_glide_eff_state_penalty>
0

> <r_i_glide_einternal>
2.86461

> <r_i_glide_emodel>
-41.3744

> <r_i_glide_energy>
-32.7424

> <r_i_glide_erotb>
0.456333

> <r_i_glide_esite>
-0.0377261

> <r_i_glide_evdw>
-29.5183

> <r_i_glide_gscore>
-3.69067

> <r_i_glide_hbond>
0

> <r_i_glide_ligand_efficiency>
-0.111838

> <r_i_glide_ligand_efficiency_ln>
-0.820785

> <r_i_glide_ligand_efficiency_sa>
-0.358726

> <r_i_glide_lipo>
-1.64218

> <r_i_glide_metal>
0

> <r_i_glide_rewards>
-0.507575

> <s_i_glide_gridfile>
wee1_glide-grid

> <s_m_Source_File>
wee1_decoys_glide_SP.sdf

> <s_m_Source_Path>
/Users/zhangxujun/Desktop

> <s_m_entry_id>
6220

> <s_m_entry_name>
wee1_decoys_glide_SP.5945

> <s_m_subgroup_title>
wee1_decoys_glide_SP

> <s_m_subgroupid>
wee1_decoys_glide_SP


$$$$
