ZINC09434016_5230
                    3D
 Schrodinger Suite 2024-2.
 72 77  0  0  1  0            999 V2000
    1.6800   56.7413   16.1466 C   0  0  0  0  0  0
    0.3523   56.0111   16.4246 C   0  0  0  0  0  0
    0.2534   54.8146   16.8817 N   0  0  0  0  0  0
    1.3820   54.1776   17.2816 N   0  0  0  0  0  0
    1.3645   52.9081   17.7366 C   0  0  0  0  0  0
    0.3856   52.1627   17.6653 O   0  0  0  0  0  0
    2.6550   52.3988   18.3975 C   0  0  0  0  0  0
    4.1773   53.1836   20.2821 C   0  0  0  0  0  0
    4.2490   53.8825   21.6708 C   0  0  0  0  0  0
    3.2676   53.3355   22.6122 N   0  0  0  0  0  0
    3.1421   53.6188   23.9656 C   0  0  0  0  0  0
    3.9234   54.4082   24.8205 C   0  0  0  0  0  0
    3.5859   54.4128   26.1758 C   0  0  0  0  0  0
    2.4951   53.6967   26.6774 C   0  0  0  0  0  0
    1.6833   52.9592   25.8068 C   0  0  0  0  0  0
    2.0043   52.8962   24.4456 C   0  0  0  0  0  0
    1.4274   52.2155   23.3226 C   0  0  0  0  0  0
    2.2687   52.4574   22.2558 C   0  0  0  0  0  0
    2.1442   51.8325   20.8736 C   0  0  1  0  0  0
    2.7872   50.9557   20.7815 H   0  0  0  0  0  0
    0.6634   51.4352   20.6667 C   0  0  0  0  0  0
    0.1398   50.6079   21.8641 C   0  0  0  0  0  0
    0.1654   51.3650   23.2152 C   0  0  0  0  0  0
    2.1948   53.7034   28.1800 C   0  0  0  0  0  0
    0.7798   54.2515   28.4994 C   0  0  0  0  0  0
    0.4616   54.2093   30.0083 C   0  0  0  0  0  0
    0.6869   52.8112   30.6120 C   0  0  0  0  0  0
    2.1088   52.3035   30.3296 C   0  0  0  0  0  0
    2.4479   52.3163   28.8251 C   0  0  0  0  0  0
   -0.8880   56.7781   16.1200 C   0  0  0  0  0  0
   -2.1204   56.1156   15.9634 C   0  0  0  0  0  0
   -3.2897   56.8191   15.6842 C   0  0  0  0  0  0
   -3.2456   58.2017   15.5446 C   0  0  0  0  0  0
   -2.0403   58.8820   15.6816 C   0  0  0  0  0  0
   -0.8745   58.1762   15.9753 C   0  0  0  0  0  0
   -4.3788   58.8901   15.2850 F   0  0  0  0  0  0
    1.8558   57.5254   16.8817 H   0  0  0  0  0  0
    2.5543   56.0942   16.1784 H   0  0  0  0  0  0
    1.6747   57.1996   15.1572 H   0  0  0  0  0  0
    2.2213   54.7392   17.2960 H   0  0  0  0  0  0
    2.7392   51.3102   18.3868 H   0  0  0  0  0  0
    3.5238   52.8010   17.8763 H   0  0  0  0  0  0
    4.7257   52.2389   20.2450 H   0  0  0  0  0  0
    4.5874   53.8573   19.5286 H   0  0  0  0  0  0
    5.2468   53.8030   22.1029 H   0  0  0  0  0  0
    4.0533   54.9479   21.5744 H   0  0  0  0  0  0
    4.7831   54.9551   24.4645 H   0  0  0  0  0  0
    4.2015   54.9868   26.8561 H   0  0  0  0  0  0
    0.8390   52.4038   26.1878 H   0  0  0  0  0  0
    0.0427   52.3208   20.5302 H   0  0  0  0  0  0
    0.5598   50.8352   19.7656 H   0  0  0  0  0  0
    0.7462   49.7038   21.9541 H   0  0  0  0  0  0
   -0.8733   50.2574   21.6644 H   0  0  0  0  0  0
    0.1066   50.6542   24.0401 H   0  0  0  0  0  0
   -0.7128   52.0052   23.3034 H   0  0  0  0  0  0
    2.9098   54.3988   28.6252 H   0  0  0  0  0  0
    0.7046   55.2907   28.1717 H   0  0  0  0  0  0
    0.0180   53.6751   27.9768 H   0  0  0  0  0  0
    1.0769   54.9389   30.5376 H   0  0  0  0  0  0
   -0.5728   54.4967   30.1689 H   0  0  0  0  0  0
    0.4994   52.8297   31.6872 H   0  0  0  0  0  0
   -0.0394   52.1110   30.1941 H   0  0  0  0  0  0
    2.8344   52.9051   30.8763 H   0  0  0  0  0  0
    2.2034   51.2977   30.7228 H   0  0  0  0  0  0
    1.8510   51.5506   28.3256 H   0  0  0  0  0  0
    3.4985   52.0458   28.7146 H   0  0  0  0  0  0
   -2.1854   55.0407   16.0603 H   0  0  0  0  0  0
   -4.2288   56.2983   15.5823 H   0  0  0  0  0  0
   -2.0112   59.9541   15.5698 H   0  0  0  0  0  0
    0.0352   58.7474   16.0866 H   0  0  0  0  0  0
    2.7046   52.8894   19.8787 N   0  3  2  0  0  0
    2.1826   53.7667   19.9588 H   0  0  0  0  0  0
  1  2  1  0  0  0
  1 37  1  0  0  0
  1 38  1  0  0  0
  1 39  1  0  0  0
  2  3  2  0  0  0
  2 30  1  0  0  0
  3  4  1  0  0  0
  4  5  1  0  0  0
  4 40  1  0  0  0
  5  6  2  0  0  0
  5  7  1  0  0  0
  7 41  1  0  0  0
  7 42  1  0  0  0
  7 71  1  0  0  0
  8  9  1  0  0  0
  8 43  1  0  0  0
  8 44  1  0  0  0
  8 71  1  0  0  0
  9 10  1  0  0  0
  9 45  1  0  0  0
  9 46  1  0  0  0
 10 18  1  0  0  0
 10 11  1  0  0  0
 11 16  2  0  0  0
 11 12  1  0  0  0
 12 13  2  0  0  0
 12 47  1  0  0  0
 13 14  1  0  0  0
 13 48  1  0  0  0
 14 15  2  0  0  0
 14 24  1  0  0  0
 15 16  1  0  0  0
 15 49  1  0  0  0
 16 17  1  0  0  0
 17 23  1  0  0  0
 17 18  2  0  0  0
 18 19  1  0  0  0
 19 20  1  0  0  0
 19 21  1  0  0  0
 19 71  1  0  0  0
 21 22  1  0  0  0
 21 50  1  0  0  0
 21 51  1  0  0  0
 22 23  1  0  0  0
 22 52  1  0  0  0
 22 53  1  0  0  0
 23 54  1  0  0  0
 23 55  1  0  0  0
 24 29  1  0  0  0
 24 25  1  0  0  0
 24 56  1  0  0  0
 25 26  1  0  0  0
 25 57  1  0  0  0
 25 58  1  0  0  0
 26 27  1  0  0  0
 26 59  1  0  0  0
 26 60  1  0  0  0
 27 28  1  0  0  0
 27 61  1  0  0  0
 27 62  1  0  0  0
 28 29  1  0  0  0
 28 63  1  0  0  0
 28 64  1  0  0  0
 29 65  1  0  0  0
 29 66  1  0  0  0
 30 35  2  0  0  0
 30 31  1  0  0  0
 31 32  2  0  0  0
 31 67  1  0  0  0
 32 33  1  0  0  0
 32 68  1  0  0  0
 33 34  2  0  0  0
 33 36  1  0  0  0
 34 35  1  0  0  0
 34 69  1  0  0  0
 35 70  1  0  0  0
 71 72  1  0  0  0
M  CHG  1  71   1
M  END
> <i_i_glide_confnum>
20

> <i_i_glide_lignum>
5231

> <i_i_glide_posenum>
295

> <i_i_glide_rotatable_bonds>
6

> <i_m_Source_File_Index>
3703

> <b_m_subgroup_collapsed>
0

> <r_i_docking_score>
-4.84402

> <r_i_glide_ecoul>
-3.56676

> <r_i_glide_eff_state_penalty>
0

> <r_i_glide_einternal>
11.1222

> <r_i_glide_emodel>
-48.6439

> <r_i_glide_energy>
-40.6614

> <r_i_glide_erotb>
0.427503

> <r_i_glide_esite>
-0.0438783

> <r_i_glide_evdw>
-37.0946

> <r_i_glide_gscore>
-4.84402

> <r_i_glide_hbond>
0

> <r_i_glide_ligand_efficiency>
-0.134556

> <r_i_glide_ligand_efficiency_ln>
-1.05683

> <r_i_glide_ligand_efficiency_sa>
-0.444294

> <r_i_glide_lipo>
-2.48971

> <r_i_glide_metal>
0

> <r_i_glide_rewards>
-0.348186

> <s_i_glide_gridfile>
wee1_glide-grid

> <s_m_Source_File>
wee1_decoys_glide_SP.sdf

> <s_m_Source_Path>
/Users/zhangxujun/Desktop

> <s_m_entry_id>
3978

> <s_m_entry_name>
wee1_decoys_glide_SP.3703

> <s_m_subgroup_title>
wee1_decoys_glide_SP

> <s_m_subgroupid>
wee1_decoys_glide_SP


$$$$
