ZINC39676553_2929
                    3D
 Schrodinger Suite 2024-2.
 79 82  0  0  1  0            999 V2000
   -9.5565   50.6623   25.2458 C   0  0  0  0  0  0
   -8.6271   51.8341   25.5931 C   0  0  0  0  0  0
   -7.5937   51.4695   26.6824 C   0  0  0  0  0  0
   -6.6290   52.6040   27.1209 C   0  0  2  0  0  0
   -5.9807   52.1869   27.8896 H   0  0  0  0  0  0
   -7.3722   53.7593   27.8262 C   0  0  0  0  0  0
   -5.7470   53.1100   25.9490 C   0  0  0  0  0  0
   -6.1303   54.0761   25.2826 O   0  0  0  0  0  0
   -4.5896   52.4644   25.6650 N   0  0  0  0  0  0
   -3.7342   52.8705   24.5532 C   0  0  0  0  0  0
   -2.3302   52.5103   25.0688 C   0  0  1  0  0  0
   -1.9743   53.2981   25.7250 H   0  0  0  0  0  0
   -2.5270   51.2516   25.9541 C   0  0  0  0  0  0
   -3.9137   51.5336   26.5743 C   0  0  0  0  0  0
   -1.4725   51.1270   27.0893 C   0  0  0  0  0  0
   -0.1385   50.4926   26.6616 C   0  0  0  0  0  0
   -0.4310   49.1019   26.0818 N   0  3  0  0  0  0
   -1.3366   49.1693   24.8377 C   0  0  0  0  0  0
   -2.6574   49.8899   25.1882 C   0  0  0  0  0  0
   -1.3634   52.3937   23.8711 C   0  0  0  0  0  0
   -1.7412   51.9738   22.7770 O   0  0  0  0  0  0
   -0.1341   52.8922   24.0830 N   0  0  0  0  0  0
    0.9809   52.9985   23.1317 C   0  0  0  0  0  0
    2.2772   53.5122   23.7627 C   0  0  0  0  0  0
    3.3303   53.8602   22.9097 C   0  0  0  0  0  0
    4.5428   54.2904   23.4306 C   0  0  0  0  0  0
    4.7136   54.3993   24.8171 C   0  0  0  0  0  0
    3.6529   54.0980   25.6680 C   0  0  0  0  0  0
    2.4412   53.6547   25.1475 C   0  0  0  0  0  0
    5.8947   54.7730   25.4167 O   0  0  0  0  0  0
    7.0659   54.8146   24.6164 C   0  0  0  0  0  0
    1.2343   51.7447   22.2942 C   0  0  0  0  0  0
    1.5878   50.5461   22.9191 C   0  0  0  0  0  0
    1.8374   49.4186   22.1537 C   0  0  0  0  0  0
    1.7678   49.4718   20.7663 C   0  0  0  0  0  0
    1.4032   50.6715   20.1382 C   0  0  0  0  0  0
    1.1308   51.8034   20.9015 C   0  0  0  0  0  0
    2.0820   48.3174   20.0862 O   0  0  0  0  0  0
    2.6970   48.4807   18.8155 C   0  0  0  0  0  0
  -10.2704   50.9452   24.4716 H   0  0  0  0  0  0
  -10.1266   50.3331   26.1164 H   0  0  0  0  0  0
   -8.9885   49.8088   24.8738 H   0  0  0  0  0  0
   -8.1189   52.1611   24.6837 H   0  0  0  0  0  0
   -9.2335   52.6795   25.9225 H   0  0  0  0  0  0
   -8.1282   51.1046   27.5604 H   0  0  0  0  0  0
   -7.0052   50.6174   26.3382 H   0  0  0  0  0  0
   -6.6574   54.4953   28.1944 H   0  0  0  0  0  0
   -8.0558   54.2838   27.1557 H   0  0  0  0  0  0
   -7.9483   53.4029   28.6798 H   0  0  0  0  0  0
   -3.9887   52.2219   23.7131 H   0  0  0  0  0  0
   -3.7813   53.9299   24.2934 H   0  0  0  0  0  0
   -3.7309   52.1070   27.4841 H   0  0  0  0  0  0
   -4.4703   50.6460   26.8766 H   0  0  0  0  0  0
   -1.3176   52.0823   27.5924 H   0  0  0  0  0  0
   -1.8823   50.4964   27.8798 H   0  0  0  0  0  0
    0.3940   51.0522   25.8948 H   0  0  0  0  0  0
    0.5276   50.3442   27.5109 H   0  0  0  0  0  0
    0.4303   48.6086   25.8774 H   0  0  0  0  0  0
   -0.7663   49.6735   24.0581 H   0  0  0  0  0  0
   -1.5041   48.1351   24.5328 H   0  0  0  0  0  0
   -3.1704   49.1827   25.8428 H   0  0  0  0  0  0
   -3.3200   49.9752   24.3252 H   0  0  0  0  0  0
    0.0019   53.4071   24.9388 H   0  0  0  0  0  0
    0.7044   53.7886   22.4441 H   0  0  0  0  0  0
    3.2204   53.7790   21.8369 H   0  0  0  0  0  0
    5.3365   54.5281   22.7402 H   0  0  0  0  0  0
    3.7842   54.1867   26.7366 H   0  0  0  0  0  0
    1.6507   53.4062   25.8396 H   0  0  0  0  0  0
    7.9049   54.8980   25.2906 H   0  0  0  0  0  0
    7.2150   53.8989   24.0388 H   0  0  0  0  0  0
    7.0735   55.6802   23.9501 H   0  0  0  0  0  0
    1.6819   50.4948   23.9937 H   0  0  0  0  0  0
    2.1218   48.4995   22.6336 H   0  0  0  0  0  0
    1.3395   50.7395   19.0630 H   0  0  0  0  0  0
    0.8631   52.7291   20.4080 H   0  0  0  0  0  0
    3.1374   47.5438   18.4827 H   0  0  0  0  0  0
    1.9852   48.7959   18.0553 H   0  0  0  0  0  0
    3.5045   49.2132   18.8816 H   0  0  0  0  0  0
   -0.8963   48.5651   26.8193 H   0  0  0  0  0  0
  1  2  1  0  0  0
  1 40  1  0  0  0
  1 41  1  0  0  0
  1 42  1  0  0  0
  2  3  1  0  0  0
  2 43  1  0  0  0
  2 44  1  0  0  0
  3  4  1  0  0  0
  3 45  1  0  0  0
  3 46  1  0  0  0
  4  5  1  0  0  0
  4  6  1  0  0  0
  4  7  1  0  0  0
  6 47  1  0  0  0
  6 48  1  0  0  0
  6 49  1  0  0  0
  7  8  2  0  0  0
  7  9  1  0  0  0
  9 14  1  0  0  0
  9 10  1  0  0  0
 10 11  1  0  0  0
 10 50  1  0  0  0
 10 51  1  0  0  0
 11 12  1  0  0  0
 11 13  1  0  0  0
 11 20  1  0  0  0
 13 19  1  0  0  0
 13 14  1  0  0  0
 13 15  1  0  0  0
 14 52  1  0  0  0
 14 53  1  0  0  0
 15 16  1  0  0  0
 15 54  1  0  0  0
 15 55  1  0  0  0
 16 17  1  0  0  0
 16 56  1  0  0  0
 16 57  1  0  0  0
 17 18  1  0  0  0
 17 58  1  0  0  0
 17 79  1  0  0  0
 18 19  1  0  0  0
 18 59  1  0  0  0
 18 60  1  0  0  0
 19 61  1  0  0  0
 19 62  1  0  0  0
 20 21  2  0  0  0
 20 22  1  0  0  0
 22 23  1  0  0  0
 22 63  1  0  0  0
 23 24  1  0  0  0
 23 32  1  0  0  0
 23 64  1  0  0  0
 24 29  2  0  0  0
 24 25  1  0  0  0
 25 26  2  0  0  0
 25 65  1  0  0  0
 26 27  1  0  0  0
 26 66  1  0  0  0
 27 28  2  0  0  0
 27 30  1  0  0  0
 28 29  1  0  0  0
 28 67  1  0  0  0
 29 68  1  0  0  0
 30 31  1  0  0  0
 31 69  1  0  0  0
 31 70  1  0  0  0
 31 71  1  0  0  0
 32 37  2  0  0  0
 32 33  1  0  0  0
 33 34  2  0  0  0
 33 72  1  0  0  0
 34 35  1  0  0  0
 34 73  1  0  0  0
 35 36  2  0  0  0
 35 38  1  0  0  0
 36 37  1  0  0  0
 36 74  1  0  0  0
 37 75  1  0  0  0
 38 39  1  0  0  0
 39 76  1  0  0  0
 39 77  1  0  0  0
 39 78  1  0  0  0
M  CHG  1  17   1
M  END
> <i_i_glide_confnum>
211

> <i_i_glide_lignum>
2930

> <i_i_glide_posenum>
184

> <i_i_glide_rotatable_bonds>
11

> <i_m_Source_File_Index>
1676

> <b_m_subgroup_collapsed>
0

> <r_i_docking_score>
-5.01064

> <r_i_glide_ecoul>
-7.93172

> <r_i_glide_eff_state_penalty>
0

> <r_i_glide_einternal>
14.5937

> <r_i_glide_emodel>
-52.7223

> <r_i_glide_energy>
-45.7972

> <r_i_glide_erotb>
0.633045

> <r_i_glide_esite>
-0.1

> <r_i_glide_evdw>
-37.8654

> <r_i_glide_gscore>
-5.01064

> <r_i_glide_hbond>
-0.443365

> <r_i_glide_ligand_efficiency>
-0.135423

> <r_i_glide_ligand_efficiency_ln>
-1.08669

> <r_i_glide_ligand_efficiency_sa>
-0.451259

> <r_i_glide_lipo>
-2.00947

> <r_i_glide_metal>
0

> <r_i_glide_rewards>
-0.00782425

> <s_i_glide_gridfile>
wee1_glide-grid

> <s_m_Source_File>
wee1_decoys_glide_SP.sdf

> <s_m_Source_Path>
/Users/zhangxujun/Desktop

> <s_m_entry_id>
1951

> <s_m_entry_name>
wee1_decoys_glide_SP.1676

> <s_m_subgroup_title>
wee1_decoys_glide_SP

> <s_m_subgroupid>
wee1_decoys_glide_SP


$$$$
