ZINC11323729_5328
                    3D
 Schrodinger Suite 2024-2.
 74 77  0  0  1  0            999 V2000
    3.4624   51.8840   31.8550 C   0  0  0  0  0  0
    2.5365   52.4560   30.7698 C   0  0  0  0  0  0
    4.1938   52.3674   28.8367 C   0  0  0  0  0  0
    5.0312   53.2318   27.8770 C   0  0  0  0  0  0
    4.2445   54.1927   27.0904 N   0  0  0  0  0  0
    3.2982   54.9646   27.9130 C   0  0  0  0  0  0
    2.4242   54.1233   28.8609 C   0  0  0  0  0  0
    4.2126   54.1767   25.6956 C   0  0  0  0  0  0
    2.9803   54.0881   25.0323 C   0  0  0  0  0  0
    2.9064   54.0540   23.6412 C   0  0  0  0  0  0
    4.0672   54.0967   22.8695 C   0  0  0  0  0  0
    5.3087   54.1623   23.5186 C   0  0  0  0  0  0
    5.3877   54.2185   24.9134 C   0  0  0  0  0  0
    6.7675   54.3825   25.5339 C   0  0  0  0  0  0
    3.8894   54.0878   21.4730 N   0  0  0  0  0  0
    4.7686   54.3469   20.4819 C   0  0  0  0  0  0
    5.9451   54.6494   20.6540 O   0  0  0  0  0  0
    4.1895   54.2800   19.0487 C   0  0  0  0  0  0
    4.6770   55.4802   18.2002 C   0  0  0  0  0  0
    4.0350   55.3983   16.7966 C   0  0  0  0  0  0
    4.2166   54.0648   16.1518 N   0  0  0  0  0  0
    3.9710   52.8629   16.9964 C   0  0  0  0  0  0
    4.6465   52.9675   18.3794 C   0  0  0  0  0  0
    5.3021   53.9151   14.7559 S   0  0  0  0  0  0
    5.2329   55.1651   13.9896 O   0  0  0  0  0  0
    5.0487   52.6170   14.1180 O   0  0  0  0  0  0
    6.9415   53.8316   15.4679 C   0  0  0  0  0  0
    7.6683   55.0030   15.6912 C   0  0  0  0  0  0
    8.9556   54.9336   16.2155 C   0  0  0  0  0  0
    9.5372   53.6967   16.5140 C   0  0  0  0  0  0
    8.7980   52.5156   16.3152 C   0  0  0  0  0  0
    7.4996   52.5939   15.7999 C   0  0  0  0  0  0
    9.3914   51.1429   16.6047 C   0  0  0  0  0  0
   10.9590   53.6685   17.0477 C   0  0  0  0  0  0
    2.8976   51.2528   32.5397 H   0  0  0  0  0  0
    4.2794   51.2933   31.4576 H   0  0  0  0  0  0
    3.9305   52.6687   32.4480 H   0  0  0  0  0  0
    1.7981   53.1304   31.2080 H   0  0  0  0  0  0
    2.0010   51.6959   30.1977 H   0  0  0  0  0  0
    4.8706   51.7877   29.4596 H   0  0  0  0  0  0
    3.5033   51.7019   28.3171 H   0  0  0  0  0  0
    5.5792   52.5576   27.2218 H   0  0  0  0  0  0
    5.7608   53.8233   28.4312 H   0  0  0  0  0  0
    3.9082   55.6397   28.5118 H   0  0  0  0  0  0
    2.6813   55.6024   27.2822 H   0  0  0  0  0  0
    1.8682   54.7827   29.5325 H   0  0  0  0  0  0
    1.7397   53.4524   28.3375 H   0  0  0  0  0  0
    2.0624   54.0339   25.6004 H   0  0  0  0  0  0
    1.9353   53.9974   23.1700 H   0  0  0  0  0  0
    6.2276   54.1896   22.9523 H   0  0  0  0  0  0
    7.1049   53.4247   25.9307 H   0  0  0  0  0  0
    7.5034   54.7485   24.8167 H   0  0  0  0  0  0
    6.7383   55.1030   26.3501 H   0  0  0  0  0  0
    2.9362   53.9401   21.1713 H   0  0  0  0  0  0
    3.1046   54.2875   19.1493 H   0  0  0  0  0  0
    5.7573   55.4626   18.0492 H   0  0  0  0  0  0
    4.3555   56.4321   18.6214 H   0  0  0  0  0  0
    4.4757   56.1609   16.1548 H   0  0  0  0  0  0
    2.9655   55.6189   16.8183 H   0  0  0  0  0  0
    2.8926   52.7157   17.0726 H   0  0  0  0  0  0
    4.3489   51.9820   16.4752 H   0  0  0  0  0  0
    4.3025   52.0997   18.9444 H   0  0  0  0  0  0
    5.7241   52.9293   18.2131 H   0  0  0  0  0  0
    7.2414   55.9630   15.4454 H   0  0  0  0  0  0
    9.5108   55.8452   16.3697 H   0  0  0  0  0  0
    6.9255   51.6925   15.6401 H   0  0  0  0  0  0
    8.8341   50.3484   16.1066 H   0  0  0  0  0  0
    9.4088   50.9461   17.6774 H   0  0  0  0  0  0
   10.4138   51.0789   16.2302 H   0  0  0  0  0  0
   11.2360   54.6172   17.5173 H   0  0  0  0  0  0
   11.0735   52.9017   17.8143 H   0  0  0  0  0  0
   11.6626   53.4454   16.2411 H   0  0  0  0  0  0
    3.3585   53.2827   29.7523 N   0  3  0  0  0  0
    3.9920   53.9032   30.2400 H   0  0  0  0  0  0
  1  2  1  0  0  0
  1 35  1  0  0  0
  1 36  1  0  0  0
  1 37  1  0  0  0
  2 38  1  0  0  0
  2 39  1  0  0  0
  2 73  1  0  0  0
  3  4  1  0  0  0
  3 40  1  0  0  0
  3 41  1  0  0  0
  3 73  1  0  0  0
  4  5  1  0  0  0
  4 42  1  0  0  0
  4 43  1  0  0  0
  5  6  1  0  0  0
  5  8  1  0  0  0
  6  7  1  0  0  0
  6 44  1  0  0  0
  6 45  1  0  0  0
  7 46  1  0  0  0
  7 47  1  0  0  0
  7 73  1  0  0  0
  8 13  2  0  0  0
  8  9  1  0  0  0
  9 10  2  0  0  0
  9 48  1  0  0  0
 10 11  1  0  0  0
 10 49  1  0  0  0
 11 12  2  0  0  0
 11 15  1  0  0  0
 12 13  1  0  0  0
 12 50  1  0  0  0
 13 14  1  0  0  0
 14 51  1  0  0  0
 14 52  1  0  0  0
 14 53  1  0  0  0
 15 16  1  0  0  0
 15 54  1  0  0  0
 16 17  2  0  0  0
 16 18  1  0  0  0
 18 23  1  0  0  0
 18 19  1  0  0  0
 18 55  1  0  0  0
 19 20  1  0  0  0
 19 56  1  0  0  0
 19 57  1  0  0  0
 20 21  1  0  0  0
 20 58  1  0  0  0
 20 59  1  0  0  0
 21 22  1  0  0  0
 21 24  1  0  0  0
 22 23  1  0  0  0
 22 60  1  0  0  0
 22 61  1  0  0  0
 23 62  1  0  0  0
 23 63  1  0  0  0
 24 25  2  0  0  0
 24 26  2  0  0  0
 24 27  1  0  0  0
 27 32  2  0  0  0
 27 28  1  0  0  0
 28 29  2  0  0  0
 28 64  1  0  0  0
 29 30  1  0  0  0
 29 65  1  0  0  0
 30 31  2  0  0  0
 30 34  1  0  0  0
 31 32  1  0  0  0
 31 33  1  0  0  0
 32 66  1  0  0  0
 33 67  1  0  0  0
 33 68  1  0  0  0
 33 69  1  0  0  0
 34 70  1  0  0  0
 34 71  1  0  0  0
 34 72  1  0  0  0
 73 74  1  0  0  0
M  CHG  1  73   1
M  END
> <i_i_glide_confnum>
36

> <i_i_glide_lignum>
5329

> <i_i_glide_posenum>
39

> <i_i_glide_rotatable_bonds>
7

> <i_m_Source_File_Index>
2173

> <b_m_subgroup_collapsed>
0

> <r_i_docking_score>
-5.16822

> <r_i_glide_ecoul>
-2.17746

> <r_i_glide_eff_state_penalty>
0

> <r_i_glide_einternal>
1.05133

> <r_i_glide_emodel>
-53.9356

> <r_i_glide_energy>
-40.6391

> <r_i_glide_erotb>
0.490558

> <r_i_glide_esite>
-0.00976879

> <r_i_glide_evdw>
-38.4616

> <r_i_glide_gscore>
-5.16822

> <r_i_glide_hbond>
-0.0848281

> <r_i_glide_ligand_efficiency>
-0.147663

> <r_i_glide_ligand_efficiency_ln>
-1.13454

> <r_i_glide_ligand_efficiency_sa>
-0.483017

> <r_i_glide_lipo>
-2.91774

> <r_i_glide_metal>
0

> <r_i_glide_rewards>
-0.39674

> <s_i_glide_gridfile>
wee1_glide-grid

> <s_m_Source_File>
wee1_decoys_glide_SP.sdf

> <s_m_Source_Path>
/Users/zhangxujun/Desktop

> <s_m_entry_id>
2448

> <s_m_entry_name>
wee1_decoys_glide_SP.2173

> <s_m_subgroup_title>
wee1_decoys_glide_SP

> <s_m_subgroupid>
wee1_decoys_glide_SP


$$$$
