ZINC35918680_4679
                    3D
 Schrodinger Suite 2024-2.
 44 46  0  0  1  0            999 V2000
    1.2766   49.6731   20.9052 C   0  0  0  0  0  0
    1.3006   51.0588   20.2149 C   0  0  0  0  0  0
    2.0767   50.9238   18.8878 C   0  0  0  0  0  0
   -0.1405   51.5238   19.8915 C   0  0  0  0  0  0
    2.0144   52.0439   21.0373 N   0  0  0  0  0  0
    1.7109   52.4974   22.2730 C   0  0  0  0  0  0
    0.6703   52.1780   22.8589 O   0  0  0  0  0  0
    2.6999   53.4954   22.9418 C   0  0  2  0  0  0
    2.2314   54.4636   22.7455 H   0  0  0  0  0  0
    4.1397   53.4578   22.3125 C   0  0  0  0  0  0
    5.1033   54.1892   23.2267 C   0  0  0  0  0  0
    4.7656   54.4965   24.5363 C   0  0  0  0  0  0
    5.8166   55.2267   25.0128 N   0  0  0  0  0  0
    5.8948   55.6555   25.9241 H   0  0  0  0  0  0
    6.7044   55.2946   23.9744 C   0  0  0  0  0  0
    6.3041   54.6464   22.9047 N   0  0  0  0  0  0
    3.4250   54.2178   25.1976 C   0  0  1  0  0  0
    2.8550   55.1386   25.1148 H   0  0  0  0  0  0
    2.7050   53.2235   24.3966 N   0  0  0  0  0  0
    3.4711   53.8690   26.6915 C   0  0  0  0  0  0
    4.6139   53.3140   27.2831 C   0  0  0  0  0  0
    4.6240   52.9979   28.6381 C   0  0  0  0  0  0
    3.4881   53.2215   29.4077 C   0  0  0  0  0  0
    2.3427   53.7684   28.8359 C   0  0  0  0  0  0
    2.3358   54.0888   27.4800 C   0  0  0  0  0  0
    3.4969   52.8941   30.7187 F   0  0  0  0  0  0
    2.2863   49.3203   21.1279 H   0  0  0  0  0  0
    0.7278   49.6960   21.8481 H   0  0  0  0  0  0
    0.8019   48.9215   20.2747 H   0  0  0  0  0  0
    1.6115   50.2004   18.2170 H   0  0  0  0  0  0
    2.1285   51.8737   18.3502 H   0  0  0  0  0  0
    3.1046   50.5907   19.0480 H   0  0  0  0  0  0
   -0.7635   51.5852   20.7845 H   0  0  0  0  0  0
   -0.1444   52.5093   19.4232 H   0  0  0  0  0  0
   -0.6370   50.8357   19.2064 H   0  0  0  0  0  0
    2.8507   52.4104   20.6077 H   0  0  0  0  0  0
    4.4862   52.4321   22.1837 H   0  0  0  0  0  0
    4.1297   53.9112   21.3195 H   0  0  0  0  0  0
    7.6127   55.8638   24.0814 H   0  0  0  0  0  0
    1.7470   53.1397   24.7149 H   0  0  0  0  0  0
    5.4923   53.0946   26.6938 H   0  0  0  0  0  0
    5.5042   52.5599   29.0835 H   0  0  0  0  0  0
    1.4600   53.9305   29.4367 H   0  0  0  0  0  0
    1.4408   54.4956   27.0399 H   0  0  0  0  0  0
  1  2  1  0  0  0
  1 27  1  0  0  0
  1 28  1  0  0  0
  1 29  1  0  0  0
  2  3  1  0  0  0
  2  4  1  0  0  0
  2  5  1  0  0  0
  3 30  1  0  0  0
  3 31  1  0  0  0
  3 32  1  0  0  0
  4 33  1  0  0  0
  4 34  1  0  0  0
  4 35  1  0  0  0
  5  6  1  0  0  0
  5 36  1  0  0  0
  6  7  2  0  0  0
  6  8  1  0  0  0
  8  9  1  0  0  0
  8 19  1  0  0  0
  8 10  1  0  0  0
 10 11  1  0  0  0
 10 37  1  0  0  0
 10 38  1  0  0  0
 11 16  1  0  0  0
 11 12  2  0  0  0
 12 13  1  0  0  0
 12 17  1  0  0  0
 13 14  1  0  0  0
 13 15  1  0  0  0
 15 16  2  0  0  0
 15 39  1  0  0  0
 17 18  1  0  0  0
 17 19  1  0  0  0
 17 20  1  0  0  0
 19 40  1  0  0  0
 20 25  2  0  0  0
 20 21  1  0  0  0
 21 22  2  0  0  0
 21 41  1  0  0  0
 22 23  1  0  0  0
 22 42  1  0  0  0
 23 24  2  0  0  0
 23 26  1  0  0  0
 24 25  1  0  0  0
 24 43  1  0  0  0
 25 44  1  0  0  0
M  END
> <i_i_glide_confnum>
1

> <i_i_glide_lignum>
4680

> <i_i_glide_posenum>
336

> <i_i_glide_rotatable_bonds>
4

> <i_m_Source_File_Index>
4045

> <b_m_subgroup_collapsed>
0

> <r_i_docking_score>
-5.14358

> <r_i_glide_ecoul>
-1.86854

> <r_i_glide_eff_state_penalty>
0

> <r_i_glide_einternal>
2.4093

> <r_i_glide_emodel>
-44.8428

> <r_i_glide_energy>
-35.015

> <r_i_glide_erotb>
0.557962

> <r_i_glide_esite>
-0.0158648

> <r_i_glide_evdw>
-33.1464

> <r_i_glide_gscore>
-5.14358

> <r_i_glide_hbond>
0

> <r_i_glide_ligand_efficiency>
-0.223634

> <r_i_glide_ligand_efficiency_ln>
-1.24376

> <r_i_glide_ligand_efficiency_sa>
-0.635985

> <r_i_glide_lipo>
-2.09345

> <r_i_glide_metal>
0

> <r_i_glide_rewards>
-1.65463

> <s_i_glide_gridfile>
wee1_glide-grid

> <s_m_Source_File>
wee1_decoys_glide_SP.sdf

> <s_m_Source_Path>
/Users/zhangxujun/Desktop

> <s_m_entry_id>
4320

> <s_m_entry_name>
wee1_decoys_glide_SP.4045

> <s_m_subgroup_title>
wee1_decoys_glide_SP

> <s_m_subgroupid>
wee1_decoys_glide_SP


$$$$
