ZINC63478579_807
                    3D
 Schrodinger Suite 2024-2.
 60 65  0  0  1  0            999 V2000
    2.2640   52.1583   20.3476 C   0  0  0  0  0  0
    1.4116   50.9779   20.8764 C   0  0  0  0  0  0
    0.7849   50.2856   19.6278 C   0  0  0  0  0  0
    2.3708   49.8973   21.4720 C   0  0  0  0  0  0
    0.4049   51.4853   21.8902 N   0  0  0  0  0  0
    0.7714   51.8946   23.1403 C   0  0  0  0  0  0
    1.9048   51.9532   23.6110 O   0  0  0  0  0  0
   -0.4586   52.3766   23.9043 C   0  0  2  0  0  0
   -0.3105   53.4373   24.1109 H   0  0  0  0  0  0
   -0.7999   51.5829   25.1897 C   0  0  1  0  0  0
   -1.4417   52.2233   25.7948 H   0  0  0  0  0  0
   -1.6381   50.4926   24.7343 N   0  0  0  0  0  0
   -2.5216   51.0617   23.7167 C   0  0  2  0  0  0
   -1.6044   52.1141   22.9723 C   0  0  2  0  0  0
   -2.1372   53.0479   22.7876 H   0  0  0  0  0  0
   -0.9270   51.6962   21.6631 C   0  0  0  0  0  0
   -1.5528   51.6076   20.6060 O   0  0  0  0  0  0
   -3.8058   51.6525   24.2434 C   0  0  0  0  0  0
   -4.0542   52.7682   25.0508 C   0  0  0  0  0  0
   -5.3675   53.1151   25.3735 C   0  0  0  0  0  0
   -6.4329   52.3487   24.8898 C   0  0  0  0  0  0
   -6.1872   51.2355   24.0816 C   0  0  0  0  0  0
   -4.8688   50.9069   23.7645 C   0  0  0  0  0  0
   -4.3928   49.8791   22.9721 N   0  0  0  0  0  0
   -3.0521   49.8576   22.8761 C   0  0  0  0  0  0
   -2.3832   49.0293   22.2570 O   0  0  0  0  0  0
   -5.6722   54.4958   26.3641 Cl  0  0  0  0  0  0
    0.3234   51.1329   26.1484 C   0  0  0  0  0  0
    0.9583   52.2713   26.9277 C   0  0  0  0  0  0
    0.7871   52.6503   28.2054 C   0  0  0  0  0  0
   -0.0640   52.0900   29.2634 C   0  0  0  0  0  0
   -0.0954   52.6514   30.4862 C   0  0  0  0  0  0
    0.7052   53.8420   30.7187 C   0  0  0  0  0  0
    1.5106   54.3646   29.7569 C   0  0  0  0  0  0
    1.5769   53.7683   28.4914 C   0  0  0  0  0  0
    2.2970   54.0973   27.4476 N   0  3  0  0  0  0
    1.9948   53.1989   26.3251 C   0  0  0  0  0  0
    2.8002   52.6739   21.1469 H   0  0  0  0  0  0
    3.0106   51.8261   19.6227 H   0  0  0  0  0  0
    1.6370   52.8965   19.8451 H   0  0  0  0  0  0
    0.1010   49.4826   19.9115 H   0  0  0  0  0  0
    0.2351   50.9867   18.9972 H   0  0  0  0  0  0
    1.5456   49.8427   18.9818 H   0  0  0  0  0  0
    1.8174   49.0407   21.8648 H   0  0  0  0  0  0
    3.0768   49.5211   20.7263 H   0  0  0  0  0  0
    2.9993   50.2725   22.2807 H   0  0  0  0  0  0
   -2.1614   50.0888   25.5016 H   0  0  0  0  0  0
   -3.2475   53.3814   25.4246 H   0  0  0  0  0  0
   -7.4491   52.6215   25.1324 H   0  0  0  0  0  0
   -7.0151   50.6557   23.7029 H   0  0  0  0  0  0
   -4.9754   49.1927   22.5189 H   0  0  0  0  0  0
   -0.0970   50.4353   26.8750 H   0  0  0  0  0  0
    1.0868   50.5614   25.6232 H   0  0  0  0  0  0
   -0.6636   51.2037   29.1029 H   0  0  0  0  0  0
   -0.7008   52.2283   31.2768 H   0  0  0  0  0  0
    0.6487   54.3229   31.6857 H   0  0  0  0  0  0
    2.0796   55.2563   29.9820 H   0  0  0  0  0  0
    2.9160   52.6975   26.0251 H   0  0  0  0  0  0
    1.6210   53.8049   25.4984 H   0  0  0  0  0  0
    2.9563   54.8703   27.4017 H   0  0  0  0  0  0
  1  2  1  0  0  0
  1 38  1  0  0  0
  1 39  1  0  0  0
  1 40  1  0  0  0
  2  3  1  0  0  0
  2  4  1  0  0  0
  2  5  1  0  0  0
  3 41  1  0  0  0
  3 42  1  0  0  0
  3 43  1  0  0  0
  4 44  1  0  0  0
  4 45  1  0  0  0
  4 46  1  0  0  0
  5 16  1  0  0  0
  5  6  1  0  0  0
  6  7  2  0  0  0
  6  8  1  0  0  0
  8  9  1  0  0  0
  8 14  1  0  0  0
  8 10  1  0  0  0
 10 11  1  0  0  0
 10 12  1  0  0  0
 10 28  1  0  0  0
 12 13  1  0  0  0
 12 47  1  0  0  0
 13 25  1  0  0  0
 13 14  1  0  0  0
 13 18  1  0  0  0
 14 15  1  0  0  0
 14 16  1  0  0  0
 16 17  2  0  0  0
 18 23  2  0  0  0
 18 19  1  0  0  0
 19 20  2  0  0  0
 19 48  1  0  0  0
 20 21  1  0  0  0
 20 27  1  0  0  0
 21 22  2  0  0  0
 21 49  1  0  0  0
 22 23  1  0  0  0
 22 50  1  0  0  0
 23 24  1  0  0  0
 24 25  1  0  0  0
 24 51  1  0  0  0
 25 26  2  0  0  0
 28 29  1  0  0  0
 28 52  1  0  0  0
 28 53  1  0  0  0
 29 37  1  0  0  0
 29 30  2  0  0  0
 30 35  1  0  0  0
 30 31  1  0  0  0
 31 32  2  0  0  0
 31 54  1  0  0  0
 32 33  1  0  0  0
 32 55  1  0  0  0
 33 34  2  0  0  0
 33 56  1  0  0  0
 34 35  1  0  0  0
 34 57  1  0  0  0
 35 36  2  0  0  0
 36 37  1  0  0  0
 36 60  1  0  0  0
 37 58  1  0  0  0
 37 59  1  0  0  0
M  CHG  1  36   1
M  END
> <i_i_glide_confnum>
3

> <i_i_glide_lignum>
808

> <i_i_glide_posenum>
87

> <i_i_glide_rotatable_bonds>
3

> <i_m_Source_File_Index>
5638

> <b_m_subgroup_collapsed>
0

> <r_i_docking_score>
-3.84591

> <r_i_glide_ecoul>
-3.33372

> <r_i_glide_eff_state_penalty>
0

> <r_i_glide_einternal>
3.02987

> <r_i_glide_emodel>
-48.4463

> <r_i_glide_energy>
-39.8369

> <r_i_glide_erotb>
0.177379

> <r_i_glide_esite>
-0.00609682

> <r_i_glide_evdw>
-36.5032

> <r_i_glide_gscore>
-3.84591

> <r_i_glide_hbond>
0

> <r_i_glide_ligand_efficiency>
-0.113115

> <r_i_glide_ligand_efficiency_ln>
-0.84967

> <r_i_glide_ligand_efficiency_sa>
-0.366449

> <r_i_glide_lipo>
-1.39079

> <r_i_glide_metal>
0

> <r_i_glide_rewards>
-0.301189

> <s_i_glide_gridfile>
wee1_glide-grid

> <s_m_Source_File>
wee1_decoys_glide_SP.sdf

> <s_m_Source_Path>
/Users/zhangxujun/Desktop

> <s_m_entry_id>
5913

> <s_m_entry_name>
wee1_decoys_glide_SP.5638

> <s_m_subgroup_title>
wee1_decoys_glide_SP

> <s_m_subgroupid>
wee1_decoys_glide_SP


$$$$
