ZINC51634303_1864
                    3D
 Schrodinger Suite 2024-2.
 39 41  0  0  1  0            999 V2000
    0.1259   53.4146   29.7768 C   0  0  0  0  0  0
    0.5235   52.0967   29.5955 C   0  0  0  0  0  0
    1.8608   51.8166   29.3319 C   0  0  0  0  0  0
    2.8127   52.8370   29.2592 C   0  0  0  0  0  0
    2.3781   54.1727   29.3314 C   0  0  0  0  0  0
    1.0423   54.4474   29.6262 C   0  0  0  0  0  0
    3.3403   55.2967   29.0153 C   0  0  0  0  0  0
    4.8010   54.8967   29.2817 C   0  0  0  0  0  0
    5.1830   53.6192   28.5340 C   0  0  1  0  0  0
    6.2338   53.3926   28.7341 H   0  0  0  0  0  0
    4.3044   52.5176   29.1579 C   0  0  0  0  0  0
    5.0710   53.6990   27.0691 N   0  0  0  0  0  0
    5.8080   54.4986   26.2726 C   0  0  0  0  0  0
    6.7044   55.2301   26.6937 O   0  0  0  0  0  0
    5.5107   54.4457   24.7959 C   0  0  0  0  0  0
    4.2471   54.0967   24.2914 C   0  0  0  0  0  0
    4.0467   54.0198   22.9105 C   0  0  0  0  0  0
    5.1165   54.3125   22.0574 C   0  0  0  0  0  0
    6.3290   54.6943   22.5242 N   0  0  0  0  0  0
    6.5130   54.7521   23.8664 C   0  0  0  0  0  0
    5.0303   54.2625   20.6640 N   0  0  0  0  0  0
    3.9044   53.7242   19.9276 N   0  0  0  0  0  0
   -0.8956   53.6406   30.0128 H   0  0  0  0  0  0
   -0.1982   51.2967   29.6817 H   0  0  0  0  0  0
    2.1660   50.7902   29.2165 H   0  0  0  0  0  0
    0.7053   55.4701   29.7133 H   0  0  0  0  0  0
    3.0819   56.1960   29.5759 H   0  0  0  0  0  0
    3.2122   55.5461   27.9632 H   0  0  0  0  0  0
    4.9277   54.7490   30.3513 H   0  0  0  0  0  0
    5.5044   55.6926   29.0407 H   0  0  0  0  0  0
    4.3691   51.6967   28.4817 H   0  0  0  0  0  0
    4.7519   52.0867   30.0534 H   0  0  0  0  0  0
    4.4883   53.0024   26.6298 H   0  0  0  0  0  0
    3.4234   53.8704   24.9535 H   0  0  0  0  0  0
    3.0820   53.7409   22.5149 H   0  0  0  0  0  0
    7.5044   55.0424   24.1846 H   0  0  0  0  0  0
    5.8180   54.4954   20.0727 H   0  0  0  0  0  0
    3.7630   52.7511   20.1672 H   0  0  0  0  0  0
    3.0718   54.2924   20.0762 H   0  0  0  0  0  0
  1  6  2  0  0  0
  1  2  1  0  0  0
  1 23  1  0  0  0
  2  3  2  0  0  0
  2 24  1  0  0  0
  3  4  1  0  0  0
  3 25  1  0  0  0
  4 11  1  0  0  0
  4  5  2  0  0  0
  5  6  1  0  0  0
  5  7  1  0  0  0
  6 26  1  0  0  0
  7  8  1  0  0  0
  7 27  1  0  0  0
  7 28  1  0  0  0
  8  9  1  0  0  0
  8 29  1  0  0  0
  8 30  1  0  0  0
  9 10  1  0  0  0
  9 11  1  0  0  0
  9 12  1  0  0  0
 11 31  1  0  0  0
 11 32  1  0  0  0
 12 13  1  0  0  0
 12 33  1  0  0  0
 13 14  2  0  0  0
 13 15  1  0  0  0
 15 20  2  0  0  0
 15 16  1  0  0  0
 16 17  2  0  0  0
 16 34  1  0  0  0
 17 18  1  0  0  0
 17 35  1  0  0  0
 18 19  2  0  0  0
 18 21  1  0  0  0
 19 20  1  0  0  0
 20 36  1  0  0  0
 21 22  1  0  0  0
 21 37  1  0  0  0
 22 38  1  0  0  0
 22 39  1  0  0  0
M  END
> <i_i_glide_confnum>
18

> <i_i_glide_lignum>
1865

> <i_i_glide_posenum>
16

> <i_i_glide_rotatable_bonds>
4

> <i_m_Source_File_Index>
1227

> <b_m_subgroup_collapsed>
0

> <r_i_docking_score>
-7.1816

> <r_i_glide_ecoul>
-5.28852

> <r_i_glide_eff_state_penalty>
0

> <r_i_glide_einternal>
1.24563

> <r_i_glide_emodel>
-56.8405

> <r_i_glide_energy>
-40.4106

> <r_i_glide_erotb>
0.68087

> <r_i_glide_esite>
0

> <r_i_glide_evdw>
-35.1221

> <r_i_glide_gscore>
-7.1816

> <r_i_glide_hbond>
-0.587114

> <r_i_glide_ligand_efficiency>
-0.341981

> <r_i_glide_ligand_efficiency_ln>
-1.77564

> <r_i_glide_ligand_efficiency_sa>
-0.943499

> <r_i_glide_lipo>
-2.75733

> <r_i_glide_metal>
0

> <r_i_glide_rewards>
-1.96864

> <s_i_glide_gridfile>
wee1_glide-grid

> <s_m_Source_File>
wee1_decoys_glide_SP.sdf

> <s_m_Source_Path>
/Users/zhangxujun/Desktop

> <s_m_entry_id>
1502

> <s_m_entry_name>
wee1_decoys_glide_SP.1227

> <s_m_subgroup_title>
wee1_decoys_glide_SP

> <s_m_subgroupid>
wee1_decoys_glide_SP


$$$$
