ZINC38556316_2476
                    3D
 Schrodinger Suite 2024-2.
 45 48  0  0  1  0            999 V2000
    3.2284   52.8812   20.5200 C   0  0  0  0  0  0
    4.3581   53.6474   20.2411 C   0  0  0  0  0  0
    5.0631   54.2437   21.2828 C   0  0  0  0  0  0
    4.6487   54.0767   22.6006 C   0  0  0  0  0  0
    3.5145   53.3174   22.8763 C   0  0  0  0  0  0
    2.7944   52.7103   21.8412 C   0  0  0  0  0  0
    1.6312   51.8488   22.1503 C   0  0  0  0  0  0
    1.4849   51.0554   23.2146 C   0  0  0  0  0  0
    0.1254   50.4511   23.0275 C   0  0  2  0  0  0
    0.2169   49.3851   22.8136 H   0  0  0  0  0  0
   -0.3595   51.0989   21.8346 N   0  0  0  0  0  0
    0.5299   51.8816   21.3659 N   0  0  0  0  0  0
   -0.8352   50.6225   24.2390 C   0  0  2  0  0  0
   -1.7962   50.1673   23.9934 H   0  0  0  0  0  0
   -1.1060   51.9985   24.5710 N   0  0  0  0  0  0
   -0.9591   52.1867   25.8140 N   0  0  0  0  0  0
   -0.5411   50.9840   26.4834 C   0  0  1  0  0  0
   -1.3402   50.6646   27.1557 H   0  0  0  0  0  0
   -0.3119   50.0108   25.4395 N   0  0  0  0  0  0
   -0.5425   48.6067   25.6817 N   0  0  0  0  0  0
    0.9352   51.2969   27.4907 S   0  0  0  0  0  0
    0.4752   52.7263   28.5142 C   0  0  0  0  0  0
    1.7355   53.1913   29.2564 C   0  0  0  0  0  0
    1.7482   53.0994   30.4824 O   0  0  0  0  0  0
    2.9289   53.6470   28.4671 C   0  0  0  0  0  0
    4.1882   53.6736   29.0831 C   0  0  0  0  0  0
    5.3126   54.0933   28.3768 C   0  0  0  0  0  0
    5.1810   54.4983   27.0520 C   0  0  0  0  0  0
    3.9349   54.4962   26.4333 C   0  0  0  0  0  0
    2.8109   54.0741   27.1365 C   0  0  0  0  0  0
    6.7044   55.1039   26.0873 Br  0  0  0  0  0  0
    6.1577   54.9909   21.0153 F   0  0  0  0  0  0
    2.6966   52.4115   19.7046 H   0  0  0  0  0  0
    4.6882   53.7734   19.2202 H   0  0  0  0  0  0
    5.2079   54.5362   23.4014 H   0  0  0  0  0  0
    3.1995   53.1858   23.9010 H   0  0  0  0  0  0
    2.1534   50.8433   24.0343 H   0  0  0  0  0  0
    0.2868   48.2227   26.1210 H   0  0  0  0  0  0
   -1.2962   48.5231   26.3588 H   0  0  0  0  0  0
    0.0819   53.5320   27.8969 H   0  0  0  0  0  0
   -0.3058   52.4391   29.2190 H   0  0  0  0  0  0
    4.3052   53.3599   30.1105 H   0  0  0  0  0  0
    6.2809   54.1146   28.8565 H   0  0  0  0  0  0
    3.8376   54.8381   25.4145 H   0  0  0  0  0  0
    1.8569   54.0861   26.6290 H   0  0  0  0  0  0
  1  6  2  0  0  0
  1  2  1  0  0  0
  1 33  1  0  0  0
  2  3  2  0  0  0
  2 34  1  0  0  0
  3  4  1  0  0  0
  3 32  1  0  0  0
  4  5  2  0  0  0
  4 35  1  0  0  0
  5  6  1  0  0  0
  5 36  1  0  0  0
  6  7  1  0  0  0
  7 12  1  0  0  0
  7  8  2  0  0  0
  8  9  1  0  0  0
  8 37  1  0  0  0
  9 10  1  0  0  0
  9 11  1  0  0  0
  9 13  1  0  0  0
 11 12  2  0  0  0
 13 14  1  0  0  0
 13 19  1  0  0  0
 13 15  1  0  0  0
 15 16  2  0  0  0
 16 17  1  0  0  0
 17 18  1  0  0  0
 17 19  1  0  0  0
 17 21  1  0  0  0
 19 20  1  0  0  0
 20 38  1  0  0  0
 20 39  1  0  0  0
 21 22  1  0  0  0
 22 23  1  0  0  0
 22 40  1  0  0  0
 22 41  1  0  0  0
 23 24  2  0  0  0
 23 25  1  0  0  0
 25 30  2  0  0  0
 25 26  1  0  0  0
 26 27  2  0  0  0
 26 42  1  0  0  0
 27 28  1  0  0  0
 27 43  1  0  0  0
 28 29  2  0  0  0
 28 31  1  0  0  0
 29 30  1  0  0  0
 29 44  1  0  0  0
 30 45  1  0  0  0
M  END
> <i_i_glide_confnum>
135

> <i_i_glide_lignum>
2477

> <i_i_glide_posenum>
316

> <i_i_glide_rotatable_bonds>
6

> <i_m_Source_File_Index>
4322

> <b_m_subgroup_collapsed>
0

> <r_i_docking_score>
-6.54501

> <r_i_glide_ecoul>
-7.59945

> <r_i_glide_eff_state_penalty>
0

> <r_i_glide_einternal>
7.33308

> <r_i_glide_emodel>
-65.729

> <r_i_glide_energy>
-49.461

> <r_i_glide_erotb>
0.44793

> <r_i_glide_esite>
-0.211685

> <r_i_glide_evdw>
-41.8615

> <r_i_glide_gscore>
-6.54501

> <r_i_glide_hbond>
-0.360091

> <r_i_glide_ligand_efficiency>
-0.22569

> <r_i_glide_ligand_efficiency_ln>
-1.49864

> <r_i_glide_ligand_efficiency_sa>
-0.693391

> <r_i_glide_lipo>
-2.4856

> <r_i_glide_metal>
0

> <r_i_glide_rewards>
-0.702563

> <s_i_glide_gridfile>
wee1_glide-grid

> <s_m_Source_File>
wee1_decoys_glide_SP.sdf

> <s_m_Source_Path>
/Users/zhangxujun/Desktop

> <s_m_entry_id>
4597

> <s_m_entry_name>
wee1_decoys_glide_SP.4322

> <s_m_subgroup_title>
wee1_decoys_glide_SP

> <s_m_subgroupid>
wee1_decoys_glide_SP


$$$$
