ZINC13360642_3211
                    3D
 Schrodinger Suite 2024-2.
 53 56  0  0  1  0            999 V2000
    2.4674   51.7431   16.3306 C   0  0  0  0  0  0
    1.9054   51.2982   17.6706 C   0  0  0  0  0  0
    2.5304   51.6966   18.8539 C   0  0  0  0  0  0
    2.0433   51.2641   20.0869 C   0  0  0  0  0  0
    0.9318   50.4199   20.1529 C   0  0  0  0  0  0
    0.2993   50.0272   18.9627 C   0  0  0  0  0  0
    0.7852   50.4633   17.7308 C   0  0  0  0  0  0
    0.1589   50.0723   16.5959 F   0  0  0  0  0  0
    0.5155   50.0432   21.4402 N   0  0  0  0  0  0
   -0.3480   49.0752   21.8234 C   0  0  0  0  0  0
   -0.8944   48.2882   21.0550 O   0  0  0  0  0  0
   -0.5740   48.9603   23.1502 N   0  0  0  0  0  0
   -0.1021   49.7711   24.1736 C   0  0  0  0  0  0
    0.0612   51.0732   24.1348 N   0  0  0  0  0  0
    0.5132   51.5385   25.2819 C   0  0  0  0  0  0
    0.7010   50.5968   26.3032 C   0  0  0  0  0  0
    0.2915   49.0255   25.6820 S   0  0  0  0  0  0
    1.1907   50.9236   27.7156 C   0  0  0  0  0  0
    1.5681   52.3614   27.7685 N   0  0  0  0  0  0
    0.7047   53.2964   27.0147 C   0  0  0  0  0  0
    0.8166   53.0116   25.4869 C   0  0  0  0  0  0
    2.8232   52.9789   28.8738 S   0  0  0  0  0  0
    2.2875   54.1615   29.5577 O   0  0  0  0  0  0
    3.3704   51.8539   29.6444 O   0  0  0  0  0  0
    4.1357   53.5925   27.8067 C   0  0  0  0  0  0
    3.8226   54.3649   26.6897 C   0  0  0  0  0  0
    4.8143   54.7702   25.8117 C   0  0  0  0  0  0
    6.1545   54.4850   26.0868 C   0  0  0  0  0  0
    6.4737   53.7542   27.2320 C   0  0  0  0  0  0
    5.4691   53.2975   28.0823 C   0  0  0  0  0  0
    7.1997   54.8928   25.2874 O   0  0  0  0  0  0
    6.9446   55.6878   24.1372 C   0  0  0  0  0  0
    1.8182   52.4849   15.8658 H   0  0  0  0  0  0
    2.5387   50.8899   15.6549 H   0  0  0  0  0  0
    3.4753   52.1503   16.4291 H   0  0  0  0  0  0
    3.4078   52.3259   18.8190 H   0  0  0  0  0  0
    2.5473   51.5824   20.9881 H   0  0  0  0  0  0
   -0.5719   49.3913   18.9638 H   0  0  0  0  0  0
    0.9633   50.5442   22.1918 H   0  0  0  0  0  0
   -1.0530   48.1214   23.4406 H   0  0  0  0  0  0
    0.3900   50.7706   28.4401 H   0  0  0  0  0  0
    2.0448   50.3259   28.0258 H   0  0  0  0  0  0
   -0.3176   53.1544   27.3694 H   0  0  0  0  0  0
    0.9841   54.3149   27.2824 H   0  0  0  0  0  0
    1.8257   53.2059   25.1261 H   0  0  0  0  0  0
    0.1602   53.6401   24.8817 H   0  0  0  0  0  0
    2.8153   54.6521   26.4674 H   0  0  0  0  0  0
    4.5188   55.2981   24.9210 H   0  0  0  0  0  0
    7.5038   53.5204   27.4516 H   0  0  0  0  0  0
    5.7254   52.7055   28.9443 H   0  0  0  0  0  0
    7.8862   56.0970   23.7694 H   0  0  0  0  0  0
    6.4871   55.1006   23.3389 H   0  0  0  0  0  0
    6.3040   56.5362   24.3714 H   0  0  0  0  0  0
  1  2  1  0  0  0
  1 33  1  0  0  0
  1 34  1  0  0  0
  1 35  1  0  0  0
  2  7  2  0  0  0
  2  3  1  0  0  0
  3  4  2  0  0  0
  3 36  1  0  0  0
  4  5  1  0  0  0
  4 37  1  0  0  0
  5  6  2  0  0  0
  5  9  1  0  0  0
  6  7  1  0  0  0
  6 38  1  0  0  0
  7  8  1  0  0  0
  9 10  1  0  0  0
  9 39  1  0  0  0
 10 11  2  0  0  0
 10 12  1  0  0  0
 12 13  1  0  0  0
 12 40  1  0  0  0
 13 17  1  0  0  0
 13 14  2  0  0  0
 14 15  1  0  0  0
 15 21  1  0  0  0
 15 16  2  0  0  0
 16 17  1  0  0  0
 16 18  1  0  0  0
 18 19  1  0  0  0
 18 41  1  0  0  0
 18 42  1  0  0  0
 19 20  1  0  0  0
 19 22  1  0  0  0
 20 21  1  0  0  0
 20 43  1  0  0  0
 20 44  1  0  0  0
 21 45  1  0  0  0
 21 46  1  0  0  0
 22 23  2  0  0  0
 22 24  2  0  0  0
 22 25  1  0  0  0
 25 30  2  0  0  0
 25 26  1  0  0  0
 26 27  2  0  0  0
 26 47  1  0  0  0
 27 28  1  0  0  0
 27 48  1  0  0  0
 28 29  2  0  0  0
 28 31  1  0  0  0
 29 30  1  0  0  0
 29 49  1  0  0  0
 30 50  1  0  0  0
 31 32  1  0  0  0
 32 51  1  0  0  0
 32 52  1  0  0  0
 32 53  1  0  0  0
M  END
> <i_i_glide_confnum>
151

> <i_i_glide_lignum>
3212

> <i_i_glide_posenum>
187

> <i_i_glide_rotatable_bonds>
7

> <i_m_Source_File_Index>
4767

> <b_m_subgroup_collapsed>
0

> <r_i_docking_score>
-3.83693

> <r_i_glide_ecoul>
-5.678

> <r_i_glide_eff_state_penalty>
0

> <r_i_glide_einternal>
9.92404

> <r_i_glide_emodel>
-44.3012

> <r_i_glide_energy>
-42.1591

> <r_i_glide_erotb>
0.53503

> <r_i_glide_esite>
-0.0173231

> <r_i_glide_evdw>
-36.4811

> <r_i_glide_gscore>
-3.83693

> <r_i_glide_hbond>
-0.32

> <r_i_glide_ligand_efficiency>
-0.119904

> <r_i_glide_ligand_efficiency_ln>
-0.859194

> <r_i_glide_ligand_efficiency_sa>
-0.380672

> <r_i_glide_lipo>
-2.00513

> <r_i_glide_metal>
0

> <r_i_glide_rewards>
0.646249

> <s_i_glide_gridfile>
wee1_glide-grid

> <s_m_Source_File>
wee1_decoys_glide_SP.sdf

> <s_m_Source_Path>
/Users/zhangxujun/Desktop

> <s_m_entry_id>
5042

> <s_m_entry_name>
wee1_decoys_glide_SP.4767

> <s_m_subgroup_title>
wee1_decoys_glide_SP

> <s_m_subgroupid>
wee1_decoys_glide_SP


$$$$
