ZINC63383509_196
                    3D
 Schrodinger Suite 2024-2.
 75 80  0  0  1  0            999 V2000
    0.3807   48.6668   16.9372 C   0  0  0  0  0  0
    0.6452   47.8147   18.1889 C   0  0  0  0  0  0
    1.4197   46.5477   17.7924 C   0  0  0  0  0  0
    1.4015   48.6073   19.2838 C   0  0  0  0  0  0
    0.5974   49.7080   20.0266 C   0  0  1  0  0  0
    0.1467   50.3827   19.2972 H   0  0  0  0  0  0
   -0.5454   49.1041   20.8784 C   0  0  0  0  0  0
   -1.6289   48.8629   20.3530 O   0  0  0  0  0  0
   -0.2864   48.8994   22.1810 N   0  0  0  0  0  0
   -1.2385   48.4471   23.1925 C   0  0  0  0  0  0
   -0.5235   48.0002   24.4847 C   0  0  0  0  0  0
    0.0648   49.1934   25.2683 C   0  0  0  0  0  0
   -1.0052   50.2578   25.5865 C   0  0  0  0  0  0
   -1.8056   50.6835   24.3376 C   0  0  0  0  0  0
   -2.3474   49.4688   23.5515 C   0  0  0  0  0  0
    1.5379   50.5149   20.8203 N   0  0  0  0  0  0
    1.2162   51.6127   21.5348 C   0  0  0  0  0  0
    0.0854   52.1010   21.5181 O   0  0  0  0  0  0
    2.3211   52.1931   22.4662 C   0  0  2  0  0  0
    2.7893   51.2804   22.8377 H   0  0  0  0  0  0
    1.6657   52.9614   23.6642 C   0  0  0  0  0  0
    2.7097   53.5924   24.5554 C   0  0  0  0  0  0
    2.9379   53.5995   25.8780 C   0  0  0  0  0  0
    2.2158   52.9905   27.0034 C   0  0  0  0  0  0
    2.6750   53.1258   28.2643 C   0  0  0  0  0  0
    3.9079   53.8767   28.4704 C   0  0  0  0  0  0
    4.5894   54.4388   27.4391 C   0  0  0  0  0  0
    4.1129   54.3180   26.1257 C   0  0  0  0  0  0
    4.6174   54.7812   25.0026 N   0  3  0  0  0  0
    3.7644   54.4031   23.8538 C   0  0  1  0  0  0
    3.3122   55.2909   23.4303 H   0  0  0  0  0  0
    4.4535   53.5584   22.7649 C   0  0  1  0  0  0
    5.0319   52.7689   23.2337 H   0  0  0  0  0  0
    3.4351   52.9932   21.8517 N   0  0  0  0  0  0
    3.7650   53.1493   20.5391 C   0  0  0  0  0  0
    3.1935   52.6843   19.5550 O   0  0  0  0  0  0
    4.9638   54.0399   20.5369 C   0  0  0  0  0  0
    5.3645   54.2937   21.8343 C   0  0  0  0  0  0
    6.4969   55.0749   22.0787 C   0  0  0  0  0  0
    7.2131   55.5996   20.9993 C   0  0  0  0  0  0
    6.7964   55.3447   19.6878 C   0  0  0  0  0  0
    5.6685   54.5567   19.4488 C   0  0  0  0  0  0
    1.3041   49.1162   16.5679 H   0  0  0  0  0  0
   -0.0325   48.0652   16.1259 H   0  0  0  0  0  0
   -0.3290   49.4687   17.1387 H   0  0  0  0  0  0
   -0.3179   47.4817   18.5757 H   0  0  0  0  0  0
    2.4302   46.7903   17.4611 H   0  0  0  0  0  0
    1.4995   45.8548   18.6291 H   0  0  0  0  0  0
    0.9262   46.0174   16.9772 H   0  0  0  0  0  0
    2.2909   49.0455   18.8265 H   0  0  0  0  0  0
    1.7778   47.9006   20.0248 H   0  0  0  0  0  0
    0.6186   49.1795   22.5265 H   0  0  0  0  0  0
   -1.7199   47.5656   22.7629 H   0  0  0  0  0  0
    0.2729   47.2933   24.2541 H   0  0  0  0  0  0
   -1.2276   47.4645   25.1251 H   0  0  0  0  0  0
    0.8714   49.6453   24.6888 H   0  0  0  0  0  0
    0.5184   48.8355   26.1941 H   0  0  0  0  0  0
   -0.5377   51.1303   26.0421 H   0  0  0  0  0  0
   -1.6901   49.8590   26.3365 H   0  0  0  0  0  0
   -1.1740   51.2850   23.6841 H   0  0  0  0  0  0
   -2.6332   51.3314   24.6331 H   0  0  0  0  0  0
   -3.1041   48.9697   24.1605 H   0  0  0  0  0  0
   -2.8676   49.8040   22.6528 H   0  0  0  0  0  0
    2.4995   50.2079   20.8020 H   0  0  0  0  0  0
    1.0257   53.7543   23.2777 H   0  0  0  0  0  0
    1.0132   52.2968   24.2317 H   0  0  0  0  0  0
    1.3106   52.4207   26.8479 H   0  0  0  0  0  0
    2.1483   52.6789   29.0957 H   0  0  0  0  0  0
    4.2947   53.9773   29.4729 H   0  0  0  0  0  0
    5.5046   54.9744   27.6525 H   0  0  0  0  0  0
    6.8458   55.2576   23.0840 H   0  0  0  0  0  0
    8.1090   56.1745   21.1805 H   0  0  0  0  0  0
    7.3598   55.7396   18.8534 H   0  0  0  0  0  0
    5.3563   54.3438   18.4347 H   0  0  0  0  0  0
    5.4705   55.3259   24.9164 H   0  0  0  0  0  0
  1  2  1  0  0  0
  1 43  1  0  0  0
  1 44  1  0  0  0
  1 45  1  0  0  0
  2  3  1  0  0  0
  2  4  1  0  0  0
  2 46  1  0  0  0
  3 47  1  0  0  0
  3 48  1  0  0  0
  3 49  1  0  0  0
  4  5  1  0  0  0
  4 50  1  0  0  0
  4 51  1  0  0  0
  5  6  1  0  0  0
  5  7  1  0  0  0
  5 16  1  0  0  0
  7  8  2  0  0  0
  7  9  1  0  0  0
  9 10  1  0  0  0
  9 52  1  0  0  0
 10 15  1  0  0  0
 10 11  1  0  0  0
 10 53  1  0  0  0
 11 12  1  0  0  0
 11 54  1  0  0  0
 11 55  1  0  0  0
 12 13  1  0  0  0
 12 56  1  0  0  0
 12 57  1  0  0  0
 13 14  1  0  0  0
 13 58  1  0  0  0
 13 59  1  0  0  0
 14 15  1  0  0  0
 14 60  1  0  0  0
 14 61  1  0  0  0
 15 62  1  0  0  0
 15 63  1  0  0  0
 16 17  1  0  0  0
 16 64  1  0  0  0
 17 18  2  0  0  0
 17 19  1  0  0  0
 19 20  1  0  0  0
 19 34  1  0  0  0
 19 21  1  0  0  0
 21 22  1  0  0  0
 21 65  1  0  0  0
 21 66  1  0  0  0
 22 30  1  0  0  0
 22 23  2  0  0  0
 23 28  1  0  0  0
 23 24  1  0  0  0
 24 25  2  0  0  0
 24 67  1  0  0  0
 25 26  1  0  0  0
 25 68  1  0  0  0
 26 27  2  0  0  0
 26 69  1  0  0  0
 27 28  1  0  0  0
 27 70  1  0  0  0
 28 29  2  0  0  0
 29 30  1  0  0  0
 29 75  1  0  0  0
 30 31  1  0  0  0
 30 32  1  0  0  0
 32 33  1  0  0  0
 32 38  1  0  0  0
 32 34  1  0  0  0
 34 35  1  0  0  0
 35 36  2  0  0  0
 35 37  1  0  0  0
 37 42  2  0  0  0
 37 38  1  0  0  0
 38 39  2  0  0  0
 39 40  1  0  0  0
 39 71  1  0  0  0
 40 41  2  0  0  0
 40 72  1  0  0  0
 41 42  1  0  0  0
 41 73  1  0  0  0
 42 74  1  0  0  0
M  CHG  1  29   1
M  END
> <i_i_glide_confnum>
88

> <i_i_glide_lignum>
197

> <i_i_glide_posenum>
230

> <i_i_glide_rotatable_bonds>
8

> <i_m_Source_File_Index>
5858

> <b_m_subgroup_collapsed>
0

> <r_i_docking_score>
-4.65443

> <r_i_glide_ecoul>
0.580082

> <r_i_glide_eff_state_penalty>
0

> <r_i_glide_einternal>
2.28437

> <r_i_glide_emodel>
-51.7286

> <r_i_glide_energy>
-39.8057

> <r_i_glide_erotb>
0.38864

> <r_i_glide_esite>
-2.13217e-05

> <r_i_glide_evdw>
-40.3857

> <r_i_glide_gscore>
-4.65443

> <r_i_glide_hbond>
0

> <r_i_glide_ligand_efficiency>
-0.122485

> <r_i_glide_ligand_efficiency_ln>
-1.00363

> <r_i_glide_ligand_efficiency_sa>
-0.411791

> <r_i_glide_lipo>
-2.94614

> <r_i_glide_metal>
0

> <r_i_glide_rewards>
-0.164635

> <s_i_glide_gridfile>
wee1_glide-grid

> <s_m_Source_File>
wee1_decoys_glide_SP.sdf

> <s_m_Source_Path>
/Users/zhangxujun/Desktop

> <s_m_entry_id>
6133

> <s_m_entry_name>
wee1_decoys_glide_SP.5858

> <s_m_subgroup_title>
wee1_decoys_glide_SP

> <s_m_subgroupid>
wee1_decoys_glide_SP


$$$$
