ZINC15675774_4092
                    3D
 Schrodinger Suite 2024-2.
 51 55  0  0  1  0            999 V2000
    5.3569   54.3869   28.3317 C   0  0  0  0  0  0
    5.2408   54.2906   26.9452 C   0  0  0  0  0  0
    3.9757   54.1604   26.3401 C   0  0  0  0  0  0
    2.8425   54.1048   27.1594 C   0  0  0  0  0  0
    2.9609   54.2073   28.5459 C   0  0  0  0  0  0
    4.2169   54.3493   29.1307 C   0  0  0  0  0  0
    1.8569   54.1717   29.3252 F   0  0  0  0  0  0
    3.7488   54.0486   24.9504 N   0  0  0  0  0  0
    4.6367   54.1163   23.9284 C   0  0  0  0  0  0
    5.7878   54.5294   24.0864 O   0  0  0  0  0  0
    4.1984   53.6479   22.7180 N   0  0  0  0  0  0
    2.7466   53.4993   22.3835 C   0  0  0  0  0  0
    2.5747   52.4890   21.2582 C   0  0  0  0  0  0
    3.6164   51.8292   20.6380 C   0  0  0  0  0  0
    3.1044   51.1048   19.5766 N   0  0  0  0  0  0
    3.6760   50.6170   18.8822 H   0  0  0  0  0  0
    1.7334   51.2398   19.5799 C   0  0  0  0  0  0
    1.4103   52.0967   20.6152 N   0  3  0  0  0  0
    5.0617   52.0847   20.9585 C   0  0  0  0  0  0
    5.2093   53.4848   21.6227 C   0  0  1  0  0  0
    6.2016   53.4660   22.0780 H   0  0  0  0  0  0
    5.2778   54.6176   20.6080 C   0  0  0  0  0  0
    4.6597   54.7074   19.4605 N   0  0  0  0  0  0
    5.1157   55.8468   18.9714 C   0  0  0  0  0  0
    6.0291   56.4497   19.7108 N   0  0  0  0  0  0
    6.1336   55.6407   20.8411 O   0  0  0  0  0  0
    4.5575   56.4668   17.7195 C   0  0  0  0  0  0
    3.5316   55.8307   17.0088 C   0  0  0  0  0  0
    2.9565   56.4405   15.8976 C   0  0  0  0  0  0
    3.3929   57.7016   15.4808 C   0  0  0  0  0  0
    4.4287   58.3333   16.1744 C   0  0  0  0  0  0
    5.0101   57.7174   17.2783 C   0  0  0  0  0  0
    2.7512   58.3753   14.2677 C   0  0  0  0  0  0
    3.5968   59.2121   13.6628 F   0  0  0  0  0  0
    2.3588   57.4704   13.3684 F   0  0  0  0  0  0
    1.6821   59.0642   14.6670 F   0  0  0  0  0  0
    6.3321   54.4952   28.7866 H   0  0  0  0  0  0
    6.1545   54.3118   26.3738 H   0  0  0  0  0  0
    1.8571   53.9937   26.7313 H   0  0  0  0  0  0
    4.3075   54.4287   30.2025 H   0  0  0  0  0  0
    2.8080   53.7834   24.7091 H   0  0  0  0  0  0
    2.1682   53.1881   23.2524 H   0  0  0  0  0  0
    2.3803   54.4822   22.0817 H   0  0  0  0  0  0
    1.0503   50.8126   18.8576 H   0  0  0  0  0  0
    5.4084   51.3193   21.6526 H   0  0  0  0  0  0
    5.6880   51.9991   20.0689 H   0  0  0  0  0  0
    3.1587   54.8676   17.3264 H   0  0  0  0  0  0
    2.1596   55.9351   15.3713 H   0  0  0  0  0  0
    4.7741   59.3150   15.8776 H   0  0  0  0  0  0
    5.7918   58.2457   17.8054 H   0  0  0  0  0  0
    0.4840   52.4378   20.8289 H   0  0  0  0  0  0
  1  6  2  0  0  0
  1  2  1  0  0  0
  1 37  1  0  0  0
  2  3  2  0  0  0
  2 38  1  0  0  0
  3  4  1  0  0  0
  3  8  1  0  0  0
  4  5  2  0  0  0
  4 39  1  0  0  0
  5  6  1  0  0  0
  5  7  1  0  0  0
  6 40  1  0  0  0
  8  9  1  0  0  0
  8 41  1  0  0  0
  9 10  2  0  0  0
  9 11  1  0  0  0
 11 20  1  0  0  0
 11 12  1  0  0  0
 12 13  1  0  0  0
 12 42  1  0  0  0
 12 43  1  0  0  0
 13 18  1  0  0  0
 13 14  2  0  0  0
 14 15  1  0  0  0
 14 19  1  0  0  0
 15 16  1  0  0  0
 15 17  1  0  0  0
 17 18  2  0  0  0
 17 44  1  0  0  0
 18 51  1  0  0  0
 19 20  1  0  0  0
 19 45  1  0  0  0
 19 46  1  0  0  0
 20 21  1  0  0  0
 20 22  1  0  0  0
 22 26  1  0  0  0
 22 23  2  0  0  0
 23 24  1  0  0  0
 24 25  2  0  0  0
 24 27  1  0  0  0
 25 26  1  0  0  0
 27 32  2  0  0  0
 27 28  1  0  0  0
 28 29  2  0  0  0
 28 47  1  0  0  0
 29 30  1  0  0  0
 29 48  1  0  0  0
 30 31  2  0  0  0
 30 33  1  0  0  0
 31 32  1  0  0  0
 31 49  1  0  0  0
 32 50  1  0  0  0
 33 34  1  0  0  0
 33 35  1  0  0  0
 33 36  1  0  0  0
M  CHG  1  18   1
M  END
> <i_i_glide_confnum>
48

> <i_i_glide_lignum>
4093

> <i_i_glide_posenum>
130

> <i_i_glide_rotatable_bonds>
6

> <i_m_Source_File_Index>
5852

> <b_m_subgroup_collapsed>
0

> <r_i_docking_score>
-5.31848

> <r_i_glide_ecoul>
-2.93225

> <r_i_glide_eff_state_penalty>
0

> <r_i_glide_einternal>
4.58665

> <r_i_glide_emodel>
-56.2467

> <r_i_glide_energy>
-41.2267

> <r_i_glide_erotb>
0.451279

> <r_i_glide_esite>
-0.181535

> <r_i_glide_evdw>
-38.2944

> <r_i_glide_gscore>
-5.31848

> <r_i_glide_hbond>
-0.192115

> <r_i_glide_ligand_efficiency>
-0.156426

> <r_i_glide_ligand_efficiency_ln>
-1.175

> <r_i_glide_ligand_efficiency_sa>
-0.506759

> <r_i_glide_lipo>
-1.95533

> <r_i_glide_metal>
0

> <r_i_glide_rewards>
-1.08622

> <s_i_glide_gridfile>
wee1_glide-grid

> <s_m_Source_File>
wee1_decoys_glide_SP.sdf

> <s_m_Source_Path>
/Users/zhangxujun/Desktop

> <s_m_entry_id>
6127

> <s_m_entry_name>
wee1_decoys_glide_SP.5852

> <s_m_subgroup_title>
wee1_decoys_glide_SP

> <s_m_subgroupid>
wee1_decoys_glide_SP


$$$$
