ZINC49519797_1795
                    3D
 Schrodinger Suite 2024-2.
 32 33  0  0  1  0            999 V2000
    2.9029   53.9328   26.5556 C   0  0  0  0  0  0
    3.6839   53.8249   27.7260 C   0  0  0  0  0  0
    5.0326   54.0968   27.4302 C   0  0  0  0  0  0
    5.3074   54.4510   25.7533 S   0  0  0  0  0  0
    3.6272   54.2354   25.4124 C   0  0  0  0  0  0
    3.0268   54.4364   23.8170 Cl  0  0  0  0  0  0
    6.3931   54.0958   28.4819 Cl  0  0  0  0  0  0
    3.1521   53.6133   29.0667 C   0  0  0  0  0  0
    3.6376   54.2563   30.0030 O   0  0  0  0  0  0
    2.1025   52.7601   29.2510 N   0  0  0  0  0  0
    1.4374   52.6802   30.5671 C   0  0  0  0  0  0
   -0.0667   52.8905   30.3176 C   0  0  0  0  0  0
   -0.6420   51.8749   29.3181 C   0  0  0  0  0  0
    0.1846   51.8055   28.0188 C   0  0  1  0  0  0
    0.0342   52.7523   27.4950 H   0  0  0  0  0  0
    1.7041   51.6960   28.3079 C   0  0  0  0  0  0
   -0.2999   50.7551   27.1288 N   0  0  0  0  0  0
   -0.1025   50.6999   25.8055 C   0  0  0  0  0  0
    0.4132   51.5885   25.1315 O   0  0  0  0  0  0
   -0.5089   49.5463   25.2946 N   0  0  0  0  0  0
    1.8305   53.8050   26.5286 H   0  0  0  0  0  0
    1.6155   51.6949   30.9956 H   0  0  0  0  0  0
    1.7964   53.4186   31.2817 H   0  0  0  0  0  0
   -0.5952   52.8112   31.2679 H   0  0  0  0  0  0
   -0.2410   53.9079   29.9640 H   0  0  0  0  0  0
   -0.6350   50.8968   29.8007 H   0  0  0  0  0  0
   -1.6866   52.0965   29.0999 H   0  0  0  0  0  0
    2.2816   51.6927   27.3863 H   0  0  0  0  0  0
    1.9059   50.7323   28.7770 H   0  0  0  0  0  0
   -0.6669   49.9207   27.5773 H   0  0  0  0  0  0
   -0.8856   48.8290   25.8999 H   0  0  0  0  0  0
   -0.3833   49.3720   24.3087 H   0  0  0  0  0  0
  1  5  2  0  0  0
  1  2  1  0  0  0
  1 21  1  0  0  0
  2  3  2  0  0  0
  2  8  1  0  0  0
  3  4  1  0  0  0
  3  7  1  0  0  0
  4  5  1  0  0  0
  5  6  1  0  0  0
  8  9  2  0  0  0
  8 10  1  0  0  0
 10 16  1  0  0  0
 10 11  1  0  0  0
 11 12  1  0  0  0
 11 22  1  0  0  0
 11 23  1  0  0  0
 12 13  1  0  0  0
 12 24  1  0  0  0
 12 25  1  0  0  0
 13 14  1  0  0  0
 13 26  1  0  0  0
 13 27  1  0  0  0
 14 15  1  0  0  0
 14 16  1  0  0  0
 14 17  1  0  0  0
 16 28  1  0  0  0
 16 29  1  0  0  0
 17 18  1  0  0  0
 17 30  1  0  0  0
 18 19  2  0  0  0
 18 20  1  0  0  0
 20 31  1  0  0  0
 20 32  1  0  0  0
M  END
> <i_i_glide_confnum>
6

> <i_i_glide_lignum>
1796

> <i_i_glide_posenum>
189

> <i_i_glide_rotatable_bonds>
4

> <i_m_Source_File_Index>
1666

> <b_m_subgroup_collapsed>
0

> <r_i_docking_score>
-6.14839

> <r_i_glide_ecoul>
-5.29533

> <r_i_glide_eff_state_penalty>
0

> <r_i_glide_einternal>
2.10375

> <r_i_glide_emodel>
-55.813

> <r_i_glide_energy>
-40.7831

> <r_i_glide_erotb>
0.540278

> <r_i_glide_esite>
-0.168894

> <r_i_glide_evdw>
-35.4878

> <r_i_glide_gscore>
-6.14839

> <r_i_glide_hbond>
-0.456

> <r_i_glide_ligand_efficiency>
-0.3236

> <r_i_glide_ligand_efficiency_ln>
-1.55875

> <r_i_glide_ligand_efficiency_sa>
-0.863494

> <r_i_glide_lipo>
-1.78183

> <r_i_glide_metal>
0

> <r_i_glide_rewards>
-1.71325

> <s_i_glide_gridfile>
wee1_glide-grid

> <s_m_Source_File>
wee1_decoys_glide_SP.sdf

> <s_m_Source_Path>
/Users/zhangxujun/Desktop

> <s_m_entry_id>
1941

> <s_m_entry_name>
wee1_decoys_glide_SP.1666

> <s_m_subgroup_title>
wee1_decoys_glide_SP

> <s_m_subgroupid>
wee1_decoys_glide_SP


$$$$
