ZINC34667795_883
                    3D
 Schrodinger Suite 2024-2.
 60 64  0  0  1  0            999 V2000
   -0.2371   44.3056   16.5402 C   0  0  0  0  0  0
    0.1845   45.5037   17.1055 C   0  0  0  0  0  0
    1.3884   46.0972   16.6899 C   0  0  0  0  0  0
    2.1404   45.4884   15.6819 C   0  0  0  0  0  0
    1.7112   44.2917   15.1139 C   0  0  0  0  0  0
    0.5266   43.6890   15.5482 C   0  0  0  0  0  0
    0.0455   42.3643   14.9556 C   0  0  0  0  0  0
    0.8211   41.9325   13.9597 F   0  0  0  0  0  0
    0.0346   41.4337   15.9125 F   0  0  0  0  0  0
   -1.1965   42.5034   14.4880 F   0  0  0  0  0  0
    1.9052   47.2969   17.2186 N   0  0  0  0  0  0
    1.5420   47.9557   18.3344 C   0  0  0  0  0  0
    0.6461   47.5997   19.1031 O   0  0  0  0  0  0
    2.3044   49.0527   18.5182 N   0  0  0  0  0  0
    2.2872   49.9124   19.6297 C   0  0  0  0  0  0
    1.9049   49.4984   20.9157 C   0  0  0  0  0  0
    1.9002   50.4102   21.9665 C   0  0  0  0  0  0
    2.2828   51.7421   21.7464 C   0  0  0  0  0  0
    2.6712   52.0917   20.4967 N   0  3  0  0  0  0
    2.7026   51.2356   19.4504 C   0  0  0  0  0  0
    2.2616   52.7110   22.8078 N   0  0  0  0  0  0
    1.6901   52.3572   24.1252 C   0  0  0  0  0  0
    1.7871   53.4641   25.1908 C   0  0  0  0  0  0
    3.1803   53.9523   25.2387 N   0  0  0  0  0  0
    3.8632   54.2495   23.9566 C   0  0  0  0  0  0
    2.9204   54.0326   22.7468 C   0  0  0  0  0  0
    3.9216   54.0968   26.3806 C   0  0  0  0  0  0
    5.0935   54.4837   26.3501 O   0  0  0  0  0  0
    3.3560   53.7023   27.7335 C   0  0  0  0  0  0
    4.1592   52.9294   28.6001 C   0  0  0  0  0  0
    3.6819   52.4802   29.8376 C   0  0  0  0  0  0
    2.3805   52.8218   30.1792 C   0  0  0  0  0  0
    1.6071   53.6159   29.3832 C   0  0  0  0  0  0
    2.0723   54.1004   28.1668 C   0  0  0  0  0  0
    0.4065   53.8277   29.9915 O   0  0  0  0  0  0
    0.3792   52.9519   31.0907 C   0  0  0  0  0  0
    1.6901   52.4965   31.3023 O   0  0  0  0  0  0
   -1.1623   43.8588   16.8749 H   0  0  0  0  0  0
   -0.4469   45.9496   17.8575 H   0  0  0  0  0  0
    3.0647   45.9351   15.3466 H   0  0  0  0  0  0
    2.3042   43.8341   14.3373 H   0  0  0  0  0  0
    2.7205   47.6664   16.7437 H   0  0  0  0  0  0
    2.9698   49.2938   17.7809 H   0  0  0  0  0  0
    1.6161   48.4790   21.1196 H   0  0  0  0  0  0
    1.5927   50.0540   22.9391 H   0  0  0  0  0  0
    3.0493   51.6391   18.5069 H   0  0  0  0  0  0
    0.6391   52.1293   23.9503 H   0  0  0  0  0  0
    2.1686   51.4495   24.4820 H   0  0  0  0  0  0
    1.4839   52.9849   26.1163 H   0  0  0  0  0  0
    1.1260   54.2920   24.9277 H   0  0  0  0  0  0
    4.1623   55.2964   23.9742 H   0  0  0  0  0  0
    4.7287   53.5910   23.8511 H   0  0  0  0  0  0
    2.1608   54.8119   22.6654 H   0  0  0  0  0  0
    3.5226   54.0829   21.8396 H   0  0  0  0  0  0
    5.1619   52.6453   28.3033 H   0  0  0  0  0  0
    4.3067   51.8830   30.4851 H   0  0  0  0  0  0
    1.4438   54.7415   27.5641 H   0  0  0  0  0  0
    0.0056   53.4577   31.9844 H   0  0  0  0  0  0
   -0.2687   52.0976   30.8739 H   0  0  0  0  0  0
    2.9291   53.0554   20.3348 H   0  0  0  0  0  0
  1  6  2  0  0  0
  1  2  1  0  0  0
  1 38  1  0  0  0
  2  3  2  0  0  0
  2 39  1  0  0  0
  3  4  1  0  0  0
  3 11  1  0  0  0
  4  5  2  0  0  0
  4 40  1  0  0  0
  5  6  1  0  0  0
  5 41  1  0  0  0
  6  7  1  0  0  0
  7  8  1  0  0  0
  7  9  1  0  0  0
  7 10  1  0  0  0
 11 12  1  0  0  0
 11 42  1  0  0  0
 12 13  2  0  0  0
 12 14  1  0  0  0
 14 15  1  0  0  0
 14 43  1  0  0  0
 15 20  2  0  0  0
 15 16  1  0  0  0
 16 17  2  0  0  0
 16 44  1  0  0  0
 17 18  1  0  0  0
 17 45  1  0  0  0
 18 19  2  0  0  0
 18 21  1  0  0  0
 19 20  1  0  0  0
 19 60  1  0  0  0
 20 46  1  0  0  0
 21 26  1  0  0  0
 21 22  1  0  0  0
 22 23  1  0  0  0
 22 47  1  0  0  0
 22 48  1  0  0  0
 23 24  1  0  0  0
 23 49  1  0  0  0
 23 50  1  0  0  0
 24 25  1  0  0  0
 24 27  1  0  0  0
 25 26  1  0  0  0
 25 51  1  0  0  0
 25 52  1  0  0  0
 26 53  1  0  0  0
 26 54  1  0  0  0
 27 28  2  0  0  0
 27 29  1  0  0  0
 29 34  2  0  0  0
 29 30  1  0  0  0
 30 31  2  0  0  0
 30 55  1  0  0  0
 31 32  1  0  0  0
 31 56  1  0  0  0
 32 37  1  0  0  0
 32 33  2  0  0  0
 33 34  1  0  0  0
 33 35  1  0  0  0
 34 57  1  0  0  0
 35 36  1  0  0  0
 36 37  1  0  0  0
 36 58  1  0  0  0
 36 59  1  0  0  0
M  CHG  1  19   1
M  END
> <i_i_glide_confnum>
323

> <i_i_glide_lignum>
884

> <i_i_glide_posenum>
183

> <i_i_glide_rotatable_bonds>
8

> <i_m_Source_File_Index>
5305

> <b_m_subgroup_collapsed>
0

> <r_i_docking_score>
-6.49004

> <r_i_glide_ecoul>
-8.4342

> <r_i_glide_eff_state_penalty>
0

> <r_i_glide_einternal>
5.84177

> <r_i_glide_emodel>
-75.4162

> <r_i_glide_energy>
-53.3448

> <r_i_glide_erotb>
0.542492

> <r_i_glide_esite>
-0.342117

> <r_i_glide_evdw>
-44.9106

> <r_i_glide_gscore>
-6.49004

> <r_i_glide_hbond>
-0.286969

> <r_i_glide_ligand_efficiency>
-0.175406

> <r_i_glide_ligand_efficiency_ln>
-1.40754

> <r_i_glide_ligand_efficiency_sa>
-0.584493

> <r_i_glide_lipo>
-2.06675

> <r_i_glide_metal>
0

> <r_i_glide_rewards>
-0.826033

> <s_i_glide_gridfile>
wee1_glide-grid

> <s_m_Source_File>
wee1_decoys_glide_SP.sdf

> <s_m_Source_Path>
/Users/zhangxujun/Desktop

> <s_m_entry_id>
5580

> <s_m_entry_name>
wee1_decoys_glide_SP.5305

> <s_m_subgroup_title>
wee1_decoys_glide_SP

> <s_m_subgroupid>
wee1_decoys_glide_SP


$$$$
