ZINC14273351_2345
                    3D
 Schrodinger Suite 2024-2.
 47 49  0  0  1  0            999 V2000
    3.7244   54.1928   24.5220 C   0  0  0  0  0  0
    3.2388   53.9652   25.9565 C   0  0  0  0  0  0
    4.1164   54.1593   27.0353 C   0  0  0  0  0  0
    3.6552   54.0303   28.3568 C   0  0  0  0  0  0
    2.3053   53.7204   28.5978 C   0  0  0  0  0  0
    1.4302   53.5000   27.5268 C   0  0  0  0  0  0
    1.9044   53.6042   26.2078 C   0  0  0  0  0  0
    0.8178   53.2996   24.8843 Cl  0  0  0  0  0  0
    0.0771   53.2950   27.7638 O   0  0  0  0  0  0
   -0.4141   51.9893   28.1388 C   0  0  0  0  0  0
   -0.0433   50.9184   27.1046 C   0  0  0  0  0  0
    1.1043   50.4978   27.1177 O   0  0  0  0  0  0
   -0.9993   50.4993   26.2500 N   0  0  0  0  0  0
   -0.8198   49.8147   25.0415 C   0  0  0  0  0  0
   -1.8150   49.1427   24.2964 C   0  0  0  0  0  0
   -1.3739   48.8759   22.9630 C   0  0  0  0  0  0
   -0.0264   49.2163   22.7636 C   0  0  0  0  0  0
    0.7043   49.8523   24.1886 S   0  0  0  0  0  0
    0.7328   49.1474   21.4413 C   0  0  0  0  0  0
   -0.0800   48.3607   20.3895 C   0  0  0  0  0  0
   -1.5782   48.6921   20.4425 C   0  0  0  0  0  0
   -2.2124   48.3197   21.8009 C   0  0  0  0  0  0
   -3.1662   48.8817   24.7775 C   0  0  0  0  0  0
   -4.1508   48.8750   24.0453 O   0  0  0  0  0  0
   -3.2905   48.6266   26.0822 N   0  0  0  0  0  0
    1.6850   53.6526   30.2171 Cl  0  0  0  0  0  0
    4.6292   54.2357   29.5146 C   0  0  0  0  0  0
    5.7788   54.5806   26.7355 Cl  0  0  0  0  0  0
    4.4507   55.0031   24.4718 H   0  0  0  0  0  0
    4.1938   53.2968   24.1208 H   0  0  0  0  0  0
    2.9235   54.5027   23.8513 H   0  0  0  0  0  0
   -1.4982   52.0491   28.2349 H   0  0  0  0  0  0
   -0.0440   51.6926   29.1212 H   0  0  0  0  0  0
   -1.9576   50.6454   26.5306 H   0  0  0  0  0  0
    1.7209   48.7009   21.5657 H   0  0  0  0  0  0
    0.8909   50.1609   21.0693 H   0  0  0  0  0  0
    0.0571   47.2866   20.5141 H   0  0  0  0  0  0
    0.3130   48.5838   19.3961 H   0  0  0  0  0  0
   -2.1021   48.1723   19.6399 H   0  0  0  0  0  0
   -1.7206   49.7573   20.2519 H   0  0  0  0  0  0
   -3.2313   48.7019   21.8026 H   0  0  0  0  0  0
   -2.2935   47.2362   21.8916 H   0  0  0  0  0  0
   -2.4825   48.4986   26.6910 H   0  0  0  0  0  0
   -4.2096   48.4514   26.4568 H   0  0  0  0  0  0
    4.8207   55.2950   29.6811 H   0  0  0  0  0  0
    4.3037   53.7758   30.4461 H   0  0  0  0  0  0
    5.5830   53.7641   29.2809 H   0  0  0  0  0  0
  1  2  1  0  0  0
  1 29  1  0  0  0
  1 30  1  0  0  0
  1 31  1  0  0  0
  2  7  2  0  0  0
  2  3  1  0  0  0
  3  4  2  0  0  0
  3 28  1  0  0  0
  4  5  1  0  0  0
  4 27  1  0  0  0
  5  6  2  0  0  0
  5 26  1  0  0  0
  6  7  1  0  0  0
  6  9  1  0  0  0
  7  8  1  0  0  0
  9 10  1  0  0  0
 10 11  1  0  0  0
 10 32  1  0  0  0
 10 33  1  0  0  0
 11 12  2  0  0  0
 11 13  1  0  0  0
 13 14  1  0  0  0
 13 34  1  0  0  0
 14 18  1  0  0  0
 14 15  2  0  0  0
 15 16  1  0  0  0
 15 23  1  0  0  0
 16 22  1  0  0  0
 16 17  2  0  0  0
 17 18  1  0  0  0
 17 19  1  0  0  0
 19 20  1  0  0  0
 19 35  1  0  0  0
 19 36  1  0  0  0
 20 21  1  0  0  0
 20 37  1  0  0  0
 20 38  1  0  0  0
 21 22  1  0  0  0
 21 39  1  0  0  0
 21 40  1  0  0  0
 22 41  1  0  0  0
 22 42  1  0  0  0
 23 24  2  0  0  0
 23 25  1  0  0  0
 25 43  1  0  0  0
 25 44  1  0  0  0
 27 45  1  0  0  0
 27 46  1  0  0  0
 27 47  1  0  0  0
M  END
> <i_i_glide_confnum>
82

> <i_i_glide_lignum>
2346

> <i_i_glide_posenum>
291

> <i_i_glide_rotatable_bonds>
6

> <i_m_Source_File_Index>
5665

> <b_m_subgroup_collapsed>
0

> <r_i_docking_score>
-4.39899

> <r_i_glide_ecoul>
-4.83366

> <r_i_glide_eff_state_penalty>
0

> <r_i_glide_einternal>
10.8299

> <r_i_glide_emodel>
-38.0799

> <r_i_glide_energy>
-33.6748

> <r_i_glide_erotb>
0.472191

> <r_i_glide_esite>
-0.254699

> <r_i_glide_evdw>
-28.8412

> <r_i_glide_gscore>
-4.39899

> <r_i_glide_hbond>
-0.16

> <r_i_glide_ligand_efficiency>
-0.157107

> <r_i_glide_ligand_efficiency_ln>
-1.01542

> <r_i_glide_ligand_efficiency_sa>
-0.477069

> <r_i_glide_lipo>
-2.07482

> <r_i_glide_metal>
0

> <r_i_glide_rewards>
-0.214555

> <s_i_glide_gridfile>
wee1_glide-grid

> <s_m_Source_File>
wee1_decoys_glide_SP.sdf

> <s_m_Source_Path>
/Users/zhangxujun/Desktop

> <s_m_entry_id>
5940

> <s_m_entry_name>
wee1_decoys_glide_SP.5665

> <s_m_subgroup_title>
wee1_decoys_glide_SP

> <s_m_subgroupid>
wee1_decoys_glide_SP


$$$$
