ZINC08445652_5209
                    3D
 Schrodinger Suite 2024-2.
 51 54  0  0  1  0            999 V2000
   -1.3035   47.4214   21.0534 C   0  0  0  0  0  0
   -0.2838   47.6765   20.0917 O   0  0  0  0  0  0
    0.6041   48.7111   20.3145 C   0  0  0  0  0  0
    1.5033   48.9936   19.2872 C   0  0  0  0  0  0
    2.4220   50.0318   19.4139 C   0  0  0  0  0  0
    2.4683   50.7961   20.5791 C   0  0  0  0  0  0
    1.5791   50.5068   21.6260 C   0  0  0  0  0  0
    0.6507   49.4766   21.4900 C   0  0  0  0  0  0
    3.4432   51.8123   20.6112 N   0  0  0  0  0  0
    3.6698   52.7715   21.5352 C   0  0  0  0  0  0
    3.0192   52.9011   22.5734 O   0  0  0  0  0  0
    4.8048   53.6580   21.2600 C   0  0  0  0  0  0
    5.2687   54.0613   19.9653 C   0  0  0  0  0  0
    6.3256   54.9869   20.0506 C   0  0  0  0  0  0
    6.7736   55.3455   21.6729 S   0  0  0  0  0  0
    5.4986   54.3381   22.2890 C   0  0  0  0  0  0
    5.2412   54.2236   23.6541 N   0  0  0  0  0  0
    5.7898   54.8652   24.7116 C   0  0  0  0  0  0
    6.7043   55.6881   24.6595 O   0  0  0  0  0  0
    5.2047   54.4746   26.0439 C   0  0  0  0  0  0
    3.8565   54.0942   26.1554 C   0  0  0  0  0  0
    3.3489   53.6655   27.3751 C   0  0  0  0  0  0
    4.1789   53.6137   28.4881 C   0  0  0  0  0  0
    5.4995   54.0491   28.4083 C   0  0  0  0  0  0
    6.0119   54.4765   27.1870 C   0  0  0  0  0  0
    3.5007   52.8977   30.1138 Br  0  0  0  0  0  0
    7.0772   55.5882   18.8722 C   0  0  0  0  0  0
    6.2135   55.4494   17.6061 C   0  0  0  0  0  0
    5.6888   54.0154   17.4476 C   0  0  0  0  0  0
    4.7441   53.5967   18.5963 C   0  0  0  0  0  0
   -1.9304   46.6012   20.7068 H   0  0  0  0  0  0
   -1.9481   48.2903   21.1896 H   0  0  0  0  0  0
   -0.8964   47.1292   22.0213 H   0  0  0  0  0  0
    1.4856   48.4071   18.3783 H   0  0  0  0  0  0
    3.1038   50.2220   18.5947 H   0  0  0  0  0  0
    1.5860   51.0513   22.5564 H   0  0  0  0  0  0
   -0.0177   49.2876   22.3142 H   0  0  0  0  0  0
    4.0549   51.8155   19.8050 H   0  0  0  0  0  0
    4.4846   53.5880   23.8664 H   0  0  0  0  0  0
    3.1948   54.1010   25.3004 H   0  0  0  0  0  0
    2.3210   53.3411   27.4496 H   0  0  0  0  0  0
    6.1372   54.0394   29.2786 H   0  0  0  0  0  0
    7.0482   54.7837   27.1373 H   0  0  0  0  0  0
    7.3249   56.6367   19.0494 H   0  0  0  0  0  0
    8.0242   55.0611   18.7346 H   0  0  0  0  0  0
    5.3733   56.1478   17.6462 H   0  0  0  0  0  0
    6.8019   55.7298   16.7299 H   0  0  0  0  0  0
    5.1675   53.9115   16.4957 H   0  0  0  0  0  0
    6.5323   53.3247   17.4022 H   0  0  0  0  0  0
    4.6428   52.5130   18.5218 H   0  0  0  0  0  0
    3.7500   54.0189   18.4271 H   0  0  0  0  0  0
  1  2  1  0  0  0
  1 31  1  0  0  0
  1 32  1  0  0  0
  1 33  1  0  0  0
  2  3  1  0  0  0
  3  8  2  0  0  0
  3  4  1  0  0  0
  4  5  2  0  0  0
  4 34  1  0  0  0
  5  6  1  0  0  0
  5 35  1  0  0  0
  6  7  2  0  0  0
  6  9  1  0  0  0
  7  8  1  0  0  0
  7 36  1  0  0  0
  8 37  1  0  0  0
  9 10  1  0  0  0
  9 38  1  0  0  0
 10 11  2  0  0  0
 10 12  1  0  0  0
 12 16  2  0  0  0
 12 13  1  0  0  0
 13 30  1  0  0  0
 13 14  2  0  0  0
 14 15  1  0  0  0
 14 27  1  0  0  0
 15 16  1  0  0  0
 16 17  1  0  0  0
 17 18  1  0  0  0
 17 39  1  0  0  0
 18 19  2  0  0  0
 18 20  1  0  0  0
 20 25  2  0  0  0
 20 21  1  0  0  0
 21 22  2  0  0  0
 21 40  1  0  0  0
 22 23  1  0  0  0
 22 41  1  0  0  0
 23 24  2  0  0  0
 23 26  1  0  0  0
 24 25  1  0  0  0
 24 42  1  0  0  0
 25 43  1  0  0  0
 27 28  1  0  0  0
 27 44  1  0  0  0
 27 45  1  0  0  0
 28 29  1  0  0  0
 28 46  1  0  0  0
 28 47  1  0  0  0
 29 30  1  0  0  0
 29 48  1  0  0  0
 29 49  1  0  0  0
 30 50  1  0  0  0
 30 51  1  0  0  0
M  END
> <i_i_glide_confnum>
110

> <i_i_glide_lignum>
5210

> <i_i_glide_posenum>
280

> <i_i_glide_rotatable_bonds>
7

> <i_m_Source_File_Index>
1241

> <b_m_subgroup_collapsed>
0

> <r_i_docking_score>
-5.81017

> <r_i_glide_ecoul>
-4.19934

> <r_i_glide_eff_state_penalty>
0

> <r_i_glide_einternal>
6.3484

> <r_i_glide_emodel>
-67.1741

> <r_i_glide_energy>
-51.5923

> <r_i_glide_erotb>
0.517337

> <r_i_glide_esite>
-0.0309498

> <r_i_glide_evdw>
-47.393

> <r_i_glide_gscore>
-5.81017

> <r_i_glide_hbond>
0

> <r_i_glide_ligand_efficiency>
-0.193672

> <r_i_glide_ligand_efficiency_ln>
-1.32013

> <r_i_glide_ligand_efficiency_sa>
-0.601785

> <r_i_glide_lipo>
-2.56598

> <r_i_glide_metal>
0

> <r_i_glide_rewards>
-0.731026

> <s_i_glide_gridfile>
wee1_glide-grid

> <s_m_Source_File>
wee1_decoys_glide_SP.sdf

> <s_m_Source_Path>
/Users/zhangxujun/Desktop

> <s_m_entry_id>
1516

> <s_m_entry_name>
wee1_decoys_glide_SP.1241

> <s_m_subgroup_title>
wee1_decoys_glide_SP

> <s_m_subgroupid>
wee1_decoys_glide_SP


$$$$
