ZINC35316329_442
                    3D
 Schrodinger Suite 2024-2.
 52 55  0  0  1  0            999 V2000
    0.1185   54.0116   31.6287 C   0  0  0  0  0  0
    1.0880   53.8455   30.4801 C   0  0  0  0  0  0
    1.6128   54.9689   29.8396 C   0  0  0  0  0  0
    2.5060   54.8075   28.7851 C   0  0  0  0  0  0
    2.8618   53.5229   28.3588 C   0  0  0  0  0  0
    2.3231   52.4038   28.9968 C   0  0  0  0  0  0
    1.4348   52.5643   30.0544 C   0  0  0  0  0  0
    3.8218   53.3066   27.1984 C   0  0  0  0  0  0
    4.0239   54.5093   26.4539 O   0  0  0  0  0  0
    4.2674   54.3100   25.1170 C   0  0  0  0  0  0
    3.2012   54.0974   24.2320 C   0  0  0  0  0  0
    3.4790   53.8797   22.8729 C   0  0  0  0  0  0
    4.7953   53.8053   22.4039 C   0  0  0  0  0  0
    5.8427   54.0167   23.3070 C   0  0  0  0  0  0
    5.5847   54.2888   24.6490 C   0  0  0  0  0  0
    7.0420   54.5737   25.8420 Br  0  0  0  0  0  0
    5.0990   53.4598   20.9409 C   0  0  2  0  0  0
    5.8971   52.7298   21.0174 H   0  0  0  0  0  0
    5.5412   54.6603   20.0925 C   0  0  0  0  0  0
    6.5265   55.6750   20.1703 C   0  0  0  0  0  0
    6.4129   56.5504   19.1832 N   0  0  0  0  0  0
    5.4089   56.1085   18.4194 N   0  0  0  0  0  0
    5.1112   56.5746   17.5749 H   0  0  0  0  0  0
    4.8736   54.9665   18.9247 C   0  0  0  0  0  0
    3.8569   54.2800   18.3156 O   0  0  0  0  0  0
    3.5047   53.1380   18.9719 C   0  0  0  0  0  0
    4.0013   52.7004   20.1606 C   0  0  0  0  0  0
    3.5172   51.4789   20.7168 C   0  0  0  0  0  0
    3.1030   50.5143   21.2010 N   0  0  0  0  0  0
    2.5697   52.4983   18.2091 N   0  0  0  0  0  0
    7.6423   55.8527   21.1740 C   0  0  0  0  0  0
    1.9242   54.0954   24.7626 O   0  0  0  0  0  0
    0.8330   53.7490   23.9171 C   0  0  0  0  0  0
   -0.5571   53.1602   31.6819 H   0  0  0  0  0  0
    0.6408   54.1012   32.5800 H   0  0  0  0  0  0
   -0.4933   54.8959   31.4779 H   0  0  0  0  0  0
    1.3360   55.9619   30.1601 H   0  0  0  0  0  0
    2.9107   55.6820   28.3017 H   0  0  0  0  0  0
    2.5800   51.4083   28.6648 H   0  0  0  0  0  0
    1.0094   51.6972   30.5371 H   0  0  0  0  0  0
    3.4128   52.5005   26.5835 H   0  0  0  0  0  0
    4.7839   52.9667   27.5876 H   0  0  0  0  0  0
    2.6746   53.7375   22.1701 H   0  0  0  0  0  0
    6.8684   53.9478   22.9816 H   0  0  0  0  0  0
    2.2926   51.5595   18.4576 H   0  0  0  0  0  0
    2.4928   52.7366   17.2302 H   0  0  0  0  0  0
    8.1202   54.9044   21.4146 H   0  0  0  0  0  0
    7.2865   56.2835   22.1080 H   0  0  0  0  0  0
    8.4418   56.4945   20.7986 H   0  0  0  0  0  0
   -0.0942   53.6977   24.4818 H   0  0  0  0  0  0
    0.7134   54.5111   23.1508 H   0  0  0  0  0  0
    0.9739   52.7761   23.4437 H   0  0  0  0  0  0
  1  2  1  0  0  0
  1 34  1  0  0  0
  1 35  1  0  0  0
  1 36  1  0  0  0
  2  7  2  0  0  0
  2  3  1  0  0  0
  3  4  2  0  0  0
  3 37  1  0  0  0
  4  5  1  0  0  0
  4 38  1  0  0  0
  5  6  2  0  0  0
  5  8  1  0  0  0
  6  7  1  0  0  0
  6 39  1  0  0  0
  7 40  1  0  0  0
  8  9  1  0  0  0
  8 41  1  0  0  0
  8 42  1  0  0  0
  9 10  1  0  0  0
 10 15  2  0  0  0
 10 11  1  0  0  0
 11 12  2  0  0  0
 11 32  1  0  0  0
 12 13  1  0  0  0
 12 43  1  0  0  0
 13 14  2  0  0  0
 13 17  1  0  0  0
 14 15  1  0  0  0
 14 44  1  0  0  0
 15 16  1  0  0  0
 17 18  1  0  0  0
 17 27  1  0  0  0
 17 19  1  0  0  0
 19 24  2  0  0  0
 19 20  1  0  0  0
 20 21  2  0  0  0
 20 31  1  0  0  0
 21 22  1  0  0  0
 22 23  1  0  0  0
 22 24  1  0  0  0
 24 25  1  0  0  0
 25 26  1  0  0  0
 26 27  2  0  0  0
 26 30  1  0  0  0
 27 28  1  0  0  0
 28 29  3  0  0  0
 30 45  1  0  0  0
 30 46  1  0  0  0
 31 47  1  0  0  0
 31 48  1  0  0  0
 31 49  1  0  0  0
 32 33  1  0  0  0
 33 50  1  0  0  0
 33 51  1  0  0  0
 33 52  1  0  0  0
M  END
> <i_i_glide_confnum>
7

> <i_i_glide_lignum>
443

> <i_i_glide_posenum>
231

> <i_i_glide_rotatable_bonds>
6

> <i_m_Source_File_Index>
3878

> <b_m_subgroup_collapsed>
0

> <r_i_docking_score>
-6.03674

> <r_i_glide_ecoul>
-2.21546

> <r_i_glide_eff_state_penalty>
0

> <r_i_glide_einternal>
4.14671

> <r_i_glide_emodel>
-64.3537

> <r_i_glide_energy>
-48.3665

> <r_i_glide_erotb>
0.35022

> <r_i_glide_esite>
-0.0565227

> <r_i_glide_evdw>
-46.1511

> <r_i_glide_gscore>
-6.03674

> <r_i_glide_hbond>
0

> <r_i_glide_ligand_efficiency>
-0.194733

> <r_i_glide_ligand_efficiency_ln>
-1.36147

> <r_i_glide_ligand_efficiency_sa>
-0.611732

> <r_i_glide_lipo>
-3.56335

> <r_i_glide_metal>
0

> <r_i_glide_rewards>
-0.127215

> <s_i_glide_gridfile>
wee1_glide-grid

> <s_m_Source_File>
wee1_decoys_glide_SP.sdf

> <s_m_Source_Path>
/Users/zhangxujun/Desktop

> <s_m_entry_id>
4153

> <s_m_entry_name>
wee1_decoys_glide_SP.3878

> <s_m_subgroup_title>
wee1_decoys_glide_SP

> <s_m_subgroupid>
wee1_decoys_glide_SP


$$$$
