ZINC08893902_4213
                    3D
 Schrodinger Suite 2024-2.
 64 67  0  0  1  0            999 V2000
   -5.0890   44.7679   26.6726 C   0  0  0  0  0  0
   -4.1902   45.6951   25.8761 C   0  0  0  0  0  0
   -2.9728   46.1079   26.4174 C   0  0  0  0  0  0
   -2.1435   46.9525   25.6852 C   0  0  0  0  0  0
   -2.5211   47.3760   24.4137 C   0  0  0  0  0  0
   -3.7362   46.9559   23.8662 C   0  0  0  0  0  0
   -4.5684   46.1115   24.5976 C   0  0  0  0  0  0
   -1.4561   48.4935   23.5086 S   0  0  0  0  0  0
   -1.7594   48.3212   22.0832 O   0  0  0  0  0  0
   -0.0945   48.3037   24.0180 O   0  0  0  0  0  0
   -1.9741   50.1215   23.9757 N   0  0  0  0  0  0
   -3.3042   50.6230   23.5565 C   0  0  0  0  0  0
   -4.0562   50.6722   24.8781 C   0  0  0  0  0  0
   -3.0113   51.0883   25.9027 C   0  0  0  0  0  0
   -1.6380   50.6497   25.3382 C   0  0  2  0  0  0
   -1.1534   49.8921   25.9577 H   0  0  0  0  0  0
   -0.6581   51.8437   25.1989 C   0  0  0  0  0  0
   -0.9193   52.7527   24.4056 O   0  0  0  0  0  0
    0.3924   51.8794   26.0551 N   0  0  0  0  0  0
    1.4870   52.7578   25.9979 C   0  0  0  0  0  0
    2.3370   53.1966   27.0526 C   0  0  0  0  0  0
    3.5216   53.8130   26.5310 C   0  0  0  0  0  0
    3.5125   53.8934   25.1280 C   0  0  0  0  0  0
    2.0598   53.2919   24.4384 S   0  0  0  0  0  0
    4.6787   54.3392   24.2552 C   0  0  0  0  0  0
    5.6643   55.1648   25.1096 C   0  0  1  0  0  0
    5.2088   56.1275   25.3369 H   0  0  0  0  0  0
    5.9835   54.4036   26.4066 C   0  0  0  0  0  0
    4.7503   54.3078   27.3237 C   0  0  0  0  0  0
    6.9452   55.4587   24.3094 C   0  0  0  0  0  0
    2.1100   52.9856   28.4877 C   0  0  0  0  0  0
    3.0202   53.1404   29.3112 O   0  0  0  0  0  0
    0.8465   52.6448   28.8274 N   0  0  0  0  0  0
    0.3483   52.4968   30.0819 C   0  0  0  0  0  0
    0.9021   52.8880   31.1111 O   0  0  0  0  0  0
   -0.8943   51.8550   30.0817 O   0  0  0  0  0  0
   -1.4793   51.2967   28.9041 C   0  0  0  0  0  0
   -4.4960   44.0827   27.2825 H   0  0  0  0  0  0
   -5.7389   45.3428   27.3326 H   0  0  0  0  0  0
   -5.7075   44.1519   26.0189 H   0  0  0  0  0  0
   -2.6750   45.8001   27.4106 H   0  0  0  0  0  0
   -1.2194   47.2961   26.1298 H   0  0  0  0  0  0
   -4.0364   47.2887   22.8828 H   0  0  0  0  0  0
   -5.5120   45.7964   24.1757 H   0  0  0  0  0  0
   -3.7463   50.0600   22.7347 H   0  0  0  0  0  0
   -3.1874   51.6289   23.1488 H   0  0  0  0  0  0
   -4.4548   49.6840   25.1197 H   0  0  0  0  0  0
   -4.9062   51.3560   24.8429 H   0  0  0  0  0  0
   -3.2192   50.5936   26.8526 H   0  0  0  0  0  0
   -3.0814   52.1660   26.0729 H   0  0  0  0  0  0
    0.4088   51.1849   26.7847 H   0  0  0  0  0  0
    5.1854   53.4553   23.8634 H   0  0  0  0  0  0
    4.3283   54.8966   23.3866 H   0  0  0  0  0  0
    6.4044   53.4203   26.1819 H   0  0  0  0  0  0
    6.7799   54.9165   26.9489 H   0  0  0  0  0  0
    4.5433   55.2803   27.7763 H   0  0  0  0  0  0
    5.0213   53.6390   28.1383 H   0  0  0  0  0  0
    7.4921   54.5476   24.0641 H   0  0  0  0  0  0
    6.7223   55.9777   23.3751 H   0  0  0  0  0  0
    7.6194   56.0967   24.8782 H   0  0  0  0  0  0
    0.2132   52.4478   28.0701 H   0  0  0  0  0  0
   -2.4339   50.8407   29.1665 H   0  0  0  0  0  0
   -0.8508   50.5051   28.4809 H   0  0  0  0  0  0
   -1.6676   52.0629   28.1516 H   0  0  0  0  0  0
  1  2  1  0  0  0
  1 38  1  0  0  0
  1 39  1  0  0  0
  1 40  1  0  0  0
  2  7  2  0  0  0
  2  3  1  0  0  0
  3  4  2  0  0  0
  3 41  1  0  0  0
  4  5  1  0  0  0
  4 42  1  0  0  0
  5  6  2  0  0  0
  5  8  1  0  0  0
  6  7  1  0  0  0
  6 43  1  0  0  0
  7 44  1  0  0  0
  8  9  2  0  0  0
  8 10  2  0  0  0
  8 11  1  0  0  0
 11 15  1  0  0  0
 11 12  1  0  0  0
 12 13  1  0  0  0
 12 45  1  0  0  0
 12 46  1  0  0  0
 13 14  1  0  0  0
 13 47  1  0  0  0
 13 48  1  0  0  0
 14 15  1  0  0  0
 14 49  1  0  0  0
 14 50  1  0  0  0
 15 16  1  0  0  0
 15 17  1  0  0  0
 17 18  2  0  0  0
 17 19  1  0  0  0
 19 20  1  0  0  0
 19 51  1  0  0  0
 20 24  1  0  0  0
 20 21  2  0  0  0
 21 22  1  0  0  0
 21 31  1  0  0  0
 22 29  1  0  0  0
 22 23  2  0  0  0
 23 24  1  0  0  0
 23 25  1  0  0  0
 25 26  1  0  0  0
 25 52  1  0  0  0
 25 53  1  0  0  0
 26 27  1  0  0  0
 26 28  1  0  0  0
 26 30  1  0  0  0
 28 29  1  0  0  0
 28 54  1  0  0  0
 28 55  1  0  0  0
 29 56  1  0  0  0
 29 57  1  0  0  0
 30 58  1  0  0  0
 30 59  1  0  0  0
 30 60  1  0  0  0
 31 32  2  0  0  0
 31 33  1  0  0  0
 33 34  1  0  0  0
 33 61  1  0  0  0
 34 35  2  0  0  0
 34 36  1  0  0  0
 36 37  1  0  0  0
 37 62  1  0  0  0
 37 63  1  0  0  0
 37 64  1  0  0  0
M  END
> <i_i_glide_confnum>
160

> <i_i_glide_lignum>
4214

> <i_i_glide_posenum>
137

> <i_i_glide_rotatable_bonds>
9

> <i_m_Source_File_Index>
2412

> <b_m_subgroup_collapsed>
0

> <r_i_docking_score>
-4.30641

> <r_i_glide_ecoul>
-5.18729

> <r_i_glide_eff_state_penalty>
0

> <r_i_glide_einternal>
13.3208

> <r_i_glide_emodel>
-57.1221

> <r_i_glide_energy>
-51.9022

> <r_i_glide_erotb>
0.608725

> <r_i_glide_esite>
-0.0512062

> <r_i_glide_evdw>
-46.7149

> <r_i_glide_gscore>
-4.30641

> <r_i_glide_hbond>
0

> <r_i_glide_ligand_efficiency>
-0.12304

> <r_i_glide_ligand_efficiency_ln>
-0.945352

> <r_i_glide_ligand_efficiency_sa>
-0.402473

> <r_i_glide_lipo>
-2.19565

> <r_i_glide_metal>
0

> <r_i_glide_rewards>
0.445568

> <s_i_glide_gridfile>
wee1_glide-grid

> <s_m_Source_File>
wee1_decoys_glide_SP.sdf

> <s_m_Source_Path>
/Users/zhangxujun/Desktop

> <s_m_entry_id>
2687

> <s_m_entry_name>
wee1_decoys_glide_SP.2412

> <s_m_subgroup_title>
wee1_decoys_glide_SP

> <s_m_subgroupid>
wee1_decoys_glide_SP


$$$$
