ZINC39657178_3681
                    3D
 Schrodinger Suite 2024-2.
 59 62  0  0  1  0            999 V2000
    1.5804   56.1243   29.4621 C   0  0  0  0  0  0
    1.2241   54.6680   29.6857 C   0  0  0  0  0  0
    0.6073   54.2196   30.8638 C   0  0  0  0  0  0
    0.3506   52.8631   30.8893 C   0  0  0  0  0  0
    0.8524   52.0965   29.4394 S   0  0  0  0  0  0
    1.3451   53.6202   28.7460 C   0  0  0  0  0  0
    1.9641   53.6990   27.4279 C   0  0  0  0  0  0
    2.8497   54.5363   27.2539 O   0  0  0  0  0  0
    1.5040   52.9327   26.3966 N   0  0  0  0  0  0
    1.9884   53.1464   25.0305 C   0  0  0  0  0  0
    1.5044   51.8941   24.2782 C   0  0  1  0  0  0
    2.2396   51.1077   24.4052 H   0  0  0  0  0  0
    0.1737   51.4959   24.9670 C   0  0  0  0  0  0
    0.4963   51.8683   26.4365 C   0  0  0  0  0  0
   -1.0767   52.2699   24.4424 C   0  0  0  0  0  0
   -2.3455   51.9737   25.2755 C   0  0  0  0  0  0
   -2.5837   50.4426   25.3167 N   0  3  0  0  0  0
   -1.3468   49.5892   25.6814 C   0  0  0  0  0  0
   -0.1777   50.0010   24.7689 C   0  0  0  0  0  0
    1.4216   52.1864   22.7675 C   0  0  0  0  0  0
    1.1048   53.2966   22.3532 O   0  0  0  0  0  0
    1.7869   51.1810   21.9588 N   0  0  0  0  0  0
    1.7952   51.2133   20.4945 C   0  0  1  0  0  0
    0.9847   51.8624   20.1508 H   0  0  0  0  0  0
    3.1033   51.8458   19.9713 C   0  0  0  0  0  0
    1.4408   49.8295   19.9262 C   0  0  0  0  0  0
    0.3061   49.1618   20.4076 C   0  0  0  0  0  0
   -0.0215   47.8917   19.9420 C   0  0  0  0  0  0
    0.7869   47.2781   18.9892 C   0  0  0  0  0  0
    1.9044   47.9346   18.4849 C   0  0  0  0  0  0
    2.2283   49.2048   18.9512 C   0  0  0  0  0  0
    0.3659   45.5224   18.3844 Br  0  0  0  0  0  0
    1.1239   56.7953   30.1913 H   0  0  0  0  0  0
    2.6608   56.2831   29.4738 H   0  0  0  0  0  0
    1.2421   56.4641   28.4822 H   0  0  0  0  0  0
    0.3671   54.8758   31.6885 H   0  0  0  0  0  0
   -0.0957   52.2803   31.6818 H   0  0  0  0  0  0
    3.0719   53.2632   24.9627 H   0  0  0  0  0  0
    1.4845   54.0466   24.6720 H   0  0  0  0  0  0
   -0.3869   52.0743   27.0361 H   0  0  0  0  0  0
    0.9982   51.0024   26.8747 H   0  0  0  0  0  0
   -0.8859   53.3416   24.5030 H   0  0  0  0  0  0
   -1.2607   52.0728   23.3850 H   0  0  0  0  0  0
   -2.2926   52.3132   26.3093 H   0  0  0  0  0  0
   -3.2407   52.4057   24.8264 H   0  0  0  0  0  0
   -3.3295   50.2293   25.9677 H   0  0  0  0  0  0
   -1.1471   49.7613   26.7406 H   0  0  0  0  0  0
   -1.6362   48.5441   25.5560 H   0  0  0  0  0  0
   -0.3606   49.7571   23.7214 H   0  0  0  0  0  0
    0.6757   49.3874   25.0636 H   0  0  0  0  0  0
    2.1394   50.3316   22.3747 H   0  0  0  0  0  0
    3.0904   51.9597   18.8870 H   0  0  0  0  0  0
    3.2538   52.8410   20.3930 H   0  0  0  0  0  0
    3.9733   51.2431   20.2332 H   0  0  0  0  0  0
   -0.3221   49.6260   21.1534 H   0  0  0  0  0  0
   -0.8925   47.3807   20.3240 H   0  0  0  0  0  0
    2.5320   47.4693   17.7373 H   0  0  0  0  0  0
    3.1040   49.6857   18.5414 H   0  0  0  0  0  0
   -2.9081   50.1459   24.4071 H   0  0  0  0  0  0
  1  2  1  0  0  0
  1 33  1  0  0  0
  1 34  1  0  0  0
  1 35  1  0  0  0
  2  6  2  0  0  0
  2  3  1  0  0  0
  3  4  2  0  0  0
  3 36  1  0  0  0
  4  5  1  0  0  0
  4 37  1  0  0  0
  5  6  1  0  0  0
  6  7  1  0  0  0
  7  8  2  0  0  0
  7  9  1  0  0  0
  9 14  1  0  0  0
  9 10  1  0  0  0
 10 11  1  0  0  0
 10 38  1  0  0  0
 10 39  1  0  0  0
 11 12  1  0  0  0
 11 13  1  0  0  0
 11 20  1  0  0  0
 13 19  1  0  0  0
 13 14  1  0  0  0
 13 15  1  0  0  0
 14 40  1  0  0  0
 14 41  1  0  0  0
 15 16  1  0  0  0
 15 42  1  0  0  0
 15 43  1  0  0  0
 16 17  1  0  0  0
 16 44  1  0  0  0
 16 45  1  0  0  0
 17 18  1  0  0  0
 17 46  1  0  0  0
 17 59  1  0  0  0
 18 19  1  0  0  0
 18 47  1  0  0  0
 18 48  1  0  0  0
 19 49  1  0  0  0
 19 50  1  0  0  0
 20 21  2  0  0  0
 20 22  1  0  0  0
 22 23  1  0  0  0
 22 51  1  0  0  0
 23 24  1  0  0  0
 23 25  1  0  0  0
 23 26  1  0  0  0
 25 52  1  0  0  0
 25 53  1  0  0  0
 25 54  1  0  0  0
 26 31  2  0  0  0
 26 27  1  0  0  0
 27 28  2  0  0  0
 27 55  1  0  0  0
 28 29  1  0  0  0
 28 56  1  0  0  0
 29 30  2  0  0  0
 29 32  1  0  0  0
 30 31  1  0  0  0
 30 57  1  0  0  0
 31 58  1  0  0  0
M  CHG  1  17   1
M  END
> <i_i_glide_confnum>
282

> <i_i_glide_lignum>
3682

> <i_i_glide_posenum>
116

> <i_i_glide_rotatable_bonds>
6

> <i_m_Source_File_Index>
3904

> <b_m_subgroup_collapsed>
0

> <r_i_docking_score>
-4.61636

> <r_i_glide_ecoul>
-4.73696

> <r_i_glide_eff_state_penalty>
0

> <r_i_glide_einternal>
7.48174

> <r_i_glide_emodel>
-55.3334

> <r_i_glide_energy>
-45.014

> <r_i_glide_erotb>
0.421419

> <r_i_glide_esite>
-0.0289784

> <r_i_glide_evdw>
-40.277

> <r_i_glide_gscore>
-4.61636

> <r_i_glide_hbond>
0

> <r_i_glide_ligand_efficiency>
-0.153879

> <r_i_glide_ligand_efficiency_ln>
-1.04889

> <r_i_glide_ligand_efficiency_sa>
-0.478137

> <r_i_glide_lipo>
-1.56428

> <r_i_glide_metal>
0

> <r_i_glide_rewards>
-0.720126

> <s_i_glide_gridfile>
wee1_glide-grid

> <s_m_Source_File>
wee1_decoys_glide_SP.sdf

> <s_m_Source_Path>
/Users/zhangxujun/Desktop

> <s_m_entry_id>
4179

> <s_m_entry_name>
wee1_decoys_glide_SP.3904

> <s_m_subgroup_title>
wee1_decoys_glide_SP

> <s_m_subgroupid>
wee1_decoys_glide_SP


$$$$
