ZINC66164443_4606
                    3D
 Schrodinger Suite 2024-2.
 52 54  0  0  1  0            999 V2000
    2.2900   54.0664   23.8024 C   0  0  0  0  0  0
    3.7284   54.0890   24.3105 C   0  0  0  0  0  0
    3.9541   54.0977   25.6928 C   0  0  0  0  0  0
    5.2476   54.0996   26.2183 C   0  0  0  0  0  0
    6.3307   54.0999   25.3322 C   0  0  0  0  0  0
    6.1249   54.0971   23.9599 C   0  0  0  0  0  0
    4.8240   54.0971   23.4270 C   0  0  0  0  0  0
    4.5837   54.0970   22.0347 N   0  0  0  0  0  0
    5.3688   54.6279   21.0758 C   0  0  0  0  0  0
    6.4494   55.1774   21.2843 O   0  0  0  0  0  0
    4.8243   54.5007   19.8511 N   0  0  0  0  0  0
    5.5330   54.4518   18.5608 C   0  0  1  0  0  0
    5.9263   53.4346   18.4813 H   0  0  0  0  0  0
    4.5281   54.6150   17.4094 C   0  0  0  0  0  0
    6.7195   55.4212   18.4299 C   0  0  0  0  0  0
    6.5203   56.8041   18.3565 C   0  0  0  0  0  0
    7.6107   57.6713   18.3151 C   0  0  0  0  0  0
    8.9158   57.1549   18.3505 C   0  0  0  0  0  0
    9.1091   55.7742   18.3997 C   0  0  0  0  0  0
    8.0203   54.9110   18.4265 C   0  0  0  0  0  0
   10.0911   57.9268   18.3361 N   0  0  0  0  0  0
   10.2675   59.2636   18.3869 C   0  0  0  0  0  0
    9.3686   60.0968   18.4825 O   0  0  0  0  0  0
   11.7132   59.7861   18.3333 C   0  0  0  0  0  0
   12.4166   59.9527   19.6540 C   0  0  0  0  0  0
   12.8457   58.8454   18.6911 C   0  0  0  0  0  0
    5.3712   54.0876   27.5945 O   0  0  0  0  0  0
    6.6768   54.0248   28.1609 C   0  0  0  0  0  0
    1.5605   54.1323   24.6101 H   0  0  0  0  0  0
    2.1104   54.8965   23.1216 H   0  0  0  0  0  0
    2.1041   53.1472   23.2478 H   0  0  0  0  0  0
    3.1209   54.0858   26.3779 H   0  0  0  0  0  0
    7.3480   54.0980   25.6897 H   0  0  0  0  0  0
    6.9981   54.0785   23.3228 H   0  0  0  0  0  0
    3.6690   53.7821   21.7550 H   0  0  0  0  0  0
    3.8534   54.2285   19.8070 H   0  0  0  0  0  0
    5.0137   54.5011   16.4403 H   0  0  0  0  0  0
    3.7407   53.8623   17.4628 H   0  0  0  0  0  0
    4.0459   55.5939   17.4259 H   0  0  0  0  0  0
    5.5203   57.2127   18.3593 H   0  0  0  0  0  0
    7.4144   58.7317   18.2604 H   0  0  0  0  0  0
   10.1050   55.3557   18.4324 H   0  0  0  0  0  0
    8.1956   53.8472   18.4833 H   0  0  0  0  0  0
   10.9372   57.3778   18.3057 H   0  0  0  0  0  0
   11.8822   60.5275   17.5538 H   0  0  0  0  0  0
   11.8812   59.6970   20.5709 H   0  0  0  0  0  0
   13.0723   60.8127   19.7903 H   0  0  0  0  0  0
   13.7847   58.9459   18.1481 H   0  0  0  0  0  0
   12.6557   57.8077   18.9706 H   0  0  0  0  0  0
    6.6096   54.0972   29.2427 H   0  0  0  0  0  0
    7.1736   53.0873   27.9156 H   0  0  0  0  0  0
    7.2957   54.8513   27.8121 H   0  0  0  0  0  0
  1  2  1  0  0  0
  1 29  1  0  0  0
  1 30  1  0  0  0
  1 31  1  0  0  0
  2  7  2  0  0  0
  2  3  1  0  0  0
  3  4  2  0  0  0
  3 32  1  0  0  0
  4  5  1  0  0  0
  4 27  1  0  0  0
  5  6  2  0  0  0
  5 33  1  0  0  0
  6  7  1  0  0  0
  6 34  1  0  0  0
  7  8  1  0  0  0
  8  9  1  0  0  0
  8 35  1  0  0  0
  9 10  2  0  0  0
  9 11  1  0  0  0
 11 12  1  0  0  0
 11 36  1  0  0  0
 12 13  1  0  0  0
 12 14  1  0  0  0
 12 15  1  0  0  0
 14 37  1  0  0  0
 14 38  1  0  0  0
 14 39  1  0  0  0
 15 20  2  0  0  0
 15 16  1  0  0  0
 16 17  2  0  0  0
 16 40  1  0  0  0
 17 18  1  0  0  0
 17 41  1  0  0  0
 18 19  2  0  0  0
 18 21  1  0  0  0
 19 20  1  0  0  0
 19 42  1  0  0  0
 20 43  1  0  0  0
 21 22  1  0  0  0
 21 44  1  0  0  0
 22 23  2  0  0  0
 22 24  1  0  0  0
 24 26  1  0  0  0
 24 25  1  0  0  0
 24 45  1  0  0  0
 25 26  1  0  0  0
 25 46  1  0  0  0
 25 47  1  0  0  0
 26 48  1  0  0  0
 26 49  1  0  0  0
 27 28  1  0  0  0
 28 50  1  0  0  0
 28 51  1  0  0  0
 28 52  1  0  0  0
M  END
> <i_i_glide_confnum>
33

> <i_i_glide_lignum>
4607

> <i_i_glide_posenum>
220

> <i_i_glide_rotatable_bonds>
9

> <i_m_Source_File_Index>
995

> <b_m_subgroup_collapsed>
0

> <r_i_docking_score>
-5.1072

> <r_i_glide_ecoul>
-6.01206

> <r_i_glide_eff_state_penalty>
0

> <r_i_glide_einternal>
8.53442

> <r_i_glide_emodel>
-53.01

> <r_i_glide_energy>
-42.5401

> <r_i_glide_erotb>
1.14114

> <r_i_glide_esite>
-0.0391523

> <r_i_glide_evdw>
-36.5281

> <r_i_glide_gscore>
-5.1072

> <r_i_glide_hbond>
-0.16

> <r_i_glide_ligand_efficiency>
-0.189156

> <r_i_glide_ligand_efficiency_ln>
-1.18887

> <r_i_glide_ligand_efficiency_sa>
-0.567467

> <r_i_glide_lipo>
-2.35809

> <r_i_glide_metal>
0

> <r_i_glide_rewards>
-0.96289

> <s_i_glide_gridfile>
wee1_glide-grid

> <s_m_Source_File>
wee1_decoys_glide_SP.sdf

> <s_m_Source_Path>
/Users/zhangxujun/Desktop

> <s_m_entry_id>
1270

> <s_m_entry_name>
wee1_decoys_glide_SP.995

> <s_m_subgroup_title>
wee1_decoys_glide_SP

> <s_m_subgroupid>
wee1_decoys_glide_SP


$$$$
