ZINC01171412_2340
                    3D
 Schrodinger Suite 2024-2.
 47 49  0  0  1  0            999 V2000
   -6.7681   45.2874   24.0386 C   0  0  0  0  0  0
   -5.5325   45.7773   24.7719 C   0  0  0  0  0  0
   -4.9819   45.0189   25.8046 C   0  0  0  0  0  0
   -3.8558   45.4787   26.4817 C   0  0  0  0  0  0
   -3.2791   46.7006   26.1400 C   0  0  0  0  0  0
   -3.8266   47.4905   25.1138 C   0  0  0  0  0  0
   -4.9572   47.0078   24.4340 C   0  0  0  0  0  0
   -3.2324   48.8291   24.7310 C   0  0  0  0  0  0
   -3.4771   49.3066   23.6185 O   0  0  0  0  0  0
   -2.4594   49.4187   25.6820 N   0  0  0  0  0  0
   -1.8241   50.6307   25.7545 C   0  0  0  0  0  0
   -1.9605   51.9126   24.6618 S   0  0  0  0  0  0
   -1.0508   50.6615   26.8816 N   0  0  0  0  0  0
   -0.0717   51.5556   27.3478 C   0  0  0  0  0  0
    0.0207   51.7543   28.7277 C   0  0  0  0  0  0
    1.0342   52.5556   29.2546 C   0  0  0  0  0  0
    1.9751   53.1456   28.4078 C   0  0  0  0  0  0
    1.8971   52.9509   27.0255 C   0  0  0  0  0  0
    0.8746   52.1487   26.5030 C   0  0  0  0  0  0
    2.9141   53.4931   26.2224 N   0  0  0  0  0  0
    2.8129   53.9102   24.9416 C   0  0  0  0  0  0
    1.7316   54.0437   24.3627 O   0  0  0  0  0  0
    4.1035   54.2035   24.1959 C   0  0  0  0  0  0
    4.0817   54.0920   22.7931 C   0  0  0  0  0  0
    5.1969   54.3996   22.0191 C   0  0  0  0  0  0
    6.3686   54.8261   22.6347 C   0  0  0  0  0  0
    6.4299   54.9079   24.0226 C   0  0  0  0  0  0
    5.3155   54.6145   24.8107 C   0  0  0  0  0  0
    5.5137   54.8592   26.5170 Cl  0  0  0  0  0  0
    7.7240   55.2973   21.6783 Cl  0  0  0  0  0  0
   -7.4242   46.1237   23.7910 H   0  0  0  0  0  0
   -6.4917   44.7802   23.1143 H   0  0  0  0  0  0
   -7.3519   44.6051   24.6587 H   0  0  0  0  0  0
   -5.4268   44.0748   26.0904 H   0  0  0  0  0  0
   -3.4274   44.8973   27.2820 H   0  0  0  0  0  0
   -2.4085   47.0148   26.6982 H   0  0  0  0  0  0
   -5.4044   47.5942   23.6413 H   0  0  0  0  0  0
   -2.3661   48.8673   26.5283 H   0  0  0  0  0  0
   -1.2499   49.9161   27.5450 H   0  0  0  0  0  0
   -0.6838   51.2800   29.3979 H   0  0  0  0  0  0
    1.0965   52.7044   30.3229 H   0  0  0  0  0  0
    2.7670   53.7462   28.8316 H   0  0  0  0  0  0
    0.8492   51.9349   25.4432 H   0  0  0  0  0  0
    3.8272   53.5524   26.6447 H   0  0  0  0  0  0
    3.1804   53.7849   22.2777 H   0  0  0  0  0  0
    5.1413   54.3317   20.9411 H   0  0  0  0  0  0
    7.3474   55.2414   24.4865 H   0  0  0  0  0  0
  1  2  1  0  0  0
  1 31  1  0  0  0
  1 32  1  0  0  0
  1 33  1  0  0  0
  2  7  2  0  0  0
  2  3  1  0  0  0
  3  4  2  0  0  0
  3 34  1  0  0  0
  4  5  1  0  0  0
  4 35  1  0  0  0
  5  6  2  0  0  0
  5 36  1  0  0  0
  6  7  1  0  0  0
  6  8  1  0  0  0
  7 37  1  0  0  0
  8  9  2  0  0  0
  8 10  1  0  0  0
 10 11  1  0  0  0
 10 38  1  0  0  0
 11 12  2  0  0  0
 11 13  1  0  0  0
 13 14  1  0  0  0
 13 39  1  0  0  0
 14 19  2  0  0  0
 14 15  1  0  0  0
 15 16  2  0  0  0
 15 40  1  0  0  0
 16 17  1  0  0  0
 16 41  1  0  0  0
 17 18  2  0  0  0
 17 42  1  0  0  0
 18 19  1  0  0  0
 18 20  1  0  0  0
 19 43  1  0  0  0
 20 21  1  0  0  0
 20 44  1  0  0  0
 21 22  2  0  0  0
 21 23  1  0  0  0
 23 28  2  0  0  0
 23 24  1  0  0  0
 24 25  2  0  0  0
 24 45  1  0  0  0
 25 26  1  0  0  0
 25 46  1  0  0  0
 26 27  2  0  0  0
 26 30  1  0  0  0
 27 28  1  0  0  0
 27 47  1  0  0  0
 28 29  1  0  0  0
M  END
> <i_i_glide_confnum>
188

> <i_i_glide_lignum>
2341

> <i_i_glide_posenum>
344

> <i_i_glide_rotatable_bonds>
8

> <i_m_Source_File_Index>
843

> <b_m_subgroup_collapsed>
0

> <r_i_docking_score>
-5.73024

> <r_i_glide_ecoul>
-7.70425

> <r_i_glide_eff_state_penalty>
0

> <r_i_glide_einternal>
7.28817

> <r_i_glide_emodel>
-60.6376

> <r_i_glide_energy>
-45.198

> <r_i_glide_erotb>
0.765833

> <r_i_glide_esite>
-0.259375

> <r_i_glide_evdw>
-37.4937

> <r_i_glide_gscore>
-5.73024

> <r_i_glide_hbond>
-0.27475

> <r_i_glide_ligand_efficiency>
-0.191008

> <r_i_glide_ligand_efficiency_ln>
-1.30197

> <r_i_glide_ligand_efficiency_sa>
-0.593506

> <r_i_glide_lipo>
-2.37544

> <r_i_glide_metal>
0

> <r_i_glide_rewards>
-0.556177

> <s_i_glide_gridfile>
wee1_glide-grid

> <s_m_Source_File>
wee1_decoys_glide_SP.sdf

> <s_m_Source_Path>
/Users/zhangxujun/Desktop

> <s_m_entry_id>
1118

> <s_m_entry_name>
wee1_decoys_glide_SP.843

> <s_m_subgroup_title>
wee1_decoys_glide_SP

> <s_m_subgroupid>
wee1_decoys_glide_SP


$$$$
