ZINC09183613_4452
                    3D
 Schrodinger Suite 2024-2.
 45 47  0  0  1  0            999 V2000
   -0.9143   52.8621   17.6867 C   0  0  0  0  0  0
   -1.6702   52.1261   18.6448 O   0  0  0  0  0  0
   -1.0529   51.6970   19.8041 C   0  0  0  0  0  0
   -1.8105   50.8854   20.6461 C   0  0  0  0  0  0
   -1.2823   50.4242   21.8488 C   0  0  0  0  0  0
    0.0113   50.7886   22.2373 C   0  0  0  0  0  0
    0.7825   51.5833   21.3821 C   0  0  0  0  0  0
    0.2553   52.0403   20.1777 C   0  0  0  0  0  0
    0.6097   50.3060   23.5724 C   0  0  1  0  0  0
    1.6914   50.2996   23.4158 H   0  0  0  0  0  0
    0.3249   51.1865   24.8419 C   0  0  2  0  0  0
    1.0912   50.9057   25.5643 H   0  0  0  0  0  0
   -1.0437   50.8524   25.5419 C   0  0  1  0  0  0
   -1.0546   49.3815   25.6820 N   0  0  0  0  0  0
   -0.6209   48.4694   24.7850 C   0  0  0  0  0  0
   -1.1029   47.3448   24.6863 O   0  0  0  0  0  0
    0.3044   48.9095   23.9108 N   0  0  0  0  0  0
   -1.2327   51.5608   26.9324 C   0  0  0  0  0  0
   -1.2956   52.8948   26.8617 F   0  0  0  0  0  0
   -2.3615   51.1720   27.5289 F   0  0  0  0  0  0
   -0.2319   51.2701   27.7653 F   0  0  0  0  0  0
   -2.1585   51.2260   24.7476 O   0  0  0  0  0  0
    0.5488   52.6937   24.5551 C   0  0  0  0  0  0
   -0.2659   53.3109   23.8729 O   0  0  0  0  0  0
    1.8635   53.2679   24.9496 C   0  0  0  0  0  0
    2.6392   53.9328   23.9931 C   0  0  0  0  0  0
    3.8944   54.4254   24.3393 C   0  0  0  0  0  0
    4.3587   54.2904   25.6454 C   0  0  0  0  0  0
    3.5586   53.6976   26.6197 C   0  0  0  0  0  0
    2.3057   53.1937   26.2757 C   0  0  0  0  0  0
    6.1089   54.8967   26.0909 Br  0  0  0  0  0  0
   -1.5399   53.0689   16.8186 H   0  0  0  0  0  0
   -0.5771   53.8214   18.0817 H   0  0  0  0  0  0
   -0.0483   52.2965   17.3400 H   0  0  0  0  0  0
   -2.8158   50.6095   20.3638 H   0  0  0  0  0  0
   -1.8905   49.7980   22.4846 H   0  0  0  0  0  0
    1.7891   51.8657   21.6552 H   0  0  0  0  0  0
    0.8719   52.6718   19.5553 H   0  0  0  0  0  0
   -1.4813   48.9968   26.5219 H   0  0  0  0  0  0
    0.7946   48.1928   23.3995 H   0  0  0  0  0  0
   -2.8955   50.6613   24.9918 H   0  0  0  0  0  0
    2.2966   54.0352   22.9716 H   0  0  0  0  0  0
    4.5143   54.8966   23.5909 H   0  0  0  0  0  0
    3.9195   53.6066   27.6336 H   0  0  0  0  0  0
    1.7055   52.7231   27.0410 H   0  0  0  0  0  0
  1  2  1  0  0  0
  1 32  1  0  0  0
  1 33  1  0  0  0
  1 34  1  0  0  0
  2  3  1  0  0  0
  3  8  2  0  0  0
  3  4  1  0  0  0
  4  5  2  0  0  0
  4 35  1  0  0  0
  5  6  1  0  0  0
  5 36  1  0  0  0
  6  7  2  0  0  0
  6  9  1  0  0  0
  7  8  1  0  0  0
  7 37  1  0  0  0
  8 38  1  0  0  0
  9 10  1  0  0  0
  9 17  1  0  0  0
  9 11  1  0  0  0
 11 12  1  0  0  0
 11 13  1  0  0  0
 11 23  1  0  0  0
 13 14  1  0  0  0
 13 18  1  0  0  0
 13 22  1  0  0  0
 14 15  1  0  0  0
 14 39  1  0  0  0
 15 16  2  0  0  0
 15 17  1  0  0  0
 17 40  1  0  0  0
 18 19  1  0  0  0
 18 20  1  0  0  0
 18 21  1  0  0  0
 22 41  1  0  0  0
 23 24  2  0  0  0
 23 25  1  0  0  0
 25 30  2  0  0  0
 25 26  1  0  0  0
 26 27  2  0  0  0
 26 42  1  0  0  0
 27 28  1  0  0  0
 27 43  1  0  0  0
 28 29  2  0  0  0
 28 31  1  0  0  0
 29 30  1  0  0  0
 29 44  1  0  0  0
 30 45  1  0  0  0
M  END
> <i_i_glide_confnum>
12

> <i_i_glide_lignum>
4453

> <i_i_glide_posenum>
218

> <i_i_glide_rotatable_bonds>
6

> <i_m_Source_File_Index>
384

> <b_m_subgroup_collapsed>
0

> <r_i_docking_score>
-4.86825

> <r_i_glide_ecoul>
-5.66727

> <r_i_glide_eff_state_penalty>
0

> <r_i_glide_einternal>
4.03153

> <r_i_glide_emodel>
-50.3949

> <r_i_glide_energy>
-39.1895

> <r_i_glide_erotb>
0.270937

> <r_i_glide_esite>
-0.369727

> <r_i_glide_evdw>
-33.5222

> <r_i_glide_gscore>
-4.86825

> <r_i_glide_hbond>
-0.16

> <r_i_glide_ligand_efficiency>
-0.167871

> <r_i_glide_ligand_efficiency_ln>
-1.1147

> <r_i_glide_ligand_efficiency_sa>
-0.515752

> <r_i_glide_lipo>
-1.64819

> <r_i_glide_metal>
0

> <r_i_glide_rewards>
-0.435066

> <s_i_glide_gridfile>
wee1_glide-grid

> <s_m_Source_File>
wee1_decoys_glide_SP.sdf

> <s_m_Source_Path>
/Users/zhangxujun/Desktop

> <s_m_entry_id>
659

> <s_m_entry_name>
wee1_decoys_glide_SP.384

> <s_m_subgroup_title>
wee1_decoys_glide_SP

> <s_m_subgroupid>
wee1_decoys_glide_SP


$$$$
