ZINC40329503_1742
                    3D
 Schrodinger Suite 2024-2.
 39 41  0  0  1  0            999 V2000
    4.9147   54.3525   24.0406 C   0  0  0  0  0  0
    5.2379   54.2228   25.5256 C   0  0  0  0  0  0
    6.5449   54.4785   25.9432 C   0  0  0  0  0  0
    6.8938   54.3344   27.2813 C   0  0  0  0  0  0
    5.9446   53.9427   28.2167 C   0  0  0  0  0  0
    4.6262   53.6904   27.8303 C   0  0  0  0  0  0
    4.2684   53.8343   26.4689 C   0  0  0  0  0  0
    2.9622   53.5825   26.0328 N   0  0  0  0  0  0
    3.6282   53.2861   28.8924 C   0  0  0  0  0  0
    3.6956   52.1651   29.4034 O   0  0  0  0  0  0
    2.6649   54.1872   29.2081 N   0  0  0  0  0  0
    2.7245   55.5950   28.8067 C   0  0  0  0  0  0
    1.3737   56.1415   29.2118 C   0  0  0  0  0  0
    0.9828   55.2931   30.4075 C   0  0  0  0  0  0
    1.5147   53.8920   30.0790 C   0  0  1  0  0  0
    1.8796   53.3981   30.9808 H   0  0  0  0  0  0
    0.4645   53.0107   29.4241 C   0  0  0  0  0  0
    0.1281   52.8026   28.0883 C   0  0  0  0  0  0
   -0.8955   51.8567   28.0209 C   0  0  0  0  0  0
   -1.2179   51.5255   29.3209 C   0  0  0  0  0  0
   -0.3812   52.2136   30.1599 N   0  0  0  0  0  0
   -0.3987   52.1399   31.1709 H   0  0  0  0  0  0
    4.7944   53.3663   23.5933 H   0  0  0  0  0  0
    3.9840   54.8977   23.8935 H   0  0  0  0  0  0
    5.6889   54.8936   23.4963 H   0  0  0  0  0  0
    7.2967   54.7709   25.2252 H   0  0  0  0  0  0
    7.9046   54.5237   27.6074 H   0  0  0  0  0  0
    6.2453   53.8545   29.2508 H   0  0  0  0  0  0
    2.3800   53.0303   26.6464 H   0  0  0  0  0  0
    2.8252   53.5192   25.0351 H   0  0  0  0  0  0
    3.5150   56.0979   29.3547 H   0  0  0  0  0  0
    2.8675   55.6964   27.7317 H   0  0  0  0  0  0
    1.3939   57.2142   29.4102 H   0  0  0  0  0  0
    0.7041   55.9706   28.3750 H   0  0  0  0  0  0
    1.4877   55.6971   31.2825 H   0  0  0  0  0  0
   -0.0899   55.2985   30.6103 H   0  0  0  0  0  0
    0.5876   53.2891   27.2439 H   0  0  0  0  0  0
   -1.3565   51.4628   27.1254 H   0  0  0  0  0  0
   -1.9435   50.8335   29.7265 H   0  0  0  0  0  0
  1  2  1  0  0  0
  1 23  1  0  0  0
  1 24  1  0  0  0
  1 25  1  0  0  0
  2  7  2  0  0  0
  2  3  1  0  0  0
  3  4  2  0  0  0
  3 26  1  0  0  0
  4  5  1  0  0  0
  4 27  1  0  0  0
  5  6  2  0  0  0
  5 28  1  0  0  0
  6  7  1  0  0  0
  6  9  1  0  0  0
  7  8  1  0  0  0
  8 29  1  0  0  0
  8 30  1  0  0  0
  9 10  2  0  0  0
  9 11  1  0  0  0
 11 15  1  0  0  0
 11 12  1  0  0  0
 12 13  1  0  0  0
 12 31  1  0  0  0
 12 32  1  0  0  0
 13 14  1  0  0  0
 13 33  1  0  0  0
 13 34  1  0  0  0
 14 15  1  0  0  0
 14 35  1  0  0  0
 14 36  1  0  0  0
 15 16  1  0  0  0
 15 17  1  0  0  0
 17 21  1  0  0  0
 17 18  2  0  0  0
 18 19  1  0  0  0
 18 37  1  0  0  0
 19 20  2  0  0  0
 19 38  1  0  0  0
 20 21  1  0  0  0
 20 39  1  0  0  0
 21 22  1  0  0  0
M  END
> <i_i_glide_confnum>
25

> <i_i_glide_lignum>
1743

> <i_i_glide_posenum>
151

> <i_i_glide_rotatable_bonds>
3

> <i_m_Source_File_Index>
184

> <b_m_subgroup_collapsed>
0

> <r_i_docking_score>
-6.6451

> <r_i_glide_ecoul>
-2.48388

> <r_i_glide_eff_state_penalty>
0

> <r_i_glide_einternal>
2.93806

> <r_i_glide_emodel>
-51.6311

> <r_i_glide_energy>
-37.4412

> <r_i_glide_erotb>
0.738849

> <r_i_glide_esite>
-0.0645837

> <r_i_glide_evdw>
-34.9574

> <r_i_glide_gscore>
-6.6451

> <r_i_glide_hbond>
-0.0399344

> <r_i_glide_ligand_efficiency>
-0.332255

> <r_i_glide_ligand_efficiency_ln>
-1.66305

> <r_i_glide_ligand_efficiency_sa>
-0.901879

> <r_i_glide_lipo>
-3.01664

> <r_i_glide_metal>
0

> <r_i_glide_rewards>
-2.14234

> <s_i_glide_gridfile>
wee1_glide-grid

> <s_m_Source_File>
wee1_decoys_glide_SP.sdf

> <s_m_Source_Path>
/Users/zhangxujun/Desktop

> <s_m_entry_id>
459

> <s_m_entry_name>
wee1_decoys_glide_SP.184

> <s_m_subgroup_title>
wee1_decoys_glide_SP

> <s_m_subgroupid>
wee1_decoys_glide_SP


$$$$
