ZINC06281018_67
                    3D
 Schrodinger Suite 2024-2.
 59 63  0  0  1  0            999 V2000
   -6.2537   43.5844   25.6820 C   0  0  0  0  0  0
   -5.2950   44.7595   25.7249 C   0  0  0  0  0  0
   -5.1946   45.6572   24.6588 C   0  0  0  0  0  0
   -4.2903   46.7195   24.7311 C   0  0  0  0  0  0
   -3.5046   46.8708   25.8892 C   0  0  0  0  0  0
   -3.6020   46.0009   26.9268 N   0  0  0  0  0  0
   -4.4836   44.9727   26.8400 C   0  0  0  0  0  0
   -2.5349   47.8718   26.0816 N   0  0  0  0  0  0
   -2.1828   48.9002   25.2788 C   0  0  0  0  0  0
   -2.7922   49.2133   24.2535 O   0  0  0  0  0  0
   -0.9294   49.7158   25.7134 C   0  0  1  0  0  0
    0.0010   50.0943   24.5251 C   0  0  0  0  0  0
    0.6589   51.1920   24.4816 N   0  0  0  0  0  0
    0.7730   51.9959   25.5779 C   0  0  0  0  0  0
   -0.0495   51.9158   26.6650 C   0  0  0  0  0  0
   -1.2887   50.9946   26.5787 C   0  0  1  0  0  0
   -1.5164   50.6348   27.5865 H   0  0  0  0  0  0
   -2.5531   51.7611   26.1310 C   0  0  0  0  0  0
   -2.5569   52.4956   24.9377 C   0  0  0  0  0  0
   -3.7043   53.1651   24.5214 C   0  0  0  0  0  0
   -4.8594   53.0984   25.2957 C   0  0  0  0  0  0
   -4.8709   52.3687   26.4818 C   0  0  0  0  0  0
   -3.7224   51.6965   26.8971 C   0  0  0  0  0  0
   -5.9964   53.7448   24.8876 O   0  0  0  0  0  0
    0.2236   52.6733   27.9100 C   0  0  0  0  0  0
   -0.4956   52.5957   28.9024 O   0  0  0  0  0  0
    1.4639   53.5902   27.9251 C   0  0  0  0  0  0
    2.5712   53.0699   26.9839 C   0  0  1  0  0  0
    2.8208   52.0782   27.3471 H   0  0  0  0  0  0
    2.0078   52.8967   25.5558 C   0  0  0  0  0  0
    3.8968   53.8080   27.0551 C   0  0  0  0  0  0
    4.5757   54.4898   28.0560 C   0  0  0  0  0  0
    5.8435   54.7957   27.5559 C   0  0  0  0  0  0
    5.8761   54.3263   26.2578 C   0  0  0  0  0  0
    4.7028   53.7173   25.9620 O   0  0  0  0  0  0
    0.2203   49.1443   23.3542 C   0  0  0  0  0  0
   -6.9016   43.5979   26.5595 H   0  0  0  0  0  0
   -5.7024   42.6437   25.7001 H   0  0  0  0  0  0
   -6.8899   43.6037   24.7961 H   0  0  0  0  0  0
   -5.8077   45.5357   23.7775 H   0  0  0  0  0  0
   -4.2251   47.3917   23.8913 H   0  0  0  0  0  0
   -4.4995   44.2954   27.6817 H   0  0  0  0  0  0
   -2.0918   47.8658   27.0091 H   0  0  0  0  0  0
   -0.3523   49.0341   26.3424 H   0  0  0  0  0  0
   -1.6721   52.5498   24.3227 H   0  0  0  0  0  0
   -3.6889   53.7320   23.6032 H   0  0  0  0  0  0
   -5.7720   52.3147   27.0743 H   0  0  0  0  0  0
   -3.7451   51.1224   27.8127 H   0  0  0  0  0  0
   -5.9941   53.9785   23.9554 H   0  0  0  0  0  0
    1.8076   53.6987   28.9536 H   0  0  0  0  0  0
    1.1491   54.5793   27.5949 H   0  0  0  0  0  0
    2.7684   52.4966   24.8842 H   0  0  0  0  0  0
    1.7252   53.8616   25.1337 H   0  0  0  0  0  0
    4.2121   54.7007   29.0501 H   0  0  0  0  0  0
    6.6416   55.2966   28.0810 H   0  0  0  0  0  0
    6.6242   54.3228   25.4788 H   0  0  0  0  0  0
    0.5316   48.1645   23.7164 H   0  0  0  0  0  0
   -0.6881   49.0166   22.7670 H   0  0  0  0  0  0
    0.9964   49.4963   22.6722 H   0  0  0  0  0  0
  1  2  1  0  0  0
  1 37  1  0  0  0
  1 38  1  0  0  0
  1 39  1  0  0  0
  2  7  2  0  0  0
  2  3  1  0  0  0
  3  4  2  0  0  0
  3 40  1  0  0  0
  4  5  1  0  0  0
  4 41  1  0  0  0
  5  6  2  0  0  0
  5  8  1  0  0  0
  6  7  1  0  0  0
  7 42  1  0  0  0
  8  9  1  0  0  0
  8 43  1  0  0  0
  9 10  2  0  0  0
  9 11  1  0  0  0
 11 16  1  0  0  0
 11 12  1  0  0  0
 11 44  1  0  0  0
 12 36  1  0  0  0
 12 13  2  0  0  0
 13 14  1  0  0  0
 14 30  1  0  0  0
 14 15  2  0  0  0
 15 16  1  0  0  0
 15 25  1  0  0  0
 16 17  1  0  0  0
 16 18  1  0  0  0
 18 23  2  0  0  0
 18 19  1  0  0  0
 19 20  2  0  0  0
 19 45  1  0  0  0
 20 21  1  0  0  0
 20 46  1  0  0  0
 21 22  2  0  0  0
 21 24  1  0  0  0
 22 23  1  0  0  0
 22 47  1  0  0  0
 23 48  1  0  0  0
 24 49  1  0  0  0
 25 26  2  0  0  0
 25 27  1  0  0  0
 27 28  1  0  0  0
 27 50  1  0  0  0
 27 51  1  0  0  0
 28 29  1  0  0  0
 28 30  1  0  0  0
 28 31  1  0  0  0
 30 52  1  0  0  0
 30 53  1  0  0  0
 31 35  1  0  0  0
 31 32  2  0  0  0
 32 33  1  0  0  0
 32 54  1  0  0  0
 33 34  2  0  0  0
 33 55  1  0  0  0
 34 35  1  0  0  0
 34 56  1  0  0  0
 36 57  1  0  0  0
 36 58  1  0  0  0
 36 59  1  0  0  0
M  END
> <i_i_glide_confnum>
16

> <i_i_glide_lignum>
68

> <i_i_glide_posenum>
328

> <i_i_glide_rotatable_bonds>
6

> <i_m_Source_File_Index>
4771

> <b_m_subgroup_collapsed>
0

> <r_i_docking_score>
-5.60776

> <r_i_glide_ecoul>
-9.43554

> <r_i_glide_eff_state_penalty>
0

> <r_i_glide_einternal>
7.99036

> <r_i_glide_emodel>
-55.413

> <r_i_glide_energy>
-45.429

> <r_i_glide_erotb>
0.484122

> <r_i_glide_esite>
-0.181487

> <r_i_glide_evdw>
-35.9934

> <r_i_glide_gscore>
-5.60776

> <r_i_glide_hbond>
-0.280489

> <r_i_glide_ligand_efficiency>
-0.164934

> <r_i_glide_ligand_efficiency_ln>
-1.23891

> <r_i_glide_ligand_efficiency_sa>
-0.534323

> <r_i_glide_lipo>
-1.94235

> <r_i_glide_metal>
0

> <r_i_glide_rewards>
-0.472557

> <s_i_glide_gridfile>
wee1_glide-grid

> <s_m_Source_File>
wee1_decoys_glide_SP.sdf

> <s_m_Source_Path>
/Users/zhangxujun/Desktop

> <s_m_entry_id>
5046

> <s_m_entry_name>
wee1_decoys_glide_SP.4771

> <s_m_subgroup_title>
wee1_decoys_glide_SP

> <s_m_subgroupid>
wee1_decoys_glide_SP


$$$$
