ZINC37064630_1783
                    3D
 Schrodinger Suite 2024-2.
 37 38  0  0  1  0            999 V2000
    5.7228   54.5011   28.0131 C   0  0  0  0  0  0
    5.3637   54.4085   26.5414 C   0  0  0  0  0  0
    4.0356   54.2462   26.1453 C   0  0  0  0  0  0
    3.7167   54.0983   24.7954 C   0  0  0  0  0  0
    4.7269   54.0966   23.8198 C   0  0  0  0  0  0
    6.0590   54.3105   24.2211 C   0  0  0  0  0  0
    6.3687   54.4549   25.5741 C   0  0  0  0  0  0
    7.1044   54.3670   23.2958 N   0  0  0  0  0  0
    4.4630   53.8954   22.4467 N   0  0  0  0  0  0
    3.4539   53.2154   21.8598 C   0  0  0  0  0  0
    2.5440   52.6596   22.4791 O   0  0  0  0  0  0
    3.5105   53.1375   20.3467 C   0  0  0  0  0  0
    4.3047   54.0214   19.5931 C   0  0  0  0  0  0
    4.2886   53.9769   18.2030 C   0  0  0  0  0  0
    3.4740   53.0561   17.5462 C   0  0  0  0  0  0
    2.7061   52.1492   18.2770 C   0  0  0  0  0  0
    2.7275   52.1901   19.6695 C   0  0  0  0  0  0
    3.4206   53.0684   15.7582 S   0  0  0  0  0  0
    2.4892   52.0246   15.3180 O   0  0  0  0  0  0
    4.8063   53.0998   15.2790 O   0  0  0  0  0  0
    2.6351   54.7320   15.3693 C   0  0  0  0  0  0
    6.6287   53.9314   28.2206 H   0  0  0  0  0  0
    5.9048   55.5357   28.2972 H   0  0  0  0  0  0
    4.9371   54.0880   28.6448 H   0  0  0  0  0  0
    3.2452   54.2185   26.8806 H   0  0  0  0  0  0
    2.6775   53.9717   24.5279 H   0  0  0  0  0  0
    7.3958   54.5761   25.8804 H   0  0  0  0  0  0
    8.0363   54.5036   23.6810 H   0  0  0  0  0  0
    6.9192   54.8983   22.4598 H   0  0  0  0  0  0
    5.1960   54.2013   21.8301 H   0  0  0  0  0  0
    4.9194   54.7751   20.0612 H   0  0  0  0  0  0
    4.8951   54.6686   17.6361 H   0  0  0  0  0  0
    2.0957   51.4142   17.7703 H   0  0  0  0  0  0
    2.1163   51.4864   20.2173 H   0  0  0  0  0  0
    2.5452   54.8216   14.2888 H   0  0  0  0  0  0
    3.2736   55.5227   15.7596 H   0  0  0  0  0  0
    1.6507   54.7704   15.8351 H   0  0  0  0  0  0
  1  2  1  0  0  0
  1 22  1  0  0  0
  1 23  1  0  0  0
  1 24  1  0  0  0
  2  7  2  0  0  0
  2  3  1  0  0  0
  3  4  2  0  0  0
  3 25  1  0  0  0
  4  5  1  0  0  0
  4 26  1  0  0  0
  5  6  2  0  0  0
  5  9  1  0  0  0
  6  7  1  0  0  0
  6  8  1  0  0  0
  7 27  1  0  0  0
  8 28  1  0  0  0
  8 29  1  0  0  0
  9 10  1  0  0  0
  9 30  1  0  0  0
 10 11  2  0  0  0
 10 12  1  0  0  0
 12 17  2  0  0  0
 12 13  1  0  0  0
 13 14  2  0  0  0
 13 31  1  0  0  0
 14 15  1  0  0  0
 14 32  1  0  0  0
 15 16  2  0  0  0
 15 18  1  0  0  0
 16 17  1  0  0  0
 16 33  1  0  0  0
 17 34  1  0  0  0
 18 19  2  0  0  0
 18 20  2  0  0  0
 18 21  1  0  0  0
 21 35  1  0  0  0
 21 36  1  0  0  0
 21 37  1  0  0  0
M  END
> <i_i_glide_confnum>
11

> <i_i_glide_lignum>
1784

> <i_i_glide_posenum>
140

> <i_i_glide_rotatable_bonds>
4

> <i_m_Source_File_Index>
1207

> <b_m_subgroup_collapsed>
0

> <r_i_docking_score>
-4.80502

> <r_i_glide_ecoul>
-1.13492

> <r_i_glide_eff_state_penalty>
0

> <r_i_glide_einternal>
1.88407

> <r_i_glide_emodel>
-39.7537

> <r_i_glide_energy>
-28.6072

> <r_i_glide_erotb>
0.597199

> <r_i_glide_esite>
-0.0728835

> <r_i_glide_evdw>
-27.4722

> <r_i_glide_gscore>
-4.80502

> <r_i_glide_hbond>
-0.32

> <r_i_glide_ligand_efficiency>
-0.22881

> <r_i_glide_ligand_efficiency_ln>
-1.18803

> <r_i_glide_ligand_efficiency_sa>
-0.631271

> <r_i_glide_lipo>
-1.95146

> <r_i_glide_metal>
0

> <r_i_glide_rewards>
-1.51402

> <s_i_glide_gridfile>
wee1_glide-grid

> <s_m_Source_File>
wee1_decoys_glide_SP.sdf

> <s_m_Source_Path>
/Users/zhangxujun/Desktop

> <s_m_entry_id>
1482

> <s_m_entry_name>
wee1_decoys_glide_SP.1207

> <s_m_subgroup_title>
wee1_decoys_glide_SP

> <s_m_subgroupid>
wee1_decoys_glide_SP


$$$$
