ZINC39676552_342
                    3D
 Schrodinger Suite 2024-2.
 79 82  0  0  1  0            999 V2000
    1.7956   44.0029   15.2334 C   0  0  0  0  0  0
    1.9950   45.4922   15.5451 C   0  0  0  0  0  0
    1.1781   45.9517   16.7683 C   0  0  0  0  0  0
    1.3097   47.4651   17.1088 C   0  0  1  0  0  0
    2.3773   47.6934   17.1493 H   0  0  0  0  0  0
    0.6437   48.3465   16.0235 C   0  0  0  0  0  0
    0.7327   47.8034   18.5091 C   0  0  0  0  0  0
   -0.1185   47.0593   19.0046 O   0  0  0  0  0  0
    1.1705   48.9056   19.1668 N   0  0  0  0  0  0
    0.6167   49.3011   20.4652 C   0  0  0  0  0  0
    1.4816   50.5126   20.8592 C   0  0  1  0  0  0
    2.3488   50.1456   21.4146 H   0  0  0  0  0  0
    1.9376   51.1363   19.5094 C   0  0  0  0  0  0
    2.1861   49.8496   18.6880 C   0  0  0  0  0  0
    0.8492   52.0441   18.8417 C   0  0  0  0  0  0
    1.2646   52.5579   17.4493 C   0  0  0  0  0  0
    2.5803   53.3458   17.6144 N   0  3  0  0  0  0
    3.6969   52.5107   18.2748 C   0  0  0  0  0  0
    3.1892   52.0356   19.6505 C   0  0  0  0  0  0
    0.6627   51.4475   21.7823 C   0  0  0  0  0  0
   -0.5195   51.7135   21.5455 O   0  0  0  0  0  0
    1.3079   51.8979   22.8710 N   0  0  0  0  0  0
    0.7678   52.8216   23.8734 C   0  0  0  0  0  0
   -0.4614   52.2562   24.6054 C   0  0  0  0  0  0
   -0.3635   51.0948   25.3804 C   0  0  0  0  0  0
   -1.4722   50.6219   26.0774 C   0  0  0  0  0  0
   -2.7001   51.2940   25.9923 C   0  0  0  0  0  0
   -2.8066   52.4163   25.1725 C   0  0  0  0  0  0
   -1.6993   52.8918   24.4783 C   0  0  0  0  0  0
   -3.8419   50.9236   26.6717 O   0  0  0  0  0  0
   -3.7658   49.8668   27.6238 C   0  0  0  0  0  0
    1.9075   53.3686   24.7512 C   0  0  0  0  0  0
    2.9963   53.9900   24.1268 C   0  0  0  0  0  0
    4.0793   54.4426   24.8740 C   0  0  0  0  0  0
    4.0999   54.2835   26.2568 C   0  0  0  0  0  0
    2.9949   53.7004   26.8931 C   0  0  0  0  0  0
    1.9053   53.2602   26.1476 C   0  0  0  0  0  0
    5.2324   54.7246   26.9106 O   0  0  0  0  0  0
    5.3513   54.4998   28.3112 C   0  0  0  0  0  0
    2.3039   43.7239   14.3100 H   0  0  0  0  0  0
    0.7395   43.7626   15.1022 H   0  0  0  0  0  0
    2.1866   43.3754   16.0349 H   0  0  0  0  0  0
    3.0551   45.6943   15.7127 H   0  0  0  0  0  0
    1.7089   46.0716   14.6681 H   0  0  0  0  0  0
    0.1250   45.7093   16.6114 H   0  0  0  0  0  0
    1.4820   45.3548   17.6291 H   0  0  0  0  0  0
    0.6486   49.4053   16.2787 H   0  0  0  0  0  0
    1.1628   48.2592   15.0681 H   0  0  0  0  0  0
   -0.4000   48.0679   15.8660 H   0  0  0  0  0  0
   -0.4169   49.5961   20.2700 H   0  0  0  0  0  0
    0.6666   48.5086   21.2137 H   0  0  0  0  0  0
    3.1533   49.4501   18.9933 H   0  0  0  0  0  0
    2.2651   50.0165   17.6177 H   0  0  0  0  0  0
   -0.0782   51.4797   18.7242 H   0  0  0  0  0  0
    0.5934   52.8950   19.4769 H   0  0  0  0  0  0
    1.4486   51.7688   16.7188 H   0  0  0  0  0  0
    0.5389   53.2583   17.0342 H   0  0  0  0  0  0
    2.8945   53.6851   16.7146 H   0  0  0  0  0  0
    3.9044   51.6971   17.5768 H   0  0  0  0  0  0
    4.5775   53.1501   18.3448 H   0  0  0  0  0  0
    3.0039   52.8749   20.3227 H   0  0  0  0  0  0
    3.9922   51.4618   20.1140 H   0  0  0  0  0  0
    2.2743   51.6358   23.0000 H   0  0  0  0  0  0
    0.4303   53.6987   23.3174 H   0  0  0  0  0  0
    0.5784   50.5721   25.4605 H   0  0  0  0  0  0
   -1.3579   49.7354   26.6846 H   0  0  0  0  0  0
   -3.7542   52.9262   25.0861 H   0  0  0  0  0  0
   -1.8049   53.7643   23.8522 H   0  0  0  0  0  0
   -4.7426   49.7249   28.0818 H   0  0  0  0  0  0
   -3.4823   48.9210   27.1594 H   0  0  0  0  0  0
   -3.0601   50.1015   28.4212 H   0  0  0  0  0  0
    3.0171   54.1072   23.0528 H   0  0  0  0  0  0
    4.9214   54.8999   24.3775 H   0  0  0  0  0  0
    2.9653   53.5745   27.9633 H   0  0  0  0  0  0
    1.0780   52.8142   26.6760 H   0  0  0  0  0  0
    6.3036   54.8955   28.6550 H   0  0  0  0  0  0
    4.5671   55.0092   28.8724 H   0  0  0  0  0  0
    5.3290   53.4350   28.5484 H   0  0  0  0  0  0
    2.4007   54.1564   18.1961 H   0  0  0  0  0  0
  1  2  1  0  0  0
  1 40  1  0  0  0
  1 41  1  0  0  0
  1 42  1  0  0  0
  2  3  1  0  0  0
  2 43  1  0  0  0
  2 44  1  0  0  0
  3  4  1  0  0  0
  3 45  1  0  0  0
  3 46  1  0  0  0
  4  5  1  0  0  0
  4  6  1  0  0  0
  4  7  1  0  0  0
  6 47  1  0  0  0
  6 48  1  0  0  0
  6 49  1  0  0  0
  7  8  2  0  0  0
  7  9  1  0  0  0
  9 14  1  0  0  0
  9 10  1  0  0  0
 10 11  1  0  0  0
 10 50  1  0  0  0
 10 51  1  0  0  0
 11 12  1  0  0  0
 11 13  1  0  0  0
 11 20  1  0  0  0
 13 19  1  0  0  0
 13 14  1  0  0  0
 13 15  1  0  0  0
 14 52  1  0  0  0
 14 53  1  0  0  0
 15 16  1  0  0  0
 15 54  1  0  0  0
 15 55  1  0  0  0
 16 17  1  0  0  0
 16 56  1  0  0  0
 16 57  1  0  0  0
 17 18  1  0  0  0
 17 58  1  0  0  0
 17 79  1  0  0  0
 18 19  1  0  0  0
 18 59  1  0  0  0
 18 60  1  0  0  0
 19 61  1  0  0  0
 19 62  1  0  0  0
 20 21  2  0  0  0
 20 22  1  0  0  0
 22 23  1  0  0  0
 22 63  1  0  0  0
 23 24  1  0  0  0
 23 32  1  0  0  0
 23 64  1  0  0  0
 24 29  2  0  0  0
 24 25  1  0  0  0
 25 26  2  0  0  0
 25 65  1  0  0  0
 26 27  1  0  0  0
 26 66  1  0  0  0
 27 28  2  0  0  0
 27 30  1  0  0  0
 28 29  1  0  0  0
 28 67  1  0  0  0
 29 68  1  0  0  0
 30 31  1  0  0  0
 31 69  1  0  0  0
 31 70  1  0  0  0
 31 71  1  0  0  0
 32 37  2  0  0  0
 32 33  1  0  0  0
 33 34  2  0  0  0
 33 72  1  0  0  0
 34 35  1  0  0  0
 34 73  1  0  0  0
 35 36  2  0  0  0
 35 38  1  0  0  0
 36 37  1  0  0  0
 36 74  1  0  0  0
 37 75  1  0  0  0
 38 39  1  0  0  0
 39 76  1  0  0  0
 39 77  1  0  0  0
 39 78  1  0  0  0
M  CHG  1  17   1
M  END
> <i_i_glide_confnum>
81

> <i_i_glide_lignum>
343

> <i_i_glide_posenum>
151

> <i_i_glide_rotatable_bonds>
11

> <i_m_Source_File_Index>
5564

> <b_m_subgroup_collapsed>
0

> <r_i_docking_score>
-4.18025

> <r_i_glide_ecoul>
-6.96456

> <r_i_glide_eff_state_penalty>
0

> <r_i_glide_einternal>
9.06413

> <r_i_glide_emodel>
-52.083

> <r_i_glide_energy>
-42.5982

> <r_i_glide_erotb>
0.633045

> <r_i_glide_esite>
-0.0683121

> <r_i_glide_evdw>
-35.6336

> <r_i_glide_gscore>
-4.18025

> <r_i_glide_hbond>
0

> <r_i_glide_ligand_efficiency>
-0.11298

> <r_i_glide_ligand_efficiency_ln>
-0.906598

> <r_i_glide_ligand_efficiency_sa>
-0.376474

> <r_i_glide_lipo>
-1.88433

> <r_i_glide_metal>
0

> <r_i_glide_rewards>
-0.0342893

> <s_i_glide_gridfile>
wee1_glide-grid

> <s_m_Source_File>
wee1_decoys_glide_SP.sdf

> <s_m_Source_Path>
/Users/zhangxujun/Desktop

> <s_m_entry_id>
5839

> <s_m_entry_name>
wee1_decoys_glide_SP.5564

> <s_m_subgroup_title>
wee1_decoys_glide_SP

> <s_m_subgroupid>
wee1_decoys_glide_SP


$$$$
