ZINC40313382_1898
                    3D
 Schrodinger Suite 2024-2.
 32 33  0  0  1  0            999 V2000
    6.8471   53.8453   28.0817 C   0  0  0  0  0  0
    5.5210   53.8815   27.3519 C   0  0  0  0  0  0
    5.3571   54.4768   26.0887 C   0  0  0  0  0  0
    3.7199   54.3355   25.5366 S   0  0  0  0  0  0
    3.2464   53.5339   26.9833 C   0  0  0  0  0  0
    4.3102   53.3657   27.8760 C   0  0  0  0  0  0
    4.2003   52.6614   29.1546 C   0  0  0  0  0  0
    4.1031   52.0967   30.1612 N   0  0  0  0  0  0
    1.9472   53.0650   27.0317 N   0  0  0  0  0  0
    1.1033   53.2268   28.0702 C   0  0  0  0  0  0
    1.3556   53.9151   29.0632 O   0  0  0  0  0  0
   -0.2175   52.4967   27.9360 C   0  0  0  0  0  0
   -0.7978   52.3225   26.6641 C   0  0  0  0  0  0
   -2.0162   51.6683   26.5078 C   0  0  0  0  0  0
   -2.6741   51.1560   27.6189 C   0  0  0  0  0  0
   -2.1074   51.2967   28.8818 C   0  0  0  0  0  0
   -0.8956   51.9676   29.0580 C   0  0  0  0  0  0
   -0.4197   52.0967   30.3673 N   0  0  0  0  0  0
   -4.1876   50.3488   27.4325 Cl  0  0  0  0  0  0
    6.3737   55.1557   25.1956 C   0  0  0  0  0  0
    7.5683   54.5648   27.6977 H   0  0  0  0  0  0
    6.7277   54.0967   29.1353 H   0  0  0  0  0  0
    7.2990   52.8539   28.0539 H   0  0  0  0  0  0
    1.5415   52.7758   26.1563 H   0  0  0  0  0  0
   -0.3272   52.7113   25.7727 H   0  0  0  0  0  0
   -2.4485   51.5540   25.5248 H   0  0  0  0  0  0
   -2.6148   50.8675   29.7345 H   0  0  0  0  0  0
   -0.9353   51.7056   31.1531 H   0  0  0  0  0  0
    0.4019   52.6662   30.5210 H   0  0  0  0  0  0
    7.4007   54.8967   25.4479 H   0  0  0  0  0  0
    6.2410   54.8731   24.1507 H   0  0  0  0  0  0
    6.2880   56.2409   25.2446 H   0  0  0  0  0  0
  1  2  1  0  0  0
  1 21  1  0  0  0
  1 22  1  0  0  0
  1 23  1  0  0  0
  2  6  1  0  0  0
  2  3  2  0  0  0
  3  4  1  0  0  0
  3 20  1  0  0  0
  4  5  1  0  0  0
  5  6  2  0  0  0
  5  9  1  0  0  0
  6  7  1  0  0  0
  7  8  3  0  0  0
  9 10  1  0  0  0
  9 24  1  0  0  0
 10 11  2  0  0  0
 10 12  1  0  0  0
 12 17  2  0  0  0
 12 13  1  0  0  0
 13 14  2  0  0  0
 13 25  1  0  0  0
 14 15  1  0  0  0
 14 26  1  0  0  0
 15 16  2  0  0  0
 15 19  1  0  0  0
 16 17  1  0  0  0
 16 27  1  0  0  0
 17 18  1  0  0  0
 18 28  1  0  0  0
 18 29  1  0  0  0
 20 30  1  0  0  0
 20 31  1  0  0  0
 20 32  1  0  0  0
M  END
> <i_i_glide_confnum>
3

> <i_i_glide_lignum>
1899

> <i_i_glide_posenum>
32

> <i_i_glide_rotatable_bonds>
4

> <i_m_Source_File_Index>
6039

> <b_m_subgroup_collapsed>
0

> <r_i_docking_score>
-5.84564

> <r_i_glide_ecoul>
-4.50397

> <r_i_glide_eff_state_penalty>
0

> <r_i_glide_einternal>
11.3173

> <r_i_glide_emodel>
-47.5799

> <r_i_glide_energy>
-38.1317

> <r_i_glide_erotb>
0.592351

> <r_i_glide_esite>
-0.0915988

> <r_i_glide_evdw>
-33.6277

> <r_i_glide_gscore>
-5.84564

> <r_i_glide_hbond>
-0.165578

> <r_i_glide_ligand_efficiency>
-0.292282

> <r_i_glide_ligand_efficiency_ln>
-1.46297

> <r_i_glide_ligand_efficiency_sa>
-0.793376

> <r_i_glide_lipo>
-1.88303

> <r_i_glide_metal>
0

> <r_i_glide_rewards>
-1.94081

> <s_i_glide_gridfile>
wee1_glide-grid

> <s_m_Source_File>
wee1_decoys_glide_SP.sdf

> <s_m_Source_Path>
/Users/zhangxujun/Desktop

> <s_m_entry_id>
6314

> <s_m_entry_name>
wee1_decoys_glide_SP.6039

> <s_m_subgroup_title>
wee1_decoys_glide_SP

> <s_m_subgroupid>
wee1_decoys_glide_SP


$$$$
