ZINC51994043_4752
                    3D
 Schrodinger Suite 2024-2.
 36 37  0  0  1  0            999 V2000
    0.2004   51.5053   27.2141 C   0  0  0  0  0  0
    1.4007   51.9314   27.7774 C   0  0  0  0  0  0
    1.4692   52.3119   29.1211 C   0  0  0  0  0  0
    0.3226   52.1837   29.9230 C   0  0  0  0  0  0
   -0.8634   51.7145   29.3625 C   0  0  0  0  0  0
   -0.9400   51.4167   28.0049 C   0  0  0  0  0  0
   -2.6001   50.8978   27.2338 Br  0  0  0  0  0  0
    0.3256   52.4978   31.2821 N   0  0  0  0  0  0
    3.0077   52.9446   29.8032 S   0  0  0  0  0  0
    2.7954   54.3687   30.0806 O   0  0  0  0  0  0
    3.3755   52.0292   30.8878 O   0  0  0  0  0  0
    4.2681   52.8054   28.5820 N   0  0  0  0  0  0
    4.7120   53.9600   27.7579 C   0  0  2  0  0  0
    4.5317   54.9107   28.2613 H   0  0  0  0  0  0
    3.8165   53.9584   26.4911 C   0  0  0  0  0  0
    4.3214   54.8965   25.3809 C   0  0  0  0  0  0
    5.8014   54.6603   25.0417 C   0  0  0  0  0  0
    6.6721   54.7002   26.3072 C   0  0  0  0  0  0
    6.1903   53.6963   27.3696 C   0  0  1  0  0  0
    6.2447   52.7019   26.9318 H   0  0  0  0  0  0
    7.0632   53.7011   28.4811 O   0  0  0  0  0  0
    0.1534   51.2369   26.1690 H   0  0  0  0  0  0
    2.2726   51.9608   27.1537 H   0  0  0  0  0  0
   -1.7309   51.5785   29.9839 H   0  0  0  0  0  0
    1.2172   52.6579   31.7282 H   0  0  0  0  0  0
   -0.4501   52.1657   31.8631 H   0  0  0  0  0  0
    5.0324   52.1806   28.8530 H   0  0  0  0  0  0
    3.8017   52.9570   26.0584 H   0  0  0  0  0  0
    2.7862   54.2064   26.7499 H   0  0  0  0  0  0
    4.1959   55.9310   25.6881 H   0  0  0  0  0  0
    3.7110   54.7752   24.4845 H   0  0  0  0  0  0
    6.1459   55.4082   24.3266 H   0  0  0  0  0  0
    5.9154   53.6932   24.5482 H   0  0  0  0  0  0
    6.6461   55.7061   26.7246 H   0  0  0  0  0  0
    7.7032   54.4976   26.0391 H   0  0  0  0  0  0
    7.1047   54.5926   28.8528 H   0  0  0  0  0  0
  1  6  2  0  0  0
  1  2  1  0  0  0
  1 22  1  0  0  0
  2  3  2  0  0  0
  2 23  1  0  0  0
  3  4  1  0  0  0
  3  9  1  0  0  0
  4  5  2  0  0  0
  4  8  1  0  0  0
  5  6  1  0  0  0
  5 24  1  0  0  0
  6  7  1  0  0  0
  8 25  1  0  0  0
  8 26  1  0  0  0
  9 10  2  0  0  0
  9 11  2  0  0  0
  9 12  1  0  0  0
 12 13  1  0  0  0
 12 27  1  0  0  0
 13 14  1  0  0  0
 13 19  1  0  0  0
 13 15  1  0  0  0
 15 16  1  0  0  0
 15 28  1  0  0  0
 15 29  1  0  0  0
 16 17  1  0  0  0
 16 30  1  0  0  0
 16 31  1  0  0  0
 17 18  1  0  0  0
 17 32  1  0  0  0
 17 33  1  0  0  0
 18 19  1  0  0  0
 18 34  1  0  0  0
 18 35  1  0  0  0
 19 20  1  0  0  0
 19 21  1  0  0  0
 21 36  1  0  0  0
M  END
> <i_i_glide_confnum>
3

> <i_i_glide_lignum>
4753

> <i_i_glide_posenum>
352

> <i_i_glide_rotatable_bonds>
4

> <i_m_Source_File_Index>
3604

> <b_m_subgroup_collapsed>
0

> <r_i_docking_score>
-4.44403

> <r_i_glide_ecoul>
-10.2128

> <r_i_glide_eff_state_penalty>
0

> <r_i_glide_einternal>
6.13837

> <r_i_glide_emodel>
-45.6794

> <r_i_glide_energy>
-43.1148

> <r_i_glide_erotb>
0.468462

> <r_i_glide_esite>
-0.160796

> <r_i_glide_evdw>
-32.9019

> <r_i_glide_gscore>
-4.44403

> <r_i_glide_hbond>
-0.475026

> <r_i_glide_ligand_efficiency>
-0.233896

> <r_i_glide_ligand_efficiency_ln>
-1.12666

> <r_i_glide_ligand_efficiency_sa>
-0.624129

> <r_i_glide_lipo>
-2.0302

> <r_i_glide_metal>
0

> <r_i_glide_rewards>
0.930556

> <s_i_glide_gridfile>
wee1_glide-grid

> <s_m_Source_File>
wee1_decoys_glide_SP.sdf

> <s_m_Source_Path>
/Users/zhangxujun/Desktop

> <s_m_entry_id>
3879

> <s_m_entry_name>
wee1_decoys_glide_SP.3604

> <s_m_subgroup_title>
wee1_decoys_glide_SP

> <s_m_subgroupid>
wee1_decoys_glide_SP


$$$$
