ZINC20751744_4489
                    3D
 Schrodinger Suite 2024-2.
 64 69  0  0  1  0            999 V2000
    1.0937   43.9639   17.2047 C   0  0  0  0  0  0
    0.0088   44.7560   17.9113 C   0  0  0  0  0  0
   -0.3148   44.4856   19.2441 C   0  0  0  0  0  0
   -1.3196   45.2162   19.8828 C   0  0  0  0  0  0
   -2.0001   46.2172   19.1838 C   0  0  0  0  0  0
   -1.6828   46.5042   17.8495 C   0  0  0  0  0  0
   -0.6731   45.7652   17.2253 C   0  0  0  0  0  0
   -2.3316   47.4893   17.0877 N   0  0  0  0  0  0
   -3.3325   48.8119   17.7248 S   0  0  0  0  0  0
   -3.8468   49.5230   16.5499 O   0  0  0  0  0  0
   -4.2571   48.2635   18.7207 O   0  0  0  0  0  0
   -2.1947   49.9193   18.5514 C   0  0  0  0  0  0
   -1.5945   50.9615   17.8429 C   0  0  0  0  0  0
   -0.7070   51.8217   18.4855 C   0  0  0  0  0  0
   -0.4139   51.6474   19.8379 C   0  0  0  0  0  0
   -0.9888   50.5782   20.5597 C   0  0  0  0  0  0
   -1.8942   49.7348   19.9029 C   0  0  0  0  0  0
   -0.6042   50.4261   22.0251 C   0  0  1  0  0  0
   -1.1970   51.1627   22.5750 H   0  0  0  0  0  0
   -0.7031   49.0958   22.7415 C   0  0  0  0  0  0
    0.3041   48.9970   23.6329 C   0  0  0  0  0  0
    1.2686   50.1674   23.5084 C   0  0  0  0  0  0
    0.8849   50.7201   22.1355 C   0  0  2  0  0  0
    1.4326   50.1142   21.4050 H   0  0  0  0  0  0
    1.1458   52.2030   21.7486 C   0  0  2  0  0  0
    0.5679   52.8479   22.4033 H   0  0  0  0  0  0
    0.5496   52.4967   20.4305 N   0  0  0  0  0  0
    2.6263   52.6215   21.8758 C   0  0  0  0  0  0
    3.0785   53.2968   23.0683 C   0  0  0  0  0  0
    2.2643   53.5126   24.2229 C   0  0  0  0  0  0
    2.7851   54.0922   25.3743 C   0  0  0  0  0  0
    4.1040   54.5192   25.4199 C   0  0  0  0  0  0
    4.9251   54.3695   24.3100 C   0  0  0  0  0  0
    4.4374   53.7460   23.1340 C   0  0  0  0  0  0
    5.2900   53.5395   22.0323 C   0  0  0  0  0  0
    4.8526   52.8295   20.9236 C   0  0  0  0  0  0
    3.5529   52.3516   20.8466 C   0  0  0  0  0  0
    3.2319   51.6018   19.7391 O   0  0  0  0  0  0
   -1.6913   44.9257   21.3255 C   0  0  0  0  0  0
    1.8196   44.6423   16.7483 H   0  0  0  0  0  0
    0.6595   43.3643   16.4007 H   0  0  0  0  0  0
    1.6329   43.2970   17.8832 H   0  0  0  0  0  0
    0.2183   43.7142   19.7815 H   0  0  0  0  0  0
   -2.7744   46.7552   19.7046 H   0  0  0  0  0  0
   -0.4144   45.9689   16.1960 H   0  0  0  0  0  0
   -2.0109   47.6131   16.1414 H   0  0  0  0  0  0
   -1.8087   51.1041   16.7934 H   0  0  0  0  0  0
   -0.2335   52.6142   17.9227 H   0  0  0  0  0  0
   -2.3619   48.9292   20.4478 H   0  0  0  0  0  0
   -1.5366   48.4178   22.6286 H   0  0  0  0  0  0
    0.4563   48.2009   24.3486 H   0  0  0  0  0  0
    2.3077   49.8401   23.5212 H   0  0  0  0  0  0
    1.1410   50.8902   24.3153 H   0  0  0  0  0  0
    0.8913   53.3450   19.9890 H   0  0  0  0  0  0
    1.2368   53.1873   24.2566 H   0  0  0  0  0  0
    2.1556   54.2088   26.2457 H   0  0  0  0  0  0
    4.4913   54.9697   26.3217 H   0  0  0  0  0  0
    5.9521   54.7001   24.3535 H   0  0  0  0  0  0
    6.3046   53.9011   22.0820 H   0  0  0  0  0  0
    5.5361   52.6405   20.1074 H   0  0  0  0  0  0
    3.9829   51.3459   19.1832 H   0  0  0  0  0  0
   -2.7756   44.8979   21.4426 H   0  0  0  0  0  0
   -1.2956   43.9656   21.6581 H   0  0  0  0  0  0
   -1.2960   45.7114   21.9722 H   0  0  0  0  0  0
  1  2  1  0  0  0
  1 40  1  0  0  0
  1 41  1  0  0  0
  1 42  1  0  0  0
  2  7  2  0  0  0
  2  3  1  0  0  0
  3  4  2  0  0  0
  3 43  1  0  0  0
  4  5  1  0  0  0
  4 39  1  0  0  0
  5  6  2  0  0  0
  5 44  1  0  0  0
  6  7  1  0  0  0
  6  8  1  0  0  0
  7 45  1  0  0  0
  8  9  1  0  0  0
  8 46  1  0  0  0
  9 10  2  0  0  0
  9 11  2  0  0  0
  9 12  1  0  0  0
 12 17  2  0  0  0
 12 13  1  0  0  0
 13 14  2  0  0  0
 13 47  1  0  0  0
 14 15  1  0  0  0
 14 48  1  0  0  0
 15 27  1  0  0  0
 15 16  2  0  0  0
 16 17  1  0  0  0
 16 18  1  0  0  0
 17 49  1  0  0  0
 18 19  1  0  0  0
 18 23  1  0  0  0
 18 20  1  0  0  0
 20 21  2  0  0  0
 20 50  1  0  0  0
 21 22  1  0  0  0
 21 51  1  0  0  0
 22 23  1  0  0  0
 22 52  1  0  0  0
 22 53  1  0  0  0
 23 24  1  0  0  0
 23 25  1  0  0  0
 25 26  1  0  0  0
 25 27  1  0  0  0
 25 28  1  0  0  0
 27 54  1  0  0  0
 28 37  2  0  0  0
 28 29  1  0  0  0
 29 34  2  0  0  0
 29 30  1  0  0  0
 30 31  2  0  0  0
 30 55  1  0  0  0
 31 32  1  0  0  0
 31 56  1  0  0  0
 32 33  2  0  0  0
 32 57  1  0  0  0
 33 34  1  0  0  0
 33 58  1  0  0  0
 34 35  1  0  0  0
 35 36  2  0  0  0
 35 59  1  0  0  0
 36 37  1  0  0  0
 36 60  1  0  0  0
 37 38  1  0  0  0
 38 61  1  0  0  0
 39 62  1  0  0  0
 39 63  1  0  0  0
 39 64  1  0  0  0
M  END
> <i_i_glide_confnum>
9

> <i_i_glide_lignum>
4490

> <i_i_glide_posenum>
382

> <i_i_glide_rotatable_bonds>
5

> <i_m_Source_File_Index>
5798

> <b_m_subgroup_collapsed>
0

> <r_i_docking_score>
-3.82527

> <r_i_glide_ecoul>
-3.81937

> <r_i_glide_eff_state_penalty>
0

> <r_i_glide_einternal>
1.00358

> <r_i_glide_emodel>
-41.3222

> <r_i_glide_energy>
-32.4619

> <r_i_glide_erotb>
0.330752

> <r_i_glide_esite>
-0.0347276

> <r_i_glide_evdw>
-28.6426

> <r_i_glide_gscore>
-3.82527

> <r_i_glide_hbond>
-0.455718

> <r_i_glide_ligand_efficiency>
-0.106257

> <r_i_glide_ligand_efficiency_ln>
-0.83457

> <r_i_glide_ligand_efficiency_sa>
-0.350854

> <r_i_glide_lipo>
-1.67658

> <r_i_glide_metal>
0

> <r_i_glide_rewards>
0.0160431

> <s_i_glide_gridfile>
wee1_glide-grid

> <s_m_Source_File>
wee1_decoys_glide_SP.sdf

> <s_m_Source_Path>
/Users/zhangxujun/Desktop

> <s_m_entry_id>
6073

> <s_m_entry_name>
wee1_decoys_glide_SP.5798

> <s_m_subgroup_title>
wee1_decoys_glide_SP

> <s_m_subgroupid>
wee1_decoys_glide_SP


$$$$
