ZINC10435196_360
                    3D
 Schrodinger Suite 2024-2.
 70 74  0  0  1  0            999 V2000
    5.9348   55.1044   25.3192 C   0  0  0  0  0  0
    4.7622   54.4967   24.5703 C   0  0  0  0  0  0
    3.4952   54.4501   25.1513 C   0  0  0  0  0  0
    2.4255   53.8847   24.4561 C   0  0  0  0  0  0
    2.6096   53.3344   23.1816 C   0  0  0  0  0  0
    3.8870   53.4232   22.5987 C   0  0  0  0  0  0
    4.9532   53.9980   23.2844 C   0  0  0  0  0  0
    1.4813   52.6733   22.4194 C   0  0  0  0  0  0
    0.2377   52.1243   22.8552 C   0  0  0  0  0  0
   -0.3557   51.6980   21.6718 C   0  0  0  0  0  0
    0.5325   51.9072   20.6549 N   0  0  0  0  0  0
    1.6346   52.4968   21.1200 N   0  0  0  0  0  0
    0.4121   51.5443   19.2922 C   0  0  0  0  0  0
   -0.8498   51.5077   18.6866 C   0  0  0  0  0  0
   -0.9697   51.1350   17.3500 C   0  0  0  0  0  0
    0.1671   50.7927   16.6221 C   0  0  0  0  0  0
    1.4255   50.8196   17.2164 C   0  0  0  0  0  0
    1.5513   51.2001   18.5487 C   0  0  0  0  0  0
   -0.3396   51.9084   24.2599 C   0  0  1  0  0  0
    0.4397   52.0636   25.0046 H   0  0  0  0  0  0
   -1.5745   52.7539   24.5471 C   0  0  0  0  0  0
   -2.6616   51.7181   24.7081 C   0  0  0  0  0  0
   -2.2046   50.5336   24.6434 N   0  0  0  0  0  0
   -0.8642   50.5496   24.4439 N   0  0  0  0  0  0
   -0.1166   49.4187   24.3846 C   0  0  0  0  0  0
    1.1044   49.4614   24.2854 O   0  0  0  0  0  0
   -0.7884   48.0396   24.3241 C   0  0  0  0  0  0
   -2.3387   46.5500   25.6032 C   0  0  0  0  0  0
   -2.7205   46.0704   27.0126 C   0  0  0  0  0  0
   -3.5070   44.8968   26.8817 O   0  0  0  0  0  0
   -4.0753   52.0656   24.9562 C   0  0  0  0  0  0
   -4.9969   51.0584   25.2782 C   0  0  0  0  0  0
   -6.3313   51.3685   25.5228 C   0  0  0  0  0  0
   -6.7718   52.6959   25.4423 C   0  0  0  0  0  0
   -5.8576   53.6940   25.1176 C   0  0  0  0  0  0
   -4.5186   53.3920   24.8814 C   0  0  0  0  0  0
   -8.0720   53.1035   25.6664 O   0  0  0  0  0  0
   -9.0576   52.1312   25.9989 C   0  0  0  0  0  0
    5.6435   55.5027   26.2910 H   0  0  0  0  0  0
    6.7096   54.3516   25.4707 H   0  0  0  0  0  0
    6.3753   55.9136   24.7357 H   0  0  0  0  0  0
    3.3332   54.8598   26.1375 H   0  0  0  0  0  0
    1.4525   53.8999   24.9182 H   0  0  0  0  0  0
    4.0732   53.0280   21.6100 H   0  0  0  0  0  0
    5.9284   54.0410   22.8201 H   0  0  0  0  0  0
   -1.2909   51.1910   21.4896 H   0  0  0  0  0  0
   -1.7403   51.7677   19.2378 H   0  0  0  0  0  0
   -1.9414   51.1083   16.8800 H   0  0  0  0  0  0
    0.0740   50.4972   15.5872 H   0  0  0  0  0  0
    2.3050   50.5387   16.6517 H   0  0  0  0  0  0
    2.5370   51.2065   18.9935 H   0  0  0  0  0  0
   -1.7908   53.4547   23.7397 H   0  0  0  0  0  0
   -1.4628   53.2964   25.4835 H   0  0  0  0  0  0
   -0.0707   47.2583   24.0794 H   0  0  0  0  0  0
   -1.6276   48.0346   23.6265 H   0  0  0  0  0  0
   -1.8506   45.7586   25.0304 H   0  0  0  0  0  0
   -3.1943   46.9645   25.0666 H   0  0  0  0  0  0
   -3.2961   46.8256   27.5513 H   0  0  0  0  0  0
   -1.8350   45.8419   27.6078 H   0  0  0  0  0  0
   -3.2955   44.2945   27.6353 H   0  0  0  0  0  0
   -4.6900   50.0246   25.3496 H   0  0  0  0  0  0
   -7.0084   50.5663   25.7728 H   0  0  0  0  0  0
   -6.2073   54.7096   25.0369 H   0  0  0  0  0  0
   -3.8454   54.1984   24.6297 H   0  0  0  0  0  0
  -10.0192   52.6265   26.1343 H   0  0  0  0  0  0
   -9.1764   51.3933   25.2041 H   0  0  0  0  0  0
   -8.8155   51.6185   26.9313 H   0  0  0  0  0  0
   -1.3069   47.6967   25.6817 N   0  3  0  0  0  0
   -1.7133   48.4881   26.1732 H   0  0  0  0  0  0
   -0.5441   47.3809   26.2793 H   0  0  0  0  0  0
  1  2  1  0  0  0
  1 39  1  0  0  0
  1 40  1  0  0  0
  1 41  1  0  0  0
  2  7  2  0  0  0
  2  3  1  0  0  0
  3  4  2  0  0  0
  3 42  1  0  0  0
  4  5  1  0  0  0
  4 43  1  0  0  0
  5  6  2  0  0  0
  5  8  1  0  0  0
  6  7  1  0  0  0
  6 44  1  0  0  0
  7 45  1  0  0  0
  8 12  2  0  0  0
  8  9  1  0  0  0
  9 10  2  0  0  0
  9 19  1  0  0  0
 10 11  1  0  0  0
 10 46  1  0  0  0
 11 12  1  0  0  0
 11 13  1  0  0  0
 13 18  2  0  0  0
 13 14  1  0  0  0
 14 15  2  0  0  0
 14 47  1  0  0  0
 15 16  1  0  0  0
 15 48  1  0  0  0
 16 17  2  0  0  0
 16 49  1  0  0  0
 17 18  1  0  0  0
 17 50  1  0  0  0
 18 51  1  0  0  0
 19 20  1  0  0  0
 19 24  1  0  0  0
 19 21  1  0  0  0
 21 22  1  0  0  0
 21 52  1  0  0  0
 21 53  1  0  0  0
 22 23  2  0  0  0
 22 31  1  0  0  0
 23 24  1  0  0  0
 24 25  1  0  0  0
 25 26  2  0  0  0
 25 27  1  0  0  0
 27 54  1  0  0  0
 27 55  1  0  0  0
 27 68  1  0  0  0
 28 29  1  0  0  0
 28 56  1  0  0  0
 28 57  1  0  0  0
 28 68  1  0  0  0
 29 30  1  0  0  0
 29 58  1  0  0  0
 29 59  1  0  0  0
 30 60  1  0  0  0
 31 36  2  0  0  0
 31 32  1  0  0  0
 32 33  2  0  0  0
 32 61  1  0  0  0
 33 34  1  0  0  0
 33 62  1  0  0  0
 34 35  2  0  0  0
 34 37  1  0  0  0
 35 36  1  0  0  0
 35 63  1  0  0  0
 36 64  1  0  0  0
 37 38  1  0  0  0
 38 65  1  0  0  0
 38 66  1  0  0  0
 38 67  1  0  0  0
 68 69  1  0  0  0
 68 70  1  0  0  0
M  CHG  1  68   1
M  END
> <i_i_glide_confnum>
101

> <i_i_glide_lignum>
361

> <i_i_glide_posenum>
167

> <i_i_glide_rotatable_bonds>
11

> <i_m_Source_File_Index>
1101

> <b_m_subgroup_collapsed>
0

> <r_i_docking_score>
-5.29597

> <r_i_glide_ecoul>
-12.1189

> <r_i_glide_eff_state_penalty>
0

> <r_i_glide_einternal>
6.48148

> <r_i_glide_emodel>
-61.8909

> <r_i_glide_energy>
-45.582

> <r_i_glide_erotb>
0.70723

> <r_i_glide_esite>
-0.14345

> <r_i_glide_evdw>
-33.4631

> <r_i_glide_gscore>
-5.29597

> <r_i_glide_hbond>
-0.276128

> <r_i_glide_ligand_efficiency>
-0.139368

> <r_i_glide_ligand_efficiency_ln>
-1.14197

> <r_i_glide_ligand_efficiency_sa>
-0.46855

> <r_i_glide_lipo>
-2.09262

> <r_i_glide_metal>
0

> <r_i_glide_rewards>
5.48792e-10

> <s_i_glide_gridfile>
wee1_glide-grid

> <s_m_Source_File>
wee1_decoys_glide_SP.sdf

> <s_m_Source_Path>
/Users/zhangxujun/Desktop

> <s_m_entry_id>
1376

> <s_m_entry_name>
wee1_decoys_glide_SP.1101

> <s_m_subgroup_title>
wee1_decoys_glide_SP

> <s_m_subgroupid>
wee1_decoys_glide_SP


$$$$
