ZINC36502252_3175
                    3D
 Schrodinger Suite 2024-2.
 70 74  0  0  1  0            999 V2000
    4.0048   54.1075   25.0461 C   0  0  0  0  0  0
    3.0414   53.7983   24.0944 C   0  0  0  0  0  0
    1.8982   53.0987   24.4703 C   0  0  0  0  0  0
    1.6663   52.7236   25.8100 C   0  0  0  0  0  0
    2.7031   52.9899   26.7290 C   0  0  0  0  0  0
    3.8448   53.6987   26.3639 C   0  0  0  0  0  0
    0.3714   51.9512   26.2876 C   0  0  0  0  0  0
   -0.0534   52.3799   27.7393 C   0  0  0  0  0  0
   -0.6631   51.4559   28.5985 C   0  0  0  0  0  0
   -0.8104   51.7005   29.9568 C   0  0  0  0  0  0
   -0.3485   52.8966   30.4882 C   0  0  0  0  0  0
    0.1657   53.8812   29.6554 C   0  0  0  0  0  0
    0.2739   53.6367   28.2892 C   0  0  0  0  0  0
   -0.8444   52.0909   25.2710 C   0  0  0  0  0  0
   -0.9431   53.1632   24.6730 O   0  0  0  0  0  0
   -1.7190   51.0790   24.9130 N   0  0  0  0  0  0
   -1.9892   49.8409   25.6833 C   0  0  0  0  0  0
   -2.0207   48.6002   24.8155 C   0  0  0  0  0  0
   -1.0513   47.8256   24.1936 C   0  0  0  0  0  0
   -1.7331   46.8669   23.4423 C   0  0  0  0  0  0
   -3.0825   47.0558   23.6916 C   0  0  0  0  0  0
   -3.2550   48.1026   24.5330 O   0  0  0  0  0  0
   -2.6925   51.2673   23.7852 C   0  0  1  0  0  0
   -3.2013   50.3218   23.6179 H   0  0  0  0  0  0
   -3.7703   52.2234   24.1678 C   0  0  0  0  0  0
   -4.9544   52.0774   24.8797 C   0  0  0  0  0  0
   -5.4806   53.3547   25.0717 C   0  0  0  0  0  0
   -4.5843   54.2254   24.4818 C   0  0  0  0  0  0
   -3.5634   53.5426   23.9160 O   0  0  0  0  0  0
   -2.1186   51.4944   22.3494 C   0  0  0  0  0  0
   -2.8932   51.6586   21.4077 O   0  0  0  0  0  0
   -0.7861   51.4278   22.1770 N   0  0  0  0  0  0
   -0.0839   51.4675   20.8939 C   0  0  0  0  0  0
    1.2944   52.1656   20.9829 C   0  0  0  0  0  0
    2.0885   52.1485   19.6616 C   0  0  0  0  0  0
    2.2049   50.7341   19.0723 C   0  0  0  0  0  0
    0.8194   50.0939   18.8897 C   0  0  0  0  0  0
   -0.0002   50.0867   20.1961 C   0  0  0  0  0  0
    0.7044   50.5761   26.2976 O   0  0  0  0  0  0
    4.8922   54.6494   24.7533 H   0  0  0  0  0  0
    3.1813   54.0945   23.0650 H   0  0  0  0  0  0
    1.1966   52.8679   23.6886 H   0  0  0  0  0  0
    2.6285   52.6441   27.7486 H   0  0  0  0  0  0
    4.6122   53.9091   27.0934 H   0  0  0  0  0  0
   -0.9740   50.4966   28.2429 H   0  0  0  0  0  0
   -1.2551   50.9527   30.6017 H   0  0  0  0  0  0
   -0.4404   53.0737   31.5504 H   0  0  0  0  0  0
    0.4816   54.8293   30.0652 H   0  0  0  0  0  0
    0.7046   54.4163   27.6811 H   0  0  0  0  0  0
   -1.3262   49.6547   26.5109 H   0  0  0  0  0  0
   -2.9611   49.9660   26.1621 H   0  0  0  0  0  0
    0.0187   47.9683   24.2516 H   0  0  0  0  0  0
   -1.2998   46.1156   22.7977 H   0  0  0  0  0  0
   -3.9861   46.5677   23.3505 H   0  0  0  0  0  0
   -5.3690   51.1475   25.2399 H   0  0  0  0  0  0
   -6.3934   53.6107   25.5894 H   0  0  0  0  0  0
   -4.5341   55.2946   24.3701 H   0  0  0  0  0  0
   -0.2176   51.2593   22.9917 H   0  0  0  0  0  0
   -0.6588   52.1014   20.2144 H   0  0  0  0  0  0
    1.1720   53.2013   21.3078 H   0  0  0  0  0  0
    1.9007   51.6600   21.7354 H   0  0  0  0  0  0
    1.6008   52.8042   18.9385 H   0  0  0  0  0  0
    3.0847   52.5670   19.8192 H   0  0  0  0  0  0
    2.7327   50.7677   18.1172 H   0  0  0  0  0  0
    2.8168   50.1124   19.7273 H   0  0  0  0  0  0
    0.2694   50.6364   18.1188 H   0  0  0  0  0  0
    0.9357   49.0760   18.5158 H   0  0  0  0  0  0
    0.4689   49.3790   20.8808 H   0  0  0  0  0  0
   -1.0026   49.7082   19.9910 H   0  0  0  0  0  0
    0.7829   50.2654   25.3937 H   0  0  0  0  0  0
  1  6  2  0  0  0
  1  2  1  0  0  0
  1 40  1  0  0  0
  2  3  2  0  0  0
  2 41  1  0  0  0
  3  4  1  0  0  0
  3 42  1  0  0  0
  4  5  2  0  0  0
  4  7  1  0  0  0
  5  6  1  0  0  0
  5 43  1  0  0  0
  6 44  1  0  0  0
  7  8  1  0  0  0
  7 14  1  0  0  0
  7 39  1  0  0  0
  8 13  2  0  0  0
  8  9  1  0  0  0
  9 10  2  0  0  0
  9 45  1  0  0  0
 10 11  1  0  0  0
 10 46  1  0  0  0
 11 12  2  0  0  0
 11 47  1  0  0  0
 12 13  1  0  0  0
 12 48  1  0  0  0
 13 49  1  0  0  0
 14 15  2  0  0  0
 14 16  1  0  0  0
 16 17  1  0  0  0
 16 23  1  0  0  0
 17 18  1  0  0  0
 17 50  1  0  0  0
 17 51  1  0  0  0
 18 22  1  0  0  0
 18 19  2  0  0  0
 19 20  1  0  0  0
 19 52  1  0  0  0
 20 21  2  0  0  0
 20 53  1  0  0  0
 21 22  1  0  0  0
 21 54  1  0  0  0
 23 24  1  0  0  0
 23 25  1  0  0  0
 23 30  1  0  0  0
 25 29  1  0  0  0
 25 26  2  0  0  0
 26 27  1  0  0  0
 26 55  1  0  0  0
 27 28  2  0  0  0
 27 56  1  0  0  0
 28 29  1  0  0  0
 28 57  1  0  0  0
 30 31  2  0  0  0
 30 32  1  0  0  0
 32 33  1  0  0  0
 32 58  1  0  0  0
 33 38  1  0  0  0
 33 34  1  0  0  0
 33 59  1  0  0  0
 34 35  1  0  0  0
 34 60  1  0  0  0
 34 61  1  0  0  0
 35 36  1  0  0  0
 35 62  1  0  0  0
 35 63  1  0  0  0
 36 37  1  0  0  0
 36 64  1  0  0  0
 36 65  1  0  0  0
 37 38  1  0  0  0
 37 66  1  0  0  0
 37 67  1  0  0  0
 38 68  1  0  0  0
 38 69  1  0  0  0
 39 70  1  0  0  0
M  END
> <i_i_glide_confnum>
6

> <i_i_glide_lignum>
3176

> <i_i_glide_posenum>
219

> <i_i_glide_rotatable_bonds>
12

> <i_m_Source_File_Index>
3981

> <b_m_subgroup_collapsed>
0

> <r_i_docking_score>
-3.40962

> <r_i_glide_ecoul>
-5.69874

> <r_i_glide_eff_state_penalty>
0

> <r_i_glide_einternal>
15.8259

> <r_i_glide_emodel>
-33.7647

> <r_i_glide_energy>
-33.2486

> <r_i_glide_erotb>
0.624175

> <r_i_glide_esite>
-0.0203581

> <r_i_glide_evdw>
-27.5499

> <r_i_glide_gscore>
-3.40962

> <r_i_glide_hbond>
0

> <r_i_glide_ligand_efficiency>
-0.0897268

> <r_i_glide_ligand_efficiency_ln>
-0.735214

> <r_i_glide_ligand_efficiency_sa>
-0.301659

> <r_i_glide_lipo>
-1.79465

> <r_i_glide_metal>
0

> <r_i_glide_rewards>
0.0135157

> <s_i_glide_gridfile>
wee1_glide-grid

> <s_m_Source_File>
wee1_decoys_glide_SP.sdf

> <s_m_Source_Path>
/Users/zhangxujun/Desktop

> <s_m_entry_id>
4256

> <s_m_entry_name>
wee1_decoys_glide_SP.3981

> <s_m_subgroup_title>
wee1_decoys_glide_SP

> <s_m_subgroupid>
wee1_decoys_glide_SP


$$$$
