ZINC13139372_2331
                    3D
 Schrodinger Suite 2024-2.
 43 45  0  0  1  0            999 V2000
    4.7993   52.8804   28.9711 C   0  0  0  0  0  0
    5.5088   54.2214   28.7249 C   0  0  0  0  0  0
    6.6481   54.1026   27.8693 O   0  0  0  0  0  0
    6.3994   53.7973   26.5014 C   0  0  0  0  0  0
    5.7520   54.9559   25.7146 C   0  0  0  0  0  0
    4.7740   54.4966   24.7178 N   0  0  0  0  0  0
    5.0731   54.4959   23.3473 C   0  0  0  0  0  0
    6.2568   54.8952   22.7094 C   0  0  0  0  0  0
    6.3304   54.8971   21.3160 C   0  0  0  0  0  0
    5.2544   54.4256   20.5572 C   0  0  0  0  0  0
    4.0780   54.0252   21.1915 C   0  0  0  0  0  0
    3.9917   54.0858   22.5793 C   0  0  0  0  0  0
    2.6014   53.7256   23.5708 S   0  0  0  0  0  0
    3.5046   54.0727   25.1058 C   0  0  0  0  0  0
    3.1037   53.9590   26.3177 N   0  0  0  0  0  0
    1.8566   53.4835   26.6934 C   0  0  0  0  0  0
    1.1140   52.7608   26.0240 O   0  0  0  0  0  0
    1.5415   53.8453   28.0556 C   0  0  0  0  0  0
    1.7181   55.1308   28.6039 C   0  0  0  0  0  0
    1.3107   55.2402   29.9166 C   0  0  0  0  0  0
    0.6968   53.7438   30.5300 S   0  0  0  0  0  0
    1.0073   52.9689   29.0083 C   0  0  0  0  0  0
    0.6308   51.2983   28.8428 Cl  0  0  0  0  0  0
    1.3657   56.6510   30.8859 Cl  0  0  0  0  0  0
    5.3649   54.3743   18.7758 S   0  0  0  0  0  0
    4.5486   55.4923   18.2946 O   0  0  0  0  0  0
    6.7865   54.2610   18.4363 O   0  0  0  0  0  0
    4.5742   52.8968   18.2745 N   0  0  0  0  0  0
    4.0415   52.9764   29.7480 H   0  0  0  0  0  0
    4.3098   52.4965   28.0804 H   0  0  0  0  0  0
    5.5036   52.1182   29.2811 H   0  0  0  0  0  0
    5.8625   54.6038   29.6811 H   0  0  0  0  0  0
    4.8024   54.9664   28.3628 H   0  0  0  0  0  0
    5.7990   52.8959   26.4257 H   0  0  0  0  0  0
    7.3438   53.5388   26.0287 H   0  0  0  0  0  0
    6.5418   55.5543   25.2651 H   0  0  0  0  0  0
    5.2694   55.6625   26.3881 H   0  0  0  0  0  0
    7.1103   55.2417   23.2662 H   0  0  0  0  0  0
    7.2370   55.2329   20.8302 H   0  0  0  0  0  0
    3.2325   53.6935   20.6071 H   0  0  0  0  0  0
    2.1395   55.9715   28.0811 H   0  0  0  0  0  0
    5.0751   51.9911   18.3714 H   0  0  0  0  0  0
    3.5617   52.8505   18.3949 H   0  0  0  0  0  0
  1  2  1  0  0  0
  1 29  1  0  0  0
  1 30  1  0  0  0
  1 31  1  0  0  0
  2  3  1  0  0  0
  2 32  1  0  0  0
  2 33  1  0  0  0
  3  4  1  0  0  0
  4  5  1  0  0  0
  4 34  1  0  0  0
  4 35  1  0  0  0
  5  6  1  0  0  0
  5 36  1  0  0  0
  5 37  1  0  0  0
  6 14  1  0  0  0
  6  7  1  0  0  0
  7 12  2  0  0  0
  7  8  1  0  0  0
  8  9  2  0  0  0
  8 38  1  0  0  0
  9 10  1  0  0  0
  9 39  1  0  0  0
 10 11  2  0  0  0
 10 25  1  0  0  0
 11 12  1  0  0  0
 11 40  1  0  0  0
 12 13  1  0  0  0
 13 14  1  0  0  0
 14 15  2  0  0  0
 15 16  1  0  0  0
 16 17  2  0  0  0
 16 18  1  0  0  0
 18 22  2  0  0  0
 18 19  1  0  0  0
 19 20  2  0  0  0
 19 41  1  0  0  0
 20 21  1  0  0  0
 20 24  1  0  0  0
 21 22  1  0  0  0
 22 23  1  0  0  0
 25 26  2  0  0  0
 25 27  2  0  0  0
 25 28  1  0  0  0
 28 42  1  0  0  0
 28 43  1  0  0  0
M  END
> <i_i_glide_confnum>
54

> <i_i_glide_lignum>
2332

> <i_i_glide_posenum>
95

> <i_i_glide_rotatable_bonds>
7

> <i_m_Source_File_Index>
5734

> <b_m_subgroup_collapsed>
0

> <r_i_docking_score>
-6.76598

> <r_i_glide_ecoul>
-2.9858

> <r_i_glide_eff_state_penalty>
0

> <r_i_glide_einternal>
7.43598

> <r_i_glide_emodel>
-66.4815

> <r_i_glide_energy>
-50.6906

> <r_i_glide_erotb>
0.351461

> <r_i_glide_esite>
-0.109763

> <r_i_glide_evdw>
-47.7048

> <r_i_glide_gscore>
-6.76598

> <r_i_glide_hbond>
-0.16

> <r_i_glide_ligand_efficiency>
-0.241642

> <r_i_glide_ligand_efficiency_ln>
-1.56179

> <r_i_glide_ligand_efficiency_sa>
-0.733768

> <r_i_glide_lipo>
-3.86244

> <r_i_glide_metal>
0

> <r_i_glide_rewards>
-0.152119

> <s_i_glide_gridfile>
wee1_glide-grid

> <s_m_Source_File>
wee1_decoys_glide_SP.sdf

> <s_m_Source_Path>
/Users/zhangxujun/Desktop

> <s_m_entry_id>
6009

> <s_m_entry_name>
wee1_decoys_glide_SP.5734

> <s_m_subgroup_title>
wee1_decoys_glide_SP

> <s_m_subgroupid>
wee1_decoys_glide_SP


$$$$
