ZINC08743948_3006
                    3D
 Schrodinger Suite 2024-2.
 59 62  0  0  1  0            999 V2000
    1.5662   53.8543   23.1992 C   0  0  0  0  0  0
    2.3263   53.7308   24.5178 C   0  0  0  0  0  0
    1.9027   53.1287   25.6711 C   0  0  0  0  0  0
    2.7678   53.1392   26.9727 C   0  0  1  0  0  0
    3.0015   52.1060   27.2462 H   0  0  0  0  0  0
    4.1541   53.7641   26.6786 C   0  0  0  0  0  0
    4.4683   54.3158   25.4860 C   0  0  0  0  0  0
    3.5592   54.3383   24.4592 N   0  0  0  0  0  0
    6.0568   55.0124   25.0477 S   0  0  0  0  0  0
    6.5168   54.0924   23.5421 C   0  0  0  0  0  0
    6.3878   54.8959   22.2450 C   0  0  0  0  0  0
    7.1042   55.8803   22.0806 O   0  0  0  0  0  0
    5.5028   54.4221   21.3422 N   0  0  0  0  0  0
    5.2580   54.8962   20.0587 C   0  0  0  0  0  0
    4.3353   54.3398   19.3140 N   0  0  0  0  0  0
    4.2341   54.9246   18.1359 C   0  0  0  0  0  0
    5.0967   55.9907   17.8956 C   0  0  0  0  0  0
    6.1062   56.2208   19.2892 S   0  0  0  0  0  0
    5.1509   53.7207   27.6962 C   0  0  0  0  0  0
    5.9969   53.6963   28.4816 N   0  0  0  0  0  0
    2.0763   53.7082   28.2244 C   0  0  0  0  0  0
    2.1301   55.0777   28.4973 C   0  0  0  0  0  0
    1.5035   55.5994   29.6255 C   0  0  0  0  0  0
    0.8115   54.7456   30.4818 C   0  0  0  0  0  0
    0.7628   53.3758   30.2343 C   0  0  0  0  0  0
    1.4026   52.8568   29.1109 C   0  0  0  0  0  0
    0.6990   52.3125   25.7171 C   0  0  0  0  0  0
   -0.1837   52.4728   26.5583 O   0  0  0  0  0  0
    0.7060   51.3398   24.7821 N   0  0  0  0  0  0
   -0.1649   50.2593   24.5671 C   0  0  0  0  0  0
   -1.0396   49.7669   25.5472 C   0  0  0  0  0  0
   -1.8316   48.6530   25.2822 C   0  0  0  0  0  0
   -1.7615   48.0230   24.0436 C   0  0  0  0  0  0
   -0.8940   48.5049   23.0652 C   0  0  0  0  0  0
   -0.0792   49.6228   23.3155 C   0  0  0  0  0  0
    0.8162   50.1415   22.3910 O   0  0  0  0  0  0
    0.9557   49.5229   21.1171 C   0  0  0  0  0  0
    0.5343   53.5158   23.2718 H   0  0  0  0  0  0
    1.5264   54.8958   22.8777 H   0  0  0  0  0  0
    2.0556   53.2769   22.4145 H   0  0  0  0  0  0
    3.8045   54.8411   23.6187 H   0  0  0  0  0  0
    5.9593   53.1566   23.4921 H   0  0  0  0  0  0
    7.5658   53.8163   23.6399 H   0  0  0  0  0  0
    4.9545   53.6172   21.6052 H   0  0  0  0  0  0
    3.4980   54.5517   17.4381 H   0  0  0  0  0  0
    5.1914   56.6144   17.0180 H   0  0  0  0  0  0
    2.6574   55.7334   27.8250 H   0  0  0  0  0  0
    1.5459   56.6598   29.8295 H   0  0  0  0  0  0
    0.3141   55.1488   31.3516 H   0  0  0  0  0  0
    0.2267   52.7200   30.9070 H   0  0  0  0  0  0
    1.3476   51.7954   28.9159 H   0  0  0  0  0  0
    1.4324   51.4054   24.0851 H   0  0  0  0  0  0
   -1.0984   50.2066   26.5321 H   0  0  0  0  0  0
   -2.4832   48.2716   26.0561 H   0  0  0  0  0  0
   -2.3745   47.1571   23.8450 H   0  0  0  0  0  0
   -0.8618   47.9909   22.1181 H   0  0  0  0  0  0
    1.6902   50.0737   20.5295 H   0  0  0  0  0  0
    1.3139   48.4975   21.2094 H   0  0  0  0  0  0
    0.0177   49.5304   20.5607 H   0  0  0  0  0  0
  1  2  1  0  0  0
  1 38  1  0  0  0
  1 39  1  0  0  0
  1 40  1  0  0  0
  2  8  1  0  0  0
  2  3  2  0  0  0
  3  4  1  0  0  0
  3 27  1  0  0  0
  4  5  1  0  0  0
  4  6  1  0  0  0
  4 21  1  0  0  0
  6  7  2  0  0  0
  6 19  1  0  0  0
  7  8  1  0  0  0
  7  9  1  0  0  0
  8 41  1  0  0  0
  9 10  1  0  0  0
 10 11  1  0  0  0
 10 42  1  0  0  0
 10 43  1  0  0  0
 11 12  2  0  0  0
 11 13  1  0  0  0
 13 14  1  0  0  0
 13 44  1  0  0  0
 14 18  1  0  0  0
 14 15  2  0  0  0
 15 16  1  0  0  0
 16 17  2  0  0  0
 16 45  1  0  0  0
 17 18  1  0  0  0
 17 46  1  0  0  0
 19 20  3  0  0  0
 21 26  2  0  0  0
 21 22  1  0  0  0
 22 23  2  0  0  0
 22 47  1  0  0  0
 23 24  1  0  0  0
 23 48  1  0  0  0
 24 25  2  0  0  0
 24 49  1  0  0  0
 25 26  1  0  0  0
 25 50  1  0  0  0
 26 51  1  0  0  0
 27 28  2  0  0  0
 27 29  1  0  0  0
 29 30  1  0  0  0
 29 52  1  0  0  0
 30 35  2  0  0  0
 30 31  1  0  0  0
 31 32  2  0  0  0
 31 53  1  0  0  0
 32 33  1  0  0  0
 32 54  1  0  0  0
 33 34  2  0  0  0
 33 55  1  0  0  0
 34 35  1  0  0  0
 34 56  1  0  0  0
 35 36  1  0  0  0
 36 37  1  0  0  0
 37 57  1  0  0  0
 37 58  1  0  0  0
 37 59  1  0  0  0
M  END
> <i_i_glide_confnum>
248

> <i_i_glide_lignum>
3007

> <i_i_glide_posenum>
59

> <i_i_glide_rotatable_bonds>
11

> <i_m_Source_File_Index>
4777

> <b_m_subgroup_collapsed>
0

> <r_i_docking_score>
-7.05147

> <r_i_glide_ecoul>
-2.12992

> <r_i_glide_eff_state_penalty>
0

> <r_i_glide_einternal>
8.62865

> <r_i_glide_emodel>
-78.2788

> <r_i_glide_energy>
-58.4889

> <r_i_glide_erotb>
0.613079

> <r_i_glide_esite>
0

> <r_i_glide_evdw>
-56.359

> <r_i_glide_gscore>
-7.05147

> <r_i_glide_hbond>
0

> <r_i_glide_ligand_efficiency>
-0.195874

> <r_i_glide_ligand_efficiency_ln>
-1.53844

> <r_i_glide_ligand_efficiency_sa>
-0.646762

> <r_i_glide_lipo>
-3.59755

> <r_i_glide_metal>
0

> <r_i_glide_rewards>
-0.929567

> <s_i_glide_gridfile>
wee1_glide-grid

> <s_m_Source_File>
wee1_decoys_glide_SP.sdf

> <s_m_Source_Path>
/Users/zhangxujun/Desktop

> <s_m_entry_id>
5052

> <s_m_entry_name>
wee1_decoys_glide_SP.4777

> <s_m_subgroup_title>
wee1_decoys_glide_SP

> <s_m_subgroupid>
wee1_decoys_glide_SP


$$$$
