ZINC20784039_1223
                    3D
 Schrodinger Suite 2024-2.
 61 65  0  0  1  0            999 V2000
    6.1577   54.1335   22.8821 C   0  0  0  0  0  0
    6.4325   54.2579   24.2408 C   0  0  0  0  0  0
    5.3876   54.3616   25.1643 C   0  0  0  0  0  0
    4.0660   54.3733   24.7059 C   0  0  0  0  0  0
    3.7955   54.2602   23.3442 C   0  0  0  0  0  0
    4.8383   54.0968   22.4244 C   0  0  0  0  0  0
    4.5547   53.9686   20.9246 C   0  0  0  0  0  0
    3.9718   52.6102   20.4634 N   0  3  0  0  0  0
    2.5126   52.4030   20.9080 C   0  0  0  0  0  0
    1.8490   51.0769   20.5394 C   0  0  0  0  0  0
    1.9659   50.5780   19.2371 C   0  0  0  0  0  0
    1.4024   49.3207   18.9070 C   0  0  0  0  0  0
    1.4639   48.7688   17.5964 C   0  0  0  0  0  0
    0.9368   47.4998   17.3989 C   0  0  0  0  0  0
    0.3349   46.7954   18.3994 C   0  0  0  0  0  0
    0.1979   47.3013   19.6828 C   0  0  0  0  0  0
    0.7499   48.5863   19.9512 C   0  0  0  0  0  0
    0.6284   49.0908   21.2046 N   0  0  0  0  0  0
    1.1349   50.3188   21.4938 C   0  0  0  0  0  0
    0.8652   50.7831   22.7841 N   0  0  0  0  0  0
    0.2241   52.0831   23.0647 C   0  0  0  0  0  0
   -1.2968   51.9213   23.2979 C   0  0  0  0  0  0
   -1.5945   50.9091   24.4211 C   0  0  0  0  0  0
   -0.8351   49.5880   24.1745 C   0  0  1  0  0  0
   -1.2334   49.2057   23.2322 H   0  0  0  0  0  0
    0.6653   49.9103   23.9533 C   0  0  0  0  0  0
   -1.0581   48.5315   25.2703 C   0  0  0  0  0  0
   -0.4960   47.2966   24.8817 O   0  0  0  0  0  0
   -0.1114   45.6081   17.9090 O   0  0  0  0  0  0
    0.4446   45.5029   16.6261 C   0  0  0  0  0  0
    0.8793   46.7800   16.2480 O   0  0  0  0  0  0
    5.7018   54.4789   26.6559 C   0  0  0  0  0  0
    4.6497   54.8965   27.3613 F   0  0  0  0  0  0
    6.0741   53.2971   27.1348 F   0  0  0  0  0  0
    6.7044   55.3317   26.8463 F   0  0  0  0  0  0
    6.9836   54.0969   22.1907 H   0  0  0  0  0  0
    7.4627   54.2753   24.5685 H   0  0  0  0  0  0
    3.2424   54.4781   25.3980 H   0  0  0  0  0  0
    2.7684   54.3195   23.0160 H   0  0  0  0  0  0
    3.8459   54.7267   20.5855 H   0  0  0  0  0  0
    5.4663   54.0754   20.3335 H   0  0  0  0  0  0
    4.0133   52.5506   19.4534 H   0  0  0  0  0  0
    2.6129   52.4545   21.9853 H   0  0  0  0  0  0
    1.9566   53.2736   20.5516 H   0  0  0  0  0  0
    2.4950   51.1271   18.4696 H   0  0  0  0  0  0
    1.9151   49.3252   16.7897 H   0  0  0  0  0  0
   -0.3036   46.7517   20.4658 H   0  0  0  0  0  0
    0.6907   52.5149   23.9518 H   0  0  0  0  0  0
    0.3852   52.7979   22.2610 H   0  0  0  0  0  0
   -1.7304   52.8890   23.5528 H   0  0  0  0  0  0
   -1.7818   51.6231   22.3676 H   0  0  0  0  0  0
   -1.2924   51.3259   25.3839 H   0  0  0  0  0  0
   -2.6656   50.7253   24.5146 H   0  0  0  0  0  0
    1.2290   48.9887   23.7982 H   0  0  0  0  0  0
    1.1041   50.3413   24.8545 H   0  0  0  0  0  0
   -0.6025   48.8551   26.2072 H   0  0  0  0  0  0
   -2.1209   48.3813   25.4647 H   0  0  0  0  0  0
   -0.0639   46.9158   25.6653 H   0  0  0  0  0  0
    1.3024   44.8291   16.6560 H   0  0  0  0  0  0
   -0.2867   45.1177   15.9152 H   0  0  0  0  0  0
    4.5406   51.8546   20.8192 H   0  0  0  0  0  0
  1  6  2  0  0  0
  1  2  1  0  0  0
  1 36  1  0  0  0
  2  3  2  0  0  0
  2 37  1  0  0  0
  3  4  1  0  0  0
  3 32  1  0  0  0
  4  5  2  0  0  0
  4 38  1  0  0  0
  5  6  1  0  0  0
  5 39  1  0  0  0
  6  7  1  0  0  0
  7  8  1  0  0  0
  7 40  1  0  0  0
  7 41  1  0  0  0
  8  9  1  0  0  0
  8 42  1  0  0  0
  8 61  1  0  0  0
  9 10  1  0  0  0
  9 43  1  0  0  0
  9 44  1  0  0  0
 10 19  2  0  0  0
 10 11  1  0  0  0
 11 12  2  0  0  0
 11 45  1  0  0  0
 12 17  1  0  0  0
 12 13  1  0  0  0
 13 14  2  0  0  0
 13 46  1  0  0  0
 14 31  1  0  0  0
 14 15  1  0  0  0
 15 16  2  0  0  0
 15 29  1  0  0  0
 16 17  1  0  0  0
 16 47  1  0  0  0
 17 18  2  0  0  0
 18 19  1  0  0  0
 19 20  1  0  0  0
 20 26  1  0  0  0
 20 21  1  0  0  0
 21 22  1  0  0  0
 21 48  1  0  0  0
 21 49  1  0  0  0
 22 23  1  0  0  0
 22 50  1  0  0  0
 22 51  1  0  0  0
 23 24  1  0  0  0
 23 52  1  0  0  0
 23 53  1  0  0  0
 24 25  1  0  0  0
 24 26  1  0  0  0
 24 27  1  0  0  0
 26 54  1  0  0  0
 26 55  1  0  0  0
 27 28  1  0  0  0
 27 56  1  0  0  0
 27 57  1  0  0  0
 28 58  1  0  0  0
 29 30  1  0  0  0
 30 31  1  0  0  0
 30 59  1  0  0  0
 30 60  1  0  0  0
 32 33  1  0  0  0
 32 34  1  0  0  0
 32 35  1  0  0  0
M  CHG  1   8   1
M  END
> <i_i_glide_confnum>
50

> <i_i_glide_lignum>
1224

> <i_i_glide_posenum>
372

> <i_i_glide_rotatable_bonds>
8

> <i_m_Source_File_Index>
4574

> <b_m_subgroup_collapsed>
0

> <r_i_docking_score>
-5.88151

> <r_i_glide_ecoul>
-9.4809

> <r_i_glide_eff_state_penalty>
0

> <r_i_glide_einternal>
4.53193

> <r_i_glide_emodel>
-57.4191

> <r_i_glide_energy>
-39.793

> <r_i_glide_erotb>
0.539261

> <r_i_glide_esite>
-0.0106143

> <r_i_glide_evdw>
-30.3121

> <r_i_glide_gscore>
-5.88151

> <r_i_glide_hbond>
-0.370192

> <r_i_glide_ligand_efficiency>
-0.172985

> <r_i_glide_ligand_efficiency_ln>
-1.29939

> <r_i_glide_ligand_efficiency_sa>
-0.560406

> <r_i_glide_lipo>
-2.05622

> <r_i_glide_metal>
0

> <r_i_glide_rewards>
-1.04599

> <s_i_glide_gridfile>
wee1_glide-grid

> <s_m_Source_File>
wee1_decoys_glide_SP.sdf

> <s_m_Source_Path>
/Users/zhangxujun/Desktop

> <s_m_entry_id>
4849

> <s_m_entry_name>
wee1_decoys_glide_SP.4574

> <s_m_subgroup_title>
wee1_decoys_glide_SP

> <s_m_subgroupid>
wee1_decoys_glide_SP


$$$$
