ZINC25336415_2502
                    3D
 Schrodinger Suite 2024-2.
 62 65  0  0  1  0            999 V2000
    2.4001   52.6002   21.9603 C   0  0  0  0  0  0
    1.6498   51.2700   21.7280 C   0  0  0  0  0  0
    2.4891   50.0831   22.2375 C   0  0  0  0  0  0
    0.1505   51.2295   22.2070 C   0  0  1  0  0  0
   -0.1463   50.1884   22.3568 H   0  0  0  0  0  0
   -0.0552   51.9391   23.5801 C   0  0  0  0  0  0
   -0.8291   52.8959   23.6819 O   0  0  0  0  0  0
    0.6653   51.4300   24.6003 N   0  0  0  0  0  0
    0.6066   51.9902   25.8818 N   0  0  0  0  0  0
    1.5464   52.8975   26.2394 C   0  0  0  0  0  0
    2.3124   53.4223   25.4245 O   0  0  0  0  0  0
    1.7323   53.2242   27.7523 C   0  0  0  0  0  0
    2.0705   54.7428   27.9427 C   0  0  0  0  0  0
    2.4062   55.0425   29.4199 C   0  0  2  0  0  0
    3.6174   54.1741   29.8542 C   0  0  0  0  0  0
    3.2543   52.6746   29.7298 C   0  0  2  0  0  0
    2.9356   52.3605   28.2480 C   0  0  0  0  0  0
    2.0081   52.3532   30.5952 C   0  0  0  0  0  0
    0.7980   53.2015   30.1229 C   0  0  1  0  0  0
    1.1447   54.7066   30.2549 C   0  0  0  0  0  0
    0.4867   52.8743   28.6339 C   0  0  0  0  0  0
   -0.6988   51.7756   21.1395 N   0  0  0  0  0  0
   -1.8881   51.2907   20.7449 C   0  0  0  0  0  0
   -2.5555   50.5297   21.4395 O   0  0  0  0  0  0
   -2.3552   51.6797   19.5379 N   0  0  0  0  0  0
   -1.7553   52.4500   18.5189 C   0  0  0  0  0  0
   -2.6218   53.1569   17.6803 C   0  0  0  0  0  0
   -2.1118   53.9502   16.6543 C   0  0  0  0  0  0
   -0.7348   54.0208   16.4537 C   0  0  0  0  0  0
    0.1360   53.2913   17.2584 C   0  0  0  0  0  0
   -0.3716   52.4952   18.2831 C   0  0  0  0  0  0
    2.6886   52.7278   23.0020 H   0  0  0  0  0  0
    3.3156   52.6393   21.3691 H   0  0  0  0  0  0
    1.7891   53.4572   21.6794 H   0  0  0  0  0  0
    1.6418   51.1351   20.6451 H   0  0  0  0  0  0
    2.6345   50.1016   23.3164 H   0  0  0  0  0  0
    2.0262   49.1293   21.9802 H   0  0  0  0  0  0
    3.4759   50.0978   21.7732 H   0  0  0  0  0  0
    1.2502   50.6095   24.5412 H   0  0  0  0  0  0
    0.0111   51.4835   26.5205 H   0  0  0  0  0  0
    2.8990   55.0587   27.3057 H   0  0  0  0  0  0
    1.2082   55.3531   27.6814 H   0  0  0  0  0  0
    2.6494   56.1005   29.5339 H   0  0  0  0  0  0
    4.4806   54.4033   29.2274 H   0  0  0  0  0  0
    3.9365   54.4040   30.8680 H   0  0  0  0  0  0
    4.0982   52.0669   30.0592 H   0  0  0  0  0  0
    2.7041   51.2984   28.1462 H   0  0  0  0  0  0
    3.8264   52.5364   27.6413 H   0  0  0  0  0  0
    1.7620   51.2993   30.5038 H   0  0  0  0  0  0
    2.2143   52.5235   31.6526 H   0  0  0  0  0  0
   -0.0739   52.9679   30.7376 H   0  0  0  0  0  0
    1.2783   54.9950   31.2874 H   0  0  0  0  0  0
    0.3047   55.3058   29.9169 H   0  0  0  0  0  0
   -0.3900   53.4368   28.3052 H   0  0  0  0  0  0
    0.2200   51.8190   28.5475 H   0  0  0  0  0  0
   -0.3084   52.5584   20.6382 H   0  0  0  0  0  0
   -3.2963   51.3745   19.3390 H   0  0  0  0  0  0
   -3.6943   53.0942   17.8111 H   0  0  0  0  0  0
   -2.7830   54.4994   16.0091 H   0  0  0  0  0  0
   -0.3376   54.6287   15.6527 H   0  0  0  0  0  0
    1.2016   53.3317   17.0804 H   0  0  0  0  0  0
    0.3254   51.9099   18.8615 H   0  0  0  0  0  0
  1  2  1  0  0  0
  1 32  1  0  0  0
  1 33  1  0  0  0
  1 34  1  0  0  0
  2  3  1  0  0  0
  2  4  1  0  0  0
  2 35  1  0  0  0
  3 36  1  0  0  0
  3 37  1  0  0  0
  3 38  1  0  0  0
  4  5  1  0  0  0
  4  6  1  0  0  0
  4 22  1  0  0  0
  6  7  2  0  0  0
  6  8  1  0  0  0
  8  9  1  0  0  0
  8 39  1  0  0  0
  9 10  1  0  0  0
  9 40  1  0  0  0
 10 11  2  0  0  0
 10 12  1  0  0  0
 12 17  1  0  0  0
 12 21  1  0  0  0
 12 13  1  0  0  0
 13 14  1  0  0  0
 13 41  1  0  0  0
 13 42  1  0  0  0
 14 20  1  0  0  0
 14 15  1  0  0  0
 14 43  1  0  0  0
 15 16  1  0  0  0
 15 44  1  0  0  0
 15 45  1  0  0  0
 16 17  1  0  0  0
 16 18  1  0  0  0
 16 46  1  0  0  0
 17 47  1  0  0  0
 17 48  1  0  0  0
 18 19  1  0  0  0
 18 49  1  0  0  0
 18 50  1  0  0  0
 19 20  1  0  0  0
 19 21  1  0  0  0
 19 51  1  0  0  0
 20 52  1  0  0  0
 20 53  1  0  0  0
 21 54  1  0  0  0
 21 55  1  0  0  0
 22 23  1  0  0  0
 22 56  1  0  0  0
 23 24  2  0  0  0
 23 25  1  0  0  0
 25 26  1  0  0  0
 25 57  1  0  0  0
 26 31  2  0  0  0
 26 27  1  0  0  0
 27 28  2  0  0  0
 27 58  1  0  0  0
 28 29  1  0  0  0
 28 59  1  0  0  0
 29 30  2  0  0  0
 29 60  1  0  0  0
 30 31  1  0  0  0
 30 61  1  0  0  0
 31 62  1  0  0  0
M  END
> <i_i_glide_confnum>
70

> <i_i_glide_lignum>
2503

> <i_i_glide_posenum>
101

> <i_i_glide_rotatable_bonds>
10

> <i_m_Source_File_Index>
2380

> <b_m_subgroup_collapsed>
0

> <r_i_docking_score>
-3.16566

> <r_i_glide_ecoul>
-1.43

> <r_i_glide_eff_state_penalty>
0

> <r_i_glide_einternal>
12.8411

> <r_i_glide_emodel>
-32.9456

> <r_i_glide_energy>
-33.8272

> <r_i_glide_erotb>
0.811145

> <r_i_glide_esite>
-0.0603809

> <r_i_glide_evdw>
-32.3972

> <r_i_glide_gscore>
-3.16566

> <r_i_glide_hbond>
0

> <r_i_glide_ligand_efficiency>
-0.105522

> <r_i_glide_ligand_efficiency_ln>
-0.719273

> <r_i_glide_ligand_efficiency_sa>
-0.327882

> <r_i_glide_lipo>
-1.87231

> <r_i_glide_metal>
0

> <r_i_glide_rewards>
-0.209765

> <s_i_glide_gridfile>
wee1_glide-grid

> <s_m_Source_File>
wee1_decoys_glide_SP.sdf

> <s_m_Source_Path>
/Users/zhangxujun/Desktop

> <s_m_entry_id>
2655

> <s_m_entry_name>
wee1_decoys_glide_SP.2380

> <s_m_subgroup_title>
wee1_decoys_glide_SP

> <s_m_subgroupid>
wee1_decoys_glide_SP


$$$$
