ZINC40796853_4581
                    3D
 Schrodinger Suite 2024-2.
 42 44  0  0  1  0            999 V2000
    2.1668   48.3464   18.8787 C   0  0  0  0  0  0
    2.3104   49.6518   19.6769 C   0  0  0  0  0  0
    1.0255   50.5100   19.7449 C   0  0  2  0  0  0
    0.1984   49.8607   20.0395 H   0  0  0  0  0  0
    0.6641   51.1152   18.3776 C   0  0  0  0  0  0
    1.1495   51.5757   20.7374 N   0  0  0  0  0  0
    1.0027   51.3648   22.1243 C   0  0  0  0  0  0
    1.2476   52.4177   23.0334 C   0  0  0  0  0  0
    1.0767   52.1351   24.3999 C   0  0  0  0  0  0
    0.7043   50.8988   24.8395 N   0  0  0  0  0  0
    0.5008   49.9529   23.8949 C   0  0  0  0  0  0
    0.6266   50.1272   22.5582 N   0  0  0  0  0  0
    1.3384   53.1319   25.3290 O   0  0  0  0  0  0
    1.5032   52.8974   26.6815 C   0  0  0  0  0  0
    0.4943   52.3227   27.4597 C   0  0  0  0  0  0
    0.6754   52.0958   28.8192 C   0  0  0  0  0  0
    1.8606   52.4582   29.4536 C   0  0  0  0  0  0
    2.8996   53.0804   28.7065 C   0  0  0  0  0  0
    2.7157   53.3041   27.3048 C   0  0  0  0  0  0
    3.6818   53.8978   26.5418 N   0  0  0  0  0  0
    4.8408   54.2736   27.1310 C   0  0  0  0  0  0
    5.1026   54.0971   28.4838 C   0  0  0  0  0  0
    4.1297   53.4984   29.2814 C   0  0  0  0  0  0
    2.0457   52.0967   31.3187 Br  0  0  0  0  0  0
    1.6740   53.6965   22.6333 N   0  0  0  0  0  0
    3.1051   47.7928   18.8754 H   0  0  0  0  0  0
    1.9108   48.5358   17.8371 H   0  0  0  0  0  0
    1.4015   47.7000   19.3061 H   0  0  0  0  0  0
    2.6424   49.3948   20.6838 H   0  0  0  0  0  0
    3.1161   50.2458   19.2448 H   0  0  0  0  0  0
    0.4658   50.3413   17.6366 H   0  0  0  0  0  0
   -0.2333   51.7313   18.4418 H   0  0  0  0  0  0
    1.4699   51.7429   17.9933 H   0  0  0  0  0  0
    1.4621   52.4785   20.4154 H   0  0  0  0  0  0
    0.2215   48.9684   24.2434 H   0  0  0  0  0  0
   -0.4378   52.0313   26.9981 H   0  0  0  0  0  0
   -0.1148   51.6248   29.3876 H   0  0  0  0  0  0
    5.5746   54.7331   26.4854 H   0  0  0  0  0  0
    6.0435   54.4211   28.9066 H   0  0  0  0  0  0
    4.3059   53.3510   30.3355 H   0  0  0  0  0  0
    1.8905   54.3738   23.3517 H   0  0  0  0  0  0
    1.7468   53.9442   21.6523 H   0  0  0  0  0  0
  1  2  1  0  0  0
  1 26  1  0  0  0
  1 27  1  0  0  0
  1 28  1  0  0  0
  2  3  1  0  0  0
  2 29  1  0  0  0
  2 30  1  0  0  0
  3  4  1  0  0  0
  3  5  1  0  0  0
  3  6  1  0  0  0
  5 31  1  0  0  0
  5 32  1  0  0  0
  5 33  1  0  0  0
  6  7  1  0  0  0
  6 34  1  0  0  0
  7 12  2  0  0  0
  7  8  1  0  0  0
  8  9  2  0  0  0
  8 25  1  0  0  0
  9 10  1  0  0  0
  9 13  1  0  0  0
 10 11  2  0  0  0
 11 12  1  0  0  0
 11 35  1  0  0  0
 13 14  1  0  0  0
 14 19  2  0  0  0
 14 15  1  0  0  0
 15 16  2  0  0  0
 15 36  1  0  0  0
 16 17  1  0  0  0
 16 37  1  0  0  0
 17 18  2  0  0  0
 17 24  1  0  0  0
 18 23  1  0  0  0
 18 19  1  0  0  0
 19 20  1  0  0  0
 20 21  2  0  0  0
 21 22  1  0  0  0
 21 38  1  0  0  0
 22 23  2  0  0  0
 22 39  1  0  0  0
 23 40  1  0  0  0
 25 41  1  0  0  0
 25 42  1  0  0  0
M  END
> <i_i_glide_confnum>
3

> <i_i_glide_lignum>
4582

> <i_i_glide_posenum>
137

> <i_i_glide_rotatable_bonds>
5

> <i_m_Source_File_Index>
209

> <b_m_subgroup_collapsed>
0

> <r_i_docking_score>
-4.82898

> <r_i_glide_ecoul>
-3.40436

> <r_i_glide_eff_state_penalty>
0

> <r_i_glide_einternal>
1.49447

> <r_i_glide_emodel>
-48.7154

> <r_i_glide_energy>
-38.0147

> <r_i_glide_erotb>
0.51695

> <r_i_glide_esite>
-0.00679585

> <r_i_glide_evdw>
-34.6104

> <r_i_glide_gscore>
-4.82898

> <r_i_glide_hbond>
-0.316452

> <r_i_glide_ligand_efficiency>
-0.201207

> <r_i_glide_ligand_efficiency_ln>
-1.1558

> <r_i_glide_ligand_efficiency_sa>
-0.580382

> <r_i_glide_lipo>
-1.94648

> <r_i_glide_metal>
0

> <r_i_glide_rewards>
-0.835024

> <s_i_glide_gridfile>
wee1_glide-grid

> <s_m_Source_File>
wee1_decoys_glide_SP.sdf

> <s_m_Source_Path>
/Users/zhangxujun/Desktop

> <s_m_entry_id>
484

> <s_m_entry_name>
wee1_decoys_glide_SP.209

> <s_m_subgroup_title>
wee1_decoys_glide_SP

> <s_m_subgroupid>
wee1_decoys_glide_SP


$$$$
