ZINC39674206_5548
                    3D
 Schrodinger Suite 2024-2.
 72 77  0  0  1  0            999 V2000
    2.5652   53.4250   17.5325 C   0  0  0  0  0  0
    3.8917   53.2672   18.2991 C   0  0  2  0  0  0
    4.5091   52.4970   17.8318 H   0  0  0  0  0  0
    3.6961   53.0039   19.7652 C   0  0  0  0  0  0
    4.2962   54.0475   20.3566 C   0  0  0  0  0  0
    4.8300   54.8969   19.4505 N   0  0  0  0  0  0
    4.6217   54.4962   18.2705 N   0  0  0  0  0  0
    4.5047   54.3936   21.8149 C   0  0  0  0  0  0
    3.0031   51.7668   20.3118 C   0  0  1  0  0  0
    2.5454   51.2593   19.4591 H   0  0  0  0  0  0
    4.0081   50.8049   20.9337 C   0  0  0  0  0  0
    1.9778   52.0798   21.3027 N   0  0  0  0  0  0
    0.9058   51.3058   21.5654 C   0  0  0  0  0  0
    0.6178   50.3232   20.8807 O   0  0  0  0  0  0
   -0.0347   51.6922   22.7383 C   0  0  2  0  0  0
   -1.0282   51.7232   22.2892 H   0  0  0  0  0  0
    0.2487   53.0731   23.3487 C   0  0  0  0  0  0
    1.1196   52.8023   24.5010 N   0  0  0  0  0  0
    1.1045   51.3770   24.8524 C   0  0  0  0  0  0
    0.0159   50.7197   23.9573 C   0  0  0  0  0  0
   -1.3897   50.7430   24.6336 C   0  0  0  0  0  0
   -1.4388   49.9512   25.9544 C   0  0  0  0  0  0
   -1.0377   48.4935   25.6817 N   0  3  0  0  0  0
    0.3048   48.3547   24.9366 C   0  0  0  0  0  0
    0.2589   49.2103   23.6555 C   0  0  0  0  0  0
    2.0803   53.7149   24.8096 C   0  0  0  0  0  0
    2.2355   54.7020   24.0822 O   0  0  0  0  0  0
    3.0270   53.5988   25.9968 C   0  0  0  0  0  0
    4.3491   54.0311   25.7549 C   0  0  0  0  0  0
    5.3223   54.0490   26.7479 C   0  0  0  0  0  0
    5.0018   53.6390   28.0302 C   0  0  0  0  0  0
    3.6994   53.2325   28.3089 C   0  0  0  0  0  0
    2.6911   53.2220   27.3284 C   0  0  0  0  0  0
    1.4499   52.7982   28.0437 C   0  0  0  0  0  0
    0.1144   52.6344   27.6518 C   0  0  0  0  0  0
   -0.8283   52.1048   28.5400 C   0  0  0  0  0  0
   -0.4834   51.8592   29.8652 C   0  0  0  0  0  0
    0.8191   52.0976   30.2948 C   0  0  0  0  0  0
    1.7771   52.5300   29.3756 C   0  0  0  0  0  0
    3.2010   52.7719   29.6130 C   0  0  0  0  0  0
    3.8289   52.6274   30.6620 O   0  0  0  0  0  0
    2.0120   52.4859   17.4978 H   0  0  0  0  0  0
    1.9184   54.1657   18.0051 H   0  0  0  0  0  0
    2.7336   53.7367   16.5011 H   0  0  0  0  0  0
    5.5535   54.6136   22.0133 H   0  0  0  0  0  0
    3.9059   55.2647   22.0792 H   0  0  0  0  0  0
    4.2072   53.5665   22.4579 H   0  0  0  0  0  0
    4.7634   50.5210   20.2092 H   0  0  0  0  0  0
    4.5171   51.2507   21.7890 H   0  0  0  0  0  0
    3.5053   49.8967   21.2729 H   0  0  0  0  0  0
    2.1739   52.8664   21.9024 H   0  0  0  0  0  0
    0.6919   53.7186   22.5870 H   0  0  0  0  0  0
   -0.7135   53.4597   23.6846 H   0  0  0  0  0  0
    1.1050   51.1083   25.9050 H   0  0  0  0  0  0
    2.0463   50.9878   24.4747 H   0  0  0  0  0  0
   -1.6697   51.7686   24.8738 H   0  0  0  0  0  0
   -2.1632   50.3920   23.9469 H   0  0  0  0  0  0
   -0.7238   50.2754   26.7037 H   0  0  0  0  0  0
   -2.4328   49.9172   26.4066 H   0  0  0  0  0  0
   -0.9888   48.0414   26.5987 H   0  0  0  0  0  0
    1.0910   48.6579   25.6321 H   0  0  0  0  0  0
    0.4219   47.2925   24.7261 H   0  0  0  0  0  0
   -0.4838   48.8263   22.9530 H   0  0  0  0  0  0
    1.2203   49.0807   23.1574 H   0  0  0  0  0  0
    4.6468   54.3634   24.7701 H   0  0  0  0  0  0
    6.3267   54.3747   26.5223 H   0  0  0  0  0  0
    5.7641   53.6485   28.7983 H   0  0  0  0  0  0
   -0.2142   52.8880   26.6578 H   0  0  0  0  0  0
   -1.8440   51.9315   28.2145 H   0  0  0  0  0  0
   -1.2214   51.4747   30.5599 H   0  0  0  0  0  0
    1.0694   51.9062   31.3296 H   0  0  0  0  0  0
   -1.7732   48.0322   25.1680 H   0  0  0  0  0  0
  1  2  1  0  0  0
  1 42  1  0  0  0
  1 43  1  0  0  0
  1 44  1  0  0  0
  2  3  1  0  0  0
  2  7  1  0  0  0
  2  4  1  0  0  0
  4  5  2  0  0  0
  4  9  1  0  0  0
  5  6  1  0  0  0
  5  8  1  0  0  0
  6  7  2  0  0  0
  8 45  1  0  0  0
  8 46  1  0  0  0
  8 47  1  0  0  0
  9 10  1  0  0  0
  9 11  1  0  0  0
  9 12  1  0  0  0
 11 48  1  0  0  0
 11 49  1  0  0  0
 11 50  1  0  0  0
 12 13  1  0  0  0
 12 51  1  0  0  0
 13 14  2  0  0  0
 13 15  1  0  0  0
 15 16  1  0  0  0
 15 20  1  0  0  0
 15 17  1  0  0  0
 17 18  1  0  0  0
 17 52  1  0  0  0
 17 53  1  0  0  0
 18 19  1  0  0  0
 18 26  1  0  0  0
 19 20  1  0  0  0
 19 54  1  0  0  0
 19 55  1  0  0  0
 20 25  1  0  0  0
 20 21  1  0  0  0
 21 22  1  0  0  0
 21 56  1  0  0  0
 21 57  1  0  0  0
 22 23  1  0  0  0
 22 58  1  0  0  0
 22 59  1  0  0  0
 23 24  1  0  0  0
 23 60  1  0  0  0
 23 72  1  0  0  0
 24 25  1  0  0  0
 24 61  1  0  0  0
 24 62  1  0  0  0
 25 63  1  0  0  0
 25 64  1  0  0  0
 26 27  2  0  0  0
 26 28  1  0  0  0
 28 33  2  0  0  0
 28 29  1  0  0  0
 29 30  2  0  0  0
 29 65  1  0  0  0
 30 31  1  0  0  0
 30 66  1  0  0  0
 31 32  2  0  0  0
 31 67  1  0  0  0
 32 40  1  0  0  0
 32 33  1  0  0  0
 33 34  1  0  0  0
 34 39  2  0  0  0
 34 35  1  0  0  0
 35 36  2  0  0  0
 35 68  1  0  0  0
 36 37  1  0  0  0
 36 69  1  0  0  0
 37 38  2  0  0  0
 37 70  1  0  0  0
 38 39  1  0  0  0
 38 71  1  0  0  0
 39 40  1  0  0  0
 40 41  2  0  0  0
M  CHG  1  23   1
M  END
> <i_i_glide_confnum>
209

> <i_i_glide_lignum>
5549

> <i_i_glide_posenum>
222

> <i_i_glide_rotatable_bonds>
6

> <i_m_Source_File_Index>
479

> <b_m_subgroup_collapsed>
0

> <r_i_docking_score>
-5.64828

> <r_i_glide_ecoul>
-5.00713

> <r_i_glide_eff_state_penalty>
0

> <r_i_glide_einternal>
12.7095

> <r_i_glide_emodel>
-63.5889

> <r_i_glide_energy>
-48.634

> <r_i_glide_erotb>
0.468087

> <r_i_glide_esite>
-0.102556

> <r_i_glide_evdw>
-43.6269

> <r_i_glide_gscore>
-5.64828

> <r_i_glide_hbond>
-0.251037

> <r_i_glide_ligand_efficiency>
-0.148639

> <r_i_glide_ligand_efficiency_ln>
-1.21794

> <r_i_glide_ligand_efficiency_sa>
-0.499721

> <r_i_glide_lipo>
-2.05081

> <r_i_glide_metal>
0

> <r_i_glide_rewards>
-0.77955

> <s_i_glide_gridfile>
wee1_glide-grid

> <s_m_Source_File>
wee1_decoys_glide_SP.sdf

> <s_m_Source_Path>
/Users/zhangxujun/Desktop

> <s_m_entry_id>
754

> <s_m_entry_name>
wee1_decoys_glide_SP.479

> <s_m_subgroup_title>
wee1_decoys_glide_SP

> <s_m_subgroupid>
wee1_decoys_glide_SP


$$$$
