ZINC36899244_3899
                    3D
 Schrodinger Suite 2024-2.
 39 41  0  0  1  0            999 V2000
   -1.1508   48.6466   22.7627 C   0  0  0  0  0  0
   -1.0906   50.1879   22.8161 C   0  0  1  0  0  0
   -0.9970   50.5492   21.7890 H   0  0  0  0  0  0
   -2.4061   50.7554   23.3928 C   0  0  0  0  0  0
   -2.4430   52.2872   23.3065 C   0  0  0  0  0  0
   -1.2629   52.8965   24.0814 C   0  0  0  0  0  0
    0.1062   52.3026   23.6635 C   0  0  2  0  0  0
    0.3213   52.6818   22.6643 H   0  0  0  0  0  0
    0.1281   50.7366   23.6216 C   0  0  2  0  0  0
    0.0192   50.3622   24.6401 H   0  0  0  0  0  0
    1.4759   50.1939   23.0960 C   0  0  0  0  0  0
    1.1514   52.8276   24.5707 N   0  0  0  0  0  0
    1.2823   52.6070   25.9379 C   0  0  0  0  0  0
    0.5504   51.8787   26.8879 C   0  0  0  0  0  0
    1.0345   51.8773   28.2004 C   0  0  0  0  0  0
    2.1888   52.5699   28.5642 C   0  0  0  0  0  0
    2.9065   53.3107   27.6275 C   0  0  0  0  0  0
    2.4521   53.3263   26.3007 C   0  0  0  0  0  0
    2.9991   53.9651   25.2234 N   0  0  0  0  0  0
    2.2177   53.6498   24.2279 C   0  0  0  0  0  0
    2.4523   54.0967   22.9616 N   0  0  0  0  0  0
    2.8027   52.4936   30.3648 Br  0  0  0  0  0  0
   -1.1422   48.2075   23.7627 H   0  0  0  0  0  0
   -2.0571   48.3040   22.2591 H   0  0  0  0  0  0
   -0.3143   48.2278   22.2039 H   0  0  0  0  0  0
   -3.2555   50.3470   22.8421 H   0  0  0  0  0  0
   -2.5500   50.4104   24.4199 H   0  0  0  0  0  0
   -2.4052   52.5966   22.2604 H   0  0  0  0  0  0
   -3.3881   52.6619   23.7043 H   0  0  0  0  0  0
   -1.2578   53.9651   23.8475 H   0  0  0  0  0  0
   -1.4285   52.8416   25.1577 H   0  0  0  0  0  0
    1.6432   50.4697   22.0536 H   0  0  0  0  0  0
    1.5371   49.1073   23.1702 H   0  0  0  0  0  0
    2.3078   50.5817   23.6800 H   0  0  0  0  0  0
   -0.3421   51.3243   26.6376 H   0  0  0  0  0  0
    0.4992   51.3134   28.9516 H   0  0  0  0  0  0
    3.8018   53.8455   27.9105 H   0  0  0  0  0  0
    3.2617   54.6708   22.7722 H   0  0  0  0  0  0
    1.8750   53.8475   22.1709 H   0  0  0  0  0  0
  1  2  1  0  0  0
  1 23  1  0  0  0
  1 24  1  0  0  0
  1 25  1  0  0  0
  2  3  1  0  0  0
  2  9  1  0  0  0
  2  4  1  0  0  0
  4  5  1  0  0  0
  4 26  1  0  0  0
  4 27  1  0  0  0
  5  6  1  0  0  0
  5 28  1  0  0  0
  5 29  1  0  0  0
  6  7  1  0  0  0
  6 30  1  0  0  0
  6 31  1  0  0  0
  7  8  1  0  0  0
  7  9  1  0  0  0
  7 12  1  0  0  0
  9 10  1  0  0  0
  9 11  1  0  0  0
 11 32  1  0  0  0
 11 33  1  0  0  0
 11 34  1  0  0  0
 12 20  1  0  0  0
 12 13  1  0  0  0
 13 18  2  0  0  0
 13 14  1  0  0  0
 14 15  2  0  0  0
 14 35  1  0  0  0
 15 16  1  0  0  0
 15 36  1  0  0  0
 16 17  2  0  0  0
 16 22  1  0  0  0
 17 18  1  0  0  0
 17 37  1  0  0  0
 18 19  1  0  0  0
 19 20  2  0  0  0
 20 21  1  0  0  0
 21 38  1  0  0  0
 21 39  1  0  0  0
M  END
> <i_i_glide_confnum>
1

> <i_i_glide_lignum>
3900

> <i_i_glide_posenum>
28

> <i_i_glide_rotatable_bonds>
1

> <i_m_Source_File_Index>
1655

> <b_m_subgroup_collapsed>
0

> <r_i_docking_score>
-4.61374

> <r_i_glide_ecoul>
-1.79634

> <r_i_glide_eff_state_penalty>
0

> <r_i_glide_einternal>
0.0052007

> <r_i_glide_emodel>
-38.4861

> <r_i_glide_energy>
-29.9034

> <r_i_glide_erotb>
0.180061

> <r_i_glide_esite>
0

> <r_i_glide_evdw>
-28.1071

> <r_i_glide_gscore>
-4.61374

> <r_i_glide_hbond>
0

> <r_i_glide_ligand_efficiency>
-0.242829

> <r_i_glide_ligand_efficiency_ln>
-1.16968

> <r_i_glide_ligand_efficiency_sa>
-0.647964

> <r_i_glide_lipo>
-1.3113

> <r_i_glide_metal>
0

> <r_i_glide_rewards>
-1.8077

> <s_i_glide_gridfile>
wee1_glide-grid

> <s_m_Source_File>
wee1_decoys_glide_SP.sdf

> <s_m_Source_Path>
/Users/zhangxujun/Desktop

> <s_m_entry_id>
1930

> <s_m_entry_name>
wee1_decoys_glide_SP.1655

> <s_m_subgroup_title>
wee1_decoys_glide_SP

> <s_m_subgroupid>
wee1_decoys_glide_SP


$$$$
