ZINC06287956_767
                    3D
 Schrodinger Suite 2024-2.
 52 54  0  0  1  0            999 V2000
    3.4931   52.6859   16.3504 C   0  0  0  0  0  0
    4.3592   54.3842   18.0460 C   0  0  0  0  0  0
    5.0113   54.5213   19.4404 C   0  0  0  0  0  0
    4.3152   53.8070   20.5276 N   0  0  0  0  0  0
    3.9493   52.4216   20.1810 C   0  0  0  0  0  0
    3.2150   52.2910   18.8339 C   0  0  0  0  0  0
    4.5693   54.0947   21.8597 C   0  0  0  0  0  0
    5.8556   54.4172   22.3097 C   0  0  0  0  0  0
    6.0991   54.6033   23.6661 C   0  0  0  0  0  0
    5.0507   54.4960   24.5827 C   0  0  0  0  0  0
    3.7527   54.2206   24.1372 C   0  0  0  0  0  0
    3.5229   54.0047   22.7824 C   0  0  0  0  0  0
    5.3944   54.6910   25.9259 N   0  0  0  0  0  0
    5.0527   53.9574   27.0196 C   0  0  0  0  0  0
    6.3046   53.6973   28.0815 S   0  0  0  0  0  0
    3.7394   53.5749   27.1494 N   0  0  0  0  0  0
    3.1016   52.8351   28.0963 C   0  0  0  0  0  0
    3.6259   52.3815   29.1196 O   0  0  0  0  0  0
    1.6359   52.5639   27.8289 C   0  0  0  0  0  0
    1.1879   52.3580   26.5120 C   0  0  0  0  0  0
   -0.1366   52.0310   26.2454 C   0  0  0  0  0  0
   -1.0367   51.8808   27.2918 C   0  0  0  0  0  0
   -0.6153   52.0968   28.6022 C   0  0  0  0  0  0
    0.7129   52.4550   28.8924 C   0  0  0  0  0  0
    1.1517   52.7099   30.1839 O   0  0  0  0  0  0
    0.2401   52.6382   31.2725 C   0  0  0  0  0  0
   -0.7059   51.7739   24.4471 Br  0  0  0  0  0  0
    2.5131   53.1630   16.3293 H   0  0  0  0  0  0
    4.1712   53.1294   15.6225 H   0  0  0  0  0  0
    3.4186   51.6060   16.1913 H   0  0  0  0  0  0
    5.0430   54.7436   17.2727 H   0  0  0  0  0  0
    3.3968   54.8994   17.9789 H   0  0  0  0  0  0
    5.1447   55.5751   19.6898 H   0  0  0  0  0  0
    5.9944   54.0517   19.3782 H   0  0  0  0  0  0
    4.8921   51.8754   20.0938 H   0  0  0  0  0  0
    3.3737   51.9438   20.9761 H   0  0  0  0  0  0
    3.0861   51.2377   18.5691 H   0  0  0  0  0  0
    2.2515   52.8032   18.8217 H   0  0  0  0  0  0
    6.6801   54.4975   21.6176 H   0  0  0  0  0  0
    7.1065   54.8256   23.9926 H   0  0  0  0  0  0
    2.9116   54.1860   24.8094 H   0  0  0  0  0  0
    2.5237   53.7713   22.4409 H   0  0  0  0  0  0
    6.3043   55.1214   26.0137 H   0  0  0  0  0  0
    3.1388   53.8840   26.4046 H   0  0  0  0  0  0
    1.8697   52.4054   25.6745 H   0  0  0  0  0  0
   -2.0612   51.6001   27.0951 H   0  0  0  0  0  0
   -1.3474   51.9729   29.3825 H   0  0  0  0  0  0
    0.7781   52.7330   32.2167 H   0  0  0  0  0  0
   -0.4929   53.4432   31.2226 H   0  0  0  0  0  0
   -0.2843   51.6847   31.2818 H   0  0  0  0  0  0
    4.1166   52.8960   17.7450 N   0  3  0  0  0  0
    4.9832   52.3584   17.7708 H   0  0  0  0  0  0
  1 28  1  0  0  0
  1 29  1  0  0  0
  1 30  1  0  0  0
  1 51  1  0  0  0
  2  3  1  0  0  0
  2 31  1  0  0  0
  2 32  1  0  0  0
  2 51  1  0  0  0
  3  4  1  0  0  0
  3 33  1  0  0  0
  3 34  1  0  0  0
  4  5  1  0  0  0
  4  7  1  0  0  0
  5  6  1  0  0  0
  5 35  1  0  0  0
  5 36  1  0  0  0
  6 37  1  0  0  0
  6 38  1  0  0  0
  6 51  1  0  0  0
  7 12  2  0  0  0
  7  8  1  0  0  0
  8  9  2  0  0  0
  8 39  1  0  0  0
  9 10  1  0  0  0
  9 40  1  0  0  0
 10 11  2  0  0  0
 10 13  1  0  0  0
 11 12  1  0  0  0
 11 41  1  0  0  0
 12 42  1  0  0  0
 13 14  1  0  0  0
 13 43  1  0  0  0
 14 15  2  0  0  0
 14 16  1  0  0  0
 16 17  1  0  0  0
 16 44  1  0  0  0
 17 18  2  0  0  0
 17 19  1  0  0  0
 19 24  2  0  0  0
 19 20  1  0  0  0
 20 21  2  0  0  0
 20 45  1  0  0  0
 21 22  1  0  0  0
 21 27  1  0  0  0
 22 23  2  0  0  0
 22 46  1  0  0  0
 23 24  1  0  0  0
 23 47  1  0  0  0
 24 25  1  0  0  0
 25 26  1  0  0  0
 26 48  1  0  0  0
 26 49  1  0  0  0
 26 50  1  0  0  0
 51 52  1  0  0  0
M  CHG  1  51   1
M  END
> <i_i_glide_confnum>
145

> <i_i_glide_lignum>
768

> <i_i_glide_posenum>
114

> <i_i_glide_rotatable_bonds>
7

> <i_m_Source_File_Index>
989

> <b_m_subgroup_collapsed>
0

> <r_i_docking_score>
-5.14562

> <r_i_glide_ecoul>
-3.64527

> <r_i_glide_eff_state_penalty>
0

> <r_i_glide_einternal>
16.2581

> <r_i_glide_emodel>
-54.4931

> <r_i_glide_energy>
-46.7197

> <r_i_glide_erotb>
0.560839

> <r_i_glide_esite>
-0.0811193

> <r_i_glide_evdw>
-43.0744

> <r_i_glide_gscore>
-5.14562

> <r_i_glide_hbond>
-0.125861

> <r_i_glide_ligand_efficiency>
-0.183772

> <r_i_glide_ligand_efficiency_ln>
-1.18776

> <r_i_glide_ligand_efficiency_sa>
-0.558041

> <r_i_glide_lipo>
-1.71432

> <r_i_glide_metal>
0

> <r_i_glide_rewards>
-1.08465

> <s_i_glide_gridfile>
wee1_glide-grid

> <s_m_Source_File>
wee1_decoys_glide_SP.sdf

> <s_m_Source_Path>
/Users/zhangxujun/Desktop

> <s_m_entry_id>
1264

> <s_m_entry_name>
wee1_decoys_glide_SP.989

> <s_m_subgroup_title>
wee1_decoys_glide_SP

> <s_m_subgroupid>
wee1_decoys_glide_SP


$$$$
