ZINC13917351_4226
                    3D
 Schrodinger Suite 2024-2.
 44 47  0  0  1  0            999 V2000
   -1.0262   47.7613   24.6720 C   0  0  0  0  0  0
   -0.2717   48.8003   25.2177 C   0  0  0  0  0  0
   -0.7190   50.1201   25.1259 C   0  0  0  0  0  0
   -1.9559   50.3857   24.5084 C   0  0  0  0  0  0
   -2.7053   49.3399   23.9719 C   0  0  0  0  0  0
   -2.2435   48.0176   24.0245 C   0  0  0  0  0  0
   -3.0212   46.9227   23.3957 N   0  3  0  0  0  0
   -4.1563   47.1637   22.9957 O   0  0  0  0  0  0
   -2.4966   45.8193   23.2819 O   0  5  0  0  0  0
   -2.5589   52.0025   24.3407 Cl  0  0  0  0  0  0
    0.0996   51.1717   25.6051 N   0  0  0  0  0  0
    1.0073   51.7784   24.7109 C   0  0  0  0  0  0
    1.6913   52.9066   25.0811 C   0  0  0  0  0  0
    1.6717   53.4232   26.5490 C   0  0  1  0  0  0
    1.5044   54.4966   26.5346 H   0  0  0  0  0  0
    0.4942   52.8161   27.3163 C   0  0  0  0  0  0
   -0.1628   51.7248   26.8693 C   0  0  0  0  0  0
   -1.1423   51.1226   27.6297 N   0  0  0  0  0  0
    0.1782   53.3504   28.6056 C   0  0  0  0  0  0
   -0.0846   53.7255   29.6676 N   0  0  0  0  0  0
    3.0142   53.3103   27.2810 C   0  0  0  0  0  0
    4.2548   53.8513   26.9134 C   0  0  0  0  0  0
    5.3046   53.5898   27.7872 C   0  0  0  0  0  0
    4.8830   52.8701   28.8816 C   0  0  0  0  0  0
    3.2046   52.4973   28.8220 S   0  0  0  0  0  0
    7.1043   54.1322   27.4884 Br  0  0  0  0  0  0
    2.4159   53.7341   24.0788 C   0  0  0  0  0  0
    2.7465   54.8964   24.2967 O   0  0  0  0  0  0
    2.6195   53.1470   22.6797 C   0  0  0  0  0  0
    1.3985   52.3387   22.2453 C   0  0  0  0  0  0
    1.0834   51.2313   23.2591 C   0  0  0  0  0  0
   -0.6507   46.7532   24.7641 H   0  0  0  0  0  0
    0.6686   48.5732   25.7039 H   0  0  0  0  0  0
   -3.6446   49.5688   23.4869 H   0  0  0  0  0  0
   -1.3750   51.5198   28.5282 H   0  0  0  0  0  0
   -1.2953   50.1195   27.5727 H   0  0  0  0  0  0
    4.4144   54.4187   26.0118 H   0  0  0  0  0  0
    5.4916   52.4967   29.6817 H   0  0  0  0  0  0
    3.4950   52.4986   22.7278 H   0  0  0  0  0  0
    2.8602   53.9477   21.9781 H   0  0  0  0  0  0
    1.5666   51.9059   21.2572 H   0  0  0  0  0  0
    0.5414   53.0066   22.1355 H   0  0  0  0  0  0
    1.7547   50.3731   23.1965 H   0  0  0  0  0  0
    0.1148   50.8858   22.8992 H   0  0  0  0  0  0
  1  6  2  0  0  0
  1  2  1  0  0  0
  1 32  1  0  0  0
  2  3  2  0  0  0
  2 33  1  0  0  0
  3  4  1  0  0  0
  3 11  1  0  0  0
  4  5  2  0  0  0
  4 10  1  0  0  0
  5  6  1  0  0  0
  5 34  1  0  0  0
  6  7  1  0  0  0
  7  8  2  0  0  0
  7  9  1  0  0  0
 11 17  1  0  0  0
 11 12  1  0  0  0
 12 31  1  0  0  0
 12 13  2  0  0  0
 13 14  1  0  0  0
 13 27  1  0  0  0
 14 15  1  0  0  0
 14 16  1  0  0  0
 14 21  1  0  0  0
 16 17  2  0  0  0
 16 19  1  0  0  0
 17 18  1  0  0  0
 18 35  1  0  0  0
 18 36  1  0  0  0
 19 20  3  0  0  0
 21 25  1  0  0  0
 21 22  2  0  0  0
 22 23  1  0  0  0
 22 37  1  0  0  0
 23 24  2  0  0  0
 23 26  1  0  0  0
 24 25  1  0  0  0
 24 38  1  0  0  0
 27 28  2  0  0  0
 27 29  1  0  0  0
 29 30  1  0  0  0
 29 39  1  0  0  0
 29 40  1  0  0  0
 30 31  1  0  0  0
 30 41  1  0  0  0
 30 42  1  0  0  0
 31 43  1  0  0  0
 31 44  1  0  0  0
M  CHG  2   7   1   9  -1
M  END
> <i_i_glide_confnum>
1

> <i_i_glide_lignum>
4227

> <i_i_glide_posenum>
62

> <i_i_glide_rotatable_bonds>
4

> <i_m_Source_File_Index>
37

> <b_m_subgroup_collapsed>
0

> <r_i_docking_score>
-5.32764

> <r_i_glide_ecoul>
-5.24072

> <r_i_glide_eff_state_penalty>
0

> <r_i_glide_einternal>
7.05767

> <r_i_glide_emodel>
-52.9892

> <r_i_glide_energy>
-41.7269

> <r_i_glide_erotb>
0.15993

> <r_i_glide_esite>
-0.196458

> <r_i_glide_evdw>
-36.4862

> <r_i_glide_gscore>
-5.32764

> <r_i_glide_hbond>
-0.16

> <r_i_glide_ligand_efficiency>
-0.177588

> <r_i_glide_ligand_efficiency_ln>
-1.2105

> <r_i_glide_ligand_efficiency_sa>
-0.551807

> <r_i_glide_lipo>
-1.97328

> <r_i_glide_metal>
0

> <r_i_glide_rewards>
-0.547417

> <s_i_glide_gridfile>
wee1_glide-grid

> <s_m_Source_File>
wee1_decoys_glide_SP.sdf

> <s_m_Source_Path>
/Users/zhangxujun/Desktop

> <s_m_entry_id>
312

> <s_m_entry_name>
wee1_decoys_glide_SP.37

> <s_m_subgroup_title>
wee1_decoys_glide_SP

> <s_m_subgroupid>
wee1_decoys_glide_SP


$$$$
