ZINC09328641_4973
                    3D
 Schrodinger Suite 2024-2.
 66 69  0  0  1  0            999 V2000
    8.1682   55.7041   21.6418 C   0  0  0  0  0  0
    7.1091   56.0222   20.7566 O   0  0  0  0  0  0
    7.0872   55.3779   19.5406 C   0  0  0  0  0  0
    8.2207   54.8967   18.8714 C   0  0  0  0  0  0
    8.0834   54.2507   17.6439 C   0  0  0  0  0  0
    6.8200   54.0762   17.0728 C   0  0  0  0  0  0
    5.6770   54.5530   17.7350 C   0  0  0  0  0  0
    5.8384   55.2149   18.9563 C   0  0  0  0  0  0
    4.2883   54.4615   17.0872 C   0  0  2  0  0  0
    4.3023   53.6267   16.3845 H   0  0  0  0  0  0
    3.9111   55.7691   16.3104 C   0  0  2  0  0  0
    4.6402   55.8724   15.5022 H   0  0  0  0  0  0
    4.0515   57.0905   17.1332 C   0  0  0  0  0  0
    3.5524   58.3596   16.4147 C   0  0  0  0  0  0
    2.1752   58.1806   15.7554 C   0  0  0  0  0  0
    2.1660   56.9464   14.8354 C   0  0  0  0  0  0
    2.5376   55.6416   15.5831 C   0  0  2  0  0  0
    1.4801   55.2451   16.6397 C   0  0  0  0  0  0
    1.7992   53.9128   17.3363 C   0  0  0  0  0  0
    3.3947   52.7057   18.8489 C   0  0  0  0  0  0
    4.0844   52.8740   20.2169 C   0  0  0  0  0  0
    5.0986   52.2162   20.4550 O   0  0  0  0  0  0
    3.5047   53.6840   21.1318 N   0  0  0  0  0  0
    3.9868   53.9275   22.4318 C   0  0  0  0  0  0
    3.0798   54.0048   23.4895 C   0  0  0  0  0  0
    3.5442   54.2122   24.7872 C   0  0  0  0  0  0
    4.9143   54.3818   25.0419 C   0  0  0  0  0  0
    5.8118   54.3348   23.9685 C   0  0  0  0  0  0
    5.3511   54.1123   22.6773 C   0  0  0  0  0  0
    5.4149   54.6041   26.4229 N   0  3  0  0  0  0
    4.6239   54.4969   27.3571 O   0  0  0  0  0  0
    6.6006   54.8937   26.5723 O   0  5  0  0  0  0
    2.5921   54.6139   14.6100 O   0  0  0  0  0  0
    6.7346   53.5154   15.8249 O   0  0  0  0  0  0
    6.6416   52.0973   15.8222 C   0  0  0  0  0  0
    7.9044   56.0971   22.6228 H   0  0  0  0  0  0
    8.3040   54.6294   21.7506 H   0  0  0  0  0  0
    9.1046   56.1510   21.3201 H   0  0  0  0  0  0
    9.2092   55.0251   19.2830 H   0  0  0  0  0  0
    8.9600   53.8987   17.1193 H   0  0  0  0  0  0
    4.9829   55.6157   19.4715 H   0  0  0  0  0  0
    3.5044   56.9870   18.0670 H   0  0  0  0  0  0
    5.0859   57.2445   17.4406 H   0  0  0  0  0  0
    3.5220   59.1997   17.1134 H   0  0  0  0  0  0
    4.2794   58.6424   15.6487 H   0  0  0  0  0  0
    1.3994   58.0988   16.5174 H   0  0  0  0  0  0
    1.9319   59.0768   15.1818 H   0  0  0  0  0  0
    2.8703   57.1318   14.0226 H   0  0  0  0  0  0
    1.1606   56.8725   14.4169 H   0  0  0  0  0  0
    0.4836   55.2333   16.1939 H   0  0  0  0  0  0
    1.4004   56.0207   17.3995 H   0  0  0  0  0  0
    1.8754   53.0665   16.6507 H   0  0  0  0  0  0
    1.0339   53.7142   18.0884 H   0  0  0  0  0  0
    3.9047   52.0288   18.1652 H   0  0  0  0  0  0
    2.4221   52.2531   19.0532 H   0  0  0  0  0  0
    2.5966   54.0740   20.9082 H   0  0  0  0  0  0
    2.0217   53.8671   23.3161 H   0  0  0  0  0  0
    2.8307   54.2315   25.5996 H   0  0  0  0  0  0
    6.8737   54.4647   24.1288 H   0  0  0  0  0  0
    6.0525   54.0941   21.8627 H   0  0  0  0  0  0
    1.7552   54.5806   14.1423 H   0  0  0  0  0  0
    6.8550   51.7226   14.8203 H   0  0  0  0  0  0
    7.3502   51.6287   16.5096 H   0  0  0  0  0  0
    5.6352   51.7732   16.0817 H   0  0  0  0  0  0
    3.1503   54.0554   18.0897 N   0  3  1  0  0  0
    2.9849   54.8115   18.7437 H   0  0  0  0  0  0
  1  2  1  0  0  0
  1 36  1  0  0  0
  1 37  1  0  0  0
  1 38  1  0  0  0
  2  3  1  0  0  0
  3  8  2  0  0  0
  3  4  1  0  0  0
  4  5  2  0  0  0
  4 39  1  0  0  0
  5  6  1  0  0  0
  5 40  1  0  0  0
  6  7  2  0  0  0
  6 34  1  0  0  0
  7  8  1  0  0  0
  7  9  1  0  0  0
  8 41  1  0  0  0
  9 10  1  0  0  0
  9 11  1  0  0  0
  9 65  1  0  0  0
 11 12  1  0  0  0
 11 17  1  0  0  0
 11 13  1  0  0  0
 13 14  1  0  0  0
 13 42  1  0  0  0
 13 43  1  0  0  0
 14 15  1  0  0  0
 14 44  1  0  0  0
 14 45  1  0  0  0
 15 16  1  0  0  0
 15 46  1  0  0  0
 15 47  1  0  0  0
 16 17  1  0  0  0
 16 48  1  0  0  0
 16 49  1  0  0  0
 17 18  1  0  0  0
 17 33  1  0  0  0
 18 19  1  0  0  0
 18 50  1  0  0  0
 18 51  1  0  0  0
 19 52  1  0  0  0
 19 53  1  0  0  0
 19 65  1  0  0  0
 20 21  1  0  0  0
 20 54  1  0  0  0
 20 55  1  0  0  0
 20 65  1  0  0  0
 21 22  2  0  0  0
 21 23  1  0  0  0
 23 24  1  0  0  0
 23 56  1  0  0  0
 24 29  2  0  0  0
 24 25  1  0  0  0
 25 26  2  0  0  0
 25 57  1  0  0  0
 26 27  1  0  0  0
 26 58  1  0  0  0
 27 28  2  0  0  0
 27 30  1  0  0  0
 28 29  1  0  0  0
 28 59  1  0  0  0
 29 60  1  0  0  0
 30 31  2  0  0  0
 30 32  1  0  0  0
 33 61  1  0  0  0
 34 35  1  0  0  0
 35 62  1  0  0  0
 35 63  1  0  0  0
 35 64  1  0  0  0
 65 66  1  0  0  0
M  CHG  3  30   1  32  -1  65   1
M  END
> <i_i_glide_confnum>
1

> <i_i_glide_lignum>
4974

> <i_i_glide_posenum>
115

> <i_i_glide_rotatable_bonds>
9

> <i_m_Source_File_Index>
2329

> <b_m_subgroup_collapsed>
0

> <r_i_docking_score>
-5.74617

> <r_i_glide_ecoul>
-9.78804

> <r_i_glide_eff_state_penalty>
0

> <r_i_glide_einternal>
15.5358

> <r_i_glide_emodel>
-58.9169

> <r_i_glide_energy>
-49.041

> <r_i_glide_erotb>
0.456307

> <r_i_glide_esite>
-0.0450066

> <r_i_glide_evdw>
-39.253

> <r_i_glide_gscore>
-5.74617

> <r_i_glide_hbond>
-0.347491

> <r_i_glide_ligand_efficiency>
-0.169005

> <r_i_glide_ligand_efficiency_ln>
-1.26949

> <r_i_glide_ligand_efficiency_sa>
-0.547511

> <r_i_glide_lipo>
-2.02218

> <r_i_glide_metal>
0

> <r_i_glide_rewards>
-0.356939

> <s_i_glide_gridfile>
wee1_glide-grid

> <s_m_Source_File>
wee1_decoys_glide_SP.sdf

> <s_m_Source_Path>
/Users/zhangxujun/Desktop

> <s_m_entry_id>
2604

> <s_m_entry_name>
wee1_decoys_glide_SP.2329

> <s_m_subgroup_title>
wee1_decoys_glide_SP

> <s_m_subgroupid>
wee1_decoys_glide_SP


$$$$
