ZINC02151697_2772
                    3D
 Schrodinger Suite 2024-2.
 58 61  0  0  1  0            999 V2000
    3.1136   52.9556   22.0398 C   0  0  0  0  0  0
    4.4186   53.1004   21.2210 C   0  0  0  0  0  0
    4.0648   52.8872   19.7347 C   0  0  0  0  0  0
    5.2092   54.4374   21.4983 C   0  0  1  0  0  0
    4.5063   55.2731   21.5302 H   0  0  0  0  0  0
    5.8887   54.3411   22.8959 C   0  0  0  0  0  0
    7.0956   54.0982   22.9849 O   0  0  0  0  0  0
    5.0457   54.4965   23.9375 N   0  0  0  0  0  0
    5.2877   54.4098   25.3172 C   0  0  0  0  0  0
    6.5610   54.5057   25.8968 C   0  0  0  0  0  0
    6.7051   54.4070   27.2806 C   0  0  0  0  0  0
    5.5928   54.2044   28.0949 C   0  0  0  0  0  0
    4.3264   54.1010   27.5236 C   0  0  0  0  0  0
    4.1717   54.2051   26.1424 C   0  0  0  0  0  0
    2.9307   54.0950   25.6098 F   0  0  0  0  0  0
    6.1482   54.7424   20.4087 N   0  0  0  0  0  0
    6.7830   55.9043   20.1772 C   0  0  0  0  0  0
    6.6023   56.8968   20.8818 O   0  0  0  0  0  0
    7.6203   55.9082   19.1032 N   0  0  0  0  0  0
    8.1303   57.1803   18.5559 C   0  0  0  0  0  0
    7.6378   57.2811   17.0823 C   0  0  1  0  0  0
    7.9983   58.2048   16.6263 H   0  0  0  0  0  0
    8.2430   56.1251   16.2749 C   0  0  0  0  0  0
    7.7317   54.8190   16.8960 C   0  0  1  0  0  0
    8.2034   53.9857   16.3725 H   0  0  0  0  0  0
    8.1127   54.6998   18.3994 C   0  0  0  0  0  0
    6.2131   54.7111   16.7051 C   0  0  0  0  0  0
    5.6292   53.5166   16.4545 C   0  0  0  0  0  0
    4.1883   53.4561   16.3412 C   0  0  0  0  0  0
    3.4735   54.5891   16.4999 C   0  0  0  0  0  0
    4.0818   55.8889   16.7541 C   0  0  0  0  0  0
    3.3618   56.8812   16.8819 O   0  0  0  0  0  0
    5.4649   55.9015   16.8211 N   0  0  0  0  0  0
    6.0842   57.2560   16.9681 C   0  0  0  0  0  0
    2.4585   53.8145   21.8935 H   0  0  0  0  0  0
    2.5536   52.0700   21.7345 H   0  0  0  0  0  0
    3.2911   52.8469   23.1068 H   0  0  0  0  0  0
    5.0576   52.2529   21.4851 H   0  0  0  0  0  0
    3.4923   53.7281   19.3404 H   0  0  0  0  0  0
    4.9575   52.7699   19.1219 H   0  0  0  0  0  0
    3.4762   51.9814   19.5859 H   0  0  0  0  0  0
    4.0727   54.6242   23.7043 H   0  0  0  0  0  0
    7.4402   54.6640   25.2904 H   0  0  0  0  0  0
    7.6841   54.4898   27.7279 H   0  0  0  0  0  0
    5.7147   54.1336   29.1653 H   0  0  0  0  0  0
    3.4596   53.9403   28.1487 H   0  0  0  0  0  0
    6.2663   54.0037   19.7328 H   0  0  0  0  0  0
    7.8072   58.0504   19.1295 H   0  0  0  0  0  0
    9.2198   57.1705   18.5956 H   0  0  0  0  0  0
    7.9639   56.1914   15.2212 H   0  0  0  0  0  0
    9.3348   56.1618   16.3060 H   0  0  0  0  0  0
    9.1975   54.6638   18.4979 H   0  0  0  0  0  0
    7.7306   53.7673   18.8106 H   0  0  0  0  0  0
    6.2113   52.6066   16.3894 H   0  0  0  0  0  0
    3.6989   52.5105   16.1582 H   0  0  0  0  0  0
    2.3976   54.5483   16.4364 H   0  0  0  0  0  0
    5.6439   57.7654   17.8295 H   0  0  0  0  0  0
    5.7687   57.8807   16.1301 H   0  0  0  0  0  0
  1  2  1  0  0  0
  1 35  1  0  0  0
  1 36  1  0  0  0
  1 37  1  0  0  0
  2  3  1  0  0  0
  2  4  1  0  0  0
  2 38  1  0  0  0
  3 39  1  0  0  0
  3 40  1  0  0  0
  3 41  1  0  0  0
  4  5  1  0  0  0
  4  6  1  0  0  0
  4 16  1  0  0  0
  6  7  2  0  0  0
  6  8  1  0  0  0
  8  9  1  0  0  0
  8 42  1  0  0  0
  9 14  2  0  0  0
  9 10  1  0  0  0
 10 11  2  0  0  0
 10 43  1  0  0  0
 11 12  1  0  0  0
 11 44  1  0  0  0
 12 13  2  0  0  0
 12 45  1  0  0  0
 13 14  1  0  0  0
 13 46  1  0  0  0
 14 15  1  0  0  0
 16 17  1  0  0  0
 16 47  1  0  0  0
 17 18  2  0  0  0
 17 19  1  0  0  0
 19 26  1  0  0  0
 19 20  1  0  0  0
 20 21  1  0  0  0
 20 48  1  0  0  0
 20 49  1  0  0  0
 21 22  1  0  0  0
 21 34  1  0  0  0
 21 23  1  0  0  0
 23 24  1  0  0  0
 23 50  1  0  0  0
 23 51  1  0  0  0
 24 25  1  0  0  0
 24 26  1  0  0  0
 24 27  1  0  0  0
 26 52  1  0  0  0
 26 53  1  0  0  0
 27 33  1  0  0  0
 27 28  2  0  0  0
 28 29  1  0  0  0
 28 54  1  0  0  0
 29 30  2  0  0  0
 29 55  1  0  0  0
 30 31  1  0  0  0
 30 56  1  0  0  0
 31 32  2  0  0  0
 31 33  1  0  0  0
 33 34  1  0  0  0
 34 57  1  0  0  0
 34 58  1  0  0  0
M  END
> <i_i_glide_confnum>
8

> <i_i_glide_lignum>
2773

> <i_i_glide_posenum>
192

> <i_i_glide_rotatable_bonds>
7

> <i_m_Source_File_Index>
5411

> <b_m_subgroup_collapsed>
0

> <r_i_docking_score>
-6.01218

> <r_i_glide_ecoul>
-3.78333

> <r_i_glide_eff_state_penalty>
0

> <r_i_glide_einternal>
6.00282

> <r_i_glide_emodel>
-54.943

> <r_i_glide_energy>
-41.8121

> <r_i_glide_erotb>
0.436454

> <r_i_glide_esite>
0

> <r_i_glide_evdw>
-38.0288

> <r_i_glide_gscore>
-6.01218

> <r_i_glide_hbond>
-0.32

> <r_i_glide_ligand_efficiency>
-0.193941

> <r_i_glide_ligand_efficiency_ln>
-1.35593

> <r_i_glide_ligand_efficiency_sa>
-0.609243

> <r_i_glide_lipo>
-2.17982

> <r_i_glide_metal>
0

> <r_i_glide_rewards>
-1.47987

> <s_i_glide_gridfile>
wee1_glide-grid

> <s_m_Source_File>
wee1_decoys_glide_SP.sdf

> <s_m_Source_Path>
/Users/zhangxujun/Desktop

> <s_m_entry_id>
5686

> <s_m_entry_name>
wee1_decoys_glide_SP.5411

> <s_m_subgroup_title>
wee1_decoys_glide_SP

> <s_m_subgroupid>
wee1_decoys_glide_SP


$$$$
