ZINC12694707_2804
                    3D
 Schrodinger Suite 2024-2.
 55 59  0  0  1  0            999 V2000
    8.4355   57.3544   17.9504 C   0  0  0  0  0  0
    7.0469   57.4526   17.9612 C   0  0  0  0  0  0
    6.3151   56.7441   18.9106 C   0  0  0  0  0  0
    6.9779   55.9563   19.8613 C   0  0  0  0  0  0
    8.3727   55.8736   19.8541 C   0  0  0  0  0  0
    9.1013   56.5669   18.8881 C   0  0  0  0  0  0
    6.2218   55.2244   20.7990 N   0  0  0  0  0  0
    5.0894   54.5042   20.5473 C   0  0  0  0  0  0
    4.6447   53.9889   21.7503 C   0  0  0  0  0  0
    5.5718   54.4968   22.6878 C   0  0  0  0  0  0
    6.5457   55.1759   22.1002 N   0  0  0  0  0  0
    5.5040   54.3960   24.1800 C   0  0  0  0  0  0
    4.2575   54.4952   24.8092 C   0  0  0  0  0  0
    4.1564   54.4072   26.1923 C   0  0  0  0  0  0
    5.3033   54.2238   26.9564 C   0  0  0  0  0  0
    6.5538   54.1434   26.3468 C   0  0  0  0  0  0
    6.6519   54.2353   24.9589 C   0  0  0  0  0  0
    5.1609   54.1005   28.6698 Cl  0  0  0  0  0  0
    3.4424   53.0871   21.9651 C   0  0  0  0  0  0
    3.4839   51.8592   21.0376 C   0  0  0  0  0  0
    4.5741   51.3002   20.8841 O   0  0  0  0  0  0
    2.3577   51.4279   20.4012 N   0  0  0  0  0  0
    2.6056   51.0499   18.9903 C   0  0  0  0  0  0
    1.3700   50.3565   18.3666 C   0  0  2  0  0  0
    1.4854   50.2881   17.2830 H   0  0  0  0  0  0
    0.1494   51.0645   18.6642 O   0  0  0  0  0  0
   -0.0433   51.3777   19.9953 C   0  0  0  0  0  0
    1.0257   51.5579   20.8940 C   0  0  0  0  0  0
    0.6985   51.7220   22.2545 C   0  0  0  0  0  0
   -0.6298   51.8000   22.6748 C   0  0  0  0  0  0
   -1.6660   51.6867   21.7527 C   0  0  0  0  0  0
   -1.3712   51.4671   20.4098 C   0  0  0  0  0  0
    1.2833   48.8729   18.8213 C   0  0  0  0  0  0
    0.3316   48.4179   19.4517 O   0  0  0  0  0  0
    2.3057   48.0916   18.4809 N   0  0  0  0  0  0
    9.0046   57.8980   17.2111 H   0  0  0  0  0  0
    6.5377   58.0688   17.2314 H   0  0  0  0  0  0
    5.2382   56.8196   18.9026 H   0  0  0  0  0  0
    8.8989   55.2719   20.5819 H   0  0  0  0  0  0
   10.1788   56.5024   18.8800 H   0  0  0  0  0  0
    4.7032   54.4097   19.5436 H   0  0  0  0  0  0
    3.3611   54.6572   24.2300 H   0  0  0  0  0  0
    3.1897   54.4770   26.6683 H   0  0  0  0  0  0
    7.4384   53.9917   26.9479 H   0  0  0  0  0  0
    7.6135   54.1638   24.4795 H   0  0  0  0  0  0
    2.5339   53.6652   21.7916 H   0  0  0  0  0  0
    3.4189   52.7124   22.9842 H   0  0  0  0  0  0
    3.5006   50.4326   18.8837 H   0  0  0  0  0  0
    2.8371   51.9621   18.4381 H   0  0  0  0  0  0
    1.4606   51.7604   23.0143 H   0  0  0  0  0  0
   -0.8554   51.9282   23.7225 H   0  0  0  0  0  0
   -2.6929   51.7319   22.0832 H   0  0  0  0  0  0
   -2.1661   51.3255   19.6949 H   0  0  0  0  0  0
    3.0546   48.4566   17.8885 H   0  0  0  0  0  0
    2.3084   47.1266   18.7619 H   0  0  0  0  0  0
  1  6  2  0  0  0
  1  2  1  0  0  0
  1 36  1  0  0  0
  2  3  2  0  0  0
  2 37  1  0  0  0
  3  4  1  0  0  0
  3 38  1  0  0  0
  4  5  2  0  0  0
  4  7  1  0  0  0
  5  6  1  0  0  0
  5 39  1  0  0  0
  6 40  1  0  0  0
  7 11  1  0  0  0
  7  8  1  0  0  0
  8  9  2  0  0  0
  8 41  1  0  0  0
  9 10  1  0  0  0
  9 19  1  0  0  0
 10 11  2  0  0  0
 10 12  1  0  0  0
 12 17  2  0  0  0
 12 13  1  0  0  0
 13 14  2  0  0  0
 13 42  1  0  0  0
 14 15  1  0  0  0
 14 43  1  0  0  0
 15 16  2  0  0  0
 15 18  1  0  0  0
 16 17  1  0  0  0
 16 44  1  0  0  0
 17 45  1  0  0  0
 19 20  1  0  0  0
 19 46  1  0  0  0
 19 47  1  0  0  0
 20 21  2  0  0  0
 20 22  1  0  0  0
 22 28  1  0  0  0
 22 23  1  0  0  0
 23 24  1  0  0  0
 23 48  1  0  0  0
 23 49  1  0  0  0
 24 25  1  0  0  0
 24 26  1  0  0  0
 24 33  1  0  0  0
 26 27  1  0  0  0
 27 32  2  0  0  0
 27 28  1  0  0  0
 28 29  2  0  0  0
 29 30  1  0  0  0
 29 50  1  0  0  0
 30 31  2  0  0  0
 30 51  1  0  0  0
 31 32  1  0  0  0
 31 52  1  0  0  0
 32 53  1  0  0  0
 33 34  2  0  0  0
 33 35  1  0  0  0
 35 54  1  0  0  0
 35 55  1  0  0  0
M  END
> <i_i_glide_confnum>
328

> <i_i_glide_lignum>
2805

> <i_i_glide_posenum>
270

> <i_i_glide_rotatable_bonds>
6

> <i_m_Source_File_Index>
1635

> <b_m_subgroup_collapsed>
0

> <r_i_docking_score>
-5.97261

> <r_i_glide_ecoul>
-7.97952

> <r_i_glide_eff_state_penalty>
0

> <r_i_glide_einternal>
7.53246

> <r_i_glide_emodel>
-68.6187

> <r_i_glide_energy>
-54.4493

> <r_i_glide_erotb>
0.452116

> <r_i_glide_esite>
-0.175042

> <r_i_glide_evdw>
-46.4698

> <r_i_glide_gscore>
-5.97261

> <r_i_glide_hbond>
-0.167766

> <r_i_glide_ligand_efficiency>
-0.175665

> <r_i_glide_ligand_efficiency_ln>
-1.31952

> <r_i_glide_ligand_efficiency_sa>
-0.569086

> <r_i_glide_lipo>
-2.83862

> <r_i_glide_metal>
0

> <r_i_glide_rewards>
0.277123

> <s_i_glide_gridfile>
wee1_glide-grid

> <s_m_Source_File>
wee1_decoys_glide_SP.sdf

> <s_m_Source_Path>
/Users/zhangxujun/Desktop

> <s_m_entry_id>
1910

> <s_m_entry_name>
wee1_decoys_glide_SP.1635

> <s_m_subgroup_title>
wee1_decoys_glide_SP

> <s_m_subgroupid>
wee1_decoys_glide_SP


$$$$
