ZINC09104301_2695
                    3D
 Schrodinger Suite 2024-2.
 49 53  0  0  1  0            999 V2000
    6.1847   54.0982   26.3972 C   0  0  0  0  0  0
    6.7550   54.4979   25.1926 C   0  0  0  0  0  0
    5.9612   54.6774   24.0649 C   0  0  0  0  0  0
    4.5821   54.4964   24.1393 C   0  0  0  0  0  0
    3.9977   54.1224   25.3442 C   0  0  0  0  0  0
    4.8051   53.9036   26.4694 C   0  0  0  0  0  0
    4.2841   53.2979   27.6157 N   0  0  0  0  0  0
    3.0991   53.5704   28.1953 C   0  0  0  0  0  0
    2.5207   54.6541   28.0914 O   0  0  0  0  0  0
    2.4284   52.3837   28.9284 C   0  0  1  0  0  0
    3.1315   51.5533   28.8561 H   0  0  0  0  0  0
    2.1706   52.6822   30.4339 C   0  0  0  0  0  0
    0.8012   53.3232   30.7367 C   0  0  0  0  0  0
   -0.3703   52.4466   30.2506 C   0  0  0  0  0  0
   -0.1284   52.0683   28.8129 C   0  0  0  0  0  0
    1.1254   52.0112   28.2082 C   0  0  0  0  0  0
    1.1045   51.6644   26.9359 N   0  0  0  0  0  0
   -0.0967   51.3840   26.5022 C   0  0  0  0  0  0
   -1.3519   51.5652   27.6769 S   0  0  0  0  0  0
   -0.3982   50.9359   25.2268 N   0  0  0  0  0  0
    0.1851   51.4073   24.1013 C   0  0  0  0  0  0
    0.9556   52.3725   24.0749 O   0  0  0  0  0  0
   -0.2017   50.7140   22.8158 C   0  0  0  0  0  0
   -0.1193   51.4174   21.5903 C   0  0  0  0  0  0
   -0.4307   50.7992   20.3715 C   0  0  0  0  0  0
   -0.8112   49.4642   20.4081 C   0  0  0  0  0  0
   -0.8904   48.7697   21.5812 C   0  0  0  0  0  0
   -0.5996   49.3595   22.8061 C   0  0  0  0  0  0
   -1.2962   47.4971   21.3263 O   0  0  0  0  0  0
   -1.2510   47.3635   19.9303 C   0  0  0  0  0  0
   -1.1717   48.6516   19.3802 O   0  0  0  0  0  0
    6.7041   55.1023   22.5648 Cl  0  0  0  0  0  0
    6.8155   53.9066   27.2550 H   0  0  0  0  0  0
    7.8213   54.6324   25.1064 H   0  0  0  0  0  0
    3.9675   54.6256   23.2593 H   0  0  0  0  0  0
    2.9338   53.9376   25.3774 H   0  0  0  0  0  0
    4.7871   52.4809   27.9289 H   0  0  0  0  0  0
    2.9773   53.2855   30.8510 H   0  0  0  0  0  0
    2.2173   51.7409   30.9845 H   0  0  0  0  0  0
    0.7466   54.3041   30.2622 H   0  0  0  0  0  0
    0.6988   53.5001   31.8090 H   0  0  0  0  0  0
   -1.2954   52.9928   30.3177 H   0  0  0  0  0  0
   -0.4944   51.5626   30.8767 H   0  0  0  0  0  0
   -1.2319   50.3737   25.1292 H   0  0  0  0  0  0
    0.2003   52.4507   21.5731 H   0  0  0  0  0  0
   -0.3608   51.3440   19.4399 H   0  0  0  0  0  0
   -0.6563   48.7724   23.7130 H   0  0  0  0  0  0
   -0.3591   46.8001   19.6487 H   0  0  0  0  0  0
   -2.1400   46.8484   19.5637 H   0  0  0  0  0  0
  1  6  2  0  0  0
  1  2  1  0  0  0
  1 33  1  0  0  0
  2  3  2  0  0  0
  2 34  1  0  0  0
  3  4  1  0  0  0
  3 32  1  0  0  0
  4  5  2  0  0  0
  4 35  1  0  0  0
  5  6  1  0  0  0
  5 36  1  0  0  0
  6  7  1  0  0  0
  7  8  1  0  0  0
  7 37  1  0  0  0
  8  9  2  0  0  0
  8 10  1  0  0  0
 10 11  1  0  0  0
 10 16  1  0  0  0
 10 12  1  0  0  0
 12 13  1  0  0  0
 12 38  1  0  0  0
 12 39  1  0  0  0
 13 14  1  0  0  0
 13 40  1  0  0  0
 13 41  1  0  0  0
 14 15  1  0  0  0
 14 42  1  0  0  0
 14 43  1  0  0  0
 15 19  1  0  0  0
 15 16  2  0  0  0
 16 17  1  0  0  0
 17 18  2  0  0  0
 18 19  1  0  0  0
 18 20  1  0  0  0
 20 21  1  0  0  0
 20 44  1  0  0  0
 21 22  2  0  0  0
 21 23  1  0  0  0
 23 28  2  0  0  0
 23 24  1  0  0  0
 24 25  2  0  0  0
 24 45  1  0  0  0
 25 26  1  0  0  0
 25 46  1  0  0  0
 26 31  1  0  0  0
 26 27  2  0  0  0
 27 28  1  0  0  0
 27 29  1  0  0  0
 28 47  1  0  0  0
 29 30  1  0  0  0
 30 31  1  0  0  0
 30 48  1  0  0  0
 30 49  1  0  0  0
M  END
> <i_i_glide_confnum>
122

> <i_i_glide_lignum>
2696

> <i_i_glide_posenum>
81

> <i_i_glide_rotatable_bonds>
6

> <i_m_Source_File_Index>
3941

> <b_m_subgroup_collapsed>
0

> <r_i_docking_score>
-4.04926

> <r_i_glide_ecoul>
0.138434

> <r_i_glide_eff_state_penalty>
0

> <r_i_glide_einternal>
23.3247

> <r_i_glide_emodel>
-41.0726

> <r_i_glide_energy>
-42.8316

> <r_i_glide_erotb>
0.579997

> <r_i_glide_esite>
-0.0132329

> <r_i_glide_evdw>
-42.97

> <r_i_glide_gscore>
-4.04926

> <r_i_glide_hbond>
0

> <r_i_glide_ligand_efficiency>
-0.130621

> <r_i_glide_ligand_efficiency_ln>
-0.913231

> <r_i_glide_ligand_efficiency_sa>
-0.410331

> <r_i_glide_lipo>
-2.10181

> <r_i_glide_metal>
0

> <r_i_glide_rewards>
-0.38647

> <s_i_glide_gridfile>
wee1_glide-grid

> <s_m_Source_File>
wee1_decoys_glide_SP.sdf

> <s_m_Source_Path>
/Users/zhangxujun/Desktop

> <s_m_entry_id>
4216

> <s_m_entry_name>
wee1_decoys_glide_SP.3941

> <s_m_subgroup_title>
wee1_decoys_glide_SP

> <s_m_subgroupid>
wee1_decoys_glide_SP


$$$$
