ZINC32974226_733
                    3D
 Schrodinger Suite 2024-2.
 76 79  0  0  1  0            999 V2000
    6.8907   54.9770   24.8818 C   0  0  0  0  0  0
    5.8740   54.7362   25.9764 C   0  0  0  0  0  0
    4.5160   54.7502   25.6654 C   0  0  0  0  0  0
    3.5752   54.4892   26.6552 C   0  0  0  0  0  0
    3.9871   54.1942   27.9609 C   0  0  0  0  0  0
    5.3494   54.2290   28.2753 C   0  0  0  0  0  0
    6.2921   54.4908   27.2850 C   0  0  0  0  0  0
    2.9761   53.8560   29.0319 C   0  0  0  0  0  0
    3.0071   54.4962   30.0815 O   0  0  0  0  0  0
    2.0730   52.8606   28.8059 N   0  0  0  0  0  0
    2.1917   51.9156   27.6818 C   0  0  0  0  0  0
    0.8691   51.9786   26.9045 C   0  0  0  0  0  0
   -0.3007   51.5214   27.8068 C   0  0  0  0  0  0
   -0.3246   52.4965   29.0096 C   0  0  0  0  0  0
    1.0138   52.5413   29.7894 C   0  0  0  0  0  0
   -1.6769   51.4612   27.0813 C   0  0  0  0  0  0
   -1.7293   50.6469   25.7746 C   0  0  0  0  0  0
   -2.4886   51.0033   24.8744 O   0  0  0  0  0  0
   -0.9145   49.5804   25.6816 N   0  0  0  0  0  0
   -0.7008   48.6885   24.5358 C   0  0  0  0  0  0
   -0.6374   49.3331   23.1246 C   0  0  0  0  0  0
    0.5633   50.1668   22.9120 N   0  0  0  0  0  0
    0.1591   51.5423   22.5878 C   0  0  0  0  0  0
    1.3817   52.4662   22.4210 C   0  0  0  0  0  0
    2.2930   51.9066   21.3067 N   0  3  0  0  0  0
    2.7079   50.4539   21.6226 C   0  0  0  0  0  0
    1.4543   49.5878   21.8919 C   0  0  0  0  0  0
    3.4424   52.7817   20.9154 C   0  0  0  0  0  0
    4.1363   53.5034   21.8918 C   0  0  0  0  0  0
    5.1543   54.3679   21.5038 C   0  0  0  0  0  0
    5.5004   54.4896   20.1607 C   0  0  0  0  0  0
    4.8301   53.7458   19.1819 C   0  0  0  0  0  0
    3.7726   52.8878   19.5514 C   0  0  0  0  0  0
    2.9774   52.1082   18.4992 C   0  0  0  0  0  0
    5.2844   53.8869   17.7352 C   0  0  0  0  0  0
    6.7763   54.2307   24.0954 H   0  0  0  0  0  0
    6.7558   55.9624   24.4354 H   0  0  0  0  0  0
    7.9044   54.8969   25.2583 H   0  0  0  0  0  0
    4.1876   54.9588   24.6586 H   0  0  0  0  0  0
    2.5264   54.4963   26.3976 H   0  0  0  0  0  0
    5.6878   54.0368   29.2816 H   0  0  0  0  0  0
    7.3408   54.4916   27.5444 H   0  0  0  0  0  0
    3.0510   52.0969   27.0430 H   0  0  0  0  0  0
    2.3173   50.9143   28.0961 H   0  0  0  0  0  0
    0.6876   52.9736   26.4958 H   0  0  0  0  0  0
    0.9578   51.3450   26.0229 H   0  0  0  0  0  0
   -0.0746   50.5198   28.1884 H   0  0  0  0  0  0
   -1.1333   52.2201   29.6885 H   0  0  0  0  0  0
   -0.5732   53.5043   28.6746 H   0  0  0  0  0  0
    1.2289   51.5654   30.2204 H   0  0  0  0  0  0
    0.9406   53.2757   30.5938 H   0  0  0  0  0  0
   -2.4308   51.0516   27.7552 H   0  0  0  0  0  0
   -1.9968   52.4794   26.8468 H   0  0  0  0  0  0
   -0.5036   49.2674   26.5542 H   0  0  0  0  0  0
    0.2457   48.1779   24.7276 H   0  0  0  0  0  0
   -1.4608   47.9061   24.5510 H   0  0  0  0  0  0
   -0.6164   48.5056   22.4107 H   0  0  0  0  0  0
   -1.5711   49.8507   22.8929 H   0  0  0  0  0  0
   -0.3976   51.5197   21.6479 H   0  0  0  0  0  0
   -0.4882   51.9462   23.3691 H   0  0  0  0  0  0
    1.9603   52.5283   23.3433 H   0  0  0  0  0  0
    1.1037   53.4682   22.0895 H   0  0  0  0  0  0
    3.3737   50.4962   22.4816 H   0  0  0  0  0  0
    3.2612   50.0983   20.7523 H   0  0  0  0  0  0
    1.7728   48.5857   22.1852 H   0  0  0  0  0  0
    0.8849   49.5337   20.9612 H   0  0  0  0  0  0
    3.9001   53.4161   22.9410 H   0  0  0  0  0  0
    5.6853   54.9452   22.2435 H   0  0  0  0  0  0
    6.3021   55.1575   19.8801 H   0  0  0  0  0  0
    3.1050   51.0344   18.6325 H   0  0  0  0  0  0
    1.9135   52.3290   18.5896 H   0  0  0  0  0  0
    3.2567   52.3379   17.4731 H   0  0  0  0  0  0
    4.4951   54.3295   17.1273 H   0  0  0  0  0  0
    6.1808   54.5000   17.6362 H   0  0  0  0  0  0
    5.5155   52.9045   17.3205 H   0  0  0  0  0  0
    1.7070   51.8697   20.4848 H   0  0  0  0  0  0
  1  2  1  0  0  0
  1 36  1  0  0  0
  1 37  1  0  0  0
  1 38  1  0  0  0
  2  7  2  0  0  0
  2  3  1  0  0  0
  3  4  2  0  0  0
  3 39  1  0  0  0
  4  5  1  0  0  0
  4 40  1  0  0  0
  5  6  2  0  0  0
  5  8  1  0  0  0
  6  7  1  0  0  0
  6 41  1  0  0  0
  7 42  1  0  0  0
  8  9  2  0  0  0
  8 10  1  0  0  0
 10 15  1  0  0  0
 10 11  1  0  0  0
 11 12  1  0  0  0
 11 43  1  0  0  0
 11 44  1  0  0  0
 12 13  1  0  0  0
 12 45  1  0  0  0
 12 46  1  0  0  0
 13 14  1  0  0  0
 13 16  1  0  0  0
 13 47  1  0  0  0
 14 15  1  0  0  0
 14 48  1  0  0  0
 14 49  1  0  0  0
 15 50  1  0  0  0
 15 51  1  0  0  0
 16 17  1  0  0  0
 16 52  1  0  0  0
 16 53  1  0  0  0
 17 18  2  0  0  0
 17 19  1  0  0  0
 19 20  1  0  0  0
 19 54  1  0  0  0
 20 21  1  0  0  0
 20 55  1  0  0  0
 20 56  1  0  0  0
 21 22  1  0  0  0
 21 57  1  0  0  0
 21 58  1  0  0  0
 22 27  1  0  0  0
 22 23  1  0  0  0
 23 24  1  0  0  0
 23 59  1  0  0  0
 23 60  1  0  0  0
 24 25  1  0  0  0
 24 61  1  0  0  0
 24 62  1  0  0  0
 25 26  1  0  0  0
 25 28  1  0  0  0
 25 76  1  0  0  0
 26 27  1  0  0  0
 26 63  1  0  0  0
 26 64  1  0  0  0
 27 65  1  0  0  0
 27 66  1  0  0  0
 28 33  2  0  0  0
 28 29  1  0  0  0
 29 30  2  0  0  0
 29 67  1  0  0  0
 30 31  1  0  0  0
 30 68  1  0  0  0
 31 32  2  0  0  0
 31 69  1  0  0  0
 32 33  1  0  0  0
 32 35  1  0  0  0
 33 34  1  0  0  0
 34 70  1  0  0  0
 34 71  1  0  0  0
 34 72  1  0  0  0
 35 73  1  0  0  0
 35 74  1  0  0  0
 35 75  1  0  0  0
M  CHG  1  25   1
M  END
> <i_i_glide_confnum>
92

> <i_i_glide_lignum>
734

> <i_i_glide_posenum>
336

> <i_i_glide_rotatable_bonds>
9

> <i_m_Source_File_Index>
5276

> <b_m_subgroup_collapsed>
0

> <r_i_docking_score>
-6.06072

> <r_i_glide_ecoul>
-4.21364

> <r_i_glide_eff_state_penalty>
0

> <r_i_glide_einternal>
7.45427

> <r_i_glide_emodel>
-66.4149

> <r_i_glide_energy>
-49.1166

> <r_i_glide_erotb>
0.799126

> <r_i_glide_esite>
-0.137885

> <r_i_glide_evdw>
-44.903

> <r_i_glide_gscore>
-6.06072

> <r_i_glide_hbond>
-0.365377

> <r_i_glide_ligand_efficiency>
-0.173163

> <r_i_glide_ligand_efficiency_ln>
-1.33046

> <r_i_glide_ligand_efficiency_sa>
-0.566429

> <r_i_glide_lipo>
-2.87033

> <r_i_glide_metal>
0

> <r_i_glide_rewards>
-0.609057

> <s_i_glide_gridfile>
wee1_glide-grid

> <s_m_Source_File>
wee1_decoys_glide_SP.sdf

> <s_m_Source_Path>
/Users/zhangxujun/Desktop

> <s_m_entry_id>
5551

> <s_m_entry_name>
wee1_decoys_glide_SP.5276

> <s_m_subgroup_title>
wee1_decoys_glide_SP

> <s_m_subgroupid>
wee1_decoys_glide_SP


$$$$
