ZINC36694750_1442
                    3D
 Schrodinger Suite 2024-2.
 60 62  0  0  1  0            999 V2000
    2.5449   55.1619   16.3655 C   0  0  0  0  0  0
    3.9975   55.0107   16.8480 C   0  0  1  0  0  0
    4.4912   55.9721   16.7130 H   0  0  0  0  0  0
    4.0515   54.6206   18.3430 C   0  0  0  0  0  0
    5.5100   54.5505   18.8795 C   0  0  2  0  0  0
    6.2895   53.5150   17.9989 C   0  0  0  0  0  0
    6.2679   53.8310   16.4679 C   0  0  0  0  0  0
    4.7639   53.9144   16.0648 C   0  0  0  0  0  0
    7.0485   55.1206   16.1051 C   0  0  0  0  0  0
    6.8729   52.6096   15.7410 C   0  0  0  0  0  0
    5.5023   54.0570   20.3218 C   0  0  0  0  0  0
    5.1042   52.9533   20.7031 O   0  0  0  0  0  0
    6.0884   55.0366   21.0552 N   0  0  0  0  0  0
    6.4173   56.1290   20.3189 C   0  0  0  0  0  0
    6.7038   57.2540   20.7200 O   0  0  0  0  0  0
    6.1603   55.8134   19.0502 N   0  0  0  0  0  0
    6.5748   54.8858   22.4566 C   0  0  0  0  0  0
    5.4919   54.4965   23.4929 C   0  0  0  0  0  0
    4.3218   54.3235   23.1547 O   0  0  0  0  0  0
    5.9351   54.4138   24.7660 N   0  0  0  0  0  0
    5.2140   54.1311   25.9474 C   0  0  0  0  0  0
    5.9740   53.8658   27.0874 C   0  0  0  0  0  0
    5.3515   53.5154   28.2831 C   0  0  0  0  0  0
    3.9553   53.4370   28.3753 C   0  0  0  0  0  0
    3.1954   53.7313   27.2342 C   0  0  0  0  0  0
    3.8134   54.0889   26.0381 C   0  0  0  0  0  0
    3.3104   52.9510   29.6639 C   0  0  0  0  0  0
    3.9039   52.1004   30.3346 O   0  0  0  0  0  0
    2.0896   53.4248   30.0425 N   0  0  0  0  0  0
    1.2464   52.6986   31.0006 C   0  0  0  0  0  0
    1.4832   54.6799   29.5856 C   0  0  0  0  0  0
    1.9859   54.2329   16.4813 H   0  0  0  0  0  0
    2.0216   55.9358   16.9285 H   0  0  0  0  0  0
    2.5074   55.4429   15.3127 H   0  0  0  0  0  0
    3.4946   53.7046   18.5560 H   0  0  0  0  0  0
    3.5027   55.3822   18.8957 H   0  0  0  0  0  0
    7.3335   53.4740   18.3167 H   0  0  0  0  0  0
    5.9242   52.5033   18.2010 H   0  0  0  0  0  0
    4.6784   54.1053   14.9935 H   0  0  0  0  0  0
    4.2623   52.9533   16.2023 H   0  0  0  0  0  0
    7.0772   55.2608   15.0231 H   0  0  0  0  0  0
    6.6313   56.0341   16.5199 H   0  0  0  0  0  0
    8.0835   55.0577   16.4448 H   0  0  0  0  0  0
    6.8610   52.7420   14.6583 H   0  0  0  0  0  0
    7.9097   52.4419   16.0361 H   0  0  0  0  0  0
    6.3203   51.6958   15.9593 H   0  0  0  0  0  0
    6.5823   56.2893   18.2677 H   0  0  0  0  0  0
    7.0053   55.8270   22.8036 H   0  0  0  0  0  0
    7.3870   54.1610   22.4819 H   0  0  0  0  0  0
    6.9296   54.5153   24.8913 H   0  0  0  0  0  0
    7.0533   53.8923   27.0519 H   0  0  0  0  0  0
    5.9724   53.2850   29.1346 H   0  0  0  0  0  0
    2.1185   53.6493   27.2450 H   0  0  0  0  0  0
    3.1765   54.2997   25.1944 H   0  0  0  0  0  0
    1.6818   51.7538   31.3287 H   0  0  0  0  0  0
    0.2757   52.4704   30.5579 H   0  0  0  0  0  0
    1.0694   53.3028   31.8906 H   0  0  0  0  0  0
    2.1822   55.3199   29.0457 H   0  0  0  0  0  0
    0.6307   54.4742   28.9367 H   0  0  0  0  0  0
    1.1163   55.2574   30.4359 H   0  0  0  0  0  0
  1  2  1  0  0  0
  1 32  1  0  0  0
  1 33  1  0  0  0
  1 34  1  0  0  0
  2  3  1  0  0  0
  2  8  1  0  0  0
  2  4  1  0  0  0
  4  5  1  0  0  0
  4 35  1  0  0  0
  4 36  1  0  0  0
  5 16  1  0  0  0
  5  6  1  0  0  0
  5 11  1  0  0  0
  6  7  1  0  0  0
  6 37  1  0  0  0
  6 38  1  0  0  0
  7  8  1  0  0  0
  7  9  1  0  0  0
  7 10  1  0  0  0
  8 39  1  0  0  0
  8 40  1  0  0  0
  9 41  1  0  0  0
  9 42  1  0  0  0
  9 43  1  0  0  0
 10 44  1  0  0  0
 10 45  1  0  0  0
 10 46  1  0  0  0
 11 12  2  0  0  0
 11 13  1  0  0  0
 13 14  1  0  0  0
 13 17  1  0  0  0
 14 15  2  0  0  0
 14 16  1  0  0  0
 16 47  1  0  0  0
 17 18  1  0  0  0
 17 48  1  0  0  0
 17 49  1  0  0  0
 18 19  2  0  0  0
 18 20  1  0  0  0
 20 21  1  0  0  0
 20 50  1  0  0  0
 21 26  2  0  0  0
 21 22  1  0  0  0
 22 23  2  0  0  0
 22 51  1  0  0  0
 23 24  1  0  0  0
 23 52  1  0  0  0
 24 25  2  0  0  0
 24 27  1  0  0  0
 25 26  1  0  0  0
 25 53  1  0  0  0
 26 54  1  0  0  0
 27 28  2  0  0  0
 27 29  1  0  0  0
 29 30  1  0  0  0
 29 31  1  0  0  0
 30 55  1  0  0  0
 30 56  1  0  0  0
 30 57  1  0  0  0
 31 58  1  0  0  0
 31 59  1  0  0  0
 31 60  1  0  0  0
M  END
> <i_i_glide_confnum>
4

> <i_i_glide_lignum>
1443

> <i_i_glide_posenum>
216

> <i_i_glide_rotatable_bonds>
6

> <i_m_Source_File_Index>
1525

> <b_m_subgroup_collapsed>
0

> <r_i_docking_score>
-6.69852

> <r_i_glide_ecoul>
-8.40124

> <r_i_glide_eff_state_penalty>
0

> <r_i_glide_einternal>
1.81941

> <r_i_glide_emodel>
-67.6338

> <r_i_glide_energy>
-48.3552

> <r_i_glide_erotb>
0.574421

> <r_i_glide_esite>
0

> <r_i_glide_evdw>
-39.9539

> <r_i_glide_gscore>
-6.69852

> <r_i_glide_hbond>
-0.447059

> <r_i_glide_ligand_efficiency>
-0.223284

> <r_i_glide_ligand_efficiency_ln>
-1.52198

> <r_i_glide_ligand_efficiency_sa>
-0.693796

> <r_i_glide_lipo>
-2.12873

> <r_i_glide_metal>
0

> <r_i_glide_rewards>
-1.43927

> <s_i_glide_gridfile>
wee1_glide-grid

> <s_m_Source_File>
wee1_decoys_glide_SP.sdf

> <s_m_Source_Path>
/Users/zhangxujun/Desktop

> <s_m_entry_id>
1800

> <s_m_entry_name>
wee1_decoys_glide_SP.1525

> <s_m_subgroup_title>
wee1_decoys_glide_SP

> <s_m_subgroupid>
wee1_decoys_glide_SP


$$$$
