ZINC39686624_4902
                    3D
 Schrodinger Suite 2024-2.
 74 76  0  0  1  0            999 V2000
   11.5046   58.6099   18.8349 C   0  0  0  0  0  0
   10.7704   58.3341   17.5153 C   0  0  0  0  0  0
    9.9439   57.0343   17.5268 C   0  0  0  0  0  0
    8.9187   56.9170   18.6738 C   0  0  0  0  0  0
    7.8417   58.0300   18.7127 C   0  0  0  0  0  0
    6.8613   58.1037   17.5156 C   0  0  0  0  0  0
    6.2698   56.7743   17.0031 C   0  0  0  0  0  0
    6.3249   56.5548   15.7899 O   0  0  0  0  0  0
    5.7243   55.8781   17.8642 N   0  0  0  0  0  0
    5.5048   56.0809   19.2944 C   0  0  0  0  0  0
    4.4977   54.9776   19.6874 C   0  0  1  0  0  0
    3.5021   55.3242   19.5330 H   0  0  0  0  0  0
    4.6987   53.8520   18.6473 C   0  0  0  0  0  0
    5.1583   54.6214   17.3914 C   0  0  0  0  0  0
    3.4701   52.9919   18.2542 C   0  0  0  0  0  0
    2.8352   52.2776   19.4495 C   0  0  0  0  0  0
    3.9041   51.3641   20.0814 N   0  3  0  0  0  0
    5.3614   51.8850   20.1913 C   0  0  0  0  0  0
    5.8042   52.8687   19.0510 C   0  0  0  0  0  0
    4.7070   54.6287   21.1931 C   0  0  0  0  0  0
    5.8274   54.6779   21.6965 O   0  0  0  0  0  0
    3.6104   54.3044   21.9074 N   0  0  0  0  0  0
    3.5847   53.6874   23.2403 C   0  0  2  0  0  0
    4.3246   52.8972   23.2231 H   0  0  0  0  0  0
    2.2270   53.0007   23.4644 C   0  0  0  0  0  0
    3.9505   54.6717   24.3713 C   0  0  0  0  0  0
    4.3948   54.1096   25.7206 C   0  0  0  0  0  0
    3.4190   53.7178   26.6441 C   0  0  0  0  0  0
    3.7802   53.3060   27.9253 C   0  0  0  0  0  0
    5.1221   53.2954   28.2984 C   0  0  0  0  0  0
    6.1030   53.6990   27.3955 C   0  0  0  0  0  0
    5.7536   54.0979   26.1052 C   0  0  0  0  0  0
    6.7598   54.5617   25.2909 O   0  0  0  0  0  0
    7.1451   53.6974   24.2277 C   0  0  0  0  0  0
   12.1648   59.4726   18.7471 H   0  0  0  0  0  0
   12.1098   57.7517   19.1325 H   0  0  0  0  0  0
   10.7933   58.8201   19.6378 H   0  0  0  0  0  0
   10.1263   59.1803   17.2696 H   0  0  0  0  0  0
   11.5010   58.2760   16.7067 H   0  0  0  0  0  0
    9.4318   56.9298   16.5687 H   0  0  0  0  0  0
   10.6280   56.1860   17.5887 H   0  0  0  0  0  0
    8.4463   55.9360   18.6134 H   0  0  0  0  0  0
    9.4502   56.8956   19.6257 H   0  0  0  0  0  0
    7.2660   57.9451   19.6314 H   0  0  0  0  0  0
    8.3339   58.9976   18.8081 H   0  0  0  0  0  0
    6.0474   58.7969   17.7299 H   0  0  0  0  0  0
    7.3922   58.5664   16.6812 H   0  0  0  0  0  0
    6.4706   55.8853   19.7602 H   0  0  0  0  0  0
    5.1096   57.0674   19.5418 H   0  0  0  0  0  0
    4.2748   54.9039   16.8166 H   0  0  0  0  0  0
    5.7826   54.0333   16.7150 H   0  0  0  0  0  0
    2.6965   53.6348   17.8292 H   0  0  0  0  0  0
    3.7221   52.2809   17.4624 H   0  0  0  0  0  0
    2.4381   52.9438   20.2072 H   0  0  0  0  0  0
    2.0298   51.6112   19.1378 H   0  0  0  0  0  0
    3.5829   50.9410   20.9410 H   0  0  0  0  0  0
    5.5056   52.2135   21.2149 H   0  0  0  0  0  0
    5.9042   50.9702   20.0818 H   0  0  0  0  0  0
    6.1458   52.3108   18.1825 H   0  0  0  0  0  0
    6.7038   53.4239   19.3143 H   0  0  0  0  0  0
    2.7109   54.4478   21.4658 H   0  0  0  0  0  0
    2.1929   52.5000   24.4313 H   0  0  0  0  0  0
    1.4066   53.7203   23.4579 H   0  0  0  0  0  0
    2.0309   52.2351   22.7136 H   0  0  0  0  0  0
    4.7666   55.2969   24.0361 H   0  0  0  0  0  0
    3.0942   55.3169   24.5365 H   0  0  0  0  0  0
    2.3718   53.7508   26.3809 H   0  0  0  0  0  0
    3.0197   52.9994   28.6273 H   0  0  0  0  0  0
    5.4041   52.9730   29.2878 H   0  0  0  0  0  0
    7.1380   53.7091   27.7004 H   0  0  0  0  0  0
    7.6226   54.2856   23.4503 H   0  0  0  0  0  0
    7.8447   52.9191   24.5326 H   0  0  0  0  0  0
    6.3069   53.2035   23.7544 H   0  0  0  0  0  0
    4.0075   50.6125   19.4012 H   0  0  0  0  0  0
  1  2  1  0  0  0
  1 35  1  0  0  0
  1 36  1  0  0  0
  1 37  1  0  0  0
  2  3  1  0  0  0
  2 38  1  0  0  0
  2 39  1  0  0  0
  3  4  1  0  0  0
  3 40  1  0  0  0
  3 41  1  0  0  0
  4  5  1  0  0  0
  4 42  1  0  0  0
  4 43  1  0  0  0
  5  6  1  0  0  0
  5 44  1  0  0  0
  5 45  1  0  0  0
  6  7  1  0  0  0
  6 46  1  0  0  0
  6 47  1  0  0  0
  7  8  2  0  0  0
  7  9  1  0  0  0
  9 14  1  0  0  0
  9 10  1  0  0  0
 10 11  1  0  0  0
 10 48  1  0  0  0
 10 49  1  0  0  0
 11 12  1  0  0  0
 11 13  1  0  0  0
 11 20  1  0  0  0
 13 19  1  0  0  0
 13 14  1  0  0  0
 13 15  1  0  0  0
 14 50  1  0  0  0
 14 51  1  0  0  0
 15 16  1  0  0  0
 15 52  1  0  0  0
 15 53  1  0  0  0
 16 17  1  0  0  0
 16 54  1  0  0  0
 16 55  1  0  0  0
 17 18  1  0  0  0
 17 56  1  0  0  0
 17 74  1  0  0  0
 18 19  1  0  0  0
 18 57  1  0  0  0
 18 58  1  0  0  0
 19 59  1  0  0  0
 19 60  1  0  0  0
 20 21  2  0  0  0
 20 22  1  0  0  0
 22 23  1  0  0  0
 22 61  1  0  0  0
 23 24  1  0  0  0
 23 25  1  0  0  0
 23 26  1  0  0  0
 25 62  1  0  0  0
 25 63  1  0  0  0
 25 64  1  0  0  0
 26 27  1  0  0  0
 26 65  1  0  0  0
 26 66  1  0  0  0
 27 32  2  0  0  0
 27 28  1  0  0  0
 28 29  2  0  0  0
 28 67  1  0  0  0
 29 30  1  0  0  0
 29 68  1  0  0  0
 30 31  2  0  0  0
 30 69  1  0  0  0
 31 32  1  0  0  0
 31 70  1  0  0  0
 32 33  1  0  0  0
 33 34  1  0  0  0
 34 71  1  0  0  0
 34 72  1  0  0  0
 34 73  1  0  0  0
M  CHG  1  17   1
M  END
> <i_i_glide_confnum>
237

> <i_i_glide_lignum>
4903

> <i_i_glide_posenum>
397

> <i_i_glide_rotatable_bonds>
12

> <i_m_Source_File_Index>
1433

> <b_m_subgroup_collapsed>
0

> <r_i_docking_score>
-3.74124

> <r_i_glide_ecoul>
-1.96592

> <r_i_glide_eff_state_penalty>
0

> <r_i_glide_einternal>
10.0739

> <r_i_glide_emodel>
-29.6101

> <r_i_glide_energy>
-27.5799

> <r_i_glide_erotb>
1.01173

> <r_i_glide_esite>
-0.099377

> <r_i_glide_evdw>
-25.6139

> <r_i_glide_gscore>
-3.74124

> <r_i_glide_hbond>
-0.468627

> <r_i_glide_ligand_efficiency>
-0.116914

> <r_i_glide_ligand_efficiency_ln>
-0.837766

> <r_i_glide_ligand_efficiency_sa>
-0.371178

> <r_i_glide_lipo>
-2.14903

> <r_i_glide_metal>
0

> <r_i_glide_rewards>
-0.46035

> <s_i_glide_gridfile>
wee1_glide-grid

> <s_m_Source_File>
wee1_decoys_glide_SP.sdf

> <s_m_Source_Path>
/Users/zhangxujun/Desktop

> <s_m_entry_id>
1708

> <s_m_entry_name>
wee1_decoys_glide_SP.1433

> <s_m_subgroup_title>
wee1_decoys_glide_SP

> <s_m_subgroupid>
wee1_decoys_glide_SP


$$$$
