ZINC54940246_229
                    3D
 Schrodinger Suite 2024-2.
 51 54  0  0  1  0            999 V2000
    1.8646   54.4257   23.4417 C   0  0  0  0  0  0
    3.3585   54.2181   23.1081 C   0  0  1  0  0  0
    3.6552   54.9893   22.3926 H   0  0  0  0  0  0
    4.2885   54.2932   24.3322 C   0  0  0  0  0  0
    3.8311   54.0220   25.6314 C   0  0  0  0  0  0
    4.6983   54.1104   26.7181 C   0  0  0  0  0  0
    6.0263   54.4793   26.5171 C   0  0  0  0  0  0
    6.4908   54.7599   25.2354 C   0  0  0  0  0  0
    5.6266   54.6685   24.1512 C   0  0  0  0  0  0
    3.5136   52.8965   22.3121 N   0  3  2  0  0  0
    4.9265   52.6351   21.7571 C   0  0  0  0  0  0
    4.7390   51.6392   20.6159 C   0  0  0  0  0  0
    3.2477   51.5800   20.2600 C   0  0  1  0  0  0
    2.8174   50.6578   20.6572 H   0  0  0  0  0  0
    2.6406   52.7520   21.0491 C   0  0  0  0  0  0
    3.1043   51.6968   18.8093 N   0  0  0  0  0  0
    1.9691   51.9983   18.1327 C   0  0  0  0  0  0
    0.8860   52.1310   18.7129 O   0  0  0  0  0  0
    2.0763   52.2016   16.6449 C   0  0  0  0  0  0
    1.0646   52.4772   15.9931 O   0  0  0  0  0  0
    3.3222   52.0961   16.1142 N   0  0  0  0  0  0
    3.7160   52.2718   14.7957 C   0  0  0  0  0  0
    4.9645   52.0756   14.4810 N   0  0  0  0  0  0
    5.1842   52.2824   13.1557 C   0  0  0  0  0  0
    6.4275   52.1414   12.5203 C   0  0  0  0  0  0
    6.5037   52.3923   11.1489 C   0  0  0  0  0  0
    5.3776   52.7758   10.4206 C   0  0  0  0  0  0
    4.1290   52.9203   11.0288 C   0  0  0  0  0  0
    4.0417   52.6696   12.4052 C   0  0  0  0  0  0
    2.6528   52.7543   13.4764 S   0  0  0  0  0  0
    1.7288   55.2967   24.0803 H   0  0  0  0  0  0
    1.2755   54.6033   22.5421 H   0  0  0  0  0  0
    1.4343   53.5667   23.9589 H   0  0  0  0  0  0
    2.8092   53.7277   25.8157 H   0  0  0  0  0  0
    4.3427   53.8926   27.7150 H   0  0  0  0  0  0
    6.6963   54.5466   27.3633 H   0  0  0  0  0  0
    7.5141   55.0504   25.0684 H   0  0  0  0  0  0
    6.0047   54.9051   23.1674 H   0  0  0  0  0  0
    5.5791   52.3023   22.5617 H   0  0  0  0  0  0
    5.2874   53.5933   21.3794 H   0  0  0  0  0  0
    5.1043   50.6510   20.8816 H   0  0  0  0  0  0
    5.3511   51.9890   19.7824 H   0  0  0  0  0  0
    2.7170   53.6967   20.5115 H   0  0  0  0  0  0
    1.5986   52.6093   21.3409 H   0  0  0  0  0  0
    3.9644   51.4766   18.3100 H   0  0  0  0  0  0
    4.0762   51.8045   16.7179 H   0  0  0  0  0  0
    7.3055   51.8472   13.0777 H   0  0  0  0  0  0
    7.4529   52.2921   10.6412 H   0  0  0  0  0  0
    5.4751   52.9671    9.3600 H   0  0  0  0  0  0
    3.2607   53.2173   10.4580 H   0  0  0  0  0  0
    3.2642   52.1554   22.9523 H   0  0  0  0  0  0
  1  2  1  0  0  0
  1 31  1  0  0  0
  1 32  1  0  0  0
  1 33  1  0  0  0
  2  3  1  0  0  0
  2  4  1  0  0  0
  2 10  1  0  0  0
  4  9  2  0  0  0
  4  5  1  0  0  0
  5  6  2  0  0  0
  5 34  1  0  0  0
  6  7  1  0  0  0
  6 35  1  0  0  0
  7  8  2  0  0  0
  7 36  1  0  0  0
  8  9  1  0  0  0
  8 37  1  0  0  0
  9 38  1  0  0  0
 10 15  1  0  0  0
 10 11  1  0  0  0
 10 51  1  0  0  0
 11 12  1  0  0  0
 11 39  1  0  0  0
 11 40  1  0  0  0
 12 13  1  0  0  0
 12 41  1  0  0  0
 12 42  1  0  0  0
 13 14  1  0  0  0
 13 15  1  0  0  0
 13 16  1  0  0  0
 15 43  1  0  0  0
 15 44  1  0  0  0
 16 17  1  0  0  0
 16 45  1  0  0  0
 17 18  2  0  0  0
 17 19  1  0  0  0
 19 20  2  0  0  0
 19 21  1  0  0  0
 21 22  1  0  0  0
 21 46  1  0  0  0
 22 30  1  0  0  0
 22 23  2  0  0  0
 23 24  1  0  0  0
 24 29  2  0  0  0
 24 25  1  0  0  0
 25 26  2  0  0  0
 25 47  1  0  0  0
 26 27  1  0  0  0
 26 48  1  0  0  0
 27 28  2  0  0  0
 27 49  1  0  0  0
 28 29  1  0  0  0
 28 50  1  0  0  0
 29 30  1  0  0  0
M  CHG  1  10   1
M  END
> <i_i_glide_confnum>
4

> <i_i_glide_lignum>
230

> <i_i_glide_posenum>
167

> <i_i_glide_rotatable_bonds>
7

> <i_m_Source_File_Index>
26

> <b_m_subgroup_collapsed>
0

> <r_i_docking_score>
-4.23413

> <r_i_glide_ecoul>
-3.25021

> <r_i_glide_eff_state_penalty>
0

> <r_i_glide_einternal>
3.25404

> <r_i_glide_emodel>
-39.3549

> <r_i_glide_energy>
-28.5494

> <r_i_glide_erotb>
0.750118

> <r_i_glide_esite>
-0.25369

> <r_i_glide_evdw>
-25.2992

> <r_i_glide_gscore>
-4.23413

> <r_i_glide_hbond>
-0.168313

> <r_i_glide_ligand_efficiency>
-0.151219

> <r_i_glide_ligand_efficiency_ln>
-0.97736

> <r_i_glide_ligand_efficiency_sa>
-0.459189

> <r_i_glide_lipo>
-2.01409

> <r_i_glide_metal>
0

> <r_i_glide_rewards>
-0.795658

> <s_i_glide_gridfile>
wee1_glide-grid

> <s_m_Source_File>
wee1_decoys_glide_SP.sdf

> <s_m_Source_Path>
/Users/zhangxujun/Desktop

> <s_m_entry_id>
301

> <s_m_entry_name>
wee1_decoys_glide_SP.26

> <s_m_subgroup_title>
wee1_decoys_glide_SP

> <s_m_subgroupid>
wee1_decoys_glide_SP


$$$$
