ZINC32962147_5823
                    3D
 Schrodinger Suite 2024-2.
 56 59  0  0  1  0            999 V2000
   -0.2701   48.3717   23.9640 C   0  0  0  0  0  0
    0.5160   49.4750   23.6551 C   0  0  0  0  0  0
    0.1176   50.4095   22.6963 C   0  0  0  0  0  0
   -1.1099   50.1995   22.0131 C   0  0  0  0  0  0
   -1.8653   49.0493   22.3288 C   0  0  0  0  0  0
   -1.4714   48.1178   23.3058 C   0  0  0  0  0  0
   -2.1259   46.9642   23.6741 N   0  5  0  0  0  0
   -3.4895   46.4226   23.1171 S   0  0  0  0  0  0
   -4.0958   45.4417   24.0261 O   0  0  0  0  0  0
   -4.3905   47.4202   22.5331 O   0  0  0  0  0  0
   -3.0238   45.3980   21.6961 C   0  0  0  0  0  0
   -1.9161   45.5742   20.8739 C   0  0  0  0  0  0
   -1.8334   44.6068   19.8660 C   0  0  0  0  0  0
   -2.8817   43.6954   19.9118 C   0  0  0  0  0  0
   -3.9893   44.0437   21.1989 S   0  0  0  0  0  0
   -3.1556   42.3497   18.8767 Cl  0  0  0  0  0  0
   -1.6570   51.1403   20.9718 C   0  0  0  0  0  0
   -0.8698   51.7209   20.1940 O   0  0  0  0  0  0
   -2.8948   51.3006   20.9340 O   0  5  0  0  0  0
    0.9987   51.4748   22.5385 N   0  0  0  0  0  0
    1.9586   51.5061   21.4274 C   0  0  0  0  0  0
    3.2075   52.3344   21.8048 C   0  0  0  0  0  0
    2.9262   53.7035   22.4907 C   0  0  0  0  0  0
    1.6672   53.6644   23.3925 C   0  0  0  0  0  0
    0.5431   52.8472   22.7604 C   0  0  0  0  0  0
    4.1654   54.3010   23.2337 N   0  3  0  0  0  0
    4.1816   54.0974   24.7754 C   0  0  0  0  0  0
    5.3974   54.7927   25.3998 C   0  0  0  0  0  0
    6.7040   54.3727   24.7320 C   0  0  0  0  0  0
    6.6696   54.6764   23.2281 C   0  0  0  0  0  0
    5.5072   53.9644   22.5270 C   0  0  0  0  0  0
    0.0832   47.6910   24.7267 H   0  0  0  0  0  0
    1.4465   49.6073   24.1897 H   0  0  0  0  0  0
   -2.7806   48.8912   21.7822 H   0  0  0  0  0  0
   -1.1935   46.3661   21.0080 H   0  0  0  0  0  0
   -1.0400   44.5759   19.1334 H   0  0  0  0  0  0
    1.5066   51.8815   20.5091 H   0  0  0  0  0  0
    2.2773   50.4831   21.2214 H   0  0  0  0  0  0
    3.8726   52.4503   20.9476 H   0  0  0  0  0  0
    3.7520   51.6965   22.4817 H   0  0  0  0  0  0
    2.6999   54.3943   21.6827 H   0  0  0  0  0  0
    1.8685   53.1655   24.3394 H   0  0  0  0  0  0
    1.3495   54.6728   23.6601 H   0  0  0  0  0  0
    0.3052   53.2958   21.7970 H   0  0  0  0  0  0
   -0.3484   52.8750   23.3910 H   0  0  0  0  0  0
    4.1344   53.0296   24.9791 H   0  0  0  0  0  0
    3.2968   54.5948   25.1755 H   0  0  0  0  0  0
    5.4395   54.5621   26.4677 H   0  0  0  0  0  0
    5.2771   55.8748   25.3302 H   0  0  0  0  0  0
    7.5201   54.9127   25.1983 H   0  0  0  0  0  0
    6.8939   53.3081   24.8991 H   0  0  0  0  0  0
    6.6112   55.7545   23.0619 H   0  0  0  0  0  0
    7.6073   54.3543   22.7720 H   0  0  0  0  0  0
    5.6457   52.8835   22.5465 H   0  0  0  0  0  0
    5.4131   54.3193   21.5002 H   0  0  0  0  0  0
    4.0763   55.3013   23.1310 H   0  0  0  0  0  0
  1  6  2  0  0  0
  1  2  1  0  0  0
  1 32  1  0  0  0
  2  3  2  0  0  0
  2 33  1  0  0  0
  3  4  1  0  0  0
  3 20  1  0  0  0
  4  5  2  0  0  0
  4 17  1  0  0  0
  5  6  1  0  0  0
  5 34  1  0  0  0
  6  7  1  0  0  0
  7  8  1  0  0  0
  8  9  2  0  0  0
  8 10  2  0  0  0
  8 11  1  0  0  0
 11 15  1  0  0  0
 11 12  2  0  0  0
 12 13  1  0  0  0
 12 35  1  0  0  0
 13 14  2  0  0  0
 13 36  1  0  0  0
 14 15  1  0  0  0
 14 16  1  0  0  0
 17 18  2  0  0  0
 17 19  1  0  0  0
 20 25  1  0  0  0
 20 21  1  0  0  0
 21 22  1  0  0  0
 21 37  1  0  0  0
 21 38  1  0  0  0
 22 23  1  0  0  0
 22 39  1  0  0  0
 22 40  1  0  0  0
 23 24  1  0  0  0
 23 26  1  0  0  0
 23 41  1  0  0  0
 24 25  1  0  0  0
 24 42  1  0  0  0
 24 43  1  0  0  0
 25 44  1  0  0  0
 25 45  1  0  0  0
 26 31  1  0  0  0
 26 27  1  0  0  0
 26 56  1  0  0  0
 27 28  1  0  0  0
 27 46  1  0  0  0
 27 47  1  0  0  0
 28 29  1  0  0  0
 28 48  1  0  0  0
 28 49  1  0  0  0
 29 30  1  0  0  0
 29 50  1  0  0  0
 29 51  1  0  0  0
 30 31  1  0  0  0
 30 52  1  0  0  0
 30 53  1  0  0  0
 31 54  1  0  0  0
 31 55  1  0  0  0
M  CHG  3   7  -1  19  -1  26   1
M  END
> <i_i_glide_confnum>
184

> <i_i_glide_lignum>
5824

> <i_i_glide_posenum>
305

> <i_i_glide_rotatable_bonds>
6

> <i_m_Source_File_Index>
593

> <b_m_subgroup_collapsed>
0

> <r_i_docking_score>
-3.26794

> <r_i_glide_ecoul>
-3.43548

> <r_i_glide_eff_state_penalty>
0

> <r_i_glide_einternal>
13.3884

> <r_i_glide_emodel>
-34.1081

> <r_i_glide_energy>
-32.8492

> <r_i_glide_erotb>
0.434989

> <r_i_glide_esite>
-0.0832947

> <r_i_glide_evdw>
-29.4137

> <r_i_glide_gscore>
-3.26794

> <r_i_glide_hbond>
0

> <r_i_glide_ligand_efficiency>
-0.105417

> <r_i_glide_ligand_efficiency_ln>
-0.73702

> <r_i_glide_ligand_efficiency_sa>
-0.331156

> <r_i_glide_lipo>
-1.86873

> <r_i_glide_metal>
0

> <r_i_glide_rewards>
0.235109

> <s_i_glide_gridfile>
wee1_glide-grid

> <s_m_Source_File>
wee1_decoys_glide_SP.sdf

> <s_m_Source_Path>
/Users/zhangxujun/Desktop

> <s_m_entry_id>
868

> <s_m_entry_name>
wee1_decoys_glide_SP.593

> <s_m_subgroup_title>
wee1_decoys_glide_SP

> <s_m_subgroupid>
wee1_decoys_glide_SP


$$$$
