ZINC00930813_1056
                    3D
 Schrodinger Suite 2024-2.
 75 79  0  0  1  0            999 V2000
    3.9176   51.3942   20.1221 C   0  0  0  0  0  0
    2.9425   51.6244   21.2528 C   0  0  0  0  0  0
    2.2288   50.5501   21.7757 C   0  0  0  0  0  0
    1.2943   50.7711   22.7800 C   0  0  0  0  0  0
    1.0888   52.0553   23.3022 C   0  0  0  0  0  0
    1.8005   53.1258   22.7511 C   0  0  0  0  0  0
    2.7200   52.9134   21.7293 C   0  0  0  0  0  0
    0.0250   52.3562   24.3496 C   0  0  1  0  0  0
    0.2178   53.3716   24.6973 H   0  0  0  0  0  0
   -1.3852   52.4949   23.6924 C   0  0  0  0  0  0
   -1.5360   52.2459   22.4929 O   0  0  0  0  0  0
   -2.4064   52.8972   24.4726 N   0  0  0  0  0  0
   -3.7633   53.1404   23.9686 C   0  0  0  0  0  0
   -4.7625   52.0025   24.3182 C   0  0  0  0  0  0
   -5.2357   51.9784   25.7940 C   0  0  0  0  0  0
   -5.6935   53.3590   26.3003 C   0  0  0  0  0  0
   -4.6496   54.4475   25.9938 C   0  0  0  0  0  0
   -4.3564   54.4734   24.4821 C   0  0  0  0  0  0
    0.1039   51.4705   25.5632 N   0  0  0  0  0  0
   -0.6767   50.2804   25.6135 C   0  0  0  0  0  0
   -1.9951   50.3347   26.0763 C   0  0  0  0  0  0
   -2.7976   49.1979   26.0810 C   0  0  0  0  0  0
   -2.2564   47.9729   25.6684 C   0  0  0  0  0  0
   -0.9327   47.9119   25.2293 C   0  0  0  0  0  0
   -0.1358   49.0525   25.2271 C   0  0  0  0  0  0
   -2.9178   46.7477   25.8418 N   0  0  0  0  0  0
   -4.2462   46.5131   25.8559 C   0  0  0  0  0  0
   -5.1129   47.3383   25.5701 O   0  0  0  0  0  0
   -4.6655   45.0984   26.2479 C   0  0  0  0  0  0
    0.6959   51.8742   26.7439 C   0  0  0  0  0  0
    0.4459   51.2968   27.8084 O   0  0  0  0  0  0
    1.6937   53.0791   26.8492 C   0  0  1  0  0  0
    1.1043   53.9921   26.8766 H   0  0  0  0  0  0
    2.5427   52.9590   28.1586 C   0  0  0  0  0  0
    3.4557   54.0480   28.2590 O   0  0  0  0  0  0
    4.1894   54.2321   27.1090 C   0  0  0  0  0  0
    5.4155   54.8848   27.2271 C   0  0  0  0  0  0
    6.1697   55.1474   26.0842 C   0  0  0  0  0  0
    5.7045   54.7557   24.8299 C   0  0  0  0  0  0
    4.4803   54.0959   24.7127 C   0  0  0  0  0  0
    3.7125   53.8322   25.8485 C   0  0  0  0  0  0
    2.5466   53.0962   25.6934 O   0  0  0  0  0  0
    4.1136   52.3056   19.5563 H   0  0  0  0  0  0
    4.8601   50.9981   20.4970 H   0  0  0  0  0  0
    3.5005   50.6752   19.4151 H   0  0  0  0  0  0
    2.3689   49.5537   21.3811 H   0  0  0  0  0  0
    0.6902   49.9404   23.0882 H   0  0  0  0  0  0
    1.6305   54.1350   23.1009 H   0  0  0  0  0  0
    3.2467   53.7545   21.3009 H   0  0  0  0  0  0
   -2.2504   53.0352   25.4593 H   0  0  0  0  0  0
   -3.6938   53.2324   22.8852 H   0  0  0  0  0  0
   -4.3322   51.0358   24.0487 H   0  0  0  0  0  0
   -5.6425   52.1016   23.6812 H   0  0  0  0  0  0
   -4.4426   51.6264   26.4448 H   0  0  0  0  0  0
   -6.0461   51.2561   25.9073 H   0  0  0  0  0  0
   -5.8923   53.3156   27.3709 H   0  0  0  0  0  0
   -6.6430   53.6201   25.8289 H   0  0  0  0  0  0
   -3.7286   54.2458   26.5415 H   0  0  0  0  0  0
   -4.9985   55.4164   26.3452 H   0  0  0  0  0  0
   -5.2814   54.6878   23.9437 H   0  0  0  0  0  0
   -3.6952   55.2965   24.2275 H   0  0  0  0  0  0
   -2.3797   51.2591   26.4709 H   0  0  0  0  0  0
   -3.7944   49.2592   26.4898 H   0  0  0  0  0  0
   -0.4889   46.9668   24.9569 H   0  0  0  0  0  0
    0.9062   48.9665   24.9531 H   0  0  0  0  0  0
   -2.2994   45.9799   26.0504 H   0  0  0  0  0  0
   -4.9238   44.5145   25.3635 H   0  0  0  0  0  0
   -3.8802   44.5821   26.8029 H   0  0  0  0  0  0
   -5.5437   45.1387   26.8907 H   0  0  0  0  0  0
    1.9151   52.9844   29.0516 H   0  0  0  0  0  0
    3.1108   52.0262   28.1557 H   0  0  0  0  0  0
    5.7737   55.2008   28.1970 H   0  0  0  0  0  0
    7.1050   55.6719   26.1749 H   0  0  0  0  0  0
    6.2946   54.9590   23.9474 H   0  0  0  0  0  0
    4.1541   53.7662   23.7424 H   0  0  0  0  0  0
  1  2  1  0  0  0
  1 43  1  0  0  0
  1 44  1  0  0  0
  1 45  1  0  0  0
  2  7  2  0  0  0
  2  3  1  0  0  0
  3  4  2  0  0  0
  3 46  1  0  0  0
  4  5  1  0  0  0
  4 47  1  0  0  0
  5  6  2  0  0  0
  5  8  1  0  0  0
  6  7  1  0  0  0
  6 48  1  0  0  0
  7 49  1  0  0  0
  8  9  1  0  0  0
  8 10  1  0  0  0
  8 19  1  0  0  0
 10 11  2  0  0  0
 10 12  1  0  0  0
 12 13  1  0  0  0
 12 50  1  0  0  0
 13 18  1  0  0  0
 13 14  1  0  0  0
 13 51  1  0  0  0
 14 15  1  0  0  0
 14 52  1  0  0  0
 14 53  1  0  0  0
 15 16  1  0  0  0
 15 54  1  0  0  0
 15 55  1  0  0  0
 16 17  1  0  0  0
 16 56  1  0  0  0
 16 57  1  0  0  0
 17 18  1  0  0  0
 17 58  1  0  0  0
 17 59  1  0  0  0
 18 60  1  0  0  0
 18 61  1  0  0  0
 19 20  1  0  0  0
 19 30  1  0  0  0
 20 25  2  0  0  0
 20 21  1  0  0  0
 21 22  2  0  0  0
 21 62  1  0  0  0
 22 23  1  0  0  0
 22 63  1  0  0  0
 23 24  2  0  0  0
 23 26  1  0  0  0
 24 25  1  0  0  0
 24 64  1  0  0  0
 25 65  1  0  0  0
 26 27  1  0  0  0
 26 66  1  0  0  0
 27 28  2  0  0  0
 27 29  1  0  0  0
 29 67  1  0  0  0
 29 68  1  0  0  0
 29 69  1  0  0  0
 30 31  2  0  0  0
 30 32  1  0  0  0
 32 33  1  0  0  0
 32 42  1  0  0  0
 32 34  1  0  0  0
 34 35  1  0  0  0
 34 70  1  0  0  0
 34 71  1  0  0  0
 35 36  1  0  0  0
 36 41  2  0  0  0
 36 37  1  0  0  0
 37 38  2  0  0  0
 37 72  1  0  0  0
 38 39  1  0  0  0
 38 73  1  0  0  0
 39 40  2  0  0  0
 39 74  1  0  0  0
 40 41  1  0  0  0
 40 75  1  0  0  0
 41 42  1  0  0  0
M  END
> <i_i_glide_confnum>
408

> <i_i_glide_lignum>
1057

> <i_i_glide_posenum>
65

> <i_i_glide_rotatable_bonds>
10

> <i_m_Source_File_Index>
1871

> <b_m_subgroup_collapsed>
0

> <r_i_docking_score>
-2.82299

> <r_i_glide_ecoul>
1.22998

> <r_i_glide_eff_state_penalty>
0

> <r_i_glide_einternal>
17.0596

> <r_i_glide_emodel>
-37.9899

> <r_i_glide_energy>
-45.017

> <r_i_glide_erotb>
0.563972

> <r_i_glide_esite>
-0.142803

> <r_i_glide_evdw>
-46.247

> <r_i_glide_gscore>
-2.82299

> <r_i_glide_hbond>
0

> <r_i_glide_ligand_efficiency>
-0.0705748

> <r_i_glide_ligand_efficiency_ln>
-0.602061

> <r_i_glide_ligand_efficiency_sa>
-0.241363

> <r_i_glide_lipo>
-3.05011

> <r_i_glide_metal>
0

> <r_i_glide_rewards>
1.93379

> <s_i_glide_gridfile>
wee1_glide-grid

> <s_m_Source_File>
wee1_decoys_glide_SP.sdf

> <s_m_Source_Path>
/Users/zhangxujun/Desktop

> <s_m_entry_id>
2146

> <s_m_entry_name>
wee1_decoys_glide_SP.1871

> <s_m_subgroup_title>
wee1_decoys_glide_SP

> <s_m_subgroupid>
wee1_decoys_glide_SP


$$$$
