ZINC64531536_5873
                    3D
 Schrodinger Suite 2024-2.
 57 59  0  0  1  0            999 V2000
    7.1649   53.6536   28.2415 C   0  0  0  0  0  0
    5.7709   54.2542   28.0422 C   0  0  0  0  0  0
    5.3161   54.1500   26.6577 N   0  0  0  0  0  0
    5.8192   54.8445   25.6210 C   0  0  0  0  0  0
    6.7044   55.6943   25.7385 O   0  0  0  0  0  0
    5.2663   54.4935   24.2653 C   0  0  0  0  0  0
    6.0880   54.5820   23.1378 C   0  0  0  0  0  0
    5.5850   54.2796   21.8763 C   0  0  0  0  0  0
    4.2695   53.8444   21.7115 C   0  0  0  0  0  0
    3.4158   53.7826   22.8360 C   0  0  0  0  0  0
    3.9308   54.0972   24.0990 C   0  0  0  0  0  0
    1.9281   53.4669   22.7516 C   0  0  0  0  0  0
    3.9067   53.5650   20.3840 N   0  0  0  0  0  0
    3.2408   52.4985   19.8964 C   0  0  0  0  0  0
    2.7175   51.6387   20.6086 O   0  0  0  0  0  0
    3.1064   52.5057   18.5465 N   0  0  0  0  0  0
    1.9776   51.8344   17.8917 C   0  0  0  0  0  0
    2.0687   52.3209   16.4473 C   0  0  0  0  0  0
    3.5592   52.4947   16.2212 C   0  0  0  0  0  0
    4.1093   52.9956   17.5655 C   0  0  1  0  0  0
    4.4644   54.4869   17.6025 C   0  0  0  0  0  0
    3.5157   55.4778   17.3387 C   0  0  0  0  0  0
    3.8973   56.8179   17.2993 C   0  0  0  0  0  0
    5.2211   57.1898   17.5489 C   0  0  0  0  0  0
    6.1748   56.2014   17.8388 C   0  0  0  0  0  0
    5.7890   54.8591   17.8549 C   0  0  0  0  0  0
    7.6257   56.5617   18.1289 C   0  0  0  0  0  0
    5.5996   58.6617   17.4774 C   0  0  0  0  0  0
    7.4793   53.7042   29.2817 H   0  0  0  0  0  0
    7.9040   54.2010   27.6593 H   0  0  0  0  0  0
    7.1982   52.6075   27.9386 H   0  0  0  0  0  0
    5.0571   53.7347   28.6800 H   0  0  0  0  0  0
    5.7626   55.2956   28.3651 H   0  0  0  0  0  0
    4.6376   53.4301   26.4596 H   0  0  0  0  0  0
    7.1192   54.8978   23.2306 H   0  0  0  0  0  0
    6.2404   54.3721   21.0211 H   0  0  0  0  0  0
    3.2677   54.0606   24.9518 H   0  0  0  0  0  0
    1.5143   53.6966   21.7694 H   0  0  0  0  0  0
    1.7506   52.4133   22.9794 H   0  0  0  0  0  0
    1.3601   54.0692   23.4641 H   0  0  0  0  0  0
    4.3063   54.1739   19.6842 H   0  0  0  0  0  0
    2.1411   50.7563   17.9430 H   0  0  0  0  0  0
    1.0234   52.0857   18.3580 H   0  0  0  0  0  0
    1.6074   51.6226   15.7483 H   0  0  0  0  0  0
    1.5487   53.2725   16.3410 H   0  0  0  0  0  0
    4.0321   51.5514   15.9507 H   0  0  0  0  0  0
    3.7645   53.1861   15.4022 H   0  0  0  0  0  0
    5.0562   52.4966   17.7726 H   0  0  0  0  0  0
    2.4881   55.2116   17.1459 H   0  0  0  0  0  0
    3.1532   57.5695   17.0732 H   0  0  0  0  0  0
    6.5307   54.0980   18.0533 H   0  0  0  0  0  0
    8.0953   56.9927   17.2427 H   0  0  0  0  0  0
    7.6772   57.3086   18.9222 H   0  0  0  0  0  0
    8.2138   55.7012   18.4511 H   0  0  0  0  0  0
    5.9080   59.0254   18.4581 H   0  0  0  0  0  0
    6.4363   58.8103   16.7969 H   0  0  0  0  0  0
    4.7800   59.2865   17.1212 H   0  0  0  0  0  0
  1  2  1  0  0  0
  1 29  1  0  0  0
  1 30  1  0  0  0
  1 31  1  0  0  0
  2  3  1  0  0  0
  2 32  1  0  0  0
  2 33  1  0  0  0
  3  4  1  0  0  0
  3 34  1  0  0  0
  4  5  2  0  0  0
  4  6  1  0  0  0
  6 11  2  0  0  0
  6  7  1  0  0  0
  7  8  2  0  0  0
  7 35  1  0  0  0
  8  9  1  0  0  0
  8 36  1  0  0  0
  9 10  2  0  0  0
  9 13  1  0  0  0
 10 11  1  0  0  0
 10 12  1  0  0  0
 11 37  1  0  0  0
 12 38  1  0  0  0
 12 39  1  0  0  0
 12 40  1  0  0  0
 13 14  1  0  0  0
 13 41  1  0  0  0
 14 15  2  0  0  0
 14 16  1  0  0  0
 16 20  1  0  0  0
 16 17  1  0  0  0
 17 18  1  0  0  0
 17 42  1  0  0  0
 17 43  1  0  0  0
 18 19  1  0  0  0
 18 44  1  0  0  0
 18 45  1  0  0  0
 19 20  1  0  0  0
 19 46  1  0  0  0
 19 47  1  0  0  0
 20 21  1  0  0  0
 20 48  1  0  0  0
 21 26  2  0  0  0
 21 22  1  0  0  0
 22 23  2  0  0  0
 22 49  1  0  0  0
 23 24  1  0  0  0
 23 50  1  0  0  0
 24 25  2  0  0  0
 24 28  1  0  0  0
 25 26  1  0  0  0
 25 27  1  0  0  0
 26 51  1  0  0  0
 27 52  1  0  0  0
 27 53  1  0  0  0
 27 54  1  0  0  0
 28 55  1  0  0  0
 28 56  1  0  0  0
 28 57  1  0  0  0
M  END
> <i_i_glide_confnum>
130

> <i_i_glide_lignum>
5874

> <i_i_glide_posenum>
159

> <i_i_glide_rotatable_bonds>
7

> <i_m_Source_File_Index>
2438

> <b_m_subgroup_collapsed>
0

> <r_i_docking_score>
-5.55296

> <r_i_glide_ecoul>
-4.95724

> <r_i_glide_eff_state_penalty>
0

> <r_i_glide_einternal>
19.345

> <r_i_glide_emodel>
-47.4506

> <r_i_glide_energy>
-42.6856

> <r_i_glide_erotb>
0.807842

> <r_i_glide_esite>
-0.0865528

> <r_i_glide_evdw>
-37.7284

> <r_i_glide_gscore>
-5.55296

> <r_i_glide_hbond>
-0.32

> <r_i_glide_ligand_efficiency>
-0.19832

> <r_i_glide_ligand_efficiency_ln>
-1.28179

> <r_i_glide_ligand_efficiency_sa>
-0.602216

> <r_i_glide_lipo>
-2.05377

> <r_i_glide_metal>
0

> <r_i_glide_rewards>
-1.27048

> <s_i_glide_gridfile>
wee1_glide-grid

> <s_m_Source_File>
wee1_decoys_glide_SP.sdf

> <s_m_Source_Path>
/Users/zhangxujun/Desktop

> <s_m_entry_id>
2713

> <s_m_entry_name>
wee1_decoys_glide_SP.2438

> <s_m_subgroup_title>
wee1_decoys_glide_SP

> <s_m_subgroupid>
wee1_decoys_glide_SP


$$$$
