ZINC13466333_45
                    3D
 Schrodinger Suite 2024-2.
 41 42  0  0  1  0            999 V2000
   -0.6951   52.4682   24.5032 C   0  0  0  0  0  0
   -2.0176   51.8743   23.3159 S   0  0  2  0  0  0
   -1.3711   52.0967   21.9299 N   0  0  0  0  0  0
    0.0535   51.1517   21.5312 S   0  0  0  0  0  0
    0.0915   50.6681   20.1492 O   0  0  0  0  0  0
    0.5375   50.1955   22.5322 O   0  0  0  0  0  0
    1.1817   52.4969   21.5328 N   0  0  0  0  0  0
    2.2085   52.7280   22.4679 C   0  0  0  0  0  0
    2.2974   52.0969   23.5169 O   0  0  0  0  0  0
    3.0814   53.6753   22.0800 N   0  0  0  0  0  0
    4.2382   54.0797   22.7693 C   0  0  0  0  0  0
    5.3298   54.4928   22.0010 C   0  0  0  0  0  0
    6.5104   54.8965   22.6224 C   0  0  0  0  0  0
    6.5990   54.8990   24.0133 C   0  0  0  0  0  0
    5.5192   54.4965   24.8039 C   0  0  0  0  0  0
    4.3359   54.0970   24.1726 C   0  0  0  0  0  0
    5.6201   54.5090   26.3310 C   0  0  0  0  0  0
    4.4698   54.8964   26.8812 F   0  0  0  0  0  0
    6.5931   55.3152   26.7523 F   0  0  0  0  0  0
    5.9006   53.2968   26.7845 F   0  0  0  0  0  0
   -3.2956   52.4913   23.6828 O   0  0  0  0  0  0
   -2.1960   50.1005   23.5532 C   0  0  0  0  0  0
   -2.0480   49.5603   24.8351 C   0  0  0  0  0  0
   -2.2108   48.1925   25.0345 C   0  0  0  0  0  0
   -2.5529   47.3757   23.9591 C   0  0  0  0  0  0
   -2.7443   47.9149   22.6874 C   0  0  0  0  0  0
   -2.5780   49.2831   22.4856 C   0  0  0  0  0  0
    0.0764   51.7072   24.5854 H   0  0  0  0  0  0
   -0.2799   53.3924   24.1062 H   0  0  0  0  0  0
   -1.1519   52.6310   25.4766 H   0  0  0  0  0  0
    1.0503   53.1458   20.7543 H   0  0  0  0  0  0
    2.9419   54.0802   21.1650 H   0  0  0  0  0  0
    5.2728   54.4922   20.9215 H   0  0  0  0  0  0
    7.3575   55.2122   22.0308 H   0  0  0  0  0  0
    7.5091   55.2296   24.4798 H   0  0  0  0  0  0
    3.4966   53.8019   24.7849 H   0  0  0  0  0  0
   -1.7903   50.1820   25.6800 H   0  0  0  0  0  0
   -2.0726   47.7731   26.0232 H   0  0  0  0  0  0
   -2.6807   46.3164   24.1179 H   0  0  0  0  0  0
   -3.0225   47.2775   21.8608 H   0  0  0  0  0  0
   -2.7286   49.7070   21.5024 H   0  0  0  0  0  0
  1  2  1  0  0  0
  1 28  1  0  0  0
  1 29  1  0  0  0
  1 30  1  0  0  0
  2  3  2  0  0  0
  2 21  2  0  0  0
  2 22  1  0  0  0
  3  4  1  0  0  0
  4  5  2  0  0  0
  4  6  2  0  0  0
  4  7  1  0  0  0
  7  8  1  0  0  0
  7 31  1  0  0  0
  8  9  2  0  0  0
  8 10  1  0  0  0
 10 11  1  0  0  0
 10 32  1  0  0  0
 11 16  2  0  0  0
 11 12  1  0  0  0
 12 13  2  0  0  0
 12 33  1  0  0  0
 13 14  1  0  0  0
 13 34  1  0  0  0
 14 15  2  0  0  0
 14 35  1  0  0  0
 15 16  1  0  0  0
 15 17  1  0  0  0
 16 36  1  0  0  0
 17 18  1  0  0  0
 17 19  1  0  0  0
 17 20  1  0  0  0
 22 27  2  0  0  0
 22 23  1  0  0  0
 23 24  2  0  0  0
 23 37  1  0  0  0
 24 25  1  0  0  0
 24 38  1  0  0  0
 25 26  2  0  0  0
 25 39  1  0  0  0
 26 27  1  0  0  0
 26 40  1  0  0  0
 27 41  1  0  0  0
M  END
> <i_i_glide_confnum>
2

> <i_i_glide_lignum>
46

> <i_i_glide_posenum>
250

> <i_i_glide_rotatable_bonds>
7

> <i_m_Source_File_Index>
5417

> <b_m_subgroup_collapsed>
0

> <r_i_docking_score>
-6.09633

> <r_i_glide_ecoul>
-8.63296

> <r_i_glide_eff_state_penalty>
0

> <r_i_glide_einternal>
4.83596

> <r_i_glide_emodel>
-55.4792

> <r_i_glide_energy>
-41.8988

> <r_i_glide_erotb>
0.557493

> <r_i_glide_esite>
-0.0134846

> <r_i_glide_evdw>
-33.2658

> <r_i_glide_gscore>
-6.09633

> <r_i_glide_hbond>
-0.304041

> <r_i_glide_ligand_efficiency>
-0.22579

> <r_i_glide_ligand_efficiency_ln>
-1.41912

> <r_i_glide_ligand_efficiency_sa>
-0.67737

> <r_i_glide_lipo>
-1.88573

> <r_i_glide_metal>
0

> <r_i_glide_rewards>
-1.49233

> <s_i_glide_gridfile>
wee1_glide-grid

> <s_m_Source_File>
wee1_decoys_glide_SP.sdf

> <s_m_Source_Path>
/Users/zhangxujun/Desktop

> <s_m_entry_id>
5692

> <s_m_entry_name>
wee1_decoys_glide_SP.5417

> <s_m_subgroup_title>
wee1_decoys_glide_SP

> <s_m_subgroupid>
wee1_decoys_glide_SP


$$$$
