ZINC49560642_1603
                    3D
 Schrodinger Suite 2024-2.
 39 40  0  0  1  0            999 V2000
    5.9048   54.6972   28.0184 C   0  0  0  0  0  0
    5.2424   54.4962   26.6709 C   0  0  0  0  0  0
    3.8643   54.3037   26.5930 C   0  0  0  0  0  0
    3.2671   54.0551   25.3616 C   0  0  0  0  0  0
    4.0404   53.9906   24.1935 C   0  0  0  0  0  0
    5.4212   54.2167   24.2834 C   0  0  0  0  0  0
    6.0191   54.4754   25.5135 C   0  0  0  0  0  0
    3.4205   53.5580   22.8523 C   0  0  2  0  0  0
    3.6528   52.4967   22.7710 H   0  0  0  0  0  0
    4.0211   54.2160   21.5996 C   0  0  0  0  0  0
    1.9406   53.6568   22.8195 N   0  0  0  0  0  0
    1.0149   52.1605   22.9271 S   0  0  0  0  0  0
    1.5038   51.4022   24.0819 O   0  0  0  0  0  0
   -0.4059   52.4964   22.7924 O   0  0  0  0  0  0
    1.4663   51.2525   21.4558 C   0  0  0  0  0  0
    1.9337   49.9361   21.5269 C   0  0  0  0  0  0
    2.2856   49.2967   20.3372 C   0  0  0  0  0  0
    2.2028   49.8978   19.1230 N   0  0  0  0  0  0
    1.7726   51.1892   19.0677 C   0  0  0  0  0  0
    1.3742   51.8814   20.2112 C   0  0  0  0  0  0
    1.6912   51.8349   17.8261 N   0  0  0  0  0  0
    2.3043   51.2967   16.6274 N   0  0  0  0  0  0
    5.2173   54.5377   28.8495 H   0  0  0  0  0  0
    6.7390   54.0047   28.1398 H   0  0  0  0  0  0
    6.3042   55.7050   28.0816 H   0  0  0  0  0  0
    3.2557   54.3175   27.4854 H   0  0  0  0  0  0
    2.2040   53.8669   25.3355 H   0  0  0  0  0  0
    6.0542   54.1556   23.4116 H   0  0  0  0  0  0
    7.0881   54.6172   25.5658 H   0  0  0  0  0  0
    5.0595   53.9239   21.4461 H   0  0  0  0  0  0
    3.4854   53.9311   20.6939 H   0  0  0  0  0  0
    3.9913   55.2966   21.6820 H   0  0  0  0  0  0
    1.5769   54.3162   22.1263 H   0  0  0  0  0  0
    2.0281   49.4246   22.4751 H   0  0  0  0  0  0
    2.6616   48.2837   20.3421 H   0  0  0  0  0  0
    1.0172   52.8968   20.1374 H   0  0  0  0  0  0
    1.6897   52.8464   17.8055 H   0  0  0  0  0  0
    3.1586   50.7920   16.8810 H   0  0  0  0  0  0
    1.6548   50.6568   16.1915 H   0  0  0  0  0  0
  1  2  1  0  0  0
  1 23  1  0  0  0
  1 24  1  0  0  0
  1 25  1  0  0  0
  2  7  2  0  0  0
  2  3  1  0  0  0
  3  4  2  0  0  0
  3 26  1  0  0  0
  4  5  1  0  0  0
  4 27  1  0  0  0
  5  6  2  0  0  0
  5  8  1  0  0  0
  6  7  1  0  0  0
  6 28  1  0  0  0
  7 29  1  0  0  0
  8  9  1  0  0  0
  8 10  1  0  0  0
  8 11  1  0  0  0
 10 30  1  0  0  0
 10 31  1  0  0  0
 10 32  1  0  0  0
 11 12  1  0  0  0
 11 33  1  0  0  0
 12 13  2  0  0  0
 12 14  2  0  0  0
 12 15  1  0  0  0
 15 20  2  0  0  0
 15 16  1  0  0  0
 16 17  2  0  0  0
 16 34  1  0  0  0
 17 18  1  0  0  0
 17 35  1  0  0  0
 18 19  2  0  0  0
 19 20  1  0  0  0
 19 21  1  0  0  0
 20 36  1  0  0  0
 21 22  1  0  0  0
 21 37  1  0  0  0
 22 38  1  0  0  0
 22 39  1  0  0  0
M  END
> <i_i_glide_confnum>
12

> <i_i_glide_lignum>
1604

> <i_i_glide_posenum>
162

> <i_i_glide_rotatable_bonds>
5

> <i_m_Source_File_Index>
1263

> <b_m_subgroup_collapsed>
0

> <r_i_docking_score>
-4.52496

> <r_i_glide_ecoul>
-5.14329

> <r_i_glide_eff_state_penalty>
0

> <r_i_glide_einternal>
3.9879

> <r_i_glide_emodel>
-40.9601

> <r_i_glide_energy>
-33.1869

> <r_i_glide_erotb>
0.787087

> <r_i_glide_esite>
-0.0343412

> <r_i_glide_evdw>
-28.0436

> <r_i_glide_gscore>
-4.52496

> <r_i_glide_hbond>
-0.329957

> <r_i_glide_ligand_efficiency>
-0.215474

> <r_i_glide_ligand_efficiency_ln>
-1.11879

> <r_i_glide_ligand_efficiency_sa>
-0.594477

> <r_i_glide_lipo>
-2.12865

> <r_i_glide_metal>
0

> <r_i_glide_rewards>
-0.645415

> <s_i_glide_gridfile>
wee1_glide-grid

> <s_m_Source_File>
wee1_decoys_glide_SP.sdf

> <s_m_Source_Path>
/Users/zhangxujun/Desktop

> <s_m_entry_id>
1538

> <s_m_entry_name>
wee1_decoys_glide_SP.1263

> <s_m_subgroup_title>
wee1_decoys_glide_SP

> <s_m_subgroupid>
wee1_decoys_glide_SP


$$$$
