ZINC35701846_4630
                    3D
 Schrodinger Suite 2024-2.
 59 62  0  0  1  0            999 V2000
   -1.1495   51.6763   27.3110 C   0  0  0  0  0  0
   -0.2023   52.2680   26.2721 C   0  0  0  0  0  0
   -0.4633   52.4967   24.9444 C   0  0  0  0  0  0
    0.6855   52.9532   23.9979 C   0  0  1  0  0  0
    0.3665   53.8523   23.4691 H   0  0  0  0  0  0
    1.8803   53.3614   24.7901 N   0  0  0  0  0  0
    3.0372   53.9142   24.2583 C   0  0  0  0  0  0
    3.9706   54.1405   25.1991 C   0  0  0  0  0  0
    3.4506   53.6967   26.8236 S   0  0  0  0  0  0
    1.9141   53.1000   26.1568 C   0  0  0  0  0  0
    1.0048   52.5372   26.8553 N   0  0  0  0  0  0
    3.2463   54.1500   22.8380 C   0  0  0  0  0  0
    4.3523   53.8885   22.1156 C   0  0  0  0  0  0
    5.4966   53.4259   22.4818 O   0  5  0  0  0  0
    4.3042   54.0968   20.7524 N   0  0  0  0  0  0
    5.2901   53.8902   19.6939 C   0  0  0  0  0  0
    6.2080   55.0736   19.4930 C   0  0  0  0  0  0
    6.0634   56.3130   18.8851 C   0  0  0  0  0  0
    7.2947   56.9621   18.9835 C   0  0  0  0  0  0
    8.1342   56.0967   19.6661 C   0  0  0  0  0  0
    7.4701   54.9584   19.9820 O   0  0  0  0  0  0
    1.0256   51.8910   22.9450 C   0  0  0  0  0  0
    1.3853   50.6005   23.3412 C   0  0  0  0  0  0
    1.6483   49.6261   22.3864 C   0  0  0  0  0  0
    1.5622   49.9337   21.0253 C   0  0  0  0  0  0
    1.2273   51.2314   20.6300 C   0  0  0  0  0  0
    0.9551   52.2039   21.5853 C   0  0  0  0  0  0
    1.8245   48.8734   19.9610 C   0  0  0  0  0  0
    0.6840   48.5879   19.3317 F   0  0  0  0  0  0
    2.7036   49.3316   19.0754 F   0  0  0  0  0  0
    2.3042   47.7438   20.4794 F   0  0  0  0  0  0
   -1.8150   52.4961   24.3337 C   0  0  0  0  0  0
   -1.9925   52.4880   23.1122 O   0  0  0  0  0  0
   -2.8322   52.6293   25.2233 O   0  0  0  0  0  0
   -4.1842   52.8261   24.8150 C   0  0  0  0  0  0
   -5.0797   52.3513   25.9669 C   0  0  0  0  0  0
   -4.4290   54.3108   24.4816 C   0  0  0  0  0  0
   -1.9057   51.0353   26.8592 H   0  0  0  0  0  0
   -0.6234   51.0461   28.0306 H   0  0  0  0  0  0
   -1.6483   52.4752   27.8532 H   0  0  0  0  0  0
    4.9606   54.5345   25.0242 H   0  0  0  0  0  0
    2.4011   54.5607   22.3064 H   0  0  0  0  0  0
    3.4718   54.5575   20.4129 H   0  0  0  0  0  0
    4.7585   53.6616   18.7702 H   0  0  0  0  0  0
    5.8676   52.9942   19.9229 H   0  0  0  0  0  0
    5.1709   56.6914   18.4091 H   0  0  0  0  0  0
    7.5429   57.9415   18.5987 H   0  0  0  0  0  0
    9.1675   56.1486   19.9788 H   0  0  0  0  0  0
    1.4455   50.3470   24.3896 H   0  0  0  0  0  0
    1.9078   48.6319   22.7161 H   0  0  0  0  0  0
    1.1747   51.4863   19.5809 H   0  0  0  0  0  0
    0.7037   53.2037   21.2635 H   0  0  0  0  0  0
   -4.4023   52.2115   23.9390 H   0  0  0  0  0  0
   -6.1350   52.4645   25.7173 H   0  0  0  0  0  0
   -4.9056   51.2970   26.1868 H   0  0  0  0  0  0
   -4.8885   52.9155   26.8810 H   0  0  0  0  0  0
   -5.4546   54.4762   24.1498 H   0  0  0  0  0  0
   -4.2484   54.9447   25.3501 H   0  0  0  0  0  0
   -3.7706   54.6523   23.6827 H   0  0  0  0  0  0
  1  2  1  0  0  0
  1 38  1  0  0  0
  1 39  1  0  0  0
  1 40  1  0  0  0
  2 11  1  0  0  0
  2  3  2  0  0  0
  3  4  1  0  0  0
  3 32  1  0  0  0
  4  5  1  0  0  0
  4  6  1  0  0  0
  4 22  1  0  0  0
  6 10  1  0  0  0
  6  7  1  0  0  0
  7  8  2  0  0  0
  7 12  1  0  0  0
  8  9  1  0  0  0
  8 41  1  0  0  0
  9 10  1  0  0  0
 10 11  2  0  0  0
 12 13  2  0  0  0
 12 42  1  0  0  0
 13 14  1  0  0  0
 13 15  1  0  0  0
 15 16  1  0  0  0
 15 43  1  0  0  0
 16 17  1  0  0  0
 16 44  1  0  0  0
 16 45  1  0  0  0
 17 21  1  0  0  0
 17 18  2  0  0  0
 18 19  1  0  0  0
 18 46  1  0  0  0
 19 20  2  0  0  0
 19 47  1  0  0  0
 20 21  1  0  0  0
 20 48  1  0  0  0
 22 27  2  0  0  0
 22 23  1  0  0  0
 23 24  2  0  0  0
 23 49  1  0  0  0
 24 25  1  0  0  0
 24 50  1  0  0  0
 25 26  2  0  0  0
 25 28  1  0  0  0
 26 27  1  0  0  0
 26 51  1  0  0  0
 27 52  1  0  0  0
 28 29  1  0  0  0
 28 30  1  0  0  0
 28 31  1  0  0  0
 32 33  2  0  0  0
 32 34  1  0  0  0
 34 35  1  0  0  0
 35 36  1  0  0  0
 35 37  1  0  0  0
 35 53  1  0  0  0
 36 54  1  0  0  0
 36 55  1  0  0  0
 36 56  1  0  0  0
 37 57  1  0  0  0
 37 58  1  0  0  0
 37 59  1  0  0  0
M  CHG  1  14  -1
M  END
> <i_i_glide_confnum>
75

> <i_i_glide_lignum>
4631

> <i_i_glide_posenum>
314

> <i_i_glide_rotatable_bonds>
9

> <i_m_Source_File_Index>
5330

> <b_m_subgroup_collapsed>
0

> <r_i_docking_score>
-5.25062

> <r_i_glide_ecoul>
-4.20789

> <r_i_glide_eff_state_penalty>
0

> <r_i_glide_einternal>
4.23534

> <r_i_glide_emodel>
-60.0804

> <r_i_glide_energy>
-47.0844

> <r_i_glide_erotb>
0.458336

> <r_i_glide_esite>
-0.158042

> <r_i_glide_evdw>
-42.8765

> <r_i_glide_gscore>
-5.25062

> <r_i_glide_hbond>
-0.189383

> <r_i_glide_ligand_efficiency>
-0.145851

> <r_i_glide_ligand_efficiency_ln>
-1.14554

> <r_i_glide_ligand_efficiency_sa>
-0.481588

> <r_i_glide_lipo>
-1.99242

> <r_i_glide_metal>
0

> <r_i_glide_rewards>
-0.594108

> <s_i_glide_gridfile>
wee1_glide-grid

> <s_m_Source_File>
wee1_decoys_glide_SP.sdf

> <s_m_Source_Path>
/Users/zhangxujun/Desktop

> <s_m_entry_id>
5605

> <s_m_entry_name>
wee1_decoys_glide_SP.5330

> <s_m_subgroup_title>
wee1_decoys_glide_SP

> <s_m_subgroupid>
wee1_decoys_glide_SP


$$$$
