ZINC15707188_5011
                    3D
 Schrodinger Suite 2024-2.
 57 61  0  0  1  0            999 V2000
    1.4827   54.3227   29.6835 C   0  0  0  0  0  0
    2.3314   53.1217   29.2403 C   0  0  0  0  0  0
    2.8535   53.3198   27.9299 O   0  0  0  0  0  0
    3.9986   54.0216   27.7093 C   0  0  0  0  0  0
    4.6916   54.4955   28.6147 O   0  0  0  0  0  0
    4.3508   54.1267   26.2540 C   0  0  0  0  0  0
    5.5979   54.6505   25.8844 C   0  0  0  0  0  0
    5.9534   54.7525   24.5413 C   0  0  0  0  0  0
    5.0691   54.3257   23.5495 C   0  0  0  0  0  0
    3.8099   53.8278   23.9070 C   0  0  0  0  0  0
    3.4571   53.7233   25.2492 C   0  0  0  0  0  0
    5.4674   54.4967   22.2119 N   0  0  0  0  0  0
    5.1044   53.7645   21.1341 C   0  0  0  0  0  0
    4.5146   52.6874   21.2534 O   0  0  0  0  0  0
    5.3742   54.3255   19.9138 N   0  0  0  0  0  0
    5.2666   53.4698   18.6971 C   0  0  0  0  0  0
    6.6536   53.3887   18.0818 C   0  0  0  0  0  0
    7.7187   54.2068   18.4303 C   0  0  0  0  0  0
    8.7945   53.8536   17.6328 N   0  0  0  0  0  0
    9.7104   54.2812   17.6618 H   0  0  0  0  0  0
    8.4248   52.7811   16.8445 C   0  0  0  0  0  0
    7.1045   52.4967   17.1287 N   0  3  0  0  0  0
    7.6218   55.3153   19.4626 C   0  0  0  0  0  0
    6.1037   55.6283   19.7089 C   0  0  1  0  0  0
    6.0355   56.2406   20.6071 H   0  0  0  0  0  0
    5.5041   56.4906   18.5979 C   0  0  0  0  0  0
    4.3077   56.4207   18.0819 N   0  0  0  0  0  0
    4.3100   57.4020   17.2018 C   0  0  0  0  0  0
    5.4308   58.0951   17.1274 N   0  0  0  0  0  0
    6.2522   57.4939   18.0792 O   0  0  0  0  0  0
    3.0967   57.7175   16.3734 C   0  0  0  0  0  0
    3.0372   58.8968   15.6207 C   0  0  0  0  0  0
    1.8997   59.2095   14.8820 C   0  0  0  0  0  0
    0.8119   58.3404   14.8868 C   0  0  0  0  0  0
    0.8572   57.1588   15.6217 C   0  0  0  0  0  0
    1.9952   56.8488   16.3613 C   0  0  0  0  0  0
   -0.6049   58.7327   13.9828 Cl  0  0  0  0  0  0
    2.0720   55.2393   29.7218 H   0  0  0  0  0  0
    0.6523   54.4831   28.9955 H   0  0  0  0  0  0
    1.0608   54.1555   30.6746 H   0  0  0  0  0  0
    3.1310   52.9209   29.9559 H   0  0  0  0  0  0
    1.7050   52.2292   29.2194 H   0  0  0  0  0  0
    6.3029   54.9769   26.6367 H   0  0  0  0  0  0
    6.9210   55.1565   24.2785 H   0  0  0  0  0  0
    3.0966   53.5250   23.1545 H   0  0  0  0  0  0
    2.4812   53.3258   25.4905 H   0  0  0  0  0  0
    6.1034   55.2612   22.0533 H   0  0  0  0  0  0
    4.9539   52.4589   18.9626 H   0  0  0  0  0  0
    4.5092   53.8508   18.0125 H   0  0  0  0  0  0
    9.0597   52.2439   16.1519 H   0  0  0  0  0  0
    8.0769   54.9771   20.3944 H   0  0  0  0  0  0
    8.1761   56.2047   19.1599 H   0  0  0  0  0  0
    3.8603   59.5988   15.6240 H   0  0  0  0  0  0
    1.8629   60.1312   14.3205 H   0  0  0  0  0  0
    0.0122   56.4860   15.6244 H   0  0  0  0  0  0
    2.0103   55.9333   16.9352 H   0  0  0  0  0  0
    6.5540   51.7274   16.7614 H   0  0  0  0  0  0
  1  2  1  0  0  0
  1 38  1  0  0  0
  1 39  1  0  0  0
  1 40  1  0  0  0
  2  3  1  0  0  0
  2 41  1  0  0  0
  2 42  1  0  0  0
  3  4  1  0  0  0
  4  5  2  0  0  0
  4  6  1  0  0  0
  6 11  2  0  0  0
  6  7  1  0  0  0
  7  8  2  0  0  0
  7 43  1  0  0  0
  8  9  1  0  0  0
  8 44  1  0  0  0
  9 10  2  0  0  0
  9 12  1  0  0  0
 10 11  1  0  0  0
 10 45  1  0  0  0
 11 46  1  0  0  0
 12 13  1  0  0  0
 12 47  1  0  0  0
 13 14  2  0  0  0
 13 15  1  0  0  0
 15 24  1  0  0  0
 15 16  1  0  0  0
 16 17  1  0  0  0
 16 48  1  0  0  0
 16 49  1  0  0  0
 17 22  1  0  0  0
 17 18  2  0  0  0
 18 19  1  0  0  0
 18 23  1  0  0  0
 19 20  1  0  0  0
 19 21  1  0  0  0
 21 22  2  0  0  0
 21 50  1  0  0  0
 22 57  1  0  0  0
 23 24  1  0  0  0
 23 51  1  0  0  0
 23 52  1  0  0  0
 24 25  1  0  0  0
 24 26  1  0  0  0
 26 30  1  0  0  0
 26 27  2  0  0  0
 27 28  1  0  0  0
 28 29  2  0  0  0
 28 31  1  0  0  0
 29 30  1  0  0  0
 31 36  2  0  0  0
 31 32  1  0  0  0
 32 33  2  0  0  0
 32 53  1  0  0  0
 33 34  1  0  0  0
 33 54  1  0  0  0
 34 35  2  0  0  0
 34 37  1  0  0  0
 35 36  1  0  0  0
 35 55  1  0  0  0
 36 56  1  0  0  0
M  CHG  1  22   1
M  END
> <i_i_glide_confnum>
193

> <i_i_glide_lignum>
5012

> <i_i_glide_posenum>
396

> <i_i_glide_rotatable_bonds>
8

> <i_m_Source_File_Index>
159

> <b_m_subgroup_collapsed>
0

> <r_i_docking_score>
-4.97837

> <r_i_glide_ecoul>
-2.14423

> <r_i_glide_eff_state_penalty>
0

> <r_i_glide_einternal>
3.45031

> <r_i_glide_emodel>
-59.8653

> <r_i_glide_energy>
-45.2724

> <r_i_glide_erotb>
0.584624

> <r_i_glide_esite>
-0.121415

> <r_i_glide_evdw>
-43.1282

> <r_i_glide_gscore>
-4.97837

> <r_i_glide_hbond>
-0.0510404

> <r_i_glide_ligand_efficiency>
-0.142239

> <r_i_glide_ligand_efficiency_ln>
-1.09286

> <r_i_glide_ligand_efficiency_sa>
-0.465274

> <r_i_glide_lipo>
-2.23848

> <r_i_glide_metal>
0

> <r_i_glide_rewards>
-0.674013

> <s_i_glide_gridfile>
wee1_glide-grid

> <s_m_Source_File>
wee1_decoys_glide_SP.sdf

> <s_m_Source_Path>
/Users/zhangxujun/Desktop

> <s_m_entry_id>
434

> <s_m_entry_name>
wee1_decoys_glide_SP.159

> <s_m_subgroup_title>
wee1_decoys_glide_SP

> <s_m_subgroupid>
wee1_decoys_glide_SP


$$$$
