ZINC10585515_2654
                    3D
 Schrodinger Suite 2024-2.
 45 48  0  0  1  0            999 V2000
    4.4767   53.1565   29.0588 C   0  0  0  0  0  0
    3.6244   52.7003   30.0624 C   0  0  0  0  0  0
    2.2609   52.6177   29.8104 C   0  0  0  0  0  0
    1.7549   52.9597   28.5471 C   0  0  0  0  0  0
    2.6102   53.4400   27.5583 C   0  0  0  0  0  0
    3.9922   53.5423   27.7976 C   0  0  0  0  0  0
    4.8494   54.0415   26.7781 N   0  0  0  0  0  0
    4.3542   54.8791   25.6787 C   0  0  0  0  0  0
    5.4832   54.9945   24.6916 C   0  0  1  0  0  0
    5.5607   56.0636   24.4815 H   0  0  0  0  0  0
    6.7047   54.5893   25.4609 C   0  0  0  0  0  0
    6.2107   53.8945   26.7199 C   0  0  0  0  0  0
    6.9672   53.2976   27.4839 O   0  0  0  0  0  0
    5.2412   54.2664   23.4447 N   0  0  0  0  0  0
    5.9033   54.4966   22.3042 C   0  0  0  0  0  0
    7.0654   54.8975   22.2717 O   0  0  0  0  0  0
    5.1270   54.2794   21.2270 N   0  0  0  0  0  0
    5.5255   54.4165   19.8865 C   0  0  0  0  0  0
    5.2833   53.3184   19.0532 C   0  0  0  0  0  0
    5.6299   53.3631   17.7045 C   0  0  0  0  0  0
    6.1984   54.5153   17.1678 C   0  0  0  0  0  0
    6.4114   55.6294   17.9796 C   0  0  0  0  0  0
    6.0707   55.5969   19.3337 C   0  0  0  0  0  0
    6.3052   57.0490   20.2483 Cl  0  0  0  0  0  0
    6.6279   54.5674   15.4976 Cl  0  0  0  0  0  0
    0.4064   52.8864   28.2536 O   0  0  0  0  0  0
   -0.3142   52.0109   29.1301 C   0  0  0  0  0  0
    0.0600   52.3311   30.5962 C   0  0  0  0  0  0
    1.4600   52.1227   30.8169 O   0  0  0  0  0  0
    5.5247   53.2213   29.2814 H   0  0  0  0  0  0
    4.0206   52.4149   31.0254 H   0  0  0  0  0  0
    2.1725   53.7079   26.6110 H   0  0  0  0  0  0
    4.1083   55.8555   26.0817 H   0  0  0  0  0  0
    3.4528   54.4963   25.2009 H   0  0  0  0  0  0
    7.3496   53.9142   24.8960 H   0  0  0  0  0  0
    7.2941   55.4604   25.7321 H   0  0  0  0  0  0
    4.4375   53.6575   23.4268 H   0  0  0  0  0  0
    4.2918   53.7333   21.3695 H   0  0  0  0  0  0
    4.8437   52.4094   19.4410 H   0  0  0  0  0  0
    5.4531   52.4967   17.0830 H   0  0  0  0  0  0
    6.8306   56.5287   17.5506 H   0  0  0  0  0  0
   -0.0433   50.9756   28.9090 H   0  0  0  0  0  0
   -1.3886   52.0990   28.9657 H   0  0  0  0  0  0
   -0.4945   51.6932   31.2810 H   0  0  0  0  0  0
   -0.1948   53.3670   30.8235 H   0  0  0  0  0  0
  1  6  2  0  0  0
  1  2  1  0  0  0
  1 30  1  0  0  0
  2  3  2  0  0  0
  2 31  1  0  0  0
  3 29  1  0  0  0
  3  4  1  0  0  0
  4  5  2  0  0  0
  4 26  1  0  0  0
  5  6  1  0  0  0
  5 32  1  0  0  0
  6  7  1  0  0  0
  7 12  1  0  0  0
  7  8  1  0  0  0
  8  9  1  0  0  0
  8 33  1  0  0  0
  8 34  1  0  0  0
  9 10  1  0  0  0
  9 11  1  0  0  0
  9 14  1  0  0  0
 11 12  1  0  0  0
 11 35  1  0  0  0
 11 36  1  0  0  0
 12 13  2  0  0  0
 14 15  1  0  0  0
 14 37  1  0  0  0
 15 16  2  0  0  0
 15 17  1  0  0  0
 17 18  1  0  0  0
 17 38  1  0  0  0
 18 23  2  0  0  0
 18 19  1  0  0  0
 19 20  2  0  0  0
 19 39  1  0  0  0
 20 21  1  0  0  0
 20 40  1  0  0  0
 21 22  2  0  0  0
 21 25  1  0  0  0
 22 23  1  0  0  0
 22 41  1  0  0  0
 23 24  1  0  0  0
 26 27  1  0  0  0
 27 28  1  0  0  0
 27 42  1  0  0  0
 27 43  1  0  0  0
 28 29  1  0  0  0
 28 44  1  0  0  0
 28 45  1  0  0  0
M  END
> <i_i_glide_confnum>
71

> <i_i_glide_lignum>
2655

> <i_i_glide_posenum>
226

> <i_i_glide_rotatable_bonds>
5

> <i_m_Source_File_Index>
175

> <b_m_subgroup_collapsed>
0

> <r_i_docking_score>
-5.54137

> <r_i_glide_ecoul>
-1.23358

> <r_i_glide_eff_state_penalty>
0

> <r_i_glide_einternal>
9.35197

> <r_i_glide_emodel>
-56.7058

> <r_i_glide_energy>
-45.2999

> <r_i_glide_erotb>
0.444382

> <r_i_glide_esite>
0

> <r_i_glide_evdw>
-44.0663

> <r_i_glide_gscore>
-5.54137

> <r_i_glide_hbond>
-0.0374552

> <r_i_glide_ligand_efficiency>
-0.197906

> <r_i_glide_ligand_efficiency_ln>
-1.27911

> <r_i_glide_ligand_efficiency_sa>
-0.600959

> <r_i_glide_lipo>
-2.09209

> <r_i_glide_metal>
0

> <r_i_glide_rewards>
-1.46786

> <s_i_glide_gridfile>
wee1_glide-grid

> <s_m_Source_File>
wee1_decoys_glide_SP.sdf

> <s_m_Source_Path>
/Users/zhangxujun/Desktop

> <s_m_entry_id>
450

> <s_m_entry_name>
wee1_decoys_glide_SP.175

> <s_m_subgroup_title>
wee1_decoys_glide_SP

> <s_m_subgroupid>
wee1_decoys_glide_SP


$$$$
