ZINC33761422_2974
                    3D
 Schrodinger Suite 2024-2.
 54 57  0  0  1  0            999 V2000
    1.4044   50.3947   21.9843 C   0  0  0  0  0  0
    2.4407   51.4815   21.7579 C   0  0  0  0  0  0
    2.3410   52.6914   22.4492 C   0  0  0  0  0  0
    3.3050   53.6799   22.2638 C   0  0  0  0  0  0
    4.3765   53.4437   21.3998 C   0  0  0  0  0  0
    4.4750   52.2395   20.7005 C   0  0  0  0  0  0
    3.5010   51.2608   20.8771 C   0  0  0  0  0  0
    5.3663   54.4275   21.2205 N   0  0  0  0  0  0
    5.5293   55.2751   20.1420 C   0  0  0  0  0  0
    6.5195   56.1083   20.3501 N   0  0  0  0  0  0
    7.0452   55.8164   21.6026 N   0  0  0  0  0  0
    6.3385   54.8403   22.1127 C   0  0  0  0  0  0
    6.7042   54.0968   23.6710 S   0  0  0  0  0  0
    5.6410   55.1333   24.7113 C   0  0  0  0  0  0
    5.3736   54.4898   26.0601 C   0  0  0  0  0  0
    6.4241   54.2914   26.9576 C   0  0  0  0  0  0
    6.1814   53.6977   28.1899 C   0  0  0  0  0  0
    4.8856   53.3140   28.5277 C   0  0  0  0  0  0
    3.8290   53.5185   27.6439 C   0  0  0  0  0  0
    4.0741   54.1038   26.4055 C   0  0  0  0  0  0
    4.6831   55.2612   18.8800 C   0  0  0  0  0  0
    4.9473   54.0759   18.0613 N   0  0  0  0  0  0
    5.7464   54.0375   16.9839 C   0  0  0  0  0  0
    6.5074   54.9507   16.6663 O   0  0  0  0  0  0
    5.5634   52.8964   16.2963 N   0  0  0  0  0  0
    6.2028   52.4532   15.1251 C   0  0  0  0  0  0
    7.4501   52.9192   14.6809 C   0  0  0  0  0  0
    8.0356   52.3624   13.5452 C   0  0  0  0  0  0
    7.3819   51.3424   12.8547 C   0  0  0  0  0  0
    6.1378   50.8857   13.2836 C   0  0  0  0  0  0
    5.5507   51.4388   14.4182 C   0  0  0  0  0  0
    8.1957   50.5492   11.3259 Br  0  0  0  0  0  0
    1.1327   50.3414   23.0394 H   0  0  0  0  0  0
    0.4998   50.5965   21.4081 H   0  0  0  0  0  0
    1.7885   49.4098   21.7117 H   0  0  0  0  0  0
    1.5150   52.8683   23.1228 H   0  0  0  0  0  0
    3.1991   54.6244   22.7741 H   0  0  0  0  0  0
    5.2977   52.0550   20.0243 H   0  0  0  0  0  0
    3.5766   50.3335   20.3287 H   0  0  0  0  0  0
    6.1213   56.1009   24.8557 H   0  0  0  0  0  0
    4.6957   55.2967   24.2016 H   0  0  0  0  0  0
    7.4299   54.5822   26.6984 H   0  0  0  0  0  0
    6.9968   53.5400   28.8812 H   0  0  0  0  0  0
    4.6980   52.8509   29.4846 H   0  0  0  0  0  0
    2.8291   53.2145   27.9140 H   0  0  0  0  0  0
    3.2534   54.2507   25.7177 H   0  0  0  0  0  0
    4.8199   56.1752   18.2968 H   0  0  0  0  0  0
    3.6250   55.2583   19.1425 H   0  0  0  0  0  0
    4.4697   53.2271   18.3295 H   0  0  0  0  0  0
    4.8783   52.2516   16.6625 H   0  0  0  0  0  0
    7.9884   53.6858   15.2180 H   0  0  0  0  0  0
    9.0017   52.7098   13.2101 H   0  0  0  0  0  0
    5.6373   50.0914   12.7508 H   0  0  0  0  0  0
    4.6003   51.0518   14.7619 H   0  0  0  0  0  0
  1  2  1  0  0  0
  1 33  1  0  0  0
  1 34  1  0  0  0
  1 35  1  0  0  0
  2  7  2  0  0  0
  2  3  1  0  0  0
  3  4  2  0  0  0
  3 36  1  0  0  0
  4  5  1  0  0  0
  4 37  1  0  0  0
  5  6  2  0  0  0
  5  8  1  0  0  0
  6  7  1  0  0  0
  6 38  1  0  0  0
  7 39  1  0  0  0
  8 12  1  0  0  0
  8  9  1  0  0  0
  9 10  2  0  0  0
  9 21  1  0  0  0
 10 11  1  0  0  0
 11 12  2  0  0  0
 12 13  1  0  0  0
 13 14  1  0  0  0
 14 15  1  0  0  0
 14 40  1  0  0  0
 14 41  1  0  0  0
 15 20  2  0  0  0
 15 16  1  0  0  0
 16 17  2  0  0  0
 16 42  1  0  0  0
 17 18  1  0  0  0
 17 43  1  0  0  0
 18 19  2  0  0  0
 18 44  1  0  0  0
 19 20  1  0  0  0
 19 45  1  0  0  0
 20 46  1  0  0  0
 21 22  1  0  0  0
 21 47  1  0  0  0
 21 48  1  0  0  0
 22 23  1  0  0  0
 22 49  1  0  0  0
 23 24  2  0  0  0
 23 25  1  0  0  0
 25 26  1  0  0  0
 25 50  1  0  0  0
 26 31  2  0  0  0
 26 27  1  0  0  0
 27 28  2  0  0  0
 27 51  1  0  0  0
 28 29  1  0  0  0
 28 52  1  0  0  0
 29 30  2  0  0  0
 29 32  1  0  0  0
 30 31  1  0  0  0
 30 53  1  0  0  0
 31 54  1  0  0  0
M  END
> <i_i_glide_confnum>
32

> <i_i_glide_lignum>
2975

> <i_i_glide_posenum>
270

> <i_i_glide_rotatable_bonds>
9

> <i_m_Source_File_Index>
1135

> <b_m_subgroup_collapsed>
0

> <r_i_docking_score>
-5.35312

> <r_i_glide_ecoul>
-0.542676

> <r_i_glide_eff_state_penalty>
0

> <r_i_glide_einternal>
3.16383

> <r_i_glide_emodel>
-63.873

> <r_i_glide_energy>
-46.5301

> <r_i_glide_erotb>
0.633589

> <r_i_glide_esite>
-0.0870932

> <r_i_glide_evdw>
-45.9874

> <r_i_glide_gscore>
-5.35312

> <r_i_glide_hbond>
-0.0017845

> <r_i_glide_ligand_efficiency>
-0.167285

> <r_i_glide_ligand_efficiency_ln>
-1.19871

> <r_i_glide_ligand_efficiency_sa>
-0.531096

> <r_i_glide_lipo>
-2.75938

> <r_i_glide_metal>
0

> <r_i_glide_rewards>
-0.757675

> <s_i_glide_gridfile>
wee1_glide-grid

> <s_m_Source_File>
wee1_decoys_glide_SP.sdf

> <s_m_Source_Path>
/Users/zhangxujun/Desktop

> <s_m_entry_id>
1410

> <s_m_entry_name>
wee1_decoys_glide_SP.1135

> <s_m_subgroup_title>
wee1_decoys_glide_SP

> <s_m_subgroupid>
wee1_decoys_glide_SP


$$$$
