ZINC00836099_5828
                    3D
 Schrodinger Suite 2024-2.
 48 52  0  0  1  0            999 V2000
    1.1047   55.2414   30.4813 C   0  0  0  0  0  0
    1.8784   55.7299   29.4324 C   0  0  0  0  0  0
    1.9458   55.0201   28.2385 C   0  0  0  0  0  0
    1.2403   53.8234   28.0701 C   0  0  0  0  0  0
    0.4927   53.3303   29.1536 C   0  0  0  0  0  0
    0.4262   54.0338   30.3541 C   0  0  0  0  0  0
    1.2259   53.1193   26.7280 C   0  0  0  0  0  0
    2.0320   53.3051   25.5585 C   0  0  0  0  0  0
    1.4369   52.4497   24.6452 C   0  0  0  0  0  0
    0.4566   51.7329   25.2708 N   0  0  0  0  0  0
    0.3366   52.1560   26.5355 N   0  0  0  0  0  0
   -0.3283   50.6665   24.7753 C   0  0  0  0  0  0
   -0.7985   50.6873   23.4555 C   0  0  0  0  0  0
   -1.5471   49.6184   22.9694 C   0  0  0  0  0  0
   -1.8264   48.5333   23.7993 C   0  0  0  0  0  0
   -1.3676   48.5084   25.1154 C   0  0  0  0  0  0
   -0.6198   49.5726   25.6031 C   0  0  0  0  0  0
    1.7662   52.2393   23.3313 O   0  0  0  0  0  0
    2.8799   52.8997   22.9233 C   0  0  0  0  0  0
    3.6691   53.7000   23.6852 C   0  0  0  0  0  0
    3.3055   54.0960   25.1465 C   0  0  2  0  0  0
    3.0726   55.1572   25.0711 H   0  0  0  0  0  0
    4.4777   54.0978   26.1513 C   0  0  0  0  0  0
    4.4550   53.2958   27.2958 C   0  0  0  0  0  0
    5.5047   53.2972   28.2021 C   0  0  0  0  0  0
    6.6090   54.0969   27.9665 C   0  0  0  0  0  0
    6.6455   54.9194   26.8482 C   0  0  0  0  0  0
    5.5821   54.9328   25.9505 C   0  0  0  0  0  0
    4.8879   54.1685   23.0992 C   0  0  0  0  0  0
    5.8759   54.4940   22.5906 N   0  0  0  0  0  0
    3.1154   52.5128   21.6312 N   0  0  0  0  0  0
    1.0508   55.7968   31.4060 H   0  0  0  0  0  0
    2.4184   56.6591   29.5473 H   0  0  0  0  0  0
    2.5384   55.4279   27.4370 H   0  0  0  0  0  0
   -0.0606   52.4047   29.0704 H   0  0  0  0  0  0
   -0.1582   53.6462   31.1779 H   0  0  0  0  0  0
   -0.5859   51.5228   22.8041 H   0  0  0  0  0  0
   -1.9089   49.6302   21.9513 H   0  0  0  0  0  0
   -2.4095   47.7095   23.4221 H   0  0  0  0  0  0
   -1.5886   47.6733   25.7657 H   0  0  0  0  0  0
   -0.2694   49.5303   26.6264 H   0  0  0  0  0  0
    3.6397   52.6192   27.4922 H   0  0  0  0  0  0
    5.4656   52.6586   29.0699 H   0  0  0  0  0  0
    7.4310   54.0960   28.6683 H   0  0  0  0  0  0
    7.4821   55.5702   26.6972 H   0  0  0  0  0  0
    5.6231   55.6042   25.1046 H   0  0  0  0  0  0
    3.8257   52.9615   21.0691 H   0  0  0  0  0  0
    2.6749   51.6862   21.2500 H   0  0  0  0  0  0
  1  6  2  0  0  0
  1  2  1  0  0  0
  1 32  1  0  0  0
  2  3  2  0  0  0
  2 33  1  0  0  0
  3  4  1  0  0  0
  3 34  1  0  0  0
  4  5  2  0  0  0
  4  7  1  0  0  0
  5  6  1  0  0  0
  5 35  1  0  0  0
  6 36  1  0  0  0
  7 11  2  0  0  0
  7  8  1  0  0  0
  8 21  1  0  0  0
  8  9  2  0  0  0
  9 10  1  0  0  0
  9 18  1  0  0  0
 10 11  1  0  0  0
 10 12  1  0  0  0
 12 17  2  0  0  0
 12 13  1  0  0  0
 13 14  2  0  0  0
 13 37  1  0  0  0
 14 15  1  0  0  0
 14 38  1  0  0  0
 15 16  2  0  0  0
 15 39  1  0  0  0
 16 17  1  0  0  0
 16 40  1  0  0  0
 17 41  1  0  0  0
 18 19  1  0  0  0
 19 20  2  0  0  0
 19 31  1  0  0  0
 20 21  1  0  0  0
 20 29  1  0  0  0
 21 22  1  0  0  0
 21 23  1  0  0  0
 23 28  2  0  0  0
 23 24  1  0  0  0
 24 25  2  0  0  0
 24 42  1  0  0  0
 25 26  1  0  0  0
 25 43  1  0  0  0
 26 27  2  0  0  0
 26 44  1  0  0  0
 27 28  1  0  0  0
 27 45  1  0  0  0
 28 46  1  0  0  0
 29 30  3  0  0  0
 31 47  1  0  0  0
 31 48  1  0  0  0
M  END
> <i_i_glide_confnum>
2

> <i_i_glide_lignum>
5829

> <i_i_glide_posenum>
144

> <i_i_glide_rotatable_bonds>
4

> <i_m_Source_File_Index>
1917

> <b_m_subgroup_collapsed>
0

> <r_i_docking_score>
-6.90125

> <r_i_glide_ecoul>
0.129697

> <r_i_glide_eff_state_penalty>
0

> <r_i_glide_einternal>
5.74245

> <r_i_glide_emodel>
-55.6949

> <r_i_glide_energy>
-41.7629

> <r_i_glide_erotb>
0.383843

> <r_i_glide_esite>
0

> <r_i_glide_evdw>
-41.8926

> <r_i_glide_gscore>
-6.90125

> <r_i_glide_hbond>
0

> <r_i_glide_ligand_efficiency>
-0.230042

> <r_i_glide_ligand_efficiency_ln>
-1.56804

> <r_i_glide_ligand_efficiency_sa>
-0.714793

> <r_i_glide_lipo>
-4.04757

> <r_i_glide_metal>
0

> <r_i_glide_rewards>
-1.16234

> <s_i_glide_gridfile>
wee1_glide-grid

> <s_m_Source_File>
wee1_decoys_glide_SP.sdf

> <s_m_Source_Path>
/Users/zhangxujun/Desktop

> <s_m_entry_id>
2192

> <s_m_entry_name>
wee1_decoys_glide_SP.1917

> <s_m_subgroup_title>
wee1_decoys_glide_SP

> <s_m_subgroupid>
wee1_decoys_glide_SP


$$$$
