ZINC36570126_4642
                    3D
 Schrodinger Suite 2024-2.
 68 71  0  0  1  0            999 V2000
    0.6338   48.4184   25.6193 C   0  0  0  0  0  0
    0.3020   49.7790   25.1079 C   0  0  0  0  0  0
    1.0436   50.1875   23.8184 C   0  0  0  0  0  0
    0.3618   51.2886   23.1041 N   0  0  0  0  0  0
    0.6944   52.6700   23.6196 C   0  0  1  0  0  0
    0.0262   53.3747   23.1324 H   0  0  0  0  0  0
    0.3129   52.7617   25.1111 C   0  0  0  0  0  0
    1.2766   52.8957   26.1239 C   0  0  0  0  0  0
    0.9802   52.7155   27.4861 C   0  0  0  0  0  0
    1.9924   52.8667   28.4698 C   0  0  0  0  0  0
    1.7111   52.6523   29.8138 C   0  0  0  0  0  0
    0.4354   52.2761   30.2066 C   0  0  0  0  0  0
   -0.5695   52.0915   29.2629 C   0  0  0  0  0  0
   -0.3330   52.3228   27.8716 C   0  0  0  0  0  0
   -1.3430   52.1796   26.8739 C   0  0  0  0  0  0
   -1.0488   52.4965   25.5043 C   0  0  0  0  0  0
   -2.1194   52.4503   24.5596 C   0  0  0  0  0  0
   -3.3924   52.0352   24.9264 C   0  0  0  0  0  0
   -3.6506   51.6384   26.2280 C   0  0  0  0  0  0
   -2.6527   51.6954   27.1924 C   0  0  0  0  0  0
    2.0864   53.2291   23.1483 C   0  0  0  0  0  0
    2.7779   53.9261   23.8884 O   0  0  0  0  0  0
    2.4834   52.8989   21.9050 N   0  0  0  0  0  0
    3.7669   53.1706   21.2413 C   0  0  0  0  0  0
    3.5703   52.9248   19.7311 C   0  0  0  0  0  0
    4.8422   52.2017   21.7652 C   0  0  0  0  0  0
    4.2651   54.6198   21.4778 C   0  0  0  0  0  0
   -0.1526   51.1190   21.8406 C   0  0  0  0  0  0
   -0.3202   52.0975   21.1109 O   0  0  0  0  0  0
   -0.5782   49.7440   21.3108 C   0  0  0  0  0  0
   -1.1212   48.7696   22.1711 C   0  0  0  0  0  0
   -1.5660   47.5178   21.7180 C   0  0  0  0  0  0
   -1.4926   47.2424   20.3507 C   0  0  0  0  0  0
   -0.9946   48.1936   19.4704 C   0  0  0  0  0  0
   -0.5493   49.4335   19.9281 C   0  0  0  0  0  0
   -0.0885   50.2158   19.0370 O   0  5  0  0  0  0
   -2.0939   46.5006   22.6647 N   0  3  0  0  0  0
   -2.1044   46.7571   23.8650 O   0  0  0  0  0  0
   -2.4795   45.4200   22.2209 O   0  5  0  0  0  0
   -0.0942   48.1316   26.3800 H   0  0  0  0  0  0
    0.5916   47.6682   24.8301 H   0  0  0  0  0  0
    1.6213   48.4124   26.0797 H   0  0  0  0  0  0
    0.5901   50.4166   25.9331 H   0  0  0  0  0  0
   -0.7792   49.8699   25.0158 H   0  0  0  0  0  0
    1.1690   49.3208   23.1681 H   0  0  0  0  0  0
    2.0632   50.4777   24.0724 H   0  0  0  0  0  0
    2.3189   53.0511   25.9093 H   0  0  0  0  0  0
    2.9908   53.1496   28.1667 H   0  0  0  0  0  0
    2.4874   52.7655   30.5563 H   0  0  0  0  0  0
    0.2214   52.0992   31.2530 H   0  0  0  0  0  0
   -1.5323   51.7731   29.6251 H   0  0  0  0  0  0
   -1.9490   52.7097   23.5268 H   0  0  0  0  0  0
   -4.1790   51.9912   24.1876 H   0  0  0  0  0  0
   -4.6356   51.2855   26.4971 H   0  0  0  0  0  0
   -2.9083   51.3755   28.1890 H   0  0  0  0  0  0
    1.8143   52.3948   21.3371 H   0  0  0  0  0  0
    2.8490   53.6196   19.3002 H   0  0  0  0  0  0
    4.5008   53.0522   19.1765 H   0  0  0  0  0  0
    3.2115   51.9139   19.5285 H   0  0  0  0  0  0
    5.1668   52.4935   22.7691 H   0  0  0  0  0  0
    4.4758   51.1735   21.7908 H   0  0  0  0  0  0
    5.7224   52.2066   21.1254 H   0  0  0  0  0  0
    4.8916   54.7008   22.3662 H   0  0  0  0  0  0
    4.8538   55.0014   20.6436 H   0  0  0  0  0  0
    3.4307   55.2957   21.6635 H   0  0  0  0  0  0
   -1.2463   48.9839   23.2152 H   0  0  0  0  0  0
   -1.8230   46.2900   19.9590 H   0  0  0  0  0  0
   -0.9468   47.9608   18.4167 H   0  0  0  0  0  0
  1  2  1  0  0  0
  1 40  1  0  0  0
  1 41  1  0  0  0
  1 42  1  0  0  0
  2  3  1  0  0  0
  2 43  1  0  0  0
  2 44  1  0  0  0
  3  4  1  0  0  0
  3 45  1  0  0  0
  3 46  1  0  0  0
  4  5  1  0  0  0
  4 28  1  0  0  0
  5  6  1  0  0  0
  5  7  1  0  0  0
  5 21  1  0  0  0
  7 16  2  0  0  0
  7  8  1  0  0  0
  8  9  2  0  0  0
  8 47  1  0  0  0
  9 14  1  0  0  0
  9 10  1  0  0  0
 10 11  2  0  0  0
 10 48  1  0  0  0
 11 12  1  0  0  0
 11 49  1  0  0  0
 12 13  2  0  0  0
 12 50  1  0  0  0
 13 14  1  0  0  0
 13 51  1  0  0  0
 14 15  2  0  0  0
 15 20  1  0  0  0
 15 16  1  0  0  0
 16 17  1  0  0  0
 17 18  2  0  0  0
 17 52  1  0  0  0
 18 19  1  0  0  0
 18 53  1  0  0  0
 19 20  2  0  0  0
 19 54  1  0  0  0
 20 55  1  0  0  0
 21 22  2  0  0  0
 21 23  1  0  0  0
 23 24  1  0  0  0
 23 56  1  0  0  0
 24 25  1  0  0  0
 24 26  1  0  0  0
 24 27  1  0  0  0
 25 57  1  0  0  0
 25 58  1  0  0  0
 25 59  1  0  0  0
 26 60  1  0  0  0
 26 61  1  0  0  0
 26 62  1  0  0  0
 27 63  1  0  0  0
 27 64  1  0  0  0
 27 65  1  0  0  0
 28 29  2  0  0  0
 28 30  1  0  0  0
 30 35  2  0  0  0
 30 31  1  0  0  0
 31 32  2  0  0  0
 31 66  1  0  0  0
 32 33  1  0  0  0
 32 37  1  0  0  0
 33 34  2  0  0  0
 33 67  1  0  0  0
 34 35  1  0  0  0
 34 68  1  0  0  0
 35 36  1  0  0  0
 37 38  2  0  0  0
 37 39  1  0  0  0
M  CHG  3  36  -1  37   1  39  -1
M  END
> <i_i_glide_confnum>
44

> <i_i_glide_lignum>
4643

> <i_i_glide_posenum>
125

> <i_i_glide_rotatable_bonds>
10

> <i_m_Source_File_Index>
1943

> <b_m_subgroup_collapsed>
0

> <r_i_docking_score>
-2.95762

> <r_i_glide_ecoul>
-2.42312

> <r_i_glide_eff_state_penalty>
0

> <r_i_glide_einternal>
22.005

> <r_i_glide_emodel>
-32.5488

> <r_i_glide_energy>
-37.3073

> <r_i_glide_erotb>
0.468165

> <r_i_glide_esite>
-0.114491

> <r_i_glide_evdw>
-34.8842

> <r_i_glide_gscore>
-2.95762

> <r_i_glide_hbond>
0

> <r_i_glide_ligand_efficiency>
-0.0778321

> <r_i_glide_ligand_efficiency_ln>
-0.63775

> <r_i_glide_ligand_efficiency_sa>
-0.26167

> <r_i_glide_lipo>
-1.01152

> <r_i_glide_metal>
0

> <r_i_glide_rewards>
-0.192095

> <s_i_glide_gridfile>
wee1_glide-grid

> <s_m_Source_File>
wee1_decoys_glide_SP.sdf

> <s_m_Source_Path>
/Users/zhangxujun/Desktop

> <s_m_entry_id>
2218

> <s_m_entry_name>
wee1_decoys_glide_SP.1943

> <s_m_subgroup_title>
wee1_decoys_glide_SP

> <s_m_subgroupid>
wee1_decoys_glide_SP


$$$$
