ZINC08898650_971
                    3D
 Schrodinger Suite 2024-2.
 59 63  0  0  1  0            999 V2000
    3.5462   54.2067   22.6751 C   0  0  0  0  0  0
    2.5160   53.2067   23.1656 C   0  0  0  0  0  0
    2.0307   53.2893   24.4738 C   0  0  0  0  0  0
    1.1051   52.3692   24.9825 C   0  0  0  0  0  0
    0.6620   51.3509   24.1170 C   0  0  0  0  0  0
    1.1597   51.2683   22.7915 C   0  0  0  0  0  0
    2.0915   52.1917   22.3047 C   0  0  0  0  0  0
    0.4293   49.8873   21.9885 S   0  0  0  0  0  0
   -0.5047   49.5818   23.4550 C   0  0  0  0  0  0
   -0.2472   50.3946   24.4471 N   0  0  0  0  0  0
   -1.4634   48.5572   23.5630 N   0  0  0  0  0  0
   -2.2891   48.4014   24.7731 C   0  0  2  0  0  0
   -1.6025   48.2460   25.6102 H   0  0  0  0  0  0
   -3.0630   47.1392   24.5017 C   0  0  0  0  0  0
   -2.7096   46.7106   23.2861 C   0  0  0  0  0  0
   -1.7599   47.5992   22.6366 C   0  0  0  0  0  0
   -1.2958   47.4941   21.4960 O   0  0  0  0  0  0
   -3.0907   45.6516   22.6583 O   0  5  0  0  0  0
   -3.9267   46.4728   25.4831 C   0  0  0  0  0  0
   -3.6956   45.2968   25.7718 O   0  0  0  0  0  0
   -5.0312   47.2134   26.1560 C   0  0  0  0  0  0
   -5.8636   48.0733   25.4268 C   0  0  0  0  0  0
   -6.9009   48.7479   26.0665 C   0  0  0  0  0  0
   -7.1202   48.5490   27.4287 C   0  0  0  0  0  0
   -6.3148   47.6743   28.1568 C   0  0  0  0  0  0
   -5.2760   46.9997   27.5204 C   0  0  0  0  0  0
   -3.1374   49.6333   25.1364 C   0  0  0  0  0  0
   -3.6925   50.4671   24.1620 C   0  0  0  0  0  0
   -4.4381   51.5834   24.5370 C   0  0  0  0  0  0
   -4.6450   51.8908   25.8946 C   0  0  0  0  0  0
   -4.0803   51.0623   26.8804 C   0  0  0  0  0  0
   -3.3203   49.9534   26.4812 C   0  0  0  0  0  0
   -4.3215   51.3677   28.2109 O   0  0  0  0  0  0
   -3.7787   50.5276   29.2313 C   0  0  0  0  0  0
   -5.3902   52.9751   26.3243 O   0  0  0  0  0  0
   -6.0497   53.7951   25.3658 C   0  0  0  0  0  0
    0.6371   52.4953   26.4244 C   0  0  0  0  0  0
    3.0691   54.9871   22.0818 H   0  0  0  0  0  0
    4.0948   54.6629   23.5019 H   0  0  0  0  0  0
    4.2891   53.7128   22.0448 H   0  0  0  0  0  0
    2.3906   54.0799   25.1172 H   0  0  0  0  0  0
    2.4698   52.1203   21.2950 H   0  0  0  0  0  0
   -5.7043   48.2319   24.3682 H   0  0  0  0  0  0
   -7.5306   49.4261   25.5094 H   0  0  0  0  0  0
   -7.9225   49.0776   27.9243 H   0  0  0  0  0  0
   -6.4899   47.5262   29.2133 H   0  0  0  0  0  0
   -4.6460   46.3331   28.0945 H   0  0  0  0  0  0
   -3.5530   50.2499   23.1128 H   0  0  0  0  0  0
   -4.8588   52.1954   23.7546 H   0  0  0  0  0  0
   -2.8956   49.2970   27.2213 H   0  0  0  0  0  0
   -4.0867   50.8960   30.2091 H   0  0  0  0  0  0
   -4.1369   49.5009   29.1448 H   0  0  0  0  0  0
   -2.6876   50.5207   29.2128 H   0  0  0  0  0  0
   -6.6227   54.5620   25.8854 H   0  0  0  0  0  0
   -6.7515   53.2202   24.7585 H   0  0  0  0  0  0
   -5.3391   54.3007   24.7091 H   0  0  0  0  0  0
    1.0993   53.3358   26.9423 H   0  0  0  0  0  0
   -0.4454   52.6153   26.4614 H   0  0  0  0  0  0
    0.8763   51.5835   26.9724 H   0  0  0  0  0  0
  1  2  1  0  0  0
  1 38  1  0  0  0
  1 39  1  0  0  0
  1 40  1  0  0  0
  2  7  2  0  0  0
  2  3  1  0  0  0
  3  4  2  0  0  0
  3 41  1  0  0  0
  4  5  1  0  0  0
  4 37  1  0  0  0
  5 10  1  0  0  0
  5  6  2  0  0  0
  6  7  1  0  0  0
  6  8  1  0  0  0
  7 42  1  0  0  0
  8  9  1  0  0  0
  9 10  2  0  0  0
  9 11  1  0  0  0
 11 16  1  0  0  0
 11 12  1  0  0  0
 12 13  1  0  0  0
 12 14  1  0  0  0
 12 27  1  0  0  0
 14 15  2  0  0  0
 14 19  1  0  0  0
 15 16  1  0  0  0
 15 18  1  0  0  0
 16 17  2  0  0  0
 19 20  2  0  0  0
 19 21  1  0  0  0
 21 26  2  0  0  0
 21 22  1  0  0  0
 22 23  2  0  0  0
 22 43  1  0  0  0
 23 24  1  0  0  0
 23 44  1  0  0  0
 24 25  2  0  0  0
 24 45  1  0  0  0
 25 26  1  0  0  0
 25 46  1  0  0  0
 26 47  1  0  0  0
 27 32  2  0  0  0
 27 28  1  0  0  0
 28 29  2  0  0  0
 28 48  1  0  0  0
 29 30  1  0  0  0
 29 49  1  0  0  0
 30 31  2  0  0  0
 30 35  1  0  0  0
 31 32  1  0  0  0
 31 33  1  0  0  0
 32 50  1  0  0  0
 33 34  1  0  0  0
 34 51  1  0  0  0
 34 52  1  0  0  0
 34 53  1  0  0  0
 35 36  1  0  0  0
 36 54  1  0  0  0
 36 55  1  0  0  0
 36 56  1  0  0  0
 37 57  1  0  0  0
 37 58  1  0  0  0
 37 59  1  0  0  0
M  CHG  1  18  -1
M  END
> <i_i_glide_confnum>
5

> <i_i_glide_lignum>
972

> <i_i_glide_posenum>
121

> <i_i_glide_rotatable_bonds>
6

> <i_m_Source_File_Index>
2248

> <b_m_subgroup_collapsed>
0

> <r_i_docking_score>
-3.28426

> <r_i_glide_ecoul>
-5.96508

> <r_i_glide_eff_state_penalty>
0

> <r_i_glide_einternal>
6.60464

> <r_i_glide_emodel>
-42.5769

> <r_i_glide_energy>
-35.5379

> <r_i_glide_erotb>
0.327196

> <r_i_glide_esite>
-0.0669873

> <r_i_glide_evdw>
-29.5728

> <r_i_glide_gscore>
-3.28426

> <r_i_glide_hbond>
-0.163331

> <r_i_glide_ligand_efficiency>
-0.0912295

> <r_i_glide_ligand_efficiency_ln>
-0.716537

> <r_i_glide_ligand_efficiency_sa>
-0.301233

> <r_i_glide_lipo>
-1.00473

> <r_i_glide_metal>
0

> <r_i_glide_rewards>
-0.00300941

> <s_i_glide_gridfile>
wee1_glide-grid

> <s_m_Source_File>
wee1_decoys_glide_SP.sdf

> <s_m_Source_Path>
/Users/zhangxujun/Desktop

> <s_m_entry_id>
2523

> <s_m_entry_name>
wee1_decoys_glide_SP.2248

> <s_m_subgroup_title>
wee1_decoys_glide_SP

> <s_m_subgroupid>
wee1_decoys_glide_SP


$$$$
