ZINC65074652_203
                    3D
 Schrodinger Suite 2024-2.
 64 67  0  0  1  0            999 V2000
    1.4392   51.8628   29.4125 C   0  0  0  0  0  0
    1.6709   52.3300   27.9915 C   0  0  0  0  0  0
    2.8670   52.9251   27.6211 C   0  0  0  0  0  0
    3.1050   53.3070   26.2958 C   0  0  0  0  0  0
    2.1148   53.1026   25.2941 C   0  0  0  0  0  0
    0.8847   52.5145   25.7047 C   0  0  0  0  0  0
    0.6936   52.1243   27.0322 C   0  0  0  0  0  0
   -0.2970   52.2353   24.7859 C   0  0  0  0  0  0
    2.3298   53.7528   23.5793 S   0  0  0  0  0  0
    3.6026   54.4736   23.4851 O   0  0  0  0  0  0
    1.1044   54.4911   23.2817 O   0  0  0  0  0  0
    2.4235   52.3491   22.4654 N   0  0  0  0  0  0
    3.6835   52.0862   21.7207 C   0  0  0  0  0  0
    3.5769   52.5596   20.2523 C   0  0  0  0  0  0
    2.3865   51.8933   19.4933 C   0  0  0  0  0  0
    1.0968   52.1705   20.3187 C   0  0  0  0  0  0
    1.1988   51.8069   21.8165 C   0  0  0  0  0  0
    2.2074   52.3824   18.0439 C   0  0  0  0  0  0
    1.6098   51.6242   17.1135 N   0  3  0  0  0  0
    1.3068   50.2004   17.2411 C   0  0  0  0  0  0
    1.6622   49.6834   18.6461 C   0  0  0  0  0  0
    2.7045   50.4687   19.2988 N   0  0  0  0  0  0
    2.6323   53.6148   17.7326 N   0  0  0  0  0  0
    2.5189   54.2747   16.4227 C   0  0  0  0  0  0
    1.0982   54.7198   16.1140 C   0  0  0  0  0  0
    0.3694   54.1269   15.0784 C   0  0  0  0  0  0
   -0.9494   54.5176   14.8384 C   0  0  0  0  0  0
   -1.5480   55.4980   15.6320 C   0  0  0  0  0  0
   -0.8193   56.1012   16.6606 C   0  0  0  0  0  0
    0.5035   55.7223   16.8835 C   0  0  0  0  0  0
   -1.5421   57.2977   17.6766 Cl  0  0  0  0  0  0
   -2.8336   55.8514   15.4020 F   0  0  0  0  0  0
    4.4800   53.9088   26.0299 C   0  0  0  0  0  0
    0.8093   52.5668   29.9571 H   0  0  0  0  0  0
    0.9292   50.8998   29.3865 H   0  0  0  0  0  0
    2.3761   51.7187   29.9505 H   0  0  0  0  0  0
    3.6302   53.0734   28.3715 H   0  0  0  0  0  0
   -0.2312   51.6492   27.3315 H   0  0  0  0  0  0
   -1.2103   52.0419   25.3502 H   0  0  0  0  0  0
   -0.5501   53.0743   24.1457 H   0  0  0  0  0  0
   -0.0985   51.3488   24.1870 H   0  0  0  0  0  0
    3.8881   51.0160   21.7659 H   0  0  0  0  0  0
    4.5112   52.5856   22.2236 H   0  0  0  0  0  0
    4.5139   52.3565   19.7305 H   0  0  0  0  0  0
    3.4681   53.6451   20.2584 H   0  0  0  0  0  0
    0.8517   53.2274   20.2476 H   0  0  0  0  0  0
    0.2353   51.6738   19.8766 H   0  0  0  0  0  0
    1.1718   50.7292   21.9795 H   0  0  0  0  0  0
    0.3243   52.2265   22.3011 H   0  0  0  0  0  0
    0.2562   50.0354   17.0029 H   0  0  0  0  0  0
    1.9048   49.6894   16.4864 H   0  0  0  0  0  0
    0.7721   49.6543   19.2743 H   0  0  0  0  0  0
    2.0096   48.6524   18.5580 H   0  0  0  0  0  0
    3.6017   50.3523   18.8088 H   0  0  0  0  0  0
    3.0388   54.1520   18.4861 H   0  0  0  0  0  0
    2.9054   53.5887   15.6678 H   0  0  0  0  0  0
    3.1798   55.1420   16.4463 H   0  0  0  0  0  0
    0.8157   53.3619   14.4593 H   0  0  0  0  0  0
   -1.5127   54.0564   14.0404 H   0  0  0  0  0  0
    1.0621   56.1889   17.6812 H   0  0  0  0  0  0
    5.1528   53.8129   26.8830 H   0  0  0  0  0  0
    4.9697   53.3923   25.2045 H   0  0  0  0  0  0
    4.3976   54.9681   25.7859 H   0  0  0  0  0  0
    1.4981   52.0492   16.2050 H   0  0  0  0  0  0
  1  2  1  0  0  0
  1 34  1  0  0  0
  1 35  1  0  0  0
  1 36  1  0  0  0
  2  7  2  0  0  0
  2  3  1  0  0  0
  3  4  2  0  0  0
  3 37  1  0  0  0
  4  5  1  0  0  0
  4 33  1  0  0  0
  5  6  2  0  0  0
  5  9  1  0  0  0
  6  7  1  0  0  0
  6  8  1  0  0  0
  7 38  1  0  0  0
  8 39  1  0  0  0
  8 40  1  0  0  0
  8 41  1  0  0  0
  9 10  2  0  0  0
  9 11  2  0  0  0
  9 12  1  0  0  0
 12 17  1  0  0  0
 12 13  1  0  0  0
 13 14  1  0  0  0
 13 42  1  0  0  0
 13 43  1  0  0  0
 14 15  1  0  0  0
 14 44  1  0  0  0
 14 45  1  0  0  0
 15 22  1  0  0  0
 15 16  1  0  0  0
 15 18  1  0  0  0
 16 17  1  0  0  0
 16 46  1  0  0  0
 16 47  1  0  0  0
 17 48  1  0  0  0
 17 49  1  0  0  0
 18 19  2  0  0  0
 18 23  1  0  0  0
 19 20  1  0  0  0
 19 64  1  0  0  0
 20 21  1  0  0  0
 20 50  1  0  0  0
 20 51  1  0  0  0
 21 22  1  0  0  0
 21 52  1  0  0  0
 21 53  1  0  0  0
 22 54  1  0  0  0
 23 24  1  0  0  0
 23 55  1  0  0  0
 24 25  1  0  0  0
 24 56  1  0  0  0
 24 57  1  0  0  0
 25 30  2  0  0  0
 25 26  1  0  0  0
 26 27  2  0  0  0
 26 58  1  0  0  0
 27 28  1  0  0  0
 27 59  1  0  0  0
 28 29  2  0  0  0
 28 32  1  0  0  0
 29 30  1  0  0  0
 29 31  1  0  0  0
 30 60  1  0  0  0
 33 61  1  0  0  0
 33 62  1  0  0  0
 33 63  1  0  0  0
M  CHG  1  19   1
M  END
> <i_i_glide_confnum>
142

> <i_i_glide_lignum>
204

> <i_i_glide_posenum>
390

> <i_i_glide_rotatable_bonds>
5

> <i_m_Source_File_Index>
5023

> <b_m_subgroup_collapsed>
0

> <r_i_docking_score>
-3.84066

> <r_i_glide_ecoul>
-4.29645

> <r_i_glide_eff_state_penalty>
0

> <r_i_glide_einternal>
3.45015

> <r_i_glide_emodel>
-42.7328

> <r_i_glide_energy>
-34.0529

> <r_i_glide_erotb>
0.417397

> <r_i_glide_esite>
-0.0897457

> <r_i_glide_evdw>
-29.7565

> <r_i_glide_gscore>
-3.84066

> <r_i_glide_hbond>
-0.16

> <r_i_glide_ligand_efficiency>
-0.116384

> <r_i_glide_ligand_efficiency_ln>
-0.854144

> <r_i_glide_ligand_efficiency_sa>
-0.373305

> <r_i_glide_lipo>
-1.42767

> <r_i_glide_metal>
0

> <r_i_glide_rewards>
-0.448349

> <s_i_glide_gridfile>
wee1_glide-grid

> <s_m_Source_File>
wee1_decoys_glide_SP.sdf

> <s_m_Source_Path>
/Users/zhangxujun/Desktop

> <s_m_entry_id>
5298

> <s_m_entry_name>
wee1_decoys_glide_SP.5023

> <s_m_subgroup_title>
wee1_decoys_glide_SP

> <s_m_subgroupid>
wee1_decoys_glide_SP


$$$$
