ZINC03336212_3288
                    3D
 Schrodinger Suite 2024-2.
 62 67  0  0  1  0            999 V2000
    6.9651   55.0365   21.9902 C   0  0  0  0  0  0
    5.9969   54.7080   23.1139 C   0  0  0  0  0  0
    4.7722   54.0960   22.8395 C   0  0  0  0  0  0
    3.8570   53.8769   23.8680 C   0  0  0  0  0  0
    4.1556   54.2546   25.1843 C   0  0  0  0  0  0
    5.3894   54.8702   25.4436 C   0  0  0  0  0  0
    6.3057   55.0893   24.4183 C   0  0  0  0  0  0
    3.1922   54.0011   26.2870 C   0  0  0  0  0  0
    3.2616   54.4380   27.5543 C   0  0  0  0  0  0
    2.1365   53.8361   28.3698 C   0  0  1  0  0  0
    1.4591   54.6191   28.7147 H   0  0  0  0  0  0
    1.4454   52.9695   27.4148 N   0  0  0  0  0  0
    2.0564   53.2069   26.1787 N   0  0  0  0  0  0
    0.3015   52.2617   27.5964 C   0  0  0  0  0  0
   -0.3493   52.3383   28.6378 O   0  0  0  0  0  0
   -0.1847   51.2807   26.5062 C   0  0  0  0  0  0
   -1.3768   51.8031   25.8083 N   0  0  0  0  0  0
   -2.6283   51.7481   26.3195 C   0  0  0  0  0  0
   -2.9924   51.2973   27.4066 O   0  0  0  0  0  0
   -3.5424   52.3712   25.2688 C   0  0  2  0  0  0
   -4.3395   53.5308   25.9343 C   0  0  0  0  0  0
   -5.4992   53.9931   25.0506 C   0  0  0  0  0  0
   -6.4974   52.8392   24.8814 C   0  0  0  0  0  0
   -5.8312   51.5579   24.3832 C   0  0  0  0  0  0
   -4.4532   51.3011   24.6038 C   0  0  0  0  0  0
   -3.9248   50.0943   24.1042 C   0  0  0  0  0  0
   -4.7125   49.1657   23.4321 C   0  0  0  0  0  0
   -6.0590   49.4282   23.2256 C   0  0  0  0  0  0
   -6.6065   50.6161   23.6958 C   0  0  0  0  0  0
   -2.5443   52.8408   24.3422 N   0  0  0  0  0  0
   -1.2887   52.4965   24.6461 C   0  0  0  0  0  0
   -0.2723   52.8967   24.0816 O   0  0  0  0  0  0
    2.6462   53.1083   29.6053 C   0  0  0  0  0  0
    3.9034   52.7170   30.0464 C   0  0  0  0  0  0
    3.7305   52.0964   31.2817 C   0  0  0  0  0  0
    2.3694   52.0969   31.5298 C   0  0  0  0  0  0
    1.7179   52.7281   30.5229 O   0  0  0  0  0  0
    6.5471   54.8147   21.0081 H   0  0  0  0  0  0
    7.2097   56.0988   22.0118 H   0  0  0  0  0  0
    7.9046   54.4973   22.1047 H   0  0  0  0  0  0
    4.5159   53.8093   21.8297 H   0  0  0  0  0  0
    2.9105   53.4119   23.6330 H   0  0  0  0  0  0
    5.6545   55.1738   26.4451 H   0  0  0  0  0  0
    7.2491   55.5712   24.6299 H   0  0  0  0  0  0
    4.0114   55.0795   27.9916 H   0  0  0  0  0  0
    1.7969   52.4969   25.5093 H   0  0  0  0  0  0
   -0.4196   50.3325   26.9967 H   0  0  0  0  0  0
    0.6118   51.0388   25.8023 H   0  0  0  0  0  0
   -3.6955   54.3800   26.1680 H   0  0  0  0  0  0
   -4.7882   53.1980   26.8738 H   0  0  0  0  0  0
   -5.1346   54.3386   24.0818 H   0  0  0  0  0  0
   -6.0030   54.8378   25.5188 H   0  0  0  0  0  0
   -7.2996   53.1410   24.2057 H   0  0  0  0  0  0
   -6.9708   52.6274   25.8412 H   0  0  0  0  0  0
   -2.8764   49.8683   24.2315 H   0  0  0  0  0  0
   -4.2762   48.2479   23.0664 H   0  0  0  0  0  0
   -6.6780   48.7151   22.7007 H   0  0  0  0  0  0
   -7.6559   50.8084   23.5256 H   0  0  0  0  0  0
   -2.8188   53.1065   23.4096 H   0  0  0  0  0  0
    4.8366   52.8762   29.5262 H   0  0  0  0  0  0
    4.5037   51.6880   31.9153 H   0  0  0  0  0  0
    1.7542   51.7400   32.3454 H   0  0  0  0  0  0
  1  2  1  0  0  0
  1 38  1  0  0  0
  1 39  1  0  0  0
  1 40  1  0  0  0
  2  7  2  0  0  0
  2  3  1  0  0  0
  3  4  2  0  0  0
  3 41  1  0  0  0
  4  5  1  0  0  0
  4 42  1  0  0  0
  5  6  2  0  0  0
  5  8  1  0  0  0
  6  7  1  0  0  0
  6 43  1  0  0  0
  7 44  1  0  0  0
  8 13  1  0  0  0
  8  9  2  0  0  0
  9 10  1  0  0  0
  9 45  1  0  0  0
 10 11  1  0  0  0
 10 12  1  0  0  0
 10 33  1  0  0  0
 12 13  1  0  0  0
 12 14  1  0  0  0
 13 46  1  0  0  0
 14 15  2  0  0  0
 14 16  1  0  0  0
 16 17  1  0  0  0
 16 47  1  0  0  0
 16 48  1  0  0  0
 17 31  1  0  0  0
 17 18  1  0  0  0
 18 19  2  0  0  0
 18 20  1  0  0  0
 20 25  1  0  0  0
 20 21  1  0  0  0
 20 30  1  0  0  0
 21 22  1  0  0  0
 21 49  1  0  0  0
 21 50  1  0  0  0
 22 23  1  0  0  0
 22 51  1  0  0  0
 22 52  1  0  0  0
 23 24  1  0  0  0
 23 53  1  0  0  0
 23 54  1  0  0  0
 24 29  2  0  0  0
 24 25  1  0  0  0
 25 26  2  0  0  0
 26 27  1  0  0  0
 26 55  1  0  0  0
 27 28  2  0  0  0
 27 56  1  0  0  0
 28 29  1  0  0  0
 28 57  1  0  0  0
 29 58  1  0  0  0
 30 31  1  0  0  0
 30 59  1  0  0  0
 31 32  2  0  0  0
 33 37  1  0  0  0
 33 34  2  0  0  0
 34 35  1  0  0  0
 34 60  1  0  0  0
 35 36  2  0  0  0
 35 61  1  0  0  0
 36 37  1  0  0  0
 36 62  1  0  0  0
M  END
> <i_i_glide_confnum>
10

> <i_i_glide_lignum>
3289

> <i_i_glide_posenum>
400

> <i_i_glide_rotatable_bonds>
5

> <i_m_Source_File_Index>
5387

> <b_m_subgroup_collapsed>
0

> <r_i_docking_score>
-5.69351

> <r_i_glide_ecoul>
-0.81428

> <r_i_glide_eff_state_penalty>
0

> <r_i_glide_einternal>
5.77785

> <r_i_glide_emodel>
-61.101

> <r_i_glide_energy>
-47.103

> <r_i_glide_erotb>
0.435806

> <r_i_glide_esite>
-0.0423341

> <r_i_glide_evdw>
-46.2887

> <r_i_glide_gscore>
-5.69351

> <r_i_glide_hbond>
0

> <r_i_glide_ligand_efficiency>
-0.158153

> <r_i_glide_ligand_efficiency_ln>
-1.24217

> <r_i_glide_ligand_efficiency_sa>
-0.52221

> <r_i_glide_lipo>
-3.03109

> <r_i_glide_metal>
0

> <r_i_glide_rewards>
-0.619313

> <s_i_glide_gridfile>
wee1_glide-grid

> <s_m_Source_File>
wee1_decoys_glide_SP.sdf

> <s_m_Source_Path>
/Users/zhangxujun/Desktop

> <s_m_entry_id>
5662

> <s_m_entry_name>
wee1_decoys_glide_SP.5387

> <s_m_subgroup_title>
wee1_decoys_glide_SP

> <s_m_subgroupid>
wee1_decoys_glide_SP


$$$$
