ZINC36213576_2725
                    3D
 Schrodinger Suite 2024-2.
 70 72  0  0  1  0            999 V2000
   -4.0697   50.2034   23.6844 C   0  0  0  0  0  0
   -3.1763   51.3371   24.2188 C   0  0  1  0  0  0
   -3.5302   52.2481   23.7310 H   0  0  0  0  0  0
   -3.3766   51.5965   25.7334 C   0  0  0  0  0  0
   -2.6404   50.6081   26.6444 C   0  0  0  0  0  0
   -1.1669   50.5424   26.2499 C   0  0  0  0  0  0
   -0.9728   50.1745   24.7655 C   0  0  0  0  0  0
   -1.7274   51.1428   23.9249 N   0  0  0  0  0  0
   -1.2125   51.7228   22.7966 C   0  0  0  0  0  0
   -1.8721   52.4938   22.0885 O   0  0  0  0  0  0
    0.2749   51.4959   22.3679 C   0  0  2  0  0  0
    0.6774   50.5803   22.7925 H   0  0  0  0  0  0
    1.1845   52.6830   22.8252 C   0  0  0  0  0  0
    1.3650   52.7358   24.3546 C   0  0  0  0  0  0
    2.0033   54.0691   24.7610 C   0  0  0  0  0  0
    3.3503   54.0830   24.1347 N   0  0  0  0  0  0
    3.3714   53.9876   22.6494 C   0  0  0  0  0  0
    2.6158   52.6930   22.2395 C   0  0  0  0  0  0
    4.5162   54.0998   24.8443 C   0  0  0  0  0  0
    5.6189   54.0906   24.2948 O   0  0  0  0  0  0
    4.3784   54.1696   26.1907 N   0  0  0  0  0  0
    5.3806   54.2934   27.2640 C   0  0  0  0  0  0
    6.6092   55.1408   26.8489 C   0  0  0  0  0  0
    5.9090   52.9157   27.6770 C   0  0  0  0  0  0
    4.6747   54.8954   28.5024 C   0  0  0  0  0  0
    0.3847   51.2383   20.9246 N   0  0  0  0  0  0
   -0.0883   50.1516   20.2868 C   0  0  0  0  0  0
   -0.6917   49.2398   20.8580 O   0  0  0  0  0  0
    0.1406   50.1097   18.7962 C   0  0  0  0  0  0
   -0.8079   49.4942   17.9677 C   0  0  0  0  0  0
   -0.6057   49.4298   16.5918 C   0  0  0  0  0  0
    0.5510   49.9721   16.0380 C   0  0  0  0  0  0
    1.5047   50.5815   16.8482 C   0  0  0  0  0  0
    1.3027   50.6510   18.2244 C   0  0  0  0  0  0
   -5.1128   50.3774   23.9468 H   0  0  0  0  0  0
   -4.0203   50.1383   22.5978 H   0  0  0  0  0  0
   -3.7924   49.2375   24.1083 H   0  0  0  0  0  0
   -4.4380   51.6238   25.9816 H   0  0  0  0  0  0
   -3.0035   52.5976   25.9544 H   0  0  0  0  0  0
   -3.0870   49.6150   26.5666 H   0  0  0  0  0  0
   -2.7356   50.9061   27.6892 H   0  0  0  0  0  0
   -0.6545   49.8112   26.8790 H   0  0  0  0  0  0
   -0.6822   51.4930   26.4697 H   0  0  0  0  0  0
   -1.3595   49.1717   24.5802 H   0  0  0  0  0  0
    0.1028   50.1871   24.6230 H   0  0  0  0  0  0
    0.7051   53.6013   22.4842 H   0  0  0  0  0  0
    1.8932   51.8634   24.7438 H   0  0  0  0  0  0
    0.3907   52.6958   24.8351 H   0  0  0  0  0  0
    1.9912   54.2107   25.8408 H   0  0  0  0  0  0
    1.4305   54.8958   24.3432 H   0  0  0  0  0  0
    2.8413   54.8571   22.2588 H   0  0  0  0  0  0
    4.3780   54.0124   22.2277 H   0  0  0  0  0  0
    2.5711   52.6542   21.1516 H   0  0  0  0  0  0
    3.1567   51.7792   22.4819 H   0  0  0  0  0  0
    3.4320   54.1246   26.5294 H   0  0  0  0  0  0
    7.2855   55.3025   27.6815 H   0  0  0  0  0  0
    6.3237   56.0954   26.4212 H   0  0  0  0  0  0
    7.2099   54.6339   26.0945 H   0  0  0  0  0  0
    5.1130   52.2114   27.9282 H   0  0  0  0  0  0
    6.5052   52.5101   26.8734 H   0  0  0  0  0  0
    6.5736   52.9909   28.5353 H   0  0  0  0  0  0
    4.0719   54.1488   29.0225 H   0  0  0  0  0  0
    5.3891   55.2900   29.2274 H   0  0  0  0  0  0
    3.9829   55.6967   28.2454 H   0  0  0  0  0  0
    0.8157   51.9673   20.3774 H   0  0  0  0  0  0
   -1.7077   49.0636   18.3859 H   0  0  0  0  0  0
   -1.3419   48.9544   15.9591 H   0  0  0  0  0  0
    0.7213   49.9103   14.9725 H   0  0  0  0  0  0
    2.4149   50.9740   16.4173 H   0  0  0  0  0  0
    2.0733   51.1049   18.8332 H   0  0  0  0  0  0
  1  2  1  0  0  0
  1 35  1  0  0  0
  1 36  1  0  0  0
  1 37  1  0  0  0
  2  3  1  0  0  0
  2  8  1  0  0  0
  2  4  1  0  0  0
  4  5  1  0  0  0
  4 38  1  0  0  0
  4 39  1  0  0  0
  5  6  1  0  0  0
  5 40  1  0  0  0
  5 41  1  0  0  0
  6  7  1  0  0  0
  6 42  1  0  0  0
  6 43  1  0  0  0
  7  8  1  0  0  0
  7 44  1  0  0  0
  7 45  1  0  0  0
  8  9  1  0  0  0
  9 10  2  0  0  0
  9 11  1  0  0  0
 11 12  1  0  0  0
 11 13  1  0  0  0
 11 26  1  0  0  0
 13 18  1  0  0  0
 13 14  1  0  0  0
 13 46  1  0  0  0
 14 15  1  0  0  0
 14 47  1  0  0  0
 14 48  1  0  0  0
 15 16  1  0  0  0
 15 49  1  0  0  0
 15 50  1  0  0  0
 16 17  1  0  0  0
 16 19  1  0  0  0
 17 18  1  0  0  0
 17 51  1  0  0  0
 17 52  1  0  0  0
 18 53  1  0  0  0
 18 54  1  0  0  0
 19 20  2  0  0  0
 19 21  1  0  0  0
 21 22  1  0  0  0
 21 55  1  0  0  0
 22 23  1  0  0  0
 22 24  1  0  0  0
 22 25  1  0  0  0
 23 56  1  0  0  0
 23 57  1  0  0  0
 23 58  1  0  0  0
 24 59  1  0  0  0
 24 60  1  0  0  0
 24 61  1  0  0  0
 25 62  1  0  0  0
 25 63  1  0  0  0
 25 64  1  0  0  0
 26 27  1  0  0  0
 26 65  1  0  0  0
 27 28  2  0  0  0
 27 29  1  0  0  0
 29 34  2  0  0  0
 29 30  1  0  0  0
 30 31  2  0  0  0
 30 66  1  0  0  0
 31 32  1  0  0  0
 31 67  1  0  0  0
 32 33  2  0  0  0
 32 68  1  0  0  0
 33 34  1  0  0  0
 33 69  1  0  0  0
 34 70  1  0  0  0
M  END
> <i_i_glide_confnum>
213

> <i_i_glide_lignum>
2726

> <i_i_glide_posenum>
385

> <i_i_glide_rotatable_bonds>
9

> <i_m_Source_File_Index>
4467

> <b_m_subgroup_collapsed>
0

> <r_i_docking_score>
-4.11307

> <r_i_glide_ecoul>
-4.122

> <r_i_glide_eff_state_penalty>
0

> <r_i_glide_einternal>
8.44532

> <r_i_glide_emodel>
-35.978

> <r_i_glide_energy>
-31.8604

> <r_i_glide_erotb>
0.71414

> <r_i_glide_esite>
-0.0053192

> <r_i_glide_evdw>
-27.7384

> <r_i_glide_gscore>
-4.11307

> <r_i_glide_hbond>
0

> <r_i_glide_ligand_efficiency>
-0.128533

> <r_i_glide_ligand_efficiency_ln>
-0.921028

> <r_i_glide_ligand_efficiency_sa>
-0.408068

> <r_i_glide_lipo>
-1.77602

> <r_i_glide_metal>
0

> <r_i_glide_rewards>
-1.04065

> <s_i_glide_gridfile>
wee1_glide-grid

> <s_m_Source_File>
wee1_decoys_glide_SP.sdf

> <s_m_Source_Path>
/Users/zhangxujun/Desktop

> <s_m_entry_id>
4742

> <s_m_entry_name>
wee1_decoys_glide_SP.4467

> <s_m_subgroup_title>
wee1_decoys_glide_SP

> <s_m_subgroupid>
wee1_decoys_glide_SP


$$$$
