ZINC13540445_966
                    3D
 Schrodinger Suite 2024-2.
 73 78  0  0  1  0            999 V2000
    0.6188   52.5909   16.8344 C   0  0  0  0  0  0
    1.6173   51.6655   17.5609 C   0  0  0  0  0  0
    2.4954   52.4788   18.5270 C   0  0  0  0  0  0
    0.9931   50.4392   18.2280 C   0  0  0  0  0  0
   -0.3312   50.2063   18.3975 C   0  0  0  0  0  0
   -0.7072   48.8585   19.0449 C   0  0  1  0  0  0
   -2.2285   48.6023   19.0782 C   0  0  0  0  0  0
   -2.5858   47.2231   19.6782 C   0  0  0  0  0  0
   -1.5661   46.0648   19.3985 C   0  0  2  0  0  0
   -0.8081   46.2339   20.1600 H   0  0  0  0  0  0
   -0.6467   46.2838   18.1313 C   0  0  1  0  0  0
   -0.0536   47.7706   18.1049 C   0  0  2  0  0  0
   -0.3311   48.1314   17.1116 H   0  0  0  0  0  0
    1.5040   48.0091   17.9914 C   0  0  0  0  0  0
    1.9075   49.3109   18.7570 C   0  0  2  0  0  0
    2.9692   49.5317   18.6323 H   0  0  0  0  0  0
    1.5390   49.0391   20.2603 C   0  0  2  0  0  0
    2.0331   48.1307   20.6116 H   0  0  0  0  0  0
    0.0290   48.9009   20.4486 C   0  0  1  0  0  0
   -0.1892   48.0082   21.0294 H   0  0  0  0  0  0
   -0.3275   50.0400   21.4093 C   0  0  0  0  0  0
   -1.4736   50.3439   21.7421 O   0  0  0  0  0  0
    0.8317   50.5818   21.8748 N   0  0  0  0  0  0
    1.9433   50.1243   21.2400 C   0  0  0  0  0  0
    3.1046   50.4792   21.4356 O   0  0  0  0  0  0
    0.9126   51.4972   22.9522 C   0  0  0  0  0  0
    1.5089   52.7489   22.7207 C   0  0  0  0  0  0
    1.7205   53.6428   23.7670 C   0  0  0  0  0  0
    1.3298   53.3004   25.0562 C   0  0  0  0  0  0
    0.6921   52.0862   25.2960 C   0  0  0  0  0  0
    0.4766   51.1685   24.2605 C   0  0  0  0  0  0
   -0.1842   49.8858   24.5925 N   0  3  0  0  0  0
   -1.1969   49.9364   25.2826 O   0  0  0  0  0  0
    0.3051   48.8412   24.1780 O   0  5  0  0  0  0
    0.4810   45.2151   18.1877 C   0  0  0  0  0  0
   -0.0385   43.7689   18.2078 C   0  0  0  0  0  0
   -0.9138   43.5139   19.4486 C   0  0  0  0  0  0
   -2.0446   44.5759   19.7421 C   0  0  2  0  0  0
   -3.3336   44.1785   18.9625 C   0  0  0  0  0  0
   -2.3274   44.4131   21.2819 C   0  0  0  0  0  0
   -2.7382   43.2969   21.6816 O   0  0  0  0  0  0
   -1.4504   46.0893   16.8048 C   0  0  0  0  0  0
   -0.0934   53.0339   17.5328 H   0  0  0  0  0  0
    1.1352   53.4075   16.3277 H   0  0  0  0  0  0
    0.0558   52.0473   16.0737 H   0  0  0  0  0  0
    2.2805   51.2645   16.7919 H   0  0  0  0  0  0
    1.9123   52.8485   19.3699 H   0  0  0  0  0  0
    3.3173   51.8808   18.9229 H   0  0  0  0  0  0
    2.9405   53.3418   18.0314 H   0  0  0  0  0  0
   -1.0811   50.9096   18.0722 H   0  0  0  0  0  0
   -2.7413   49.3862   19.6361 H   0  0  0  0  0  0
   -2.6247   48.6725   18.0644 H   0  0  0  0  0  0
   -2.7910   47.3157   20.7441 H   0  0  0  0  0  0
   -3.5418   46.9603   19.2272 H   0  0  0  0  0  0
    2.0637   47.2358   18.5124 H   0  0  0  0  0  0
    1.8561   47.9961   16.9589 H   0  0  0  0  0  0
    1.8464   53.0203   21.7304 H   0  0  0  0  0  0
    2.2008   54.5910   23.5796 H   0  0  0  0  0  0
    1.5058   53.9879   25.8711 H   0  0  0  0  0  0
    0.3799   51.8455   26.3034 H   0  0  0  0  0  0
    1.1041   45.3719   19.0700 H   0  0  0  0  0  0
    1.1415   45.3281   17.3270 H   0  0  0  0  0  0
    0.8133   43.0881   18.2285 H   0  0  0  0  0  0
   -0.5783   43.5139   17.2976 H   0  0  0  0  0  0
   -0.1958   43.4887   20.2758 H   0  0  0  0  0  0
   -1.3325   42.5063   19.3670 H   0  0  0  0  0  0
   -4.1758   44.8288   19.2004 H   0  0  0  0  0  0
   -3.2106   44.1926   17.8840 H   0  0  0  0  0  0
   -3.6522   43.1634   19.2068 H   0  0  0  0  0  0
   -1.8212   45.0859   16.6377 H   0  0  0  0  0  0
   -2.3184   46.7481   16.7592 H   0  0  0  0  0  0
   -0.8300   46.3116   15.9332 H   0  0  0  0  0  0
   -2.0957   45.3493   22.0778 O   0  5  0  0  0  0
  1  2  1  0  0  0
  1 43  1  0  0  0
  1 44  1  0  0  0
  1 45  1  0  0  0
  2  3  1  0  0  0
  2  4  1  0  0  0
  2 46  1  0  0  0
  3 47  1  0  0  0
  3 48  1  0  0  0
  3 49  1  0  0  0
  4 15  1  0  0  0
  4  5  2  0  0  0
  5  6  1  0  0  0
  5 50  1  0  0  0
  6 12  1  0  0  0
  6 19  1  0  0  0
  6  7  1  0  0  0
  7  8  1  0  0  0
  7 51  1  0  0  0
  7 52  1  0  0  0
  8  9  1  0  0  0
  8 53  1  0  0  0
  8 54  1  0  0  0
  9 10  1  0  0  0
  9 38  1  0  0  0
  9 11  1  0  0  0
 11 12  1  0  0  0
 11 35  1  0  0  0
 11 42  1  0  0  0
 12 13  1  0  0  0
 12 14  1  0  0  0
 14 15  1  0  0  0
 14 55  1  0  0  0
 14 56  1  0  0  0
 15 16  1  0  0  0
 15 17  1  0  0  0
 17 18  1  0  0  0
 17 24  1  0  0  0
 17 19  1  0  0  0
 19 20  1  0  0  0
 19 21  1  0  0  0
 21 22  2  0  0  0
 21 23  1  0  0  0
 23 24  1  0  0  0
 23 26  1  0  0  0
 24 25  2  0  0  0
 26 31  2  0  0  0
 26 27  1  0  0  0
 27 28  2  0  0  0
 27 57  1  0  0  0
 28 29  1  0  0  0
 28 58  1  0  0  0
 29 30  2  0  0  0
 29 59  1  0  0  0
 30 31  1  0  0  0
 30 60  1  0  0  0
 31 32  1  0  0  0
 32 33  2  0  0  0
 32 34  1  0  0  0
 35 36  1  0  0  0
 35 61  1  0  0  0
 35 62  1  0  0  0
 36 37  1  0  0  0
 36 63  1  0  0  0
 36 64  1  0  0  0
 37 38  1  0  0  0
 37 65  1  0  0  0
 37 66  1  0  0  0
 38 39  1  0  0  0
 38 40  1  0  0  0
 39 67  1  0  0  0
 39 68  1  0  0  0
 39 69  1  0  0  0
 40 41  2  0  0  0
 40 73  1  0  0  0
 42 70  1  0  0  0
 42 71  1  0  0  0
 42 72  1  0  0  0
M  CHG  3  32   1  34  -1  73  -1
M  END
> <i_i_glide_confnum>
4

> <i_i_glide_lignum>
967

> <i_i_glide_posenum>
386

> <i_i_glide_rotatable_bonds>
4

> <i_m_Source_File_Index>
1273

> <b_m_subgroup_collapsed>
0

> <r_i_docking_score>
-2.84937

> <r_i_glide_ecoul>
-1.31984

> <r_i_glide_eff_state_penalty>
0

> <r_i_glide_einternal>
3.08017

> <r_i_glide_emodel>
-35.3432

> <r_i_glide_energy>
-29.6162

> <r_i_glide_erotb>
0.0760978

> <r_i_glide_esite>
-0.147161

> <r_i_glide_evdw>
-28.2963

> <r_i_glide_gscore>
-2.84937

> <r_i_glide_hbond>
-0.210007

> <r_i_glide_ligand_efficiency>
-0.0749833

> <r_i_glide_ligand_efficiency_ln>
-0.614407

> <r_i_glide_ligand_efficiency_sa>
-0.252092

> <r_i_glide_lipo>
-0.774578

> <r_i_glide_metal>
0

> <r_i_glide_rewards>
-0.180925

> <s_i_glide_gridfile>
wee1_glide-grid

> <s_m_Source_File>
wee1_decoys_glide_SP.sdf

> <s_m_Source_Path>
/Users/zhangxujun/Desktop

> <s_m_entry_id>
1548

> <s_m_entry_name>
wee1_decoys_glide_SP.1273

> <s_m_subgroup_title>
wee1_decoys_glide_SP

> <s_m_subgroupid>
wee1_decoys_glide_SP


$$$$
