ZINC09295269_2288
                    3D
 Schrodinger Suite 2024-2.
 53 57  0  0  1  0            999 V2000
    0.8235   53.9328   30.3681 C   0  0  0  0  0  0
    1.4188   52.8539   29.7184 C   0  0  0  0  0  0
    2.3417   53.0821   28.6996 C   0  0  0  0  0  0
    2.6651   54.3960   28.3175 C   0  0  0  0  0  0
    2.0546   55.4666   28.9763 C   0  0  0  0  0  0
    1.1439   55.2408   30.0066 C   0  0  0  0  0  0
    3.5569   54.7128   27.3070 O   0  0  0  0  0  0
    4.4285   53.6969   26.8122 C   0  0  0  0  0  0
    5.3895   54.2876   25.7920 C   0  0  0  0  0  0
    6.5041   54.8969   26.1105 N   0  0  0  0  0  0
    7.1029   55.2991   24.9235 N   0  0  0  0  0  0
    6.3362   54.9201   23.9324 C   0  0  0  0  0  0
    5.2228   54.2720   24.4217 N   0  0  0  0  0  0
    4.1611   53.7135   23.7052 N   0  0  0  0  0  0
    4.5443   53.2649   22.3597 C   0  0  2  0  0  0
    5.3744   52.5634   22.4711 H   0  0  0  0  0  0
    5.0753   54.4966   21.5606 C   0  0  1  0  0  0
    4.3505   55.2966   21.6625 H   0  0  0  0  0  0
    6.6565   55.1947   22.2125 S   0  0  0  0  0  0
    5.2071   54.3014   20.0236 C   0  0  0  0  0  0
    6.3044   54.0969   19.4999 O   0  0  0  0  0  0
    4.0660   54.3509   19.3061 N   0  0  0  0  0  0
    4.0140   54.2203   17.9143 C   0  0  0  0  0  0
    3.4763   53.0504   17.3679 C   0  0  0  0  0  0
    3.4163   52.8929   15.9826 C   0  0  0  0  0  0
    3.8747   53.9082   15.1404 C   0  0  0  0  0  0
    4.3998   55.0825   15.6853 C   0  0  0  0  0  0
    4.4691   55.2452   17.0699 C   0  0  0  0  0  0
    4.9674   56.3970   17.5804 F   0  0  0  0  0  0
    3.4206   52.4659   21.6819 C   0  0  0  0  0  0
    2.0770   52.8320   21.8330 C   0  0  0  0  0  0
    1.0753   52.0965   21.2043 C   0  0  0  0  0  0
    1.4142   51.0019   20.4124 C   0  0  0  0  0  0
    2.7461   50.6348   20.2478 C   0  0  0  0  0  0
    3.7478   51.3640   20.8826 C   0  0  0  0  0  0
    0.4398   50.2972   19.7907 F   0  0  0  0  0  0
    0.1122   53.7516   31.1612 H   0  0  0  0  0  0
    1.1593   51.8438   30.0019 H   0  0  0  0  0  0
    2.7861   52.2278   28.2101 H   0  0  0  0  0  0
    2.2990   56.4806   28.6940 H   0  0  0  0  0  0
    0.6907   56.0760   30.5207 H   0  0  0  0  0  0
    3.8480   52.8973   26.3489 H   0  0  0  0  0  0
    4.9946   53.2603   27.6356 H   0  0  0  0  0  0
    3.8418   52.9036   24.2184 H   0  0  0  0  0  0
    3.1787   54.4296   19.7844 H   0  0  0  0  0  0
    3.1335   52.2473   18.0063 H   0  0  0  0  0  0
    3.0248   51.9740   15.5678 H   0  0  0  0  0  0
    3.8276   53.7812   14.0685 H   0  0  0  0  0  0
    4.7548   55.8689   15.0352 H   0  0  0  0  0  0
    1.8036   53.6944   22.4237 H   0  0  0  0  0  0
    0.0394   52.3749   21.3181 H   0  0  0  0  0  0
    3.0070   49.8004   19.6119 H   0  0  0  0  0  0
    4.7810   51.0875   20.7287 H   0  0  0  0  0  0
  1  6  2  0  0  0
  1  2  1  0  0  0
  1 37  1  0  0  0
  2  3  2  0  0  0
  2 38  1  0  0  0
  3  4  1  0  0  0
  3 39  1  0  0  0
  4  5  2  0  0  0
  4  7  1  0  0  0
  5  6  1  0  0  0
  5 40  1  0  0  0
  6 41  1  0  0  0
  7  8  1  0  0  0
  8  9  1  0  0  0
  8 42  1  0  0  0
  8 43  1  0  0  0
  9 13  1  0  0  0
  9 10  2  0  0  0
 10 11  1  0  0  0
 11 12  2  0  0  0
 12 19  1  0  0  0
 12 13  1  0  0  0
 13 14  1  0  0  0
 14 15  1  0  0  0
 14 44  1  0  0  0
 15 16  1  0  0  0
 15 17  1  0  0  0
 15 30  1  0  0  0
 17 18  1  0  0  0
 17 19  1  0  0  0
 17 20  1  0  0  0
 20 21  2  0  0  0
 20 22  1  0  0  0
 22 23  1  0  0  0
 22 45  1  0  0  0
 23 28  2  0  0  0
 23 24  1  0  0  0
 24 25  2  0  0  0
 24 46  1  0  0  0
 25 26  1  0  0  0
 25 47  1  0  0  0
 26 27  2  0  0  0
 26 48  1  0  0  0
 27 28  1  0  0  0
 27 49  1  0  0  0
 28 29  1  0  0  0
 30 35  2  0  0  0
 30 31  1  0  0  0
 31 32  2  0  0  0
 31 50  1  0  0  0
 32 33  1  0  0  0
 32 51  1  0  0  0
 33 34  2  0  0  0
 33 36  1  0  0  0
 34 35  1  0  0  0
 34 52  1  0  0  0
 35 53  1  0  0  0
M  END
> <i_i_glide_confnum>
90

> <i_i_glide_lignum>
2289

> <i_i_glide_posenum>
37

> <i_i_glide_rotatable_bonds>
7

> <i_m_Source_File_Index>
3264

> <b_m_subgroup_collapsed>
0

> <r_i_docking_score>
-6.28055

> <r_i_glide_ecoul>
-4.30213

> <r_i_glide_eff_state_penalty>
0

> <r_i_glide_einternal>
12.1316

> <r_i_glide_emodel>
-65.2183

> <r_i_glide_energy>
-51.5949

> <r_i_glide_erotb>
0.617188

> <r_i_glide_esite>
-0.0185669

> <r_i_glide_evdw>
-47.2927

> <r_i_glide_gscore>
-6.28055

> <r_i_glide_hbond>
-0.32

> <r_i_glide_ligand_efficiency>
-0.184722

> <r_i_glide_ligand_efficiency_ln>
-1.38755

> <r_i_glide_ligand_efficiency_sa>
-0.598428

> <r_i_glide_lipo>
-2.13709

> <r_i_glide_metal>
0

> <r_i_glide_rewards>
-1.41212

> <s_i_glide_gridfile>
wee1_glide-grid

> <s_m_Source_File>
wee1_decoys_glide_SP.sdf

> <s_m_Source_Path>
/Users/zhangxujun/Desktop

> <s_m_entry_id>
3539

> <s_m_entry_name>
wee1_decoys_glide_SP.3264

> <s_m_subgroup_title>
wee1_decoys_glide_SP

> <s_m_subgroupid>
wee1_decoys_glide_SP


$$$$
