ZINC02310865_558
                    3D
 Schrodinger Suite 2024-2.
 56 59  0  0  1  0            999 V2000
    4.7224   53.9324   26.6437 C   0  0  0  0  0  0
    5.3238   54.0994   25.2715 C   0  0  0  0  0  0
    6.6108   54.2663   24.7974 C   0  0  0  0  0  0
    6.5249   54.3584   23.4088 C   0  0  0  0  0  0
    5.1778   54.2589   23.0773 C   0  0  0  0  0  0
    4.4618   54.0975   24.2239 O   0  0  0  0  0  0
    4.3740   54.3790   21.7829 C   0  0  1  0  0  0
    3.7364   55.2515   21.9312 H   0  0  0  0  0  0
    5.2880   54.6429   20.5681 C   0  0  0  0  0  0
    5.5144   53.6825   19.6482 C   0  0  0  0  0  0
    4.8244   52.4968   19.6817 N   0  0  0  0  0  0
    3.7980   52.2291   20.5618 C   0  0  0  0  0  0
    3.4649   53.1444   21.5180 C   0  0  0  0  0  0
    2.2118   53.0115   22.2994 C   0  0  0  0  0  0
    1.8295   53.8717   23.0929 O   0  0  0  0  0  0
    1.3740   51.7435   22.0696 C   0  0  0  0  0  0
    1.4953   51.2261   20.6245 C   0  0  0  0  0  0
    2.9666   50.9898   20.2376 C   0  0  0  0  0  0
    6.7336   53.7669   18.3386 S   0  0  0  0  0  0
    5.8475   53.2548   16.8319 C   0  0  0  0  0  0
    4.6515   54.1574   16.5394 C   0  0  0  0  0  0
    4.8420   55.2538   16.0135 O   0  0  0  0  0  0
    3.4474   53.6630   16.8908 N   0  0  0  0  0  0
    2.1987   54.3043   16.8685 C   0  0  0  0  0  0
    2.0340   55.6969   16.8563 C   0  0  0  0  0  0
    0.7566   56.2472   16.8819 C   0  0  0  0  0  0
   -0.3710   55.4179   16.9111 C   0  0  0  0  0  0
   -0.1991   54.0265   16.9309 C   0  0  0  0  0  0
    1.0785   53.4759   16.9171 C   0  0  0  0  0  0
   -1.7296   56.0337   16.9759 C   0  0  0  0  0  0
   -1.9358   57.2188   17.2364 O   0  0  0  0  0  0
   -2.9252   55.1563   16.6104 C   0  0  0  0  0  0
    6.0523   55.8509   20.5225 C   0  0  0  0  0  0
    6.6993   56.8114   20.4814 N   0  0  0  0  0  0
    5.4785   53.9875   27.4269 H   0  0  0  0  0  0
    4.2251   52.9681   26.7450 H   0  0  0  0  0  0
    3.9814   54.7041   26.8522 H   0  0  0  0  0  0
    7.5045   54.3158   25.3948 H   0  0  0  0  0  0
    7.3502   54.5110   22.7281 H   0  0  0  0  0  0
    5.1046   51.7584   19.0344 H   0  0  0  0  0  0
    0.3418   51.9278   22.3678 H   0  0  0  0  0  0
    1.7720   50.9889   22.7486 H   0  0  0  0  0  0
    1.0451   51.9513   19.9421 H   0  0  0  0  0  0
    0.9260   50.3031   20.5050 H   0  0  0  0  0  0
    2.9445   50.8297   19.1572 H   0  0  0  0  0  0
    3.3992   50.0915   20.6769 H   0  0  0  0  0  0
    6.5447   53.3280   15.9972 H   0  0  0  0  0  0
    5.5615   52.2049   16.8814 H   0  0  0  0  0  0
    3.4275   52.6951   17.1766 H   0  0  0  0  0  0
    2.8783   56.3692   16.8572 H   0  0  0  0  0  0
    0.6586   57.3254   16.8873 H   0  0  0  0  0  0
   -1.0417   53.3517   16.9712 H   0  0  0  0  0  0
    1.1908   52.4011   16.9430 H   0  0  0  0  0  0
   -3.0992   54.4027   17.3771 H   0  0  0  0  0  0
   -3.8251   55.7581   16.4818 H   0  0  0  0  0  0
   -2.7318   54.6416   15.6694 H   0  0  0  0  0  0
  1  2  1  0  0  0
  1 35  1  0  0  0
  1 36  1  0  0  0
  1 37  1  0  0  0
  2  6  1  0  0  0
  2  3  2  0  0  0
  3  4  1  0  0  0
  3 38  1  0  0  0
  4  5  2  0  0  0
  4 39  1  0  0  0
  5  6  1  0  0  0
  5  7  1  0  0  0
  7  8  1  0  0  0
  7 13  1  0  0  0
  7  9  1  0  0  0
  9 10  2  0  0  0
  9 33  1  0  0  0
 10 11  1  0  0  0
 10 19  1  0  0  0
 11 12  1  0  0  0
 11 40  1  0  0  0
 12 18  1  0  0  0
 12 13  2  0  0  0
 13 14  1  0  0  0
 14 15  2  0  0  0
 14 16  1  0  0  0
 16 17  1  0  0  0
 16 41  1  0  0  0
 16 42  1  0  0  0
 17 18  1  0  0  0
 17 43  1  0  0  0
 17 44  1  0  0  0
 18 45  1  0  0  0
 18 46  1  0  0  0
 19 20  1  0  0  0
 20 21  1  0  0  0
 20 47  1  0  0  0
 20 48  1  0  0  0
 21 22  2  0  0  0
 21 23  1  0  0  0
 23 24  1  0  0  0
 23 49  1  0  0  0
 24 29  2  0  0  0
 24 25  1  0  0  0
 25 26  2  0  0  0
 25 50  1  0  0  0
 26 27  1  0  0  0
 26 51  1  0  0  0
 27 28  2  0  0  0
 27 30  1  0  0  0
 28 29  1  0  0  0
 28 52  1  0  0  0
 29 53  1  0  0  0
 30 31  2  0  0  0
 30 32  1  0  0  0
 32 54  1  0  0  0
 32 55  1  0  0  0
 32 56  1  0  0  0
 33 34  3  0  0  0
M  END
> <i_i_glide_confnum>
75

> <i_i_glide_lignum>
559

> <i_i_glide_posenum>
366

> <i_i_glide_rotatable_bonds>
8

> <i_m_Source_File_Index>
2712

> <b_m_subgroup_collapsed>
0

> <r_i_docking_score>
-5.41126

> <r_i_glide_ecoul>
-7.51593

> <r_i_glide_eff_state_penalty>
0

> <r_i_glide_einternal>
4.12943

> <r_i_glide_emodel>
-61.7095

> <r_i_glide_energy>
-45.3019

> <r_i_glide_erotb>
0.567202

> <r_i_glide_esite>
-0.119217

> <r_i_glide_evdw>
-37.786

> <r_i_glide_gscore>
-5.41126

> <r_i_glide_hbond>
-0.456

> <r_i_glide_ligand_efficiency>
-0.163977

> <r_i_glide_ligand_efficiency_ln>
-1.20344

> <r_i_glide_ligand_efficiency_sa>
-0.525963

> <r_i_glide_lipo>
-1.83513

> <r_i_glide_metal>
0

> <r_i_glide_rewards>
-0.551425

> <s_i_glide_gridfile>
wee1_glide-grid

> <s_m_Source_File>
wee1_decoys_glide_SP.sdf

> <s_m_Source_Path>
/Users/zhangxujun/Desktop

> <s_m_entry_id>
2987

> <s_m_entry_name>
wee1_decoys_glide_SP.2712

> <s_m_subgroup_title>
wee1_decoys_glide_SP

> <s_m_subgroupid>
wee1_decoys_glide_SP


$$$$
