ZINC38741288_3326
                    3D
 Schrodinger Suite 2024-2.
 67 71  0  0  1  0            999 V2000
   -0.4953   48.0775   20.3442 C   0  0  0  0  0  0
   -0.7397   49.5360   19.9332 C   0  0  0  0  0  0
   -0.3398   50.5027   20.9649 N   0  0  0  0  0  0
    0.9358   51.0355   20.8889 C   0  0  0  0  0  0
    1.4834   51.9393   21.7474 C   0  0  0  0  0  0
    0.6635   52.4137   22.9086 C   0  0  0  0  0  0
    1.0240   53.2307   23.7574 O   0  0  0  0  0  0
   -0.7243   51.8266   22.9705 C   0  0  0  0  0  0
   -1.1981   50.8946   22.0189 C   0  0  0  0  0  0
   -2.4581   50.3826   22.0638 N   0  0  0  0  0  0
   -3.2877   50.7858   23.0570 C   0  0  0  0  0  0
   -2.9018   51.6947   24.0383 C   0  0  0  0  0  0
   -1.6069   52.2114   23.9928 C   0  0  0  0  0  0
   -4.6785   50.1866   23.0366 C   0  0  0  0  0  0
    2.8329   52.4222   21.4314 C   0  0  0  0  0  0
    3.4351   52.0448   20.4202 O   0  0  0  0  0  0
    3.3744   53.3171   22.2879 N   0  0  0  0  0  0
    4.5562   54.0117   22.0773 C   0  0  0  0  0  0
    5.1385   54.4146   20.8866 C   0  0  0  0  0  0
    6.2942   55.1198   21.2113 C   0  0  0  0  0  0
    6.4532   55.1227   22.5203 N   0  0  0  0  0  0
    5.3998   54.4708   23.0846 N   0  0  0  0  0  0
    5.2645   54.3759   24.5025 C   0  0  0  0  0  0
    6.3284   54.5340   25.2247 N   0  5  0  0  0  0
    6.2942   54.4096   26.5478 C   0  0  0  0  0  0
    7.2721   54.4962   27.2816 O   0  0  0  0  0  0
    4.9964   54.1250   27.1784 C   0  0  0  0  0  0
    3.9200   54.0039   26.3373 C   0  0  0  0  0  0
    4.0687   54.1384   24.9735 N   0  0  0  0  0  0
    2.5300   53.6143   26.8433 C   0  0  0  0  0  0
    2.5657   53.0297   28.2730 C   0  0  0  0  0  0
    3.4617   53.8640   29.2035 C   0  0  0  0  0  0
    4.9191   53.9162   28.6986 C   0  0  0  0  0  0
    7.2811   55.8225   20.2704 C   0  0  0  0  0  0
    6.7518   57.2399   19.9760 C   0  0  0  0  0  0
    8.7017   55.8977   20.8805 C   0  0  0  0  0  0
    7.3898   55.0609   18.9306 C   0  0  0  0  0  0
   -0.8619   47.3946   19.5771 H   0  0  0  0  0  0
    0.5700   47.8788   20.4820 H   0  0  0  0  0  0
   -1.0087   47.8368   21.2759 H   0  0  0  0  0  0
   -0.2054   49.7380   19.0019 H   0  0  0  0  0  0
   -1.7937   49.6792   19.6888 H   0  0  0  0  0  0
    1.4941   50.6741   20.0346 H   0  0  0  0  0  0
   -3.5829   51.9920   24.8194 H   0  0  0  0  0  0
   -1.3028   52.9153   24.7583 H   0  0  0  0  0  0
   -4.6631   49.1844   23.4675 H   0  0  0  0  0  0
   -5.3790   50.7961   23.6110 H   0  0  0  0  0  0
   -5.0617   50.1158   22.0171 H   0  0  0  0  0  0
    2.9217   53.4644   23.1829 H   0  0  0  0  0  0
    4.7469   54.2397   19.8930 H   0  0  0  0  0  0
    1.8936   54.4965   26.8359 H   0  0  0  0  0  0
    2.0586   52.8971   26.1715 H   0  0  0  0  0  0
    1.5514   52.9768   28.6777 H   0  0  0  0  0  0
    2.9378   52.0042   28.2385 H   0  0  0  0  0  0
    3.0616   54.8793   29.2832 H   0  0  0  0  0  0
    3.4411   53.4444   30.2117 H   0  0  0  0  0  0
    5.4117   52.9700   28.9283 H   0  0  0  0  0  0
    5.4759   54.6790   29.2485 H   0  0  0  0  0  0
    6.6986   57.8378   20.8820 H   0  0  0  0  0  0
    7.3741   57.7777   19.2587 H   0  0  0  0  0  0
    5.7457   57.2113   19.5592 H   0  0  0  0  0  0
    9.0711   54.9002   21.1277 H   0  0  0  0  0  0
    9.4203   56.3594   20.2015 H   0  0  0  0  0  0
    8.7072   56.4778   21.8037 H   0  0  0  0  0  0
    6.4295   54.9872   18.4177 H   0  0  0  0  0  0
    8.0816   55.5496   18.2424 H   0  0  0  0  0  0
    7.7480   54.0442   19.0791 H   0  0  0  0  0  0
  1  2  1  0  0  0
  1 38  1  0  0  0
  1 39  1  0  0  0
  1 40  1  0  0  0
  2  3  1  0  0  0
  2 41  1  0  0  0
  2 42  1  0  0  0
  3  9  1  0  0  0
  3  4  1  0  0  0
  4  5  2  0  0  0
  4 43  1  0  0  0
  5  6  1  0  0  0
  5 15  1  0  0  0
  6  7  2  0  0  0
  6  8  1  0  0  0
  8 13  2  0  0  0
  8  9  1  0  0  0
  9 10  2  0  0  0
 10 11  1  0  0  0
 11 12  2  0  0  0
 11 14  1  0  0  0
 12 13  1  0  0  0
 12 44  1  0  0  0
 13 45  1  0  0  0
 14 46  1  0  0  0
 14 47  1  0  0  0
 14 48  1  0  0  0
 15 16  2  0  0  0
 15 17  1  0  0  0
 17 18  1  0  0  0
 17 49  1  0  0  0
 18 22  1  0  0  0
 18 19  2  0  0  0
 19 20  1  0  0  0
 19 50  1  0  0  0
 20 21  2  0  0  0
 20 34  1  0  0  0
 21 22  1  0  0  0
 22 23  1  0  0  0
 23 29  2  0  0  0
 23 24  1  0  0  0
 24 25  1  0  0  0
 25 26  2  0  0  0
 25 27  1  0  0  0
 27 33  1  0  0  0
 27 28  2  0  0  0
 28 29  1  0  0  0
 28 30  1  0  0  0
 30 31  1  0  0  0
 30 51  1  0  0  0
 30 52  1  0  0  0
 31 32  1  0  0  0
 31 53  1  0  0  0
 31 54  1  0  0  0
 32 33  1  0  0  0
 32 55  1  0  0  0
 32 56  1  0  0  0
 33 57  1  0  0  0
 33 58  1  0  0  0
 34 35  1  0  0  0
 34 36  1  0  0  0
 34 37  1  0  0  0
 35 59  1  0  0  0
 35 60  1  0  0  0
 35 61  1  0  0  0
 36 62  1  0  0  0
 36 63  1  0  0  0
 36 64  1  0  0  0
 37 65  1  0  0  0
 37 66  1  0  0  0
 37 67  1  0  0  0
M  CHG  1  24  -1
M  END
> <i_i_glide_confnum>
2

> <i_i_glide_lignum>
3327

> <i_i_glide_posenum>
104

> <i_i_glide_rotatable_bonds>
6

> <i_m_Source_File_Index>
5433

> <b_m_subgroup_collapsed>
0

> <r_i_docking_score>
-5.75945

> <r_i_glide_ecoul>
-1.098

> <r_i_glide_eff_state_penalty>
0

> <r_i_glide_einternal>
4.73782

> <r_i_glide_emodel>
-66.1603

> <r_i_glide_energy>
-49.5409

> <r_i_glide_erotb>
0.325982

> <r_i_glide_esite>
-0.000100613

> <r_i_glide_evdw>
-48.4429

> <r_i_glide_gscore>
-5.75945

> <r_i_glide_hbond>
-0.179044

> <r_i_glide_ligand_efficiency>
-0.155661

> <r_i_glide_ligand_efficiency_ln>
-1.24909

> <r_i_glide_ligand_efficiency_sa>
-0.518696

> <r_i_glide_lipo>
-2.79686

> <r_i_glide_metal>
0

> <r_i_glide_rewards>
-0.522583

> <s_i_glide_gridfile>
wee1_glide-grid

> <s_m_Source_File>
wee1_decoys_glide_SP.sdf

> <s_m_Source_Path>
/Users/zhangxujun/Desktop

> <s_m_entry_id>
5708

> <s_m_entry_name>
wee1_decoys_glide_SP.5433

> <s_m_subgroup_title>
wee1_decoys_glide_SP

> <s_m_subgroupid>
wee1_decoys_glide_SP


$$$$
