ZINC35354800_3321
                    3D
 Schrodinger Suite 2024-2.
 54 58  0  0  1  0            999 V2000
    6.9117   54.4059   27.2821 C   0  0  0  0  0  0
    5.8495   54.1369   28.1384 C   0  0  0  0  0  0
    4.5550   53.9638   27.6399 C   0  0  0  0  0  0
    4.3552   54.0686   26.2538 C   0  0  0  0  0  0
    5.4209   54.3154   25.3722 C   0  0  0  0  0  0
    6.7040   54.4962   25.9123 C   0  0  0  0  0  0
    5.1754   54.3522   23.8780 C   0  0  0  0  0  0
    4.0551   54.0969   23.4359 O   0  0  0  0  0  0
    6.2326   54.6994   23.1078 N   0  0  0  0  0  0
    6.3065   54.8969   21.7180 C   0  0  0  0  0  0
    5.3028   54.5354   20.8042 C   0  0  0  0  0  0
    5.4755   54.7932   19.4482 C   0  0  0  0  0  0
    6.6498   55.3821   18.9778 C   0  0  0  0  0  0
    7.6621   55.7096   19.8872 C   0  0  0  0  0  0
    7.4848   55.4762   21.2474 C   0  0  0  0  0  0
    6.7186   55.6391   17.5993 N   0  0  0  0  0  0
    8.1744   56.0512   16.6709 S   0  0  0  0  0  0
    7.6957   56.3877   15.3241 O   0  0  0  0  0  0
    8.9728   57.0139   17.4377 O   0  0  0  0  0  0
    9.0958   54.5253   16.5105 C   0  0  0  0  0  0
   10.2954   54.3417   17.1963 C   0  0  0  0  0  0
   11.0224   53.1696   17.0084 C   0  0  0  0  0  0
   10.5659   52.1565   16.1595 C   0  0  0  0  0  0
    9.3358   52.3338   15.4765 C   0  0  0  0  0  0
    8.6247   53.5228   15.6615 C   0  0  0  0  0  0
    8.8121   51.4321   14.5700 O   0  0  0  0  0  0
    9.7238   50.6971   13.7587 C   0  0  0  0  0  0
   10.2863   49.4723   14.4842 C   0  0  0  0  0  0
   10.6721   49.7624   15.9389 C   0  0  0  0  0  0
   11.3368   51.0130   16.0919 O   0  0  0  0  0  0
    3.4165   53.6599   28.5712 C   0  0  0  0  0  0
    2.1697   54.0075   28.3253 N   0  5  0  0  0  0
    1.4405   53.5455   29.3978 N   0  0  0  0  0  0
    2.3090   52.9094   30.2493 N   0  0  0  0  0  0
    3.5706   53.0141   29.7098 N   0  0  0  0  0  0
    7.9042   54.5393   27.6898 H   0  0  0  0  0  0
    6.0356   54.0783   29.2000 H   0  0  0  0  0  0
    3.3578   53.9154   25.8643 H   0  0  0  0  0  0
    7.5560   54.6936   25.2825 H   0  0  0  0  0  0
    7.0861   54.9004   23.6048 H   0  0  0  0  0  0
    4.3815   54.0681   21.1115 H   0  0  0  0  0  0
    4.6815   54.5302   18.7643 H   0  0  0  0  0  0
    8.5926   56.1513   19.5754 H   0  0  0  0  0  0
    8.2806   55.7471   21.9278 H   0  0  0  0  0  0
    5.9135   55.3831   17.0459 H   0  0  0  0  0  0
   10.6717   55.1033   17.8643 H   0  0  0  0  0  0
   11.9469   53.0290   17.5476 H   0  0  0  0  0  0
    7.7032   53.6662   15.1170 H   0  0  0  0  0  0
   10.5213   51.3501   13.3931 H   0  0  0  0  0  0
    9.1939   50.3763   12.8619 H   0  0  0  0  0  0
   11.1510   49.1023   13.9292 H   0  0  0  0  0  0
    9.5488   48.6701   14.4660 H   0  0  0  0  0  0
   11.3412   48.9804   16.2983 H   0  0  0  0  0  0
    9.8040   49.7128   16.6034 H   0  0  0  0  0  0
  1  6  2  0  0  0
  1  2  1  0  0  0
  1 36  1  0  0  0
  2  3  2  0  0  0
  2 37  1  0  0  0
  3  4  1  0  0  0
  3 31  1  0  0  0
  4  5  2  0  0  0
  4 38  1  0  0  0
  5  6  1  0  0  0
  5  7  1  0  0  0
  6 39  1  0  0  0
  7  8  2  0  0  0
  7  9  1  0  0  0
  9 10  1  0  0  0
  9 40  1  0  0  0
 10 15  2  0  0  0
 10 11  1  0  0  0
 11 12  2  0  0  0
 11 41  1  0  0  0
 12 13  1  0  0  0
 12 42  1  0  0  0
 13 14  2  0  0  0
 13 16  1  0  0  0
 14 15  1  0  0  0
 14 43  1  0  0  0
 15 44  1  0  0  0
 16 17  1  0  0  0
 16 45  1  0  0  0
 17 18  2  0  0  0
 17 19  2  0  0  0
 17 20  1  0  0  0
 20 25  2  0  0  0
 20 21  1  0  0  0
 21 22  2  0  0  0
 21 46  1  0  0  0
 22 23  1  0  0  0
 22 47  1  0  0  0
 23 30  1  0  0  0
 23 24  2  0  0  0
 24 25  1  0  0  0
 24 26  1  0  0  0
 25 48  1  0  0  0
 26 27  1  0  0  0
 27 28  1  0  0  0
 27 49  1  0  0  0
 27 50  1  0  0  0
 28 29  1  0  0  0
 28 51  1  0  0  0
 28 52  1  0  0  0
 29 30  1  0  0  0
 29 53  1  0  0  0
 29 54  1  0  0  0
 31 32  1  0  0  0
 31 35  2  0  0  0
 32 33  1  0  0  0
 33 34  2  0  0  0
 34 35  1  0  0  0
M  CHG  1  32  -1
M  END
> <i_i_glide_confnum>
228

> <i_i_glide_lignum>
3322

> <i_i_glide_posenum>
273

> <i_i_glide_rotatable_bonds>
7

> <i_m_Source_File_Index>
2502

> <b_m_subgroup_collapsed>
0

> <r_i_docking_score>
-5.5951

> <r_i_glide_ecoul>
-5.25867

> <r_i_glide_eff_state_penalty>
0

> <r_i_glide_einternal>
1.22028

> <r_i_glide_emodel>
-73.8186

> <r_i_glide_energy>
-53.9419

> <r_i_glide_erotb>
0.58991

> <r_i_glide_esite>
0

> <r_i_glide_evdw>
-48.6833

> <r_i_glide_gscore>
-5.5951

> <r_i_glide_hbond>
0

> <r_i_glide_ligand_efficiency>
-0.15986

> <r_i_glide_ligand_efficiency_ln>
-1.22825

> <r_i_glide_ligand_efficiency_sa>
-0.522913

> <r_i_glide_lipo>
-2.54917

> <r_i_glide_metal>
0

> <r_i_glide_rewards>
-0.412878

> <s_i_glide_gridfile>
wee1_glide-grid

> <s_m_Source_File>
wee1_decoys_glide_SP.sdf

> <s_m_Source_Path>
/Users/zhangxujun/Desktop

> <s_m_entry_id>
2777

> <s_m_entry_name>
wee1_decoys_glide_SP.2502

> <s_m_subgroup_title>
wee1_decoys_glide_SP

> <s_m_subgroupid>
wee1_decoys_glide_SP


$$$$
