ZINC33063333_4283
                    3D
 Schrodinger Suite 2024-2.
 50 53  0  0  1  0            999 V2000
    3.8527   54.7841   29.0905 C   0  0  0  0  0  0
    2.5676   54.8760   29.6200 C   0  0  0  0  0  0
    1.5258   54.1600   29.0354 C   0  0  0  0  0  0
    1.7480   53.3838   27.9043 C   0  0  0  0  0  0
    3.0251   53.3155   27.3550 C   0  0  0  0  0  0
    4.0883   54.0067   27.9529 C   0  0  0  0  0  0
    5.4950   53.9513   27.3596 C   0  0  0  0  0  0
    5.5142   53.9009   25.8946 N   0  0  0  0  0  0
    6.1219   54.7779   25.0788 C   0  0  0  0  0  0
    6.8190   55.6966   25.5123 O   0  0  0  0  0  0
    5.8968   54.6038   23.5887 C   0  0  0  0  0  0
    4.8397   53.8301   23.0753 C   0  0  0  0  0  0
    4.6154   53.7622   21.6998 C   0  0  0  0  0  0
    5.4257   54.4794   20.8084 C   0  0  0  0  0  0
    6.4769   55.2457   21.3129 C   0  0  0  0  0  0
    6.7071   55.2979   22.6856 C   0  0  0  0  0  0
    5.1983   54.4404   19.2926 C   0  0  2  0  0  0
    5.3844   55.4685   18.9737 H   0  0  0  0  0  0
    3.8209   54.1519   18.8967 N   0  0  0  0  0  0
    3.4964   53.5342   17.6759 C   0  0  0  0  0  0
    2.1744   53.1268   17.4927 C   0  0  0  0  0  0
    1.7918   52.4160   16.3489 C   0  0  0  0  0  0
    2.7611   52.1062   15.3874 C   0  0  0  0  0  0
    4.0870   52.4983   15.5681 C   0  0  0  0  0  0
    4.4593   53.2194   16.7045 C   0  0  0  0  0  0
    6.1558   53.7245   16.8911 S   0  0  0  0  0  0
    6.2704   55.1313   16.4861 O   0  0  0  0  0  0
    7.0396   52.7178   16.2904 O   0  0  0  0  0  0
    6.2225   53.6171   18.6306 N   0  0  0  0  0  0
    0.3350   51.9957   16.1457 C   0  0  0  0  0  0
   -0.5035   52.8325   16.7642 F   0  0  0  0  0  0
    0.0148   51.9780   14.8508 F   0  0  0  0  0  0
    0.1580   50.7733   16.6470 F   0  0  0  0  0  0
    0.2958   54.2136   29.5841 F   0  0  0  0  0  0
    4.6633   55.3201   29.5601 H   0  0  0  0  0  0
    2.3627   55.4951   30.4816 H   0  0  0  0  0  0
    0.9311   52.8384   27.4542 H   0  0  0  0  0  0
    3.1826   52.7171   26.4716 H   0  0  0  0  0  0
    6.0751   54.7992   27.7359 H   0  0  0  0  0  0
    5.9989   53.0621   27.7432 H   0  0  0  0  0  0
    5.1055   53.0786   25.4763 H   0  0  0  0  0  0
    4.1634   53.2969   23.7255 H   0  0  0  0  0  0
    3.7944   53.1592   21.3327 H   0  0  0  0  0  0
    7.1173   55.8012   20.6414 H   0  0  0  0  0  0
    7.5177   55.9176   23.0435 H   0  0  0  0  0  0
    3.0881   54.5024   19.5079 H   0  0  0  0  0  0
    1.4399   53.3541   18.2541 H   0  0  0  0  0  0
    2.4954   51.5469   14.5001 H   0  0  0  0  0  0
    4.8259   52.2382   14.8254 H   0  0  0  0  0  0
    6.2358   52.6489   18.9627 H   0  0  0  0  0  0
  1  6  2  0  0  0
  1  2  1  0  0  0
  1 35  1  0  0  0
  2  3  2  0  0  0
  2 36  1  0  0  0
  3  4  1  0  0  0
  3 34  1  0  0  0
  4  5  2  0  0  0
  4 37  1  0  0  0
  5  6  1  0  0  0
  5 38  1  0  0  0
  6  7  1  0  0  0
  7  8  1  0  0  0
  7 39  1  0  0  0
  7 40  1  0  0  0
  8  9  1  0  0  0
  8 41  1  0  0  0
  9 10  2  0  0  0
  9 11  1  0  0  0
 11 16  2  0  0  0
 11 12  1  0  0  0
 12 13  2  0  0  0
 12 42  1  0  0  0
 13 14  1  0  0  0
 13 43  1  0  0  0
 14 15  2  0  0  0
 14 17  1  0  0  0
 15 16  1  0  0  0
 15 44  1  0  0  0
 16 45  1  0  0  0
 17 18  1  0  0  0
 17 29  1  0  0  0
 17 19  1  0  0  0
 19 20  1  0  0  0
 19 46  1  0  0  0
 20 25  2  0  0  0
 20 21  1  0  0  0
 21 22  2  0  0  0
 21 47  1  0  0  0
 22 23  1  0  0  0
 22 30  1  0  0  0
 23 24  2  0  0  0
 23 48  1  0  0  0
 24 25  1  0  0  0
 24 49  1  0  0  0
 25 26  1  0  0  0
 26 27  2  0  0  0
 26 28  2  0  0  0
 26 29  1  0  0  0
 29 50  1  0  0  0
 30 31  1  0  0  0
 30 32  1  0  0  0
 30 33  1  0  0  0
M  END
> <i_i_glide_confnum>
8

> <i_i_glide_lignum>
4284

> <i_i_glide_posenum>
4

> <i_i_glide_rotatable_bonds>
6

> <i_m_Source_File_Index>
4254

> <b_m_subgroup_collapsed>
0

> <r_i_docking_score>
-6.86902

> <r_i_glide_ecoul>
-7.13371

> <r_i_glide_eff_state_penalty>
0

> <r_i_glide_einternal>
3.74774

> <r_i_glide_emodel>
-66.3304

> <r_i_glide_energy>
-46.5535

> <r_i_glide_erotb>
0.352752

> <r_i_glide_esite>
-0.116889

> <r_i_glide_evdw>
-39.4197

> <r_i_glide_gscore>
-6.86902

> <r_i_glide_hbond>
-0.608

> <r_i_glide_ligand_efficiency>
-0.208152

> <r_i_glide_ligand_efficiency_ln>
-1.52763

> <r_i_glide_ligand_efficiency_sa>
-0.667655

> <r_i_glide_lipo>
-2.62615

> <r_i_glide_metal>
0

> <r_i_glide_rewards>
-0.829685

> <s_i_glide_gridfile>
wee1_glide-grid

> <s_m_Source_File>
wee1_decoys_glide_SP.sdf

> <s_m_Source_Path>
/Users/zhangxujun/Desktop

> <s_m_entry_id>
4529

> <s_m_entry_name>
wee1_decoys_glide_SP.4254

> <s_m_subgroup_title>
wee1_decoys_glide_SP

> <s_m_subgroupid>
wee1_decoys_glide_SP


$$$$
