ZINC53736021_1758
                    3D
 Schrodinger Suite 2024-2.
 37 39  0  0  1  0            999 V2000
    2.4662   54.3761   24.4163 C   0  0  0  0  0  0
    3.5070   54.0970   25.4906 C   0  0  0  0  0  0
    4.8273   54.4661   25.2006 C   0  0  0  0  0  0
    5.8445   54.2833   26.1327 C   0  0  0  0  0  0
    5.5627   53.6992   27.3612 C   0  0  0  0  0  0
    4.2584   53.3118   27.6602 C   0  0  0  0  0  0
    3.2054   53.5422   26.7568 C   0  0  0  0  0  0
    1.8873   53.1681   27.1541 N   0  0  0  0  0  0
    0.9579   52.4030   26.4498 C   0  0  0  0  0  0
    0.9586   51.7533   25.2040 C   0  0  0  0  0  0
   -0.1895   51.0400   24.8561 C   0  0  0  0  0  0
   -1.2924   50.9565   25.7021 C   0  0  0  0  0  0
   -1.2996   51.5935   26.9395 C   0  0  0  0  0  0
   -0.1644   52.3219   27.3144 C   0  0  0  0  0  0
    0.0487   53.0077   28.4704 N   0  0  0  0  0  0
    1.2600   53.4980   28.3568 C   0  0  0  0  0  0
    1.9148   54.2739   29.5007 C   0  0  1  0  0  0
    2.7989   54.8196   29.1727 H   0  0  0  0  0  0
    0.9954   55.3138   30.1650 C   0  0  0  0  0  0
    2.3115   53.3361   30.4811 O   0  0  0  0  0  0
   -2.3986   50.2108   25.3175 N   0  0  0  0  0  0
    7.1043   54.6748   25.8411 F   0  0  0  0  0  0
    1.4588   54.4967   24.8108 H   0  0  0  0  0  0
    2.7013   55.2970   23.8984 H   0  0  0  0  0  0
    2.4763   53.5989   23.6534 H   0  0  0  0  0  0
    5.0739   54.8969   24.2424 H   0  0  0  0  0  0
    6.3562   53.5360   28.0761 H   0  0  0  0  0  0
    4.0735   52.8349   28.6119 H   0  0  0  0  0  0
    1.8081   51.7647   24.5380 H   0  0  0  0  0  0
   -0.2128   50.5232   23.9056 H   0  0  0  0  0  0
   -2.1450   51.5090   27.6059 H   0  0  0  0  0  0
    0.7086   56.0865   29.4527 H   0  0  0  0  0  0
    0.0837   54.8676   30.5619 H   0  0  0  0  0  0
    1.4967   55.8259   30.9861 H   0  0  0  0  0  0
    1.5152   52.8994   30.7984 H   0  0  0  0  0  0
   -2.9995   49.9175   26.0782 H   0  0  0  0  0  0
   -2.2588   49.5600   24.5593 H   0  0  0  0  0  0
  1  2  1  0  0  0
  1 23  1  0  0  0
  1 24  1  0  0  0
  1 25  1  0  0  0
  2  7  2  0  0  0
  2  3  1  0  0  0
  3  4  2  0  0  0
  3 26  1  0  0  0
  4  5  1  0  0  0
  4 22  1  0  0  0
  5  6  2  0  0  0
  5 27  1  0  0  0
  6  7  1  0  0  0
  6 28  1  0  0  0
  7  8  1  0  0  0
  8 16  1  0  0  0
  8  9  1  0  0  0
  9 14  2  0  0  0
  9 10  1  0  0  0
 10 11  2  0  0  0
 10 29  1  0  0  0
 11 12  1  0  0  0
 11 30  1  0  0  0
 12 13  2  0  0  0
 12 21  1  0  0  0
 13 14  1  0  0  0
 13 31  1  0  0  0
 14 15  1  0  0  0
 15 16  2  0  0  0
 16 17  1  0  0  0
 17 18  1  0  0  0
 17 19  1  0  0  0
 17 20  1  0  0  0
 19 32  1  0  0  0
 19 33  1  0  0  0
 19 34  1  0  0  0
 20 35  1  0  0  0
 21 36  1  0  0  0
 21 37  1  0  0  0
M  END
> <i_i_glide_confnum>
1

> <i_i_glide_lignum>
1759

> <i_i_glide_posenum>
389

> <i_i_glide_rotatable_bonds>
3

> <i_m_Source_File_Index>
3669

> <b_m_subgroup_collapsed>
0

> <r_i_docking_score>
-6.19653

> <r_i_glide_ecoul>
-4.23757

> <r_i_glide_eff_state_penalty>
0

> <r_i_glide_einternal>
3.02855

> <r_i_glide_emodel>
-45.4793

> <r_i_glide_energy>
-33.8916

> <r_i_glide_erotb>
0.44571

> <r_i_glide_esite>
-0.0379612

> <r_i_glide_evdw>
-29.654

> <r_i_glide_gscore>
-6.19653

> <r_i_glide_hbond>
-0.294496

> <r_i_glide_ligand_efficiency>
-0.295073

> <r_i_glide_ligand_efficiency_ln>
-1.53208

> <r_i_glide_ligand_efficiency_sa>
-0.814083

> <r_i_glide_lipo>
-2.17395

> <r_i_glide_metal>
0

> <r_i_glide_rewards>
-2.01749

> <s_i_glide_gridfile>
wee1_glide-grid

> <s_m_Source_File>
wee1_decoys_glide_SP.sdf

> <s_m_Source_Path>
/Users/zhangxujun/Desktop

> <s_m_entry_id>
3944

> <s_m_entry_name>
wee1_decoys_glide_SP.3669

> <s_m_subgroup_title>
wee1_decoys_glide_SP

> <s_m_subgroupid>
wee1_decoys_glide_SP


$$$$
