ZINC63752908_198
                    3D
 Schrodinger Suite 2024-2.
 62 65  0  0  1  0            999 V2000
    5.9361   54.3805   22.6484 C   0  0  0  0  0  0
    5.6947   54.4481   24.1391 C   0  0  0  0  0  0
    6.7744   54.6611   24.9952 C   0  0  0  0  0  0
    6.5914   54.6854   26.3753 C   0  0  0  0  0  0
    5.3199   54.4968   26.9045 C   0  0  0  0  0  0
    4.2229   54.2668   26.0613 C   0  0  0  0  0  0
    4.4174   54.2524   24.6682 C   0  0  0  0  0  0
    2.8737   54.0381   26.6726 C   0  0  0  0  0  0
    2.5579   54.6545   27.6935 O   0  0  0  0  0  0
    2.0910   53.1308   26.0495 N   0  0  0  0  0  0
    0.9112   52.6367   26.5281 C   0  0  0  0  0  0
    0.4757   52.3742   27.7771 C   0  0  0  0  0  0
    1.1193   52.4897   29.0949 C   0  0  0  0  0  0
    0.4695   52.1770   30.2349 C   0  0  0  0  0  0
   -0.8949   51.6957   30.0817 C   0  0  0  0  0  0
   -1.5118   51.5753   28.8793 C   0  0  0  0  0  0
   -0.8442   51.9279   27.7085 C   0  0  0  0  0  0
   -1.2719   51.9018   26.4655 N   0  3  0  0  0  0
   -0.1720   52.2477   25.5342 C   0  0  2  0  0  0
   -0.5119   53.0654   24.8965 H   0  0  0  0  0  0
    0.1603   51.0295   24.6489 C   0  0  0  0  0  0
    0.3193   51.1909   23.4399 O   0  0  0  0  0  0
    0.2422   49.8318   25.2565 N   0  0  0  0  0  0
    0.4221   48.5517   24.5866 C   0  0  0  0  0  0
   -0.8964   47.8940   24.1998 C   0  0  0  0  0  0
   -1.3260   47.8937   22.8727 C   0  0  0  0  0  0
   -2.4830   47.2049   22.5126 C   0  0  0  0  0  0
   -3.2230   46.4919   23.4735 C   0  0  0  0  0  0
   -2.8003   46.4988   24.8122 C   0  0  0  0  0  0
   -1.6434   47.2134   25.1627 C   0  0  0  0  0  0
   -3.5462   45.7670   25.7207 O   0  0  0  0  0  0
   -3.2348   45.8610   27.1084 C   0  0  0  0  0  0
   -4.3563   45.7554   23.1777 O   0  0  0  0  0  0
   -4.8783   45.7731   21.8544 C   0  0  0  0  0  0
    1.1259   52.3200   31.5926 C   0  0  0  0  0  0
    6.2281   55.3544   22.2537 H   0  0  0  0  0  0
    6.7644   53.6967   22.4814 H   0  0  0  0  0  0
    5.0704   54.0043   22.1006 H   0  0  0  0  0  0
    7.7655   54.7885   24.5876 H   0  0  0  0  0  0
    7.4285   54.8298   27.0443 H   0  0  0  0  0  0
    5.1958   54.5118   27.9783 H   0  0  0  0  0  0
    3.5905   54.0835   23.9923 H   0  0  0  0  0  0
    2.4058   52.7730   25.1596 H   0  0  0  0  0  0
    2.1423   52.8191   29.1942 H   0  0  0  0  0  0
   -1.4258   51.3340   30.9464 H   0  0  0  0  0  0
   -2.5028   51.1512   28.8450 H   0  0  0  0  0  0
    0.0392   49.7832   26.2466 H   0  0  0  0  0  0
    0.9420   47.8929   25.2815 H   0  0  0  0  0  0
    1.0720   48.6464   23.7117 H   0  0  0  0  0  0
   -0.7578   48.4161   22.1160 H   0  0  0  0  0  0
   -2.7814   47.2226   21.4754 H   0  0  0  0  0  0
   -1.2951   47.2283   26.1870 H   0  0  0  0  0  0
   -3.9562   45.2825   27.6832 H   0  0  0  0  0  0
   -2.2424   45.4627   27.3226 H   0  0  0  0  0  0
   -3.2944   46.8912   27.4627 H   0  0  0  0  0  0
   -5.7876   45.1707   21.8206 H   0  0  0  0  0  0
   -4.1742   45.3477   21.1373 H   0  0  0  0  0  0
   -5.1429   46.7851   21.5430 H   0  0  0  0  0  0
    1.4850   53.3375   31.6934 H   0  0  0  0  0  0
    0.4512   52.1121   32.4223 H   0  0  0  0  0  0
    2.0090   51.6895   31.6666 H   0  0  0  0  0  0
   -2.1971   51.5999   26.1703 H   0  0  0  0  0  0
  1  2  1  0  0  0
  1 36  1  0  0  0
  1 37  1  0  0  0
  1 38  1  0  0  0
  2  7  2  0  0  0
  2  3  1  0  0  0
  3  4  2  0  0  0
  3 39  1  0  0  0
  4  5  1  0  0  0
  4 40  1  0  0  0
  5  6  2  0  0  0
  5 41  1  0  0  0
  6  7  1  0  0  0
  6  8  1  0  0  0
  7 42  1  0  0  0
  8  9  2  0  0  0
  8 10  1  0  0  0
 10 11  1  0  0  0
 10 43  1  0  0  0
 11 19  1  0  0  0
 11 12  2  0  0  0
 12 17  1  0  0  0
 12 13  1  0  0  0
 13 14  2  0  0  0
 13 44  1  0  0  0
 14 15  1  0  0  0
 14 35  1  0  0  0
 15 16  2  0  0  0
 15 45  1  0  0  0
 16 17  1  0  0  0
 16 46  1  0  0  0
 17 18  2  0  0  0
 18 19  1  0  0  0
 18 62  1  0  0  0
 19 20  1  0  0  0
 19 21  1  0  0  0
 21 22  2  0  0  0
 21 23  1  0  0  0
 23 24  1  0  0  0
 23 47  1  0  0  0
 24 25  1  0  0  0
 24 48  1  0  0  0
 24 49  1  0  0  0
 25 30  2  0  0  0
 25 26  1  0  0  0
 26 27  2  0  0  0
 26 50  1  0  0  0
 27 28  1  0  0  0
 27 51  1  0  0  0
 28 29  2  0  0  0
 28 33  1  0  0  0
 29 30  1  0  0  0
 29 31  1  0  0  0
 30 52  1  0  0  0
 31 32  1  0  0  0
 32 53  1  0  0  0
 32 54  1  0  0  0
 32 55  1  0  0  0
 33 34  1  0  0  0
 34 56  1  0  0  0
 34 57  1  0  0  0
 34 58  1  0  0  0
 35 59  1  0  0  0
 35 60  1  0  0  0
 35 61  1  0  0  0
M  CHG  1  18   1
M  END
> <i_i_glide_confnum>
170

> <i_i_glide_lignum>
199

> <i_i_glide_posenum>
124

> <i_i_glide_rotatable_bonds>
9

> <i_m_Source_File_Index>
5965

> <b_m_subgroup_collapsed>
0

> <r_i_docking_score>
-5.4749

> <r_i_glide_ecoul>
-6.87381

> <r_i_glide_eff_state_penalty>
0

> <r_i_glide_einternal>
8.01099

> <r_i_glide_emodel>
-62.5418

> <r_i_glide_energy>
-46.7377

> <r_i_glide_erotb>
0.669656

> <r_i_glide_esite>
-0.0597968

> <r_i_glide_evdw>
-39.8639

> <r_i_glide_gscore>
-5.4749

> <r_i_glide_hbond>
-0.16

> <r_i_glide_ligand_efficiency>
-0.161026

> <r_i_glide_ligand_efficiency_ln>
-1.20956

> <r_i_glide_ligand_efficiency_sa>
-0.521663

> <r_i_glide_lipo>
-2.21232

> <r_i_glide_metal>
0

> <r_i_glide_rewards>
-0.688174

> <s_i_glide_gridfile>
wee1_glide-grid

> <s_m_Source_File>
wee1_decoys_glide_SP.sdf

> <s_m_Source_Path>
/Users/zhangxujun/Desktop

> <s_m_entry_id>
6240

> <s_m_entry_name>
wee1_decoys_glide_SP.5965

> <s_m_subgroup_title>
wee1_decoys_glide_SP

> <s_m_subgroupid>
wee1_decoys_glide_SP


$$$$
