ZINC29370934_1183
                    3D
 Schrodinger Suite 2024-2.
 65 68  0  0  1  0            999 V2000
    3.1238   52.4839   18.7480 C   0  0  0  0  0  0
    4.3916   53.3282   18.7767 C   0  0  0  0  0  0
    5.2536   53.2967   17.6727 C   0  0  0  0  0  0
    6.4560   54.0139   17.6644 C   0  0  0  0  0  0
    6.7718   54.7993   18.7758 C   0  0  0  0  0  0
    5.9208   54.8507   19.8753 C   0  0  0  0  0  0
    4.7432   54.0909   19.9019 C   0  0  0  0  0  0
    3.9202   54.0990   21.0425 N   0  0  0  0  0  0
    4.3822   53.9259   22.3018 C   0  0  0  0  0  0
    5.5413   53.6309   22.6020 O   0  0  0  0  0  0
    3.2549   54.0964   23.4067 C   0  0  0  0  0  0
    2.0735   54.1199   23.0454 O   0  0  0  0  0  0
    3.6272   54.0832   24.8340 C   0  0  0  0  0  0
    4.7983   54.5373   25.4989 C   0  0  0  0  0  0
    4.7358   54.2929   26.7827 N   0  0  0  0  0  0
    3.5538   53.7112   27.0083 N   0  0  0  0  0  0
    2.8156   53.5691   25.8487 C   0  0  0  0  0  0
    1.4653   52.8720   25.7690 C   0  0  0  0  0  0
    3.2517   53.2959   28.3227 C   0  0  0  0  0  0
    4.2116   52.5954   29.0654 C   0  0  0  0  0  0
    3.9122   52.1411   30.3449 C   0  0  0  0  0  0
    2.6606   52.3889   30.8911 C   0  0  0  0  0  0
    1.7016   53.1106   30.1815 C   0  0  0  0  0  0
    2.0041   53.5716   28.8957 C   0  0  0  0  0  0
    0.3392   53.3771   30.8008 C   0  0  0  0  0  0
    0.3630   53.2972   32.1299 F   0  0  0  0  0  0
   -0.5002   52.4657   30.3231 F   0  0  0  0  0  0
   -0.0957   54.5910   30.4810 F   0  0  0  0  0  0
    6.0480   55.2437   25.0141 C   0  0  0  0  0  0
    7.3528   53.9425   16.6060 N   0  0  0  0  0  0
    6.9220   53.8119   15.2018 C   0  0  0  0  0  0
    7.1504   52.4101   14.5931 C   0  0  0  0  0  0
    8.6384   52.0460   14.7611 N   0  3  0  0  0  0
    8.9732   52.0273   16.2654 C   0  0  0  0  0  0
    8.7237   53.4454   16.8272 C   0  0  0  0  0  0
    8.9623   50.6943   14.0855 C   0  0  0  0  0  0
    3.1329   51.7564   17.9350 H   0  0  0  0  0  0
    3.0256   51.9123   19.6718 H   0  0  0  0  0  0
    2.2439   53.1177   18.6506 H   0  0  0  0  0  0
    5.0037   52.6672   16.8320 H   0  0  0  0  0  0
    7.6870   55.3726   18.7934 H   0  0  0  0  0  0
    6.2004   55.4595   20.7223 H   0  0  0  0  0  0
    2.9275   54.2502   20.8993 H   0  0  0  0  0  0
    0.7042   53.5373   25.3661 H   0  0  0  0  0  0
    1.5128   52.0267   25.0806 H   0  0  0  0  0  0
    1.0935   52.4667   26.7073 H   0  0  0  0  0  0
    5.1855   52.3850   28.6449 H   0  0  0  0  0  0
    4.6596   51.6125   30.9179 H   0  0  0  0  0  0
    2.4453   52.0320   31.8900 H   0  0  0  0  0  0
    1.2632   54.1332   28.3432 H   0  0  0  0  0  0
    6.8765   54.5470   24.8780 H   0  0  0  0  0  0
    5.9055   55.7559   24.0690 H   0  0  0  0  0  0
    6.3869   56.0074   25.7145 H   0  0  0  0  0  0
    5.8740   54.0966   15.0916 H   0  0  0  0  0  0
    7.5076   54.5486   14.6503 H   0  0  0  0  0  0
    6.9614   52.4317   13.5183 H   0  0  0  0  0  0
    6.5502   51.6312   15.0681 H   0  0  0  0  0  0
   10.0315   51.7729   16.3456 H   0  0  0  0  0  0
    8.3658   51.2591   16.7493 H   0  0  0  0  0  0
    9.3841   54.1603   16.3348 H   0  0  0  0  0  0
    8.9778   53.4583   17.8889 H   0  0  0  0  0  0
    8.3056   49.9228   14.4837 H   0  0  0  0  0  0
    8.8016   50.8224   13.0131 H   0  0  0  0  0  0
   10.0115   50.4616   14.2814 H   0  0  0  0  0  0
    9.2019   52.7599   14.3187 H   0  0  0  0  0  0
  1  2  1  0  0  0
  1 37  1  0  0  0
  1 38  1  0  0  0
  1 39  1  0  0  0
  2  7  2  0  0  0
  2  3  1  0  0  0
  3  4  2  0  0  0
  3 40  1  0  0  0
  4  5  1  0  0  0
  4 30  1  0  0  0
  5  6  2  0  0  0
  5 41  1  0  0  0
  6  7  1  0  0  0
  6 42  1  0  0  0
  7  8  1  0  0  0
  8  9  1  0  0  0
  8 43  1  0  0  0
  9 10  2  0  0  0
  9 11  1  0  0  0
 11 12  2  0  0  0
 11 13  1  0  0  0
 13 17  2  0  0  0
 13 14  1  0  0  0
 14 15  2  0  0  0
 14 29  1  0  0  0
 15 16  1  0  0  0
 16 17  1  0  0  0
 16 19  1  0  0  0
 17 18  1  0  0  0
 18 44  1  0  0  0
 18 45  1  0  0  0
 18 46  1  0  0  0
 19 24  2  0  0  0
 19 20  1  0  0  0
 20 21  2  0  0  0
 20 47  1  0  0  0
 21 22  1  0  0  0
 21 48  1  0  0  0
 22 23  2  0  0  0
 22 49  1  0  0  0
 23 24  1  0  0  0
 23 25  1  0  0  0
 24 50  1  0  0  0
 25 26  1  0  0  0
 25 27  1  0  0  0
 25 28  1  0  0  0
 29 51  1  0  0  0
 29 52  1  0  0  0
 29 53  1  0  0  0
 30 35  1  0  0  0
 30 31  1  0  0  0
 31 32  1  0  0  0
 31 54  1  0  0  0
 31 55  1  0  0  0
 32 33  1  0  0  0
 32 56  1  0  0  0
 32 57  1  0  0  0
 33 34  1  0  0  0
 33 36  1  0  0  0
 33 65  1  0  0  0
 34 35  1  0  0  0
 34 58  1  0  0  0
 34 59  1  0  0  0
 35 60  1  0  0  0
 35 61  1  0  0  0
 36 62  1  0  0  0
 36 63  1  0  0  0
 36 64  1  0  0  0
M  CHG  1  33   1
M  END
> <i_i_glide_confnum>
94

> <i_i_glide_lignum>
1184

> <i_i_glide_posenum>
397

> <i_i_glide_rotatable_bonds>
7

> <i_m_Source_File_Index>
1677

> <b_m_subgroup_collapsed>
0

> <r_i_docking_score>
-6.53369

> <r_i_glide_ecoul>
-4.7236

> <r_i_glide_eff_state_penalty>
0

> <r_i_glide_einternal>
12.4316

> <r_i_glide_emodel>
-67.1538

> <r_i_glide_energy>
-51.4119

> <r_i_glide_erotb>
0.489038

> <r_i_glide_esite>
-0.191461

> <r_i_glide_evdw>
-46.6883

> <r_i_glide_gscore>
-6.53369

> <r_i_glide_hbond>
-0.32

> <r_i_glide_ligand_efficiency>
-0.181491

> <r_i_glide_ligand_efficiency_ln>
-1.42547

> <r_i_glide_ligand_efficiency_sa>
-0.599271

> <r_i_glide_lipo>
-2.47117

> <r_i_glide_metal>
0

> <r_i_glide_rewards>
-0.997146

> <s_i_glide_gridfile>
wee1_glide-grid

> <s_m_Source_File>
wee1_decoys_glide_SP.sdf

> <s_m_Source_Path>
/Users/zhangxujun/Desktop

> <s_m_entry_id>
1952

> <s_m_entry_name>
wee1_decoys_glide_SP.1677

> <s_m_subgroup_title>
wee1_decoys_glide_SP

> <s_m_subgroupid>
wee1_decoys_glide_SP


$$$$
