ZINC39947287_2163
                    3D
 Schrodinger Suite 2024-2.
 54 57  0  0  1  0            999 V2000
    0.8386   55.6398   30.6589 C   0  0  0  0  0  0
    0.3044   54.5989   29.6577 C   0  0  0  0  0  0
    1.0674   53.2696   29.6242 C   0  0  2  0  0  0
    1.0998   52.9214   30.6595 H   0  0  0  0  0  0
    2.5185   53.3929   29.1533 C   0  0  0  0  0  0
    3.3897   52.3715   29.5122 C   0  0  0  0  0  0
    4.7052   52.4226   29.0986 C   0  0  0  0  0  0
    5.1858   53.4919   28.3510 C   0  0  0  0  0  0
    4.3129   54.4971   27.9628 C   0  0  0  0  0  0
    2.9838   54.4610   28.3688 C   0  0  0  0  0  0
    6.6574   53.5717   27.9848 C   0  0  0  0  0  0
    0.3164   52.2384   28.8960 N   0  0  0  0  0  0
    0.1741   52.1346   27.5601 C   0  0  0  0  0  0
    0.7041   52.8964   26.7515 O   0  0  0  0  0  0
   -0.7241   51.0011   27.0733 C   0  0  0  0  0  0
    0.1633   49.7541   26.0811 S   0  0  0  0  0  0
   -0.3119   50.2627   24.4026 C   0  0  2  0  0  0
   -1.2470   50.8146   24.4912 H   0  0  0  0  0  0
   -0.5134   49.1396   23.5456 N   0  0  0  0  0  0
    0.3147   49.2969   22.4437 N   0  0  0  0  0  0
    0.9703   50.3614   22.6673 C   0  0  0  0  0  0
    0.6344   51.0550   23.7978 O   0  0  0  0  0  0
    1.9888   50.8649   21.7864 C   0  0  0  0  0  0
    2.7090   51.9966   21.9361 C   0  0  0  0  0  0
    2.7024   53.0659   22.9541 C   0  0  0  0  0  0
    3.5683   54.0966   22.8800 C   0  0  0  0  0  0
    4.5016   54.1242   21.7617 C   0  0  0  0  0  0
    4.5194   53.1547   20.8108 C   0  0  0  0  0  0
    3.6279   52.0788   20.8796 C   0  0  0  0  0  0
    3.5045   51.0569   20.0631 N   0  3  0  0  0  0
    2.4406   50.1536   20.5263 C   0  0  0  0  0  0
    0.3066   56.5839   30.5557 H   0  0  0  0  0  0
    0.7045   55.2960   31.6841 H   0  0  0  0  0  0
    1.8983   55.8533   30.5093 H   0  0  0  0  0  0
    0.3044   55.0085   28.6481 H   0  0  0  0  0  0
   -0.7384   54.3990   29.9055 H   0  0  0  0  0  0
    3.0392   51.5299   30.0867 H   0  0  0  0  0  0
    5.3472   51.5902   29.3134 H   0  0  0  0  0  0
    4.6688   55.3018   27.3430 H   0  0  0  0  0  0
    2.3335   55.2575   28.0466 H   0  0  0  0  0  0
    7.2708   53.2965   28.8464 H   0  0  0  0  0  0
    6.8930   52.8968   27.1625 H   0  0  0  0  0  0
    6.9483   54.5843   27.7064 H   0  0  0  0  0  0
   -0.1370   51.5382   29.4669 H   0  0  0  0  0  0
   -1.1754   50.4968   27.9261 H   0  0  0  0  0  0
   -1.5581   51.4274   26.5200 H   0  0  0  0  0  0
   -1.4340   48.8590   23.2329 H   0  0  0  0  0  0
    2.0174   53.0544   23.7908 H   0  0  0  0  0  0
    3.5707   54.8791   23.6253 H   0  0  0  0  0  0
    5.1933   54.9502   21.6803 H   0  0  0  0  0  0
    5.2296   53.2304   19.9994 H   0  0  0  0  0  0
    2.8770   49.1681   20.7026 H   0  0  0  0  0  0
    1.6813   50.0943   19.7437 H   0  0  0  0  0  0
    4.0782   50.8949   19.2242 H   0  0  0  0  0  0
  1  2  1  0  0  0
  1 32  1  0  0  0
  1 33  1  0  0  0
  1 34  1  0  0  0
  2  3  1  0  0  0
  2 35  1  0  0  0
  2 36  1  0  0  0
  3  4  1  0  0  0
  3  5  1  0  0  0
  3 12  1  0  0  0
  5 10  2  0  0  0
  5  6  1  0  0  0
  6  7  2  0  0  0
  6 37  1  0  0  0
  7  8  1  0  0  0
  7 38  1  0  0  0
  8  9  2  0  0  0
  8 11  1  0  0  0
  9 10  1  0  0  0
  9 39  1  0  0  0
 10 40  1  0  0  0
 11 41  1  0  0  0
 11 42  1  0  0  0
 11 43  1  0  0  0
 12 13  1  0  0  0
 12 44  1  0  0  0
 13 14  2  0  0  0
 13 15  1  0  0  0
 15 16  1  0  0  0
 15 45  1  0  0  0
 15 46  1  0  0  0
 16 17  1  0  0  0
 17 18  1  0  0  0
 17 22  1  0  0  0
 17 19  1  0  0  0
 19 20  1  0  0  0
 19 47  1  0  0  0
 20 21  2  0  0  0
 21 22  1  0  0  0
 21 23  1  0  0  0
 23 31  1  0  0  0
 23 24  2  0  0  0
 24 29  1  0  0  0
 24 25  1  0  0  0
 25 26  2  0  0  0
 25 48  1  0  0  0
 26 27  1  0  0  0
 26 49  1  0  0  0
 27 28  2  0  0  0
 27 50  1  0  0  0
 28 29  1  0  0  0
 28 51  1  0  0  0
 29 30  2  0  0  0
 30 31  1  0  0  0
 30 54  1  0  0  0
 31 52  1  0  0  0
 31 53  1  0  0  0
M  CHG  1  30   1
M  END
> <i_i_glide_confnum>
204

> <i_i_glide_lignum>
2164

> <i_i_glide_posenum>
39

> <i_i_glide_rotatable_bonds>
8

> <i_m_Source_File_Index>
1269

> <b_m_subgroup_collapsed>
0

> <r_i_docking_score>
-5.10548

> <r_i_glide_ecoul>
-1.13727

> <r_i_glide_eff_state_penalty>
0

> <r_i_glide_einternal>
6.42689

> <r_i_glide_emodel>
-54.2355

> <r_i_glide_energy>
-41.6077

> <r_i_glide_erotb>
0.821897

> <r_i_glide_esite>
-0.0984348

> <r_i_glide_evdw>
-40.4704

> <r_i_glide_gscore>
-5.10548

> <r_i_glide_hbond>
-0.2

> <r_i_glide_ligand_efficiency>
-0.176051

> <r_i_glide_ligand_efficiency_ln>
-1.16903

> <r_i_glide_ligand_efficiency_sa>
-0.540885

> <r_i_glide_lipo>
-2.67655

> <r_i_glide_metal>
0

> <r_i_glide_rewards>
-0.758288

> <s_i_glide_gridfile>
wee1_glide-grid

> <s_m_Source_File>
wee1_decoys_glide_SP.sdf

> <s_m_Source_Path>
/Users/zhangxujun/Desktop

> <s_m_entry_id>
1544

> <s_m_entry_name>
wee1_decoys_glide_SP.1269

> <s_m_subgroup_title>
wee1_decoys_glide_SP

> <s_m_subgroupid>
wee1_decoys_glide_SP


$$$$
