ZINC63625931_909
                    3D
 Schrodinger Suite 2024-2.
 73 77  0  0  1  0            999 V2000
    2.0829   47.9838   19.3556 C   0  0  0  0  0  0
    1.8909   49.0442   20.4315 C   0  0  0  0  0  0
    1.0107   48.8968   21.2757 O   0  0  0  0  0  0
    2.7103   50.1058   20.3618 N   0  0  0  0  0  0
    2.7722   51.3362   21.1868 C   0  0  2  0  0  0
    3.5119   51.0909   21.9506 H   0  0  0  0  0  0
    1.4619   51.6975   21.9263 C   0  0  0  0  0  0
    1.4101   53.1095   22.5223 C   0  0  0  0  0  0
    2.6345   53.5205   23.3320 C   0  0  0  0  0  0
    2.4769   53.7004   24.7079 C   0  0  0  0  0  0
    3.5344   54.0974   25.5265 C   0  0  0  0  0  0
    4.7930   54.2776   24.9531 C   0  0  0  0  0  0
    4.9958   54.0380   23.5786 C   0  0  0  0  0  0
    3.9075   53.6946   22.7268 C   0  0  0  0  0  0
    4.0912   53.5746   21.2146 C   0  0  0  0  0  0
    3.3517   52.5526   20.4254 C   0  0  0  0  0  0
    3.1561   52.5707   19.0774 C   0  0  0  0  0  0
    3.6161   53.4151   17.9884 C   0  0  0  0  0  0
    3.0042   53.3451   16.9150 O   0  0  0  0  0  0
    4.8045   54.2705   18.1419 C   0  0  0  0  0  0
    5.3561   54.7087   19.2897 C   0  0  0  0  0  0
    4.9192   54.4972   20.6568 C   0  0  0  0  0  0
    5.3591   54.5522   16.9010 N   0  0  0  0  0  0
    6.5439   55.3393   16.5765 C   0  0  0  0  0  0
    7.8678   54.5486   16.6327 C   0  0  0  0  0  0
    8.0844   53.5141   15.5352 C   0  0  0  0  0  0
    8.6836   52.3084   15.5720 C   0  0  0  0  0  0
    9.3182   51.5849   16.6809 C   0  0  0  0  0  0
    9.9101   50.3903   16.4815 C   0  0  0  0  0  0
    9.9032   49.8419   15.1349 C   0  0  0  0  0  0
    9.3168   50.4916   14.0965 C   0  0  0  0  0  0
    8.6982   51.7331   14.2983 C   0  0  0  0  0  0
    8.0975   52.5148   13.4361 N   0  3  0  0  0  0
    7.6288   53.7393   14.1062 C   0  0  0  0  0  0
    6.2825   54.0105   23.0721 O   0  0  0  0  0  0
    7.0713   55.1897   23.1954 C   0  0  0  0  0  0
    5.8187   54.7157   25.7612 O   0  0  0  0  0  0
    6.4897   53.6978   26.4846 C   0  0  0  0  0  0
    3.4189   54.3114   26.8901 O   0  0  0  0  0  0
    2.2290   53.9269   27.5703 C   0  0  0  0  0  0
    1.4196   48.1840   18.5162 H   0  0  0  0  0  0
    3.1054   47.9683   18.9817 H   0  0  0  0  0  0
    1.8458   46.9963   19.7500 H   0  0  0  0  0  0
    3.4086   50.0727   19.6284 H   0  0  0  0  0  0
    1.2961   50.9772   22.7292 H   0  0  0  0  0  0
    0.6158   51.5898   21.2440 H   0  0  0  0  0  0
    0.5106   53.1892   23.1352 H   0  0  0  0  0  0
    1.2605   53.8357   21.7311 H   0  0  0  0  0  0
    1.4982   53.5487   25.1365 H   0  0  0  0  0  0
    2.5629   51.7757   18.6502 H   0  0  0  0  0  0
    6.2596   55.2930   19.2099 H   0  0  0  0  0  0
    5.2986   55.2650   21.3059 H   0  0  0  0  0  0
    4.9799   54.0345   16.1182 H   0  0  0  0  0  0
    6.4003   55.7812   15.5905 H   0  0  0  0  0  0
    6.5972   56.1909   17.2558 H   0  0  0  0  0  0
    8.6895   55.2621   16.5526 H   0  0  0  0  0  0
    7.9809   54.0737   17.6079 H   0  0  0  0  0  0
    9.3325   51.9899   17.6801 H   0  0  0  0  0  0
   10.3770   49.8622   17.2995 H   0  0  0  0  0  0
   10.3895   48.8949   14.9509 H   0  0  0  0  0  0
    9.3567   50.0389   13.1167 H   0  0  0  0  0  0
    6.5449   53.7923   13.9915 H   0  0  0  0  0  0
    8.1026   54.5945   13.6242 H   0  0  0  0  0  0
    7.8868   55.1530   22.4710 H   0  0  0  0  0  0
    7.5040   55.2741   24.1878 H   0  0  0  0  0  0
    6.5052   56.0955   23.0001 H   0  0  0  0  0  0
    7.1540   54.1537   27.2206 H   0  0  0  0  0  0
    5.8053   53.0372   27.0212 H   0  0  0  0  0  0
    7.1044   53.1031   25.8110 H   0  0  0  0  0  0
    2.3747   54.0599   28.6423 H   0  0  0  0  0  0
    1.3792   54.5431   27.2814 H   0  0  0  0  0  0
    1.9883   52.8768   27.4020 H   0  0  0  0  0  0
    7.9823   52.3230   12.4460 H   0  0  0  0  0  0
  1  2  1  0  0  0
  1 41  1  0  0  0
  1 42  1  0  0  0
  1 43  1  0  0  0
  2  3  2  0  0  0
  2  4  1  0  0  0
  4  5  1  0  0  0
  4 44  1  0  0  0
  5  6  1  0  0  0
  5 16  1  0  0  0
  5  7  1  0  0  0
  7  8  1  0  0  0
  7 45  1  0  0  0
  7 46  1  0  0  0
  8  9  1  0  0  0
  8 47  1  0  0  0
  8 48  1  0  0  0
  9 14  2  0  0  0
  9 10  1  0  0  0
 10 11  2  0  0  0
 10 49  1  0  0  0
 11 12  1  0  0  0
 11 39  1  0  0  0
 12 13  2  0  0  0
 12 37  1  0  0  0
 13 14  1  0  0  0
 13 35  1  0  0  0
 14 15  1  0  0  0
 15 22  2  0  0  0
 15 16  1  0  0  0
 16 17  2  0  0  0
 17 18  1  0  0  0
 17 50  1  0  0  0
 18 19  2  0  0  0
 18 20  1  0  0  0
 20 21  2  0  0  0
 20 23  1  0  0  0
 21 22  1  0  0  0
 21 51  1  0  0  0
 22 52  1  0  0  0
 23 24  1  0  0  0
 23 53  1  0  0  0
 24 25  1  0  0  0
 24 54  1  0  0  0
 24 55  1  0  0  0
 25 26  1  0  0  0
 25 56  1  0  0  0
 25 57  1  0  0  0
 26 34  1  0  0  0
 26 27  2  0  0  0
 27 32  1  0  0  0
 27 28  1  0  0  0
 28 29  2  0  0  0
 28 58  1  0  0  0
 29 30  1  0  0  0
 29 59  1  0  0  0
 30 31  2  0  0  0
 30 60  1  0  0  0
 31 32  1  0  0  0
 31 61  1  0  0  0
 32 33  2  0  0  0
 33 34  1  0  0  0
 33 73  1  0  0  0
 34 62  1  0  0  0
 34 63  1  0  0  0
 35 36  1  0  0  0
 36 64  1  0  0  0
 36 65  1  0  0  0
 36 66  1  0  0  0
 37 38  1  0  0  0
 38 67  1  0  0  0
 38 68  1  0  0  0
 38 69  1  0  0  0
 39 40  1  0  0  0
 40 70  1  0  0  0
 40 71  1  0  0  0
 40 72  1  0  0  0
M  CHG  1  33   1
M  END
> <i_i_glide_confnum>
13

> <i_i_glide_lignum>
910

> <i_i_glide_posenum>
76

> <i_i_glide_rotatable_bonds>
9

> <i_m_Source_File_Index>
1957

> <b_m_subgroup_collapsed>
0

> <r_i_docking_score>
-5.3588

> <r_i_glide_ecoul>
-4.37113

> <r_i_glide_eff_state_penalty>
0

> <r_i_glide_einternal>
13.2883

> <r_i_glide_emodel>
-63.3486

> <r_i_glide_energy>
-49.8787

> <r_i_glide_erotb>
0.294915

> <r_i_glide_esite>
-0.0460058

> <r_i_glide_evdw>
-45.5075

> <r_i_glide_gscore>
-5.3588

> <r_i_glide_hbond>
0

> <r_i_glide_ligand_efficiency>
-0.137405

> <r_i_glide_ligand_efficiency_ln>
-1.14908

> <r_i_glide_ligand_efficiency_sa>
-0.46597

> <r_i_glide_lipo>
-2.67667

> <r_i_glide_metal>
0

> <r_i_glide_rewards>
5.46369e-06

> <s_i_glide_gridfile>
wee1_glide-grid

> <s_m_Source_File>
wee1_decoys_glide_SP.sdf

> <s_m_Source_Path>
/Users/zhangxujun/Desktop

> <s_m_entry_id>
2232

> <s_m_entry_name>
wee1_decoys_glide_SP.1957

> <s_m_subgroup_title>
wee1_decoys_glide_SP

> <s_m_subgroupid>
wee1_decoys_glide_SP


$$$$
