ZINC38598972_1449
                    3D
 Schrodinger Suite 2024-2.
 46 50  0  0  1  0            999 V2000
    0.9638   50.7873   23.6739 C   0  0  0  0  0  0
    1.6297   52.0906   24.0696 C   0  0  0  0  0  0
    2.3873   52.9952   23.4177 C   0  0  0  0  0  0
    2.9065   53.1598   21.9931 C   0  0  1  0  0  0
    2.6283   54.1669   21.6824 H   0  0  0  0  0  0
    4.4605   53.1201   22.0467 C   0  0  0  0  0  0
    5.0712   54.0040   23.1599 C   0  0  0  0  0  0
    6.2016   54.4787   23.1018 O   0  0  0  0  0  0
    4.3327   54.0973   24.2885 N   0  0  0  0  0  0
    2.8549   54.0815   24.3616 C   0  0  2  0  0  0
    2.4367   55.0504   24.0817 H   0  0  0  0  0  0
    2.2819   53.6965   25.6481 N   0  0  0  0  0  0
    1.5050   52.5034   25.3915 N   0  0  0  0  0  0
    2.7966   53.9450   26.9672 C   0  0  0  0  0  0
    4.0250   54.3060   27.1577 N   0  0  0  0  0  0
    4.4447   54.4762   28.4820 C   0  0  0  0  0  0
    3.8487   54.1896   29.5866 N   0  0  0  0  0  0
    2.5846   53.6337   29.4223 C   0  0  0  0  0  0
    1.9742   52.8522   30.2018 N   0  0  0  0  0  0
    0.9080   52.4114   29.4374 C   0  0  0  0  0  0
    0.7568   52.8688   28.2602 N   0  0  0  0  0  0
    1.7740   53.8752   28.1582 C   0  0  2  0  0  0
    1.2767   54.8446   28.2272 H   0  0  0  0  0  0
    2.2592   52.2241   20.9588 C   0  0  0  0  0  0
    2.9951   51.2928   20.2125 C   0  0  0  0  0  0
    2.3589   50.4753   19.2791 C   0  0  0  0  0  0
    0.9848   50.5789   19.0726 C   0  0  0  0  0  0
    0.2303   51.5061   19.7996 C   0  0  0  0  0  0
    0.8799   52.3209   20.7334 C   0  0  0  0  0  0
   -1.2767   51.6296   19.5769 C   0  0  0  0  0  0
   -1.5043   52.4930   18.5875 F   0  0  0  0  0  0
   -1.8178   50.4551   19.2490 F   0  0  0  0  0  0
   -1.8987   52.0792   20.6694 F   0  0  0  0  0  0
   -0.1210   50.8842   23.7135 H   0  0  0  0  0  0
    1.2456   50.4670   22.6740 H   0  0  0  0  0  0
    1.2615   49.9915   24.3576 H   0  0  0  0  0  0
    4.8141   52.1250   22.3108 H   0  0  0  0  0  0
    4.8973   53.4417   21.1004 H   0  0  0  0  0  0
    4.7764   54.6269   25.0246 H   0  0  0  0  0  0
    0.6119   52.6647   25.8398 H   0  0  0  0  0  0
    5.4363   54.9073   28.5981 H   0  0  0  0  0  0
    0.2113   51.6773   29.8343 H   0  0  0  0  0  0
    4.0643   51.1933   20.3276 H   0  0  0  0  0  0
    2.9447   49.7748   18.6984 H   0  0  0  0  0  0
    0.5146   49.9433   18.3362 H   0  0  0  0  0  0
    0.3132   53.0439   21.2985 H   0  0  0  0  0  0
  1  2  1  0  0  0
  1 34  1  0  0  0
  1 35  1  0  0  0
  1 36  1  0  0  0
  2 13  1  0  0  0
  2  3  2  0  0  0
  3 10  1  0  0  0
  3  4  1  0  0  0
  4  5  1  0  0  0
  4  6  1  0  0  0
  4 24  1  0  0  0
  6  7  1  0  0  0
  6 37  1  0  0  0
  6 38  1  0  0  0
  7  8  2  0  0  0
  7  9  1  0  0  0
  9 10  1  0  0  0
  9 39  1  0  0  0
 10 11  1  0  0  0
 10 12  1  0  0  0
 12 13  1  0  0  0
 12 14  1  0  0  0
 13 40  1  0  0  0
 14 22  1  0  0  0
 14 15  2  0  0  0
 15 16  1  0  0  0
 16 17  2  0  0  0
 16 41  1  0  0  0
 17 18  1  0  0  0
 18 22  1  0  0  0
 18 19  2  0  0  0
 19 20  1  0  0  0
 20 21  2  0  0  0
 20 42  1  0  0  0
 21 22  1  0  0  0
 22 23  1  0  0  0
 24 29  2  0  0  0
 24 25  1  0  0  0
 25 26  2  0  0  0
 25 43  1  0  0  0
 26 27  1  0  0  0
 26 44  1  0  0  0
 27 28  2  0  0  0
 27 45  1  0  0  0
 28 29  1  0  0  0
 28 30  1  0  0  0
 29 46  1  0  0  0
 30 31  1  0  0  0
 30 32  1  0  0  0
 30 33  1  0  0  0
M  END
> <i_i_glide_confnum>
4

> <i_i_glide_lignum>
1450

> <i_i_glide_posenum>
204

> <i_i_glide_rotatable_bonds>
3

> <i_m_Source_File_Index>
5937

> <b_m_subgroup_collapsed>
0

> <r_i_docking_score>
-5.63944

> <r_i_glide_ecoul>
-3.7172

> <r_i_glide_eff_state_penalty>
0

> <r_i_glide_einternal>
5.03173

> <r_i_glide_emodel>
-56.4479

> <r_i_glide_energy>
-44.0711

> <r_i_glide_erotb>
0.228896

> <r_i_glide_esite>
-0.0599606

> <r_i_glide_evdw>
-40.3539

> <r_i_glide_gscore>
-5.63944

> <r_i_glide_hbond>
-0.0449889

> <r_i_glide_ligand_efficiency>
-0.187981

> <r_i_glide_ligand_efficiency_ln>
-1.28134

> <r_i_glide_ligand_efficiency_sa>
-0.584102

> <r_i_glide_lipo>
-0.811105

> <r_i_glide_metal>
0

> <r_i_glide_rewards>
-2.37701

> <s_i_glide_gridfile>
wee1_glide-grid

> <s_m_Source_File>
wee1_decoys_glide_SP.sdf

> <s_m_Source_Path>
/Users/zhangxujun/Desktop

> <s_m_entry_id>
6212

> <s_m_entry_name>
wee1_decoys_glide_SP.5937

> <s_m_subgroup_title>
wee1_decoys_glide_SP

> <s_m_subgroupid>
wee1_decoys_glide_SP


$$$$
