ZINC39275888_559
                    3D
 Schrodinger Suite 2024-2.
 46 50  0  0  1  0            999 V2000
   -3.3313   50.3306   20.6616 C   0  0  0  0  0  0
   -4.6595   50.0809   20.3288 C   0  0  0  0  0  0
   -5.5857   49.8048   21.3336 C   0  0  0  0  0  0
   -5.1936   49.7723   22.6715 C   0  0  0  0  0  0
   -3.8665   50.0208   23.0102 C   0  0  0  0  0  0
   -2.9342   50.3038   22.0045 C   0  0  0  0  0  0
   -1.5780   50.5602   22.3445 N   0  0  0  0  0  0
   -1.2839   51.8217   22.8228 C   0  0  0  0  0  0
   -2.1385   52.7042   22.9808 O   0  0  0  0  0  0
    0.1414   52.0466   23.1180 C   0  0  0  0  0  0
    0.5020   53.2161   23.7282 C   0  0  0  0  0  0
    1.8059   53.7114   24.1347 C   0  0  0  0  0  0
    2.7604   54.4939   23.4985 C   0  0  0  0  0  0
    3.8140   54.6767   24.3982 C   0  0  0  0  0  0
    3.4617   54.0083   25.5549 C   0  0  0  0  0  0
    2.2523   53.4125   25.3829 O   0  0  0  0  0  0
    4.2983   53.7458   27.0850 S   0  0  0  0  0  0
    3.1340   54.4497   28.3136 C   0  0  2  0  0  0
    3.1920   55.5347   28.2058 H   0  0  0  0  0  0
    3.4806   54.0967   29.6819 N   0  0  0  0  0  0
    2.7203   52.8799   29.8578 C   0  0  1  0  0  0
    3.2418   52.0603   29.3598 H   0  0  0  0  0  0
    2.3759   52.4503   31.2894 C   0  0  0  0  0  0
    1.1175   52.0969   31.6322 C   0  0  0  0  0  0
    0.0435   52.1484   30.6453 C   0  0  0  0  0  0
    0.2146   52.7296   29.4383 C   0  0  0  0  0  0
    1.4855   53.2630   29.0352 C   0  0  0  0  0  0
    1.7619   54.0523   28.0861 N   0  0  0  0  0  0
    1.1067   50.9860   22.7667 C   0  0  0  0  0  0
    0.6392   49.8296   22.3314 N   0  5  0  0  0  0
   -0.6421   49.5582   22.1389 C   0  0  0  0  0  0
   -1.0372   48.4482   21.7686 O   0  0  0  0  0  0
    2.3043   51.2209   22.8795 O   0  0  0  0  0  0
   -7.2314   49.5004   20.9182 Cl  0  0  0  0  0  0
   -2.6118   50.5372   19.8815 H   0  0  0  0  0  0
   -4.9717   50.0998   19.2954 H   0  0  0  0  0  0
   -5.9166   49.5563   23.4440 H   0  0  0  0  0  0
   -3.5621   49.9948   24.0472 H   0  0  0  0  0  0
   -0.2617   53.9385   23.9827 H   0  0  0  0  0  0
    2.6995   54.8782   22.4902 H   0  0  0  0  0  0
    4.7307   55.2203   24.2270 H   0  0  0  0  0  0
    4.4731   53.9093   29.7362 H   0  0  0  0  0  0
    3.1547   52.4036   32.0373 H   0  0  0  0  0  0
    0.8877   51.8039   32.6472 H   0  0  0  0  0  0
   -0.9107   51.6973   30.8822 H   0  0  0  0  0  0
   -0.6098   52.7173   28.7409 H   0  0  0  0  0  0
  1  6  2  0  0  0
  1  2  1  0  0  0
  1 35  1  0  0  0
  2  3  2  0  0  0
  2 36  1  0  0  0
  3  4  1  0  0  0
  3 34  1  0  0  0
  4  5  2  0  0  0
  4 37  1  0  0  0
  5  6  1  0  0  0
  5 38  1  0  0  0
  6  7  1  0  0  0
  7 31  1  0  0  0
  7  8  1  0  0  0
  8  9  2  0  0  0
  8 10  1  0  0  0
 10 11  2  0  0  0
 10 29  1  0  0  0
 11 12  1  0  0  0
 11 39  1  0  0  0
 12 16  1  0  0  0
 12 13  2  0  0  0
 13 14  1  0  0  0
 13 40  1  0  0  0
 14 15  2  0  0  0
 14 41  1  0  0  0
 15 16  1  0  0  0
 15 17  1  0  0  0
 17 18  1  0  0  0
 18 19  1  0  0  0
 18 28  1  0  0  0
 18 20  1  0  0  0
 20 21  1  0  0  0
 20 42  1  0  0  0
 21 22  1  0  0  0
 21 27  1  0  0  0
 21 23  1  0  0  0
 23 24  2  0  0  0
 23 43  1  0  0  0
 24 25  1  0  0  0
 24 44  1  0  0  0
 25 26  2  0  0  0
 25 45  1  0  0  0
 26 27  1  0  0  0
 26 46  1  0  0  0
 27 28  2  0  0  0
 29 30  1  0  0  0
 29 33  2  0  0  0
 30 31  1  0  0  0
 31 32  2  0  0  0
M  CHG  1  30  -1
M  END
> <i_i_glide_confnum>
51

> <i_i_glide_lignum>
560

> <i_i_glide_posenum>
84

> <i_i_glide_rotatable_bonds>
4

> <i_m_Source_File_Index>
5683

> <b_m_subgroup_collapsed>
0

> <r_i_docking_score>
-4.80472

> <r_i_glide_ecoul>
-4.50848

> <r_i_glide_eff_state_penalty>
0

> <r_i_glide_einternal>
6.23395

> <r_i_glide_emodel>
-53.2222

> <r_i_glide_energy>
-42.8016

> <r_i_glide_erotb>
0.371716

> <r_i_glide_esite>
0

> <r_i_glide_evdw>
-38.2931

> <r_i_glide_gscore>
-4.80472

> <r_i_glide_hbond>
-0.184645

> <r_i_glide_ligand_efficiency>
-0.150147

> <r_i_glide_ligand_efficiency_ln>
-1.07591

> <r_i_glide_ligand_efficiency_sa>
-0.476688

> <r_i_glide_lipo>
-1.48135

> <r_i_glide_metal>
0

> <r_i_glide_rewards>
-0.919511

> <s_i_glide_gridfile>
wee1_glide-grid

> <s_m_Source_File>
wee1_decoys_glide_SP.sdf

> <s_m_Source_Path>
/Users/zhangxujun/Desktop

> <s_m_entry_id>
5958

> <s_m_entry_name>
wee1_decoys_glide_SP.5683

> <s_m_subgroup_title>
wee1_decoys_glide_SP

> <s_m_subgroupid>
wee1_decoys_glide_SP


$$$$
