ZINC18261732_75
                    3D
 Schrodinger Suite 2024-2.
 55 59  0  0  1  0            999 V2000
    1.3140   46.2765   15.7909 C   0  0  0  0  0  0
    0.9235   46.8275   17.1500 C   0  0  0  0  0  0
    1.9042   47.2972   18.0187 C   0  0  0  0  0  0
    1.5447   47.8126   19.2591 C   0  0  0  0  0  0
    0.1975   47.9016   19.6521 C   0  0  0  0  0  0
   -0.7790   47.4306   18.7524 C   0  0  0  0  0  0
   -0.4185   46.8959   17.5174 C   0  0  0  0  0  0
   -0.1271   48.4982   20.9174 N   0  0  0  0  0  0
    0.8407   49.3135   21.6917 C   0  0  2  0  0  0
    1.6870   48.6562   21.8959 H   0  0  0  0  0  0
    0.1727   49.6376   23.0402 C   0  0  2  0  0  0
    0.6476   49.0366   23.8185 H   0  0  0  0  0  0
   -1.2583   49.1590   22.8750 C   0  0  0  0  0  0
   -1.3230   48.3698   21.5723 C   0  0  0  0  0  0
   -2.3212   47.7291   21.2447 O   0  0  0  0  0  0
    0.2893   51.1086   23.5131 C   0  0  0  0  0  0
   -0.5979   51.9477   23.3351 O   0  0  0  0  0  0
    1.4680   51.3307   24.1314 O   0  0  0  0  0  0
    1.7927   52.5932   24.7188 C   0  0  0  0  0  0
    1.3357   52.7468   26.1737 C   0  0  0  0  0  0
    1.9057   53.7847   26.8357 N   0  0  0  0  0  0
    1.4625   54.0347   28.1004 C   0  0  0  0  0  0
    1.9725   55.1559   28.7972 C   0  0  0  0  0  0
    1.5190   55.4481   30.0813 C   0  0  0  0  0  0
    0.5959   54.6205   30.7124 C   0  0  0  0  0  0
    0.0725   53.5095   30.0571 C   0  0  0  0  0  0
    0.4752   53.2129   28.7264 C   0  0  0  0  0  0
   -0.0328   52.1475   27.9292 C   0  0  0  0  0  0
    0.3878   51.9072   26.6650 N   0  0  0  0  0  0
   -1.0289   51.2969   28.3992 N   0  0  0  0  0  0
    1.4384   50.4660   20.8870 C   0  0  0  0  0  0
    0.8341   51.3212   19.9637 C   0  0  0  0  0  0
    1.7079   52.2386   19.3776 C   0  0  0  0  0  0
    2.9932   52.1341   19.8741 C   0  0  0  0  0  0
    3.1110   50.9064   21.0831 S   0  0  0  0  0  0
    0.5979   46.5924   15.0305 H   0  0  0  0  0  0
    1.3353   45.1856   15.8090 H   0  0  0  0  0  0
    2.2911   46.6477   15.4751 H   0  0  0  0  0  0
    2.9475   47.2734   17.7351 H   0  0  0  0  0  0
    2.3484   48.1528   19.8931 H   0  0  0  0  0  0
   -1.8331   47.4956   18.9646 H   0  0  0  0  0  0
   -1.1876   46.5525   16.8409 H   0  0  0  0  0  0
   -2.0027   49.9552   22.8212 H   0  0  0  0  0  0
   -1.5463   48.5053   23.6995 H   0  0  0  0  0  0
    2.8790   52.6776   24.7013 H   0  0  0  0  0  0
    1.3932   53.4160   24.1233 H   0  0  0  0  0  0
    2.7043   55.7893   28.3186 H   0  0  0  0  0  0
    1.9032   56.3126   30.6047 H   0  0  0  0  0  0
    0.2768   54.8474   31.7197 H   0  0  0  0  0  0
   -0.6509   52.8824   30.5591 H   0  0  0  0  0  0
   -1.2701   51.3215   29.3790 H   0  0  0  0  0  0
   -1.2382   50.4505   27.8755 H   0  0  0  0  0  0
   -0.2105   51.2523   19.6965 H   0  0  0  0  0  0
    1.4145   52.9544   18.6235 H   0  0  0  0  0  0
    3.8625   52.7085   19.5894 H   0  0  0  0  0  0
  1  2  1  0  0  0
  1 36  1  0  0  0
  1 37  1  0  0  0
  1 38  1  0  0  0
  2  7  2  0  0  0
  2  3  1  0  0  0
  3  4  2  0  0  0
  3 39  1  0  0  0
  4  5  1  0  0  0
  4 40  1  0  0  0
  5  6  2  0  0  0
  5  8  1  0  0  0
  6  7  1  0  0  0
  6 41  1  0  0  0
  7 42  1  0  0  0
  8 14  1  0  0  0
  8  9  1  0  0  0
  9 10  1  0  0  0
  9 11  1  0  0  0
  9 31  1  0  0  0
 11 12  1  0  0  0
 11 13  1  0  0  0
 11 16  1  0  0  0
 13 14  1  0  0  0
 13 43  1  0  0  0
 13 44  1  0  0  0
 14 15  2  0  0  0
 16 17  2  0  0  0
 16 18  1  0  0  0
 18 19  1  0  0  0
 19 20  1  0  0  0
 19 45  1  0  0  0
 19 46  1  0  0  0
 20 29  2  0  0  0
 20 21  1  0  0  0
 21 22  2  0  0  0
 22 27  1  0  0  0
 22 23  1  0  0  0
 23 24  2  0  0  0
 23 47  1  0  0  0
 24 25  1  0  0  0
 24 48  1  0  0  0
 25 26  2  0  0  0
 25 49  1  0  0  0
 26 27  1  0  0  0
 26 50  1  0  0  0
 27 28  2  0  0  0
 28 29  1  0  0  0
 28 30  1  0  0  0
 30 51  1  0  0  0
 30 52  1  0  0  0
 31 35  1  0  0  0
 31 32  2  0  0  0
 32 33  1  0  0  0
 32 53  1  0  0  0
 33 34  2  0  0  0
 33 54  1  0  0  0
 34 35  1  0  0  0
 34 55  1  0  0  0
M  END
> <i_i_glide_confnum>
120

> <i_i_glide_lignum>
76

> <i_i_glide_posenum>
69

> <i_i_glide_rotatable_bonds>
6

> <i_m_Source_File_Index>
1198

> <b_m_subgroup_collapsed>
0

> <r_i_docking_score>
-4.34416

> <r_i_glide_ecoul>
-3.77979

> <r_i_glide_eff_state_penalty>
0

> <r_i_glide_einternal>
2.75457

> <r_i_glide_emodel>
-50.9023

> <r_i_glide_energy>
-40.9359

> <r_i_glide_erotb>
0.573981

> <r_i_glide_esite>
-0.0950147

> <r_i_glide_evdw>
-37.1562

> <r_i_glide_gscore>
-4.34416

> <r_i_glide_hbond>
-0.0757341

> <r_i_glide_ligand_efficiency>
-0.131641

> <r_i_glide_ligand_efficiency_ln>
-0.966118

> <r_i_glide_ligand_efficiency_sa>
-0.422244

> <r_i_glide_lipo>
-1.78047

> <r_i_glide_metal>
0

> <r_i_glide_rewards>
-0.542141

> <s_i_glide_gridfile>
wee1_glide-grid

> <s_m_Source_File>
wee1_decoys_glide_SP.sdf

> <s_m_Source_Path>
/Users/zhangxujun/Desktop

> <s_m_entry_id>
1473

> <s_m_entry_name>
wee1_decoys_glide_SP.1198

> <s_m_subgroup_title>
wee1_decoys_glide_SP

> <s_m_subgroupid>
wee1_decoys_glide_SP


$$$$
