ZINC49424960_41
                    3D
 Schrodinger Suite 2024-2.
 48 51  0  0  1  0            999 V2000
    0.4792   54.2782   30.7742 C   0  0  0  0  0  0
    0.7217   53.4385   29.6877 C   0  0  0  0  0  0
    1.5232   54.1452   28.8003 C   0  0  0  0  0  0
    1.7595   55.3900   29.3006 O   0  0  0  0  0  0
    1.1042   55.4800   30.4818 C   0  0  0  0  0  0
    2.0657   53.8704   27.4900 C   0  0  0  0  0  0
    3.1858   54.4972   26.9504 C   0  0  0  0  0  0
    3.3527   54.0836   25.2755 S   0  0  0  0  0  0
    1.9832   53.0131   25.4825 C   0  0  0  0  0  0
    1.4784   52.9999   26.6907 N   0  0  0  0  0  0
    1.5043   52.1553   24.5032 N   0  0  0  0  0  0
    1.6683   52.2764   23.1697 C   0  0  0  0  0  0
    2.1122   53.2916   22.6321 O   0  0  0  0  0  0
    1.2146   51.0522   22.3237 C   0  0  1  0  0  0
    0.8981   50.2813   23.0276 H   0  0  0  0  0  0
    0.0058   51.4633   21.4351 C   0  0  0  0  0  0
    0.3795   52.2792   20.1773 C   0  0  0  0  0  0
    1.5524   51.6499   19.3980 C   0  0  0  0  0  0
    2.6675   51.4986   20.3571 N   0  0  0  0  0  0
    2.3921   50.5305   21.4397 C   0  0  0  0  0  0
    3.8855   52.0955   20.2370 C   0  0  0  0  0  0
    4.8699   51.7327   20.8891 O   0  0  0  0  0  0
    3.9350   53.1323   19.3742 N   0  0  0  0  0  0
    5.1391   53.6672   18.7306 C   0  0  0  0  0  0
    6.0582   54.4984   19.6156 C   0  0  0  0  0  0
    7.2988   55.0391   19.2743 C   0  0  0  0  0  0
    7.9623   55.6911   20.3146 C   0  0  0  0  0  0
    7.2248   55.6966   21.4823 C   0  0  0  0  0  0
    5.7061   54.8964   21.2837 S   0  0  0  0  0  0
   -0.0948   54.0410   31.6578 H   0  0  0  0  0  0
    0.3537   52.4307   29.5573 H   0  0  0  0  0  0
    1.1828   56.4267   30.9983 H   0  0  0  0  0  0
    3.8438   55.2078   27.4208 H   0  0  0  0  0  0
    0.9187   51.4017   24.8294 H   0  0  0  0  0  0
   -0.5140   50.5477   21.1512 H   0  0  0  0  0  0
   -0.7760   51.9373   22.0317 H   0  0  0  0  0  0
   -0.4894   52.3694   19.5248 H   0  0  0  0  0  0
    0.6461   53.2962   20.4613 H   0  0  0  0  0  0
    1.2801   50.6482   19.0634 H   0  0  0  0  0  0
    1.8212   52.1917   18.4915 H   0  0  0  0  0  0
    3.2766   50.2748   22.0252 H   0  0  0  0  0  0
    2.0980   49.5884   20.9739 H   0  0  0  0  0  0
    3.0561   53.4405   18.9864 H   0  0  0  0  0  0
    5.7088   52.8285   18.3253 H   0  0  0  0  0  0
    4.8256   54.2374   17.8565 H   0  0  0  0  0  0
    7.7316   54.9250   18.2917 H   0  0  0  0  0  0
    8.9511   56.1121   20.2213 H   0  0  0  0  0  0
    7.5056   56.0955   22.4446 H   0  0  0  0  0  0
  1  5  2  0  0  0
  1  2  1  0  0  0
  1 30  1  0  0  0
  2  3  2  0  0  0
  2 31  1  0  0  0
  3  4  1  0  0  0
  3  6  1  0  0  0
  4  5  1  0  0  0
  5 32  1  0  0  0
  6 10  1  0  0  0
  6  7  2  0  0  0
  7  8  1  0  0  0
  7 33  1  0  0  0
  8  9  1  0  0  0
  9 10  2  0  0  0
  9 11  1  0  0  0
 11 12  1  0  0  0
 11 34  1  0  0  0
 12 13  2  0  0  0
 12 14  1  0  0  0
 14 15  1  0  0  0
 14 20  1  0  0  0
 14 16  1  0  0  0
 16 17  1  0  0  0
 16 35  1  0  0  0
 16 36  1  0  0  0
 17 18  1  0  0  0
 17 37  1  0  0  0
 17 38  1  0  0  0
 18 19  1  0  0  0
 18 39  1  0  0  0
 18 40  1  0  0  0
 19 20  1  0  0  0
 19 21  1  0  0  0
 20 41  1  0  0  0
 20 42  1  0  0  0
 21 22  2  0  0  0
 21 23  1  0  0  0
 23 24  1  0  0  0
 23 43  1  0  0  0
 24 25  1  0  0  0
 24 44  1  0  0  0
 24 45  1  0  0  0
 25 29  1  0  0  0
 25 26  2  0  0  0
 26 27  1  0  0  0
 26 46  1  0  0  0
 27 28  2  0  0  0
 27 47  1  0  0  0
 28 29  1  0  0  0
 28 48  1  0  0  0
M  END
> <i_i_glide_confnum>
70

> <i_i_glide_lignum>
42

> <i_i_glide_posenum>
188

> <i_i_glide_rotatable_bonds>
8

> <i_m_Source_File_Index>
3871

> <b_m_subgroup_collapsed>
0

> <r_i_docking_score>
-5.44884

> <r_i_glide_ecoul>
-5.06902

> <r_i_glide_eff_state_penalty>
0

> <r_i_glide_einternal>
4.73439

> <r_i_glide_emodel>
-61.4947

> <r_i_glide_energy>
-47.0577

> <r_i_glide_erotb>
0.797155

> <r_i_glide_esite>
-0.100854

> <r_i_glide_evdw>
-41.9887

> <r_i_glide_gscore>
-5.44884

> <r_i_glide_hbond>
0

> <r_i_glide_ligand_efficiency>
-0.194602

> <r_i_glide_ligand_efficiency_ln>
-1.25775

> <r_i_glide_ligand_efficiency_sa>
-0.590925

> <r_i_glide_lipo>
-2.58185

> <r_i_glide_metal>
0

> <r_i_glide_rewards>
-0.703509

> <s_i_glide_gridfile>
wee1_glide-grid

> <s_m_Source_File>
wee1_decoys_glide_SP.sdf

> <s_m_Source_Path>
/Users/zhangxujun/Desktop

> <s_m_entry_id>
4146

> <s_m_entry_name>
wee1_decoys_glide_SP.3871

> <s_m_subgroup_title>
wee1_decoys_glide_SP

> <s_m_subgroupid>
wee1_decoys_glide_SP


$$$$
