ZINC59135278_1001
                    3D
 Schrodinger Suite 2024-2.
 57 61  0  0  1  0            999 V2000
    3.4689   52.3196   21.0226 C   0  0  0  0  0  0
    2.4608   51.5369   21.8689 C   0  0  0  0  0  0
    2.1795   52.2845   23.0491 O   0  0  0  0  0  0
    1.3751   51.7338   24.0322 C   0  0  0  0  0  0
    0.7531   50.4724   23.9254 C   0  0  0  0  0  0
   -0.0524   49.9711   24.9550 C   0  0  0  0  0  0
   -0.1943   50.7243   26.1216 C   0  0  0  0  0  0
    0.3719   51.9864   26.2222 C   0  0  0  0  0  0
    1.1678   52.4956   25.1937 C   0  0  0  0  0  0
    1.6889   53.7672   25.3080 O   0  0  0  0  0  0
    2.9603   53.9058   25.9560 C   0  0  0  0  0  0
    2.8634   53.6780   27.4649 C   0  0  0  0  0  0
    3.8382   52.8984   28.1124 C   0  0  0  0  0  0
    3.6641   52.4769   29.4380 C   0  0  0  0  0  0
    2.4927   52.8588   30.0789 C   0  0  0  0  0  0
    1.5876   53.6968   29.4909 C   0  0  0  0  0  0
    1.7625   54.1663   28.1930 C   0  0  0  0  0  0
    0.5532   53.9094   30.3478 O   0  0  0  0  0  0
    0.7045   52.9337   31.3462 C   0  0  0  0  0  0
    2.0380   52.4968   31.3055 O   0  0  0  0  0  0
   -0.7308   48.6598   24.8078 C   0  0  0  0  0  0
   -2.0051   48.2849   25.1439 C   0  0  0  0  0  0
   -2.3926   46.8656   25.0726 C   0  0  0  0  0  0
   -1.6977   46.0985   24.4053 O   0  0  0  0  0  0
   -3.4752   46.4689   25.7193 N   0  5  0  0  0  0
   -4.2339   47.2738   26.4610 C   0  0  0  0  0  0
   -5.1921   46.8664   27.1238 O   0  0  0  0  0  0
   -3.9548   48.6343   26.4734 N   0  0  0  0  0  0
   -2.9971   49.2323   25.6816 C   0  0  0  0  0  0
   -2.9924   50.4419   25.4212 O   0  0  0  0  0  0
   -4.6945   49.4985   27.3247 C   0  0  0  0  0  0
   -5.8678   50.1170   26.8754 C   0  0  0  0  0  0
   -6.5334   51.0185   27.7058 C   0  0  0  0  0  0
   -6.0313   51.2941   28.9777 C   0  0  0  0  0  0
   -4.8774   50.6646   29.4360 C   0  0  0  0  0  0
   -4.2067   49.7686   28.6100 C   0  0  0  0  0  0
   -6.6602   52.1901   29.7730 F   0  0  0  0  0  0
    3.7233   51.7761   20.1117 H   0  0  0  0  0  0
    3.0636   53.2887   20.7291 H   0  0  0  0  0  0
    4.3927   52.4946   21.5743 H   0  0  0  0  0  0
    2.8852   50.5632   22.1217 H   0  0  0  0  0  0
    1.5456   51.3709   21.2980 H   0  0  0  0  0  0
    0.8758   49.8726   23.0367 H   0  0  0  0  0  0
   -0.7846   50.3483   26.9461 H   0  0  0  0  0  0
    0.1695   52.5593   27.1100 H   0  0  0  0  0  0
    3.6863   53.2302   25.5007 H   0  0  0  0  0  0
    3.3335   54.9139   25.7791 H   0  0  0  0  0  0
    4.7015   52.5443   27.5645 H   0  0  0  0  0  0
    4.3896   51.8321   29.9108 H   0  0  0  0  0  0
    1.0184   54.7886   27.7182 H   0  0  0  0  0  0
    0.0331   52.0953   31.1413 H   0  0  0  0  0  0
    0.4428   53.3236   32.3315 H   0  0  0  0  0  0
   -0.0590   47.9023   24.4254 H   0  0  0  0  0  0
   -6.2447   49.9143   25.8836 H   0  0  0  0  0  0
   -7.4309   51.5105   27.3624 H   0  0  0  0  0  0
   -4.4932   50.8753   30.4233 H   0  0  0  0  0  0
   -3.2986   49.2982   28.9632 H   0  0  0  0  0  0
  1  2  1  0  0  0
  1 38  1  0  0  0
  1 39  1  0  0  0
  1 40  1  0  0  0
  2  3  1  0  0  0
  2 41  1  0  0  0
  2 42  1  0  0  0
  3  4  1  0  0  0
  4  9  2  0  0  0
  4  5  1  0  0  0
  5  6  2  0  0  0
  5 43  1  0  0  0
  6  7  1  0  0  0
  6 21  1  0  0  0
  7  8  2  0  0  0
  7 44  1  0  0  0
  8  9  1  0  0  0
  8 45  1  0  0  0
  9 10  1  0  0  0
 10 11  1  0  0  0
 11 12  1  0  0  0
 11 46  1  0  0  0
 11 47  1  0  0  0
 12 17  2  0  0  0
 12 13  1  0  0  0
 13 14  2  0  0  0
 13 48  1  0  0  0
 14 15  1  0  0  0
 14 49  1  0  0  0
 15 20  1  0  0  0
 15 16  2  0  0  0
 16 17  1  0  0  0
 16 18  1  0  0  0
 17 50  1  0  0  0
 18 19  1  0  0  0
 19 20  1  0  0  0
 19 51  1  0  0  0
 19 52  1  0  0  0
 21 22  2  0  0  0
 21 53  1  0  0  0
 22 29  1  0  0  0
 22 23  1  0  0  0
 23 24  2  0  0  0
 23 25  1  0  0  0
 25 26  1  0  0  0
 26 27  2  0  0  0
 26 28  1  0  0  0
 28 29  1  0  0  0
 28 31  1  0  0  0
 29 30  2  0  0  0
 31 36  2  0  0  0
 31 32  1  0  0  0
 32 33  2  0  0  0
 32 54  1  0  0  0
 33 34  1  0  0  0
 33 55  1  0  0  0
 34 35  2  0  0  0
 34 37  1  0  0  0
 35 36  1  0  0  0
 35 56  1  0  0  0
 36 57  1  0  0  0
M  CHG  1  25  -1
M  END
> <i_i_glide_confnum>
4

> <i_i_glide_lignum>
1002

> <i_i_glide_posenum>
166

> <i_i_glide_rotatable_bonds>
7

> <i_m_Source_File_Index>
4562

> <b_m_subgroup_collapsed>
0

> <r_i_docking_score>
-5.12493

> <r_i_glide_ecoul>
-8.85548

> <r_i_glide_eff_state_penalty>
0

> <r_i_glide_einternal>
5.68595

> <r_i_glide_emodel>
-64.0289

> <r_i_glide_energy>
-49.5301

> <r_i_glide_erotb>
0.483851

> <r_i_glide_esite>
-0.395169

> <r_i_glide_evdw>
-40.6746

> <r_i_glide_gscore>
-5.12493

> <r_i_glide_hbond>
-0.0600946

> <r_i_glide_ligand_efficiency>
-0.138512

> <r_i_glide_ligand_efficiency_ln>
-1.11148

> <r_i_glide_ligand_efficiency_sa>
-0.461552

> <r_i_glide_lipo>
-1.79147

> <r_i_glide_metal>
0

> <r_i_glide_rewards>
0

> <s_i_glide_gridfile>
wee1_glide-grid

> <s_m_Source_File>
wee1_decoys_glide_SP.sdf

> <s_m_Source_Path>
/Users/zhangxujun/Desktop

> <s_m_entry_id>
4837

> <s_m_entry_name>
wee1_decoys_glide_SP.4562

> <s_m_subgroup_title>
wee1_decoys_glide_SP

> <s_m_subgroupid>
wee1_decoys_glide_SP


$$$$
