ZINC38932076_5859
                    3D
 Schrodinger Suite 2024-2.
 45 48  0  0  1  0            999 V2000
    5.5689   54.2081   20.1421 C   0  0  0  0  0  0
    5.3904   54.2512   21.6491 C   0  0  0  0  0  0
    4.1252   54.0435   22.1963 C   0  0  0  0  0  0
    3.9504   54.0968   23.5760 C   0  0  0  0  0  0
    5.0390   54.3611   24.4128 C   0  0  0  0  0  0
    6.3045   54.5569   23.8630 C   0  0  0  0  0  0
    6.4801   54.5072   22.4839 C   0  0  0  0  0  0
    4.8766   54.4690   26.1772 S   0  0  0  0  0  0
    3.1258   54.4558   26.6890 C   0  0  0  0  0  0
    2.6777   53.2710   27.5078 C   0  0  0  0  0  0
    1.6434   52.4426   27.3470 C   0  0  0  0  0  0
    0.4508   52.3449   26.4008 C   0  0  2  0  0  0
    0.3060   53.2964   25.8915 H   0  0  0  0  0  0
   -0.7760   52.0967   27.2806 C   0  0  0  0  0  0
   -0.6749   51.6965   28.5693 C   0  0  0  0  0  0
    0.4752   51.5315   29.2814 O   0  0  0  0  0  0
    1.6946   51.5234   28.5219 C   0  0  2  0  0  0
    1.9035   50.4967   28.2277 H   0  0  0  0  0  0
    2.8012   52.0202   29.2796 N   0  0  0  0  0  0
    3.3363   52.9938   28.6599 N   0  0  0  0  0  0
   -1.7045   51.2967   29.3685 N   0  0  0  0  0  0
   -2.0558   52.1927   26.6543 C   0  0  0  0  0  0
   -3.0856   52.3123   26.1418 N   0  0  0  0  0  0
    0.5980   51.2946   25.2974 C   0  0  0  0  0  0
    0.2825   49.9460   25.5290 C   0  0  0  0  0  0
    0.3215   49.0210   24.4873 C   0  0  0  0  0  0
    0.7037   49.4284   23.2088 C   0  0  0  0  0  0
    1.0337   50.7610   22.9711 C   0  0  0  0  0  0
    0.9719   51.6899   24.0080 C   0  0  0  0  0  0
    1.3970   51.1588   21.7314 F   0  0  0  0  0  0
    5.5041   53.1813   19.7780 H   0  0  0  0  0  0
    4.7797   54.7819   19.6534 H   0  0  0  0  0  0
    6.5208   54.6388   19.8288 H   0  0  0  0  0  0
    3.2773   53.8424   21.5557 H   0  0  0  0  0  0
    2.9646   53.9230   23.9601 H   0  0  0  0  0  0
    7.1533   54.7588   24.5000 H   0  0  0  0  0  0
    7.4663   54.6739   22.0746 H   0  0  0  0  0  0
    2.9405   55.3461   27.2848 H   0  0  0  0  0  0
    2.4614   54.4967   25.8349 H   0  0  0  0  0  0
   -2.6154   51.1714   28.9518 H   0  0  0  0  0  0
   -1.5139   50.6697   30.1416 H   0  0  0  0  0  0
   -0.0206   49.6072   26.5109 H   0  0  0  0  0  0
    0.0718   47.9880   24.6810 H   0  0  0  0  0  0
    0.7467   48.7172   22.3991 H   0  0  0  0  0  0
    1.1868   52.7235   23.7921 H   0  0  0  0  0  0
  1  2  1  0  0  0
  1 31  1  0  0  0
  1 32  1  0  0  0
  1 33  1  0  0  0
  2  7  2  0  0  0
  2  3  1  0  0  0
  3  4  2  0  0  0
  3 34  1  0  0  0
  4  5  1  0  0  0
  4 35  1  0  0  0
  5  6  2  0  0  0
  5  8  1  0  0  0
  6  7  1  0  0  0
  6 36  1  0  0  0
  7 37  1  0  0  0
  8  9  1  0  0  0
  9 10  1  0  0  0
  9 38  1  0  0  0
  9 39  1  0  0  0
 10 20  1  0  0  0
 10 11  2  0  0  0
 11 17  1  0  0  0
 11 12  1  0  0  0
 12 13  1  0  0  0
 12 14  1  0  0  0
 12 24  1  0  0  0
 14 15  2  0  0  0
 14 22  1  0  0  0
 15 16  1  0  0  0
 15 21  1  0  0  0
 16 17  1  0  0  0
 17 18  1  0  0  0
 17 19  1  0  0  0
 19 20  2  0  0  0
 21 40  1  0  0  0
 21 41  1  0  0  0
 22 23  3  0  0  0
 24 29  2  0  0  0
 24 25  1  0  0  0
 25 26  2  0  0  0
 25 42  1  0  0  0
 26 27  1  0  0  0
 26 43  1  0  0  0
 27 28  2  0  0  0
 27 44  1  0  0  0
 28 29  1  0  0  0
 28 30  1  0  0  0
 29 45  1  0  0  0
M  END
> <i_i_glide_confnum>
6

> <i_i_glide_lignum>
5860

> <i_i_glide_posenum>
326

> <i_i_glide_rotatable_bonds>
5

> <i_m_Source_File_Index>
4478

> <b_m_subgroup_collapsed>
0

> <r_i_docking_score>
-5.49426

> <r_i_glide_ecoul>
-3.15694

> <r_i_glide_eff_state_penalty>
0

> <r_i_glide_einternal>
4.73781

> <r_i_glide_emodel>
-51.2554

> <r_i_glide_energy>
-40.3556

> <r_i_glide_erotb>
0.507083

> <r_i_glide_esite>
-0.119014

> <r_i_glide_evdw>
-37.1987

> <r_i_glide_gscore>
-5.49426

> <r_i_glide_hbond>
-0.0688164

> <r_i_glide_ligand_efficiency>
-0.196223

> <r_i_glide_ligand_efficiency_ln>
-1.26824

> <r_i_glide_ligand_efficiency_sa>
-0.59585

> <r_i_glide_lipo>
-2.4268

> <r_i_glide_metal>
0

> <r_i_glide_rewards>
-1.05324

> <s_i_glide_gridfile>
wee1_glide-grid

> <s_m_Source_File>
wee1_decoys_glide_SP.sdf

> <s_m_Source_Path>
/Users/zhangxujun/Desktop

> <s_m_entry_id>
4753

> <s_m_entry_name>
wee1_decoys_glide_SP.4478

> <s_m_subgroup_title>
wee1_decoys_glide_SP

> <s_m_subgroupid>
wee1_decoys_glide_SP


$$$$
