ZINC38975725_5271
                    3D
 Schrodinger Suite 2024-2.
 50 53  0  0  1  0            999 V2000
    6.5591   54.3204   28.0302 C   0  0  0  0  0  0
    5.4390   54.2166   27.0055 C   0  0  0  0  0  0
    5.6665   54.6293   25.6880 C   0  0  0  0  0  0
    4.6681   54.4905   24.7216 C   0  0  0  0  0  0
    3.4344   53.9231   25.0599 C   0  0  0  0  0  0
    3.1879   53.5798   26.3926 C   0  0  0  0  0  0
    4.1799   53.7102   27.3657 C   0  0  0  0  0  0
    3.8827   53.2584   28.7901 C   0  0  0  0  0  0
    2.1606   53.5993   23.8240 S   0  0  0  0  0  0
    1.3460   52.5464   24.4457 O   0  0  0  0  0  0
    1.5085   54.8963   23.6882 O   0  0  0  0  0  0
    3.1959   53.1722   22.4670 N   0  0  0  0  0  0
    2.8219   52.2561   21.6681 C   0  0  0  0  0  0
    3.7142   52.0390   20.4052 C   0  0  1  0  0  0
    4.7443   51.8877   20.7295 H   0  0  0  0  0  0
    3.3988   50.7678   19.6817 N   0  3  0  0  0  0
    2.3228   50.0232   19.9122 C   0  0  0  0  0  0
    2.0425   48.8967   19.1399 C   0  0  0  0  0  0
    0.9215   48.1727   19.4021 C   0  0  0  0  0  0
   -0.0062   48.5340   20.4764 C   0  0  0  0  0  0
    0.2437   49.6178   21.2487 C   0  0  0  0  0  0
    1.4084   50.4570   21.0623 C   0  0  0  0  0  0
    1.6693   51.4708   21.8063 N   0  0  0  0  0  0
    3.6626   53.1850   19.4907 N   0  0  0  0  0  0
    4.5476   54.2755   19.5103 C   0  0  0  0  0  0
    4.4435   55.2146   18.4815 C   0  0  0  0  0  0
    5.3047   56.3120   18.4310 C   0  0  0  0  0  0
    6.2809   56.4785   19.4131 C   0  0  0  0  0  0
    6.3795   55.5566   20.4543 C   0  0  0  0  0  0
    5.5146   54.4629   20.5056 C   0  0  0  0  0  0
    7.5723   55.7558   21.6835 Cl  0  0  0  0  0  0
    5.1564   57.4676   17.1587 Cl  0  0  0  0  0  0
    7.4102   54.8978   27.6738 H   0  0  0  0  0  0
    6.1944   54.8115   28.9310 H   0  0  0  0  0  0
    6.9085   53.3275   28.3157 H   0  0  0  0  0  0
    6.6232   55.0354   25.3996 H   0  0  0  0  0  0
    4.8727   54.7921   23.7060 H   0  0  0  0  0  0
    2.2288   53.1633   26.6700 H   0  0  0  0  0  0
    2.8992   52.7948   28.8817 H   0  0  0  0  0  0
    3.9309   54.1073   29.4752 H   0  0  0  0  0  0
    4.6240   52.5276   29.1159 H   0  0  0  0  0  0
    2.7044   48.6210   18.3288 H   0  0  0  0  0  0
    0.7037   47.3092   18.7894 H   0  0  0  0  0  0
   -0.8881   47.9336   20.6524 H   0  0  0  0  0  0
   -0.4551   49.8586   22.0370 H   0  0  0  0  0  0
    2.8609   53.2540   18.8781 H   0  0  0  0  0  0
    3.6950   55.0954   17.7116 H   0  0  0  0  0  0
    6.9496   57.3240   19.3626 H   0  0  0  0  0  0
    5.6094   53.7704   21.3270 H   0  0  0  0  0  0
    4.0543   50.4985   18.9282 H   0  0  0  0  0  0
  1  2  1  0  0  0
  1 33  1  0  0  0
  1 34  1  0  0  0
  1 35  1  0  0  0
  2  7  2  0  0  0
  2  3  1  0  0  0
  3  4  2  0  0  0
  3 36  1  0  0  0
  4  5  1  0  0  0
  4 37  1  0  0  0
  5  6  2  0  0  0
  5  9  1  0  0  0
  6  7  1  0  0  0
  6 38  1  0  0  0
  7  8  1  0  0  0
  8 39  1  0  0  0
  8 40  1  0  0  0
  8 41  1  0  0  0
  9 10  2  0  0  0
  9 11  2  0  0  0
  9 12  1  0  0  0
 12 13  2  0  0  0
 13 23  1  0  0  0
 13 14  1  0  0  0
 14 15  1  0  0  0
 14 16  1  0  0  0
 14 24  1  0  0  0
 16 17  2  0  0  0
 16 50  1  0  0  0
 17 22  1  0  0  0
 17 18  1  0  0  0
 18 19  2  0  0  0
 18 42  1  0  0  0
 19 20  1  0  0  0
 19 43  1  0  0  0
 20 21  2  0  0  0
 20 44  1  0  0  0
 21 22  1  0  0  0
 21 45  1  0  0  0
 22 23  2  0  0  0
 24 25  1  0  0  0
 24 46  1  0  0  0
 25 30  2  0  0  0
 25 26  1  0  0  0
 26 27  2  0  0  0
 26 47  1  0  0  0
 27 28  1  0  0  0
 27 32  1  0  0  0
 28 29  2  0  0  0
 28 48  1  0  0  0
 29 30  1  0  0  0
 29 31  1  0  0  0
 30 49  1  0  0  0
M  CHG  1  16   1
M  END
> <i_i_glide_confnum>
9

> <i_i_glide_lignum>
5272

> <i_i_glide_posenum>
326

> <i_i_glide_rotatable_bonds>
4

> <i_m_Source_File_Index>
1727

> <b_m_subgroup_collapsed>
0

> <r_i_docking_score>
-5.21453

> <r_i_glide_ecoul>
-2.95631

> <r_i_glide_eff_state_penalty>
0

> <r_i_glide_einternal>
6.46735

> <r_i_glide_emodel>
-56.8187

> <r_i_glide_energy>
-44.4451

> <r_i_glide_erotb>
0.359662

> <r_i_glide_esite>
-0.161316

> <r_i_glide_evdw>
-41.4887

> <r_i_glide_gscore>
-5.21453

> <r_i_glide_hbond>
-0.2

> <r_i_glide_ligand_efficiency>
-0.168211

> <r_i_glide_ligand_efficiency_ln>
-1.17604

> <r_i_glide_ligand_efficiency_sa>
-0.528413

> <r_i_glide_lipo>
-2.47912

> <r_i_glide_metal>
0

> <r_i_glide_rewards>
-0.215871

> <s_i_glide_gridfile>
wee1_glide-grid

> <s_m_Source_File>
wee1_decoys_glide_SP.sdf

> <s_m_Source_Path>
/Users/zhangxujun/Desktop

> <s_m_entry_id>
2002

> <s_m_entry_name>
wee1_decoys_glide_SP.1727

> <s_m_subgroup_title>
wee1_decoys_glide_SP

> <s_m_subgroupid>
wee1_decoys_glide_SP


$$$$
