ZINC44785210_1689
                    3D
 Schrodinger Suite 2024-2.
 48 49  0  0  1  0            999 V2000
    2.1608   53.1786   22.8850 C   0  0  0  0  0  0
    1.7011   52.3789   24.1104 C   0  0  1  0  0  0
    2.5768   51.8704   24.5041 H   0  0  0  0  0  0
    1.1046   53.2965   25.2017 C   0  0  0  0  0  0
    0.4621   52.4966   26.2755 N   0  0  0  0  0  0
   -0.5781   51.5847   25.7123 C   0  0  2  0  0  0
   -1.0024   50.9503   26.4930 H   0  0  0  0  0  0
    0.1510   50.6480   24.7165 C   0  0  0  0  0  0
    0.7581   51.4037   23.6720 O   0  0  0  0  0  0
   -1.8206   52.2800   25.1222 C   0  0  0  0  0  0
    0.9203   52.2664   27.5585 C   0  0  0  0  0  0
    0.5575   51.2289   28.1161 O   0  0  0  0  0  0
    1.8701   53.1825   28.4561 C   0  0  0  0  0  0
    3.0431   52.2595   28.9393 C   0  0  0  0  0  0
    4.3044   52.9159   29.5313 C   0  0  0  0  0  0
    5.4006   53.2296   28.4817 C   0  0  0  0  0  0
    5.0834   54.3525   27.4950 C   0  0  0  0  0  0
    3.7167   54.2486   26.8020 C   0  0  0  0  0  0
    2.5001   54.4409   27.7500 C   0  0  0  0  0  0
    1.0205   53.6338   29.7299 C   0  0  0  0  0  0
    0.6864   52.7672   30.6173 N   0  0  0  0  0  0
   -0.0947   53.2970   31.6810 O   0  0  0  0  0  0
    0.7075   54.9770   29.7856 N   0  0  0  0  0  0
    2.9006   53.9326   23.1550 H   0  0  0  0  0  0
    2.6163   52.5234   22.1420 H   0  0  0  0  0  0
    1.3253   53.6882   22.4040 H   0  0  0  0  0  0
    0.3044   53.8507   24.7162 H   0  0  0  0  0  0
    1.7422   54.1116   25.4841 H   0  0  0  0  0  0
   -0.5391   49.9189   24.2916 H   0  0  0  0  0  0
    0.9169   50.0754   25.2435 H   0  0  0  0  0  0
   -2.5436   51.5378   24.7837 H   0  0  0  0  0  0
   -2.3157   52.9043   25.8653 H   0  0  0  0  0  0
   -1.5814   52.8863   24.2496 H   0  0  0  0  0  0
    3.3871   51.6971   28.0806 H   0  0  0  0  0  0
    2.6883   51.4891   29.6264 H   0  0  0  0  0  0
    4.7108   52.2117   30.2569 H   0  0  0  0  0  0
    4.0534   53.8073   30.1067 H   0  0  0  0  0  0
    5.6273   52.3270   27.9200 H   0  0  0  0  0  0
    6.3339   53.4851   28.9828 H   0  0  0  0  0  0
    5.8672   54.3837   26.7368 H   0  0  0  0  0  0
    5.1545   55.2969   28.0270 H   0  0  0  0  0  0
    3.6553   53.2992   26.2690 H   0  0  0  0  0  0
    3.6850   55.0243   26.0353 H   0  0  0  0  0  0
    2.8563   55.1487   28.5011 H   0  0  0  0  0  0
    1.6934   54.9914   27.2818 H   0  0  0  0  0  0
   -0.4409   52.5092   32.1399 H   0  0  0  0  0  0
    0.1982   55.3074   30.5919 H   0  0  0  0  0  0
    1.0668   55.6360   29.1128 H   0  0  0  0  0  0
  1  2  1  0  0  0
  1 24  1  0  0  0
  1 25  1  0  0  0
  1 26  1  0  0  0
  2  3  1  0  0  0
  2  9  1  0  0  0
  2  4  1  0  0  0
  4  5  1  0  0  0
  4 27  1  0  0  0
  4 28  1  0  0  0
  5  6  1  0  0  0
  5 11  1  0  0  0
  6  7  1  0  0  0
  6  8  1  0  0  0
  6 10  1  0  0  0
  8  9  1  0  0  0
  8 29  1  0  0  0
  8 30  1  0  0  0
 10 31  1  0  0  0
 10 32  1  0  0  0
 10 33  1  0  0  0
 11 12  2  0  0  0
 11 13  1  0  0  0
 13 19  1  0  0  0
 13 14  1  0  0  0
 13 20  1  0  0  0
 14 15  1  0  0  0
 14 34  1  0  0  0
 14 35  1  0  0  0
 15 16  1  0  0  0
 15 36  1  0  0  0
 15 37  1  0  0  0
 16 17  1  0  0  0
 16 38  1  0  0  0
 16 39  1  0  0  0
 17 18  1  0  0  0
 17 40  1  0  0  0
 17 41  1  0  0  0
 18 19  1  0  0  0
 18 42  1  0  0  0
 18 43  1  0  0  0
 19 44  1  0  0  0
 19 45  1  0  0  0
 20 21  2  0  0  0
 20 23  1  0  0  0
 21 22  1  0  0  0
 22 46  1  0  0  0
 23 47  1  0  0  0
 23 48  1  0  0  0
M  END
> <i_i_glide_confnum>
56

> <i_i_glide_lignum>
1690

> <i_i_glide_posenum>
94

> <i_i_glide_rotatable_bonds>
4

> <i_m_Source_File_Index>
1102

> <b_m_subgroup_collapsed>
0

> <r_i_docking_score>
-5.18444

> <r_i_glide_ecoul>
-3.95346

> <r_i_glide_eff_state_penalty>
0

> <r_i_glide_einternal>
16.7112

> <r_i_glide_emodel>
-36.5625

> <r_i_glide_energy>
-33.952

> <r_i_glide_erotb>
0.829229

> <r_i_glide_esite>
-0.104317

> <r_i_glide_evdw>
-29.9986

> <r_i_glide_gscore>
-5.18444

> <r_i_glide_hbond>
-0.16

> <r_i_glide_ligand_efficiency>
-0.246878

> <r_i_glide_ligand_efficiency_ln>
-1.28184

> <r_i_glide_ligand_efficiency_sa>
-0.681119

> <r_i_glide_lipo>
-1.95119

> <r_i_glide_metal>
0

> <r_i_glide_rewards>
-1.70522

> <s_i_glide_gridfile>
wee1_glide-grid

> <s_m_Source_File>
wee1_decoys_glide_SP.sdf

> <s_m_Source_Path>
/Users/zhangxujun/Desktop

> <s_m_entry_id>
1377

> <s_m_entry_name>
wee1_decoys_glide_SP.1102

> <s_m_subgroup_title>
wee1_decoys_glide_SP

> <s_m_subgroupid>
wee1_decoys_glide_SP


$$$$
