ZINC12042994_1121
                    3D
 Schrodinger Suite 2024-2.
 71 75  0  0  1  0            999 V2000
    2.1919   48.7241   19.4164 C   0  0  0  0  0  0
    0.9563   49.5888   19.2113 C   0  0  0  0  0  0
   -0.3442   49.1042   19.4146 C   0  0  0  0  0  0
   -1.5238   50.2968   19.0016 S   0  0  0  0  0  0
   -0.3025   51.4364   18.5272 C   0  0  0  0  0  0
    0.9897   50.9330   18.7382 C   0  0  0  0  0  0
    2.2908   51.7235   18.4903 C   0  0  1  0  0  0
    3.1195   51.0205   18.4403 H   0  0  0  0  0  0
    2.3026   52.4569   17.1392 C   0  0  0  0  0  0
    2.2985   53.8546   17.0455 C   0  0  0  0  0  0
    2.2837   54.4737   15.7994 C   0  0  0  0  0  0
    2.2725   53.7161   14.6298 C   0  0  0  0  0  0
    2.2867   52.3167   14.7214 C   0  0  0  0  0  0
    2.3037   51.6970   15.9673 C   0  0  0  0  0  0
    2.2479   54.4213   13.4427 O   0  0  0  0  0  0
    2.2230   53.7068   12.2115 C   0  0  0  0  0  0
    2.3180   52.0091   21.1064 C   0  0  0  0  0  0
    2.6575   53.0211   22.2194 C   0  0  0  0  0  0
    4.0401   53.5312   22.1975 N   0  0  0  0  0  0
    4.4556   53.9736   20.8521 C   0  0  0  0  0  0
    4.1570   52.9698   19.7181 C   0  0  0  0  0  0
    4.6601   54.0314   23.3432 C   0  0  0  0  0  0
    3.9257   54.4376   24.4706 C   0  0  0  0  0  0
    4.5739   54.8866   25.6215 C   0  0  0  0  0  0
    5.9643   54.9010   25.6659 C   0  0  0  0  0  0
    6.7050   54.5054   24.5602 C   0  0  0  0  0  0
    6.0580   54.0876   23.4031 C   0  0  0  0  0  0
    6.6044   55.2971   26.7884 F   0  0  0  0  0  0
   -0.6057   52.6782   17.9679 N   0  0  0  0  0  0
   -1.8045   53.2982   17.8827 C   0  0  0  0  0  0
   -2.8515   52.8875   18.3853 O   0  0  0  0  0  0
   -1.8038   54.6244   17.1614 C   0  0  0  0  0  0
   -0.7342   55.5232   17.2830 C   0  0  0  0  0  0
   -0.7707   56.7603   16.6463 C   0  0  0  0  0  0
   -1.8768   57.1034   15.8744 C   0  0  0  0  0  0
   -2.9463   56.2221   15.7396 C   0  0  0  0  0  0
   -2.9110   54.9880   16.3844 C   0  0  0  0  0  0
   -0.8184   47.7583   19.9234 C   0  0  0  0  0  0
    2.9243   48.8690   18.6236 H   0  0  0  0  0  0
    2.7027   48.9409   20.3530 H   0  0  0  0  0  0
    1.9844   47.6566   19.3880 H   0  0  0  0  0  0
    2.3023   54.4757   17.9285 H   0  0  0  0  0  0
    2.2768   55.5518   15.7340 H   0  0  0  0  0  0
    2.2862   51.6934   13.8407 H   0  0  0  0  0  0
    2.3212   50.6161   16.0232 H   0  0  0  0  0  0
    2.2010   54.4172   11.3852 H   0  0  0  0  0  0
    3.1122   53.0870   12.0880 H   0  0  0  0  0  0
    1.3336   53.0794   12.1315 H   0  0  0  0  0  0
    1.2418   51.8357   21.1232 H   0  0  0  0  0  0
    2.8593   51.0673   21.2052 H   0  0  0  0  0  0
    2.0270   53.9011   22.0743 H   0  0  0  0  0  0
    2.4096   52.5918   23.1913 H   0  0  0  0  0  0
    5.5011   54.2792   20.8165 H   0  0  0  0  0  0
    3.8673   54.8726   20.6596 H   0  0  0  0  0  0
    4.7318   52.0450   19.7954 H   0  0  0  0  0  0
    4.3664   53.4397   18.7575 H   0  0  0  0  0  0
    2.8465   54.4185   24.4641 H   0  0  0  0  0  0
    4.0033   55.1969   26.4839 H   0  0  0  0  0  0
    7.7799   54.5035   24.6042 H   0  0  0  0  0  0
    6.6583   53.7620   22.5681 H   0  0  0  0  0  0
    0.1831   53.1695   17.5730 H   0  0  0  0  0  0
    0.1176   55.2909   17.9034 H   0  0  0  0  0  0
    0.0521   57.4533   16.7570 H   0  0  0  0  0  0
   -1.9056   58.0624   15.3780 H   0  0  0  0  0  0
   -3.8028   56.4952   15.1405 H   0  0  0  0  0  0
   -3.7533   54.3179   16.2774 H   0  0  0  0  0  0
   -1.2826   47.8487   20.9063 H   0  0  0  0  0  0
   -1.5656   47.3240   19.2588 H   0  0  0  0  0  0
   -0.0222   47.0209   20.0217 H   0  0  0  0  0  0
    2.6530   52.6146   19.7251 N   0  3  0  0  0  0
    2.1322   53.4806   19.6397 H   0  0  0  0  0  0
  1  2  1  0  0  0
  1 39  1  0  0  0
  1 40  1  0  0  0
  1 41  1  0  0  0
  2  6  1  0  0  0
  2  3  2  0  0  0
  3  4  1  0  0  0
  3 38  1  0  0  0
  4  5  1  0  0  0
  5  6  2  0  0  0
  5 29  1  0  0  0
  6  7  1  0  0  0
  7  8  1  0  0  0
  7  9  1  0  0  0
  7 70  1  0  0  0
  9 14  2  0  0  0
  9 10  1  0  0  0
 10 11  2  0  0  0
 10 42  1  0  0  0
 11 12  1  0  0  0
 11 43  1  0  0  0
 12 13  2  0  0  0
 12 15  1  0  0  0
 13 14  1  0  0  0
 13 44  1  0  0  0
 14 45  1  0  0  0
 15 16  1  0  0  0
 16 46  1  0  0  0
 16 47  1  0  0  0
 16 48  1  0  0  0
 17 18  1  0  0  0
 17 49  1  0  0  0
 17 50  1  0  0  0
 17 70  1  0  0  0
 18 19  1  0  0  0
 18 51  1  0  0  0
 18 52  1  0  0  0
 19 20  1  0  0  0
 19 22  1  0  0  0
 20 21  1  0  0  0
 20 53  1  0  0  0
 20 54  1  0  0  0
 21 55  1  0  0  0
 21 56  1  0  0  0
 21 70  1  0  0  0
 22 27  2  0  0  0
 22 23  1  0  0  0
 23 24  2  0  0  0
 23 57  1  0  0  0
 24 25  1  0  0  0
 24 58  1  0  0  0
 25 26  2  0  0  0
 25 28  1  0  0  0
 26 27  1  0  0  0
 26 59  1  0  0  0
 27 60  1  0  0  0
 29 30  1  0  0  0
 29 61  1  0  0  0
 30 31  2  0  0  0
 30 32  1  0  0  0
 32 37  2  0  0  0
 32 33  1  0  0  0
 33 34  2  0  0  0
 33 62  1  0  0  0
 34 35  1  0  0  0
 34 63  1  0  0  0
 35 36  2  0  0  0
 35 64  1  0  0  0
 36 37  1  0  0  0
 36 65  1  0  0  0
 37 66  1  0  0  0
 38 67  1  0  0  0
 38 68  1  0  0  0
 38 69  1  0  0  0
 70 71  1  0  0  0
M  CHG  1  70   1
M  END
> <i_i_glide_confnum>
178

> <i_i_glide_lignum>
1122

> <i_i_glide_posenum>
377

> <i_i_glide_rotatable_bonds>
8

> <i_m_Source_File_Index>
487

> <b_m_subgroup_collapsed>
0

> <r_i_docking_score>
-5.13605

> <r_i_glide_ecoul>
-7.68713

> <r_i_glide_eff_state_penalty>
0

> <r_i_glide_einternal>
8.37296

> <r_i_glide_emodel>
-54.2979

> <r_i_glide_energy>
-43.4135

> <r_i_glide_erotb>
0.512421

> <r_i_glide_esite>
-0.0670674

> <r_i_glide_evdw>
-35.7263

> <r_i_glide_gscore>
-5.13605

> <r_i_glide_hbond>
-0.253021

> <r_i_glide_ligand_efficiency>
-0.135159

> <r_i_glide_ligand_efficiency_ln>
-1.10748

> <r_i_glide_ligand_efficiency_sa>
-0.454402

> <r_i_glide_lipo>
-1.9074

> <r_i_glide_metal>
0

> <r_i_glide_rewards>
-0.48159

> <s_i_glide_gridfile>
wee1_glide-grid

> <s_m_Source_File>
wee1_decoys_glide_SP.sdf

> <s_m_Source_Path>
/Users/zhangxujun/Desktop

> <s_m_entry_id>
762

> <s_m_entry_name>
wee1_decoys_glide_SP.487

> <s_m_subgroup_title>
wee1_decoys_glide_SP

> <s_m_subgroupid>
wee1_decoys_glide_SP


$$$$
