ZINC49512352_1602
                    3D
 Schrodinger Suite 2024-2.
 39 40  0  0  1  0            999 V2000
    5.5042   54.0635   21.6893 C   0  0  0  0  0  0
    5.4797   54.0929   23.1978 C   0  0  0  0  0  0
    4.3912   54.0974   24.0416 C   0  0  0  0  0  0
    4.6610   54.1542   25.4263 C   0  0  0  0  0  0
    6.0413   54.1384   25.6624 C   0  0  0  0  0  0
    6.9111   54.0968   24.1575 S   0  0  0  0  0  0
    6.7940   54.1332   26.9770 C   0  0  0  0  0  0
    3.5897   54.2587   26.5154 C   0  0  1  0  0  0
    3.6507   55.2625   26.9382 H   0  0  0  0  0  0
    2.1689   54.0297   25.9694 C   0  0  0  0  0  0
    3.8610   53.2981   27.6212 N   0  0  0  0  0  0
    2.8608   53.2510   29.0809 S   0  0  0  0  0  0
    3.4942   52.3143   30.0161 O   0  0  0  0  0  0
    2.5571   54.6295   29.4817 O   0  0  0  0  0  0
    1.3517   52.4873   28.5214 C   0  0  0  0  0  0
    1.4064   51.2097   27.9849 C   0  0  0  0  0  0
    0.3194   50.7001   27.2759 C   0  0  0  0  0  0
   -0.8226   51.4871   27.1433 C   0  0  0  0  0  0
   -0.8948   52.7253   27.6816 N   0  0  0  0  0  0
    0.1576   53.1951   28.4026 C   0  0  0  0  0  0
   -1.9478   51.0896   26.4138 N   0  0  0  0  0  0
   -2.1983   49.6967   26.0817 N   0  0  0  0  0  0
    4.6237   54.5475   21.2659 H   0  0  0  0  0  0
    5.5046   53.0409   21.3114 H   0  0  0  0  0  0
    6.3735   54.5760   21.2782 H   0  0  0  0  0  0
    3.4021   54.0800   23.6141 H   0  0  0  0  0  0
    6.8668   53.1236   27.3839 H   0  0  0  0  0  0
    7.8145   54.4964   26.8818 H   0  0  0  0  0  0
    6.3090   54.7536   27.7323 H   0  0  0  0  0  0
    1.9543   54.4967   25.0152 H   0  0  0  0  0  0
    1.9472   52.9710   25.8378 H   0  0  0  0  0  0
    1.4667   54.4644   26.6671 H   0  0  0  0  0  0
    4.8286   52.9856   27.7287 H   0  0  0  0  0  0
    2.3044   50.6308   28.0818 H   0  0  0  0  0  0
    0.3676   49.7147   26.8372 H   0  0  0  0  0  0
    0.0734   54.2037   28.7766 H   0  0  0  0  0  0
   -2.8061   51.6176   26.4931 H   0  0  0  0  0  0
   -1.5981   49.4240   25.3161 H   0  0  0  0  0  0
   -2.0154   49.1339   26.9263 H   0  0  0  0  0  0
  1  2  1  0  0  0
  1 23  1  0  0  0
  1 24  1  0  0  0
  1 25  1  0  0  0
  2  6  1  0  0  0
  2  3  2  0  0  0
  3  4  1  0  0  0
  3 26  1  0  0  0
  4  5  2  0  0  0
  4  8  1  0  0  0
  5  6  1  0  0  0
  5  7  1  0  0  0
  7 27  1  0  0  0
  7 28  1  0  0  0
  7 29  1  0  0  0
  8  9  1  0  0  0
  8 10  1  0  0  0
  8 11  1  0  0  0
 10 30  1  0  0  0
 10 31  1  0  0  0
 10 32  1  0  0  0
 11 12  1  0  0  0
 11 33  1  0  0  0
 12 13  2  0  0  0
 12 14  2  0  0  0
 12 15  1  0  0  0
 15 20  2  0  0  0
 15 16  1  0  0  0
 16 17  2  0  0  0
 16 34  1  0  0  0
 17 18  1  0  0  0
 17 35  1  0  0  0
 18 19  2  0  0  0
 18 21  1  0  0  0
 19 20  1  0  0  0
 20 36  1  0  0  0
 21 22  1  0  0  0
 21 37  1  0  0  0
 22 38  1  0  0  0
 22 39  1  0  0  0
M  END
> <i_i_glide_confnum>
63

> <i_i_glide_lignum>
1603

> <i_i_glide_posenum>
194

> <i_i_glide_rotatable_bonds>
5

> <i_m_Source_File_Index>
3995

> <b_m_subgroup_collapsed>
0

> <r_i_docking_score>
-5.31597

> <r_i_glide_ecoul>
-6.84069

> <r_i_glide_eff_state_penalty>
0

> <r_i_glide_einternal>
8.57211

> <r_i_glide_emodel>
-42.7137

> <r_i_glide_energy>
-35.056

> <r_i_glide_erotb>
0.703989

> <r_i_glide_esite>
-0.0550037

> <r_i_glide_evdw>
-28.2153

> <r_i_glide_gscore>
-5.31597

> <r_i_glide_hbond>
-0.16

> <r_i_glide_ligand_efficiency>
-0.253141

> <r_i_glide_ligand_efficiency_ln>
-1.31436

> <r_i_glide_ligand_efficiency_sa>
-0.698397

> <r_i_glide_lipo>
-2.41963

> <r_i_glide_metal>
0

> <r_i_glide_rewards>
-0.948451

> <s_i_glide_gridfile>
wee1_glide-grid

> <s_m_Source_File>
wee1_decoys_glide_SP.sdf

> <s_m_Source_Path>
/Users/zhangxujun/Desktop

> <s_m_entry_id>
4270

> <s_m_entry_name>
wee1_decoys_glide_SP.3995

> <s_m_subgroup_title>
wee1_decoys_glide_SP

> <s_m_subgroupid>
wee1_decoys_glide_SP


$$$$
