ZINC09018874_3358
                    3D
 Schrodinger Suite 2024-2.
 58 62  0  0  1  0            999 V2000
    6.7586   53.7892   27.1799 C   0  0  0  0  0  0
    5.6952   54.8472   27.5094 C   0  0  0  0  0  0
    4.3902   54.2816   27.4695 O   0  0  0  0  0  0
    3.7022   54.1576   26.3125 C   0  0  0  0  0  0
    4.0899   54.6118   25.2347 O   0  0  0  0  0  0
    2.4278   53.4185   26.4642 C   0  0  0  0  0  0
    1.7484   53.1138   27.6938 C   0  0  0  0  0  0
    0.5370   52.4350   27.4935 C   0  0  0  0  0  0
    0.2332   52.0959   25.8408 S   0  0  0  0  0  0
    1.7075   52.8943   25.3612 C   0  0  0  0  0  0
    2.0987   52.9712   24.0151 N   0  0  0  0  0  0
    1.6137   52.2790   22.9551 C   0  0  0  0  0  0
    0.7619   51.3897   23.0379 O   0  0  0  0  0  0
    2.2009   52.6214   21.5684 C   0  0  2  0  0  0
    2.3520   53.6977   21.5432 H   0  0  0  0  0  0
    1.2162   52.2908   20.4240 C   0  0  0  0  0  0
    3.8108   51.8135   21.2819 S   0  0  0  0  0  0
    4.8798   53.1544   21.6980 C   0  0  0  0  0  0
    5.4575   53.2989   22.8702 N   0  0  0  0  0  0
    6.2841   54.4231   22.8269 N   0  0  0  0  0  0
    6.1739   54.8966   21.6158 C   0  0  0  0  0  0
    5.2987   54.1530   20.8460 N   0  0  0  0  0  0
    5.0726   54.4844   19.4945 C   0  0  0  0  0  0
    5.7452   55.5425   18.9712 C   0  0  0  0  0  0
    6.6949   56.3491   19.7384 C   0  0  0  0  0  0
    7.3158   57.3040   19.2823 O   0  0  0  0  0  0
    6.8549   55.9557   21.0297 N   0  0  0  0  0  0
    7.5540   56.4568   21.5538 H   0  0  0  0  0  0
    5.3581   55.7379   17.5183 C   0  0  0  0  0  0
    4.5445   54.4816   17.1929 C   0  0  0  0  0  0
    4.1320   53.8317   18.5106 C   0  0  0  0  0  0
   -0.4128   51.9590   28.5844 C   0  0  0  0  0  0
   -0.1307   52.7403   29.8769 C   0  0  0  0  0  0
    1.3684   52.7425   30.1997 C   0  0  0  0  0  0
    2.2180   53.4568   29.1213 C   0  0  0  0  0  0
    7.7590   54.2039   27.2934 H   0  0  0  0  0  0
    6.6763   52.9269   27.8427 H   0  0  0  0  0  0
    6.6603   53.4328   26.1523 H   0  0  0  0  0  0
    5.7781   55.6967   26.8322 H   0  0  0  0  0  0
    5.8651   55.2299   28.5163 H   0  0  0  0  0  0
    2.9234   53.5360   23.8521 H   0  0  0  0  0  0
    0.2551   52.7811   20.5667 H   0  0  0  0  0  0
    1.5996   52.6162   19.4591 H   0  0  0  0  0  0
    1.0378   51.2160   20.3500 H   0  0  0  0  0  0
    4.7612   56.6445   17.4136 H   0  0  0  0  0  0
    6.2184   55.8392   16.8539 H   0  0  0  0  0  0
    5.1571   53.7851   16.6152 H   0  0  0  0  0  0
    3.6763   54.7131   16.5691 H   0  0  0  0  0  0
    4.2133   52.7428   18.4675 H   0  0  0  0  0  0
    3.1064   54.0924   18.7671 H   0  0  0  0  0  0
   -0.2649   50.8965   28.7630 H   0  0  0  0  0  0
   -1.4539   52.0745   28.2848 H   0  0  0  0  0  0
   -0.6902   52.2932   30.7021 H   0  0  0  0  0  0
   -0.4941   53.7643   29.7830 H   0  0  0  0  0  0
    1.7061   51.7086   30.3014 H   0  0  0  0  0  0
    1.5354   53.2047   31.1731 H   0  0  0  0  0  0
    2.1739   54.5359   29.2707 H   0  0  0  0  0  0
    3.2541   53.1600   29.2773 H   0  0  0  0  0  0
  1  2  1  0  0  0
  1 36  1  0  0  0
  1 37  1  0  0  0
  1 38  1  0  0  0
  2  3  1  0  0  0
  2 39  1  0  0  0
  2 40  1  0  0  0
  3  4  1  0  0  0
  4  5  2  0  0  0
  4  6  1  0  0  0
  6 10  2  0  0  0
  6  7  1  0  0  0
  7 35  1  0  0  0
  7  8  2  0  0  0
  8  9  1  0  0  0
  8 32  1  0  0  0
  9 10  1  0  0  0
 10 11  1  0  0  0
 11 12  1  0  0  0
 11 41  1  0  0  0
 12 13  2  0  0  0
 12 14  1  0  0  0
 14 15  1  0  0  0
 14 16  1  0  0  0
 14 17  1  0  0  0
 16 42  1  0  0  0
 16 43  1  0  0  0
 16 44  1  0  0  0
 17 18  1  0  0  0
 18 22  1  0  0  0
 18 19  2  0  0  0
 19 20  1  0  0  0
 20 21  2  0  0  0
 21 27  1  0  0  0
 21 22  1  0  0  0
 22 23  1  0  0  0
 23 31  1  0  0  0
 23 24  2  0  0  0
 24 25  1  0  0  0
 24 29  1  0  0  0
 25 26  2  0  0  0
 25 27  1  0  0  0
 27 28  1  0  0  0
 29 30  1  0  0  0
 29 45  1  0  0  0
 29 46  1  0  0  0
 30 31  1  0  0  0
 30 47  1  0  0  0
 30 48  1  0  0  0
 31 49  1  0  0  0
 31 50  1  0  0  0
 32 33  1  0  0  0
 32 51  1  0  0  0
 32 52  1  0  0  0
 33 34  1  0  0  0
 33 53  1  0  0  0
 33 54  1  0  0  0
 34 35  1  0  0  0
 34 55  1  0  0  0
 34 56  1  0  0  0
 35 57  1  0  0  0
 35 58  1  0  0  0
M  END
> <i_i_glide_confnum>
125

> <i_i_glide_lignum>
3359

> <i_i_glide_posenum>
268

> <i_i_glide_rotatable_bonds>
8

> <i_m_Source_File_Index>
2950

> <b_m_subgroup_collapsed>
0

> <r_i_docking_score>
-5.30169

> <r_i_glide_ecoul>
-1.99898

> <r_i_glide_eff_state_penalty>
0

> <r_i_glide_einternal>
3.95223

> <r_i_glide_emodel>
-66.9586

> <r_i_glide_energy>
-52.1318

> <r_i_glide_erotb>
0.51307

> <r_i_glide_esite>
0

> <r_i_glide_evdw>
-50.1328

> <r_i_glide_gscore>
-5.30169

> <r_i_glide_hbond>
-0.174492

> <r_i_glide_ligand_efficiency>
-0.160657

> <r_i_glide_ligand_efficiency_ln>
-1.17907

> <r_i_glide_ligand_efficiency_sa>
-0.515314

> <r_i_glide_lipo>
-1.60326

> <r_i_glide_metal>
0

> <r_i_glide_rewards>
-1.23053

> <s_i_glide_gridfile>
wee1_glide-grid

> <s_m_Source_File>
wee1_decoys_glide_SP.sdf

> <s_m_Source_Path>
/Users/zhangxujun/Desktop

> <s_m_entry_id>
3225

> <s_m_entry_name>
wee1_decoys_glide_SP.2950

> <s_m_subgroup_title>
wee1_decoys_glide_SP

> <s_m_subgroupid>
wee1_decoys_glide_SP


$$$$
