ZINC39636788_1276
                    3D
 Schrodinger Suite 2024-2.
 66 69  0  0  1  0            999 V2000
    2.9071   52.5900   29.1559 C   0  0  0  0  0  0
    2.2140   53.6224   28.2313 C   0  0  2  0  0  0
    2.2826   54.6232   28.6629 H   0  0  0  0  0  0
    0.6889   53.3108   28.0835 C   0  0  0  0  0  0
   -0.0834   53.7844   28.9199 O   0  0  0  0  0  0
    0.2311   52.5751   27.0321 N   0  0  0  0  0  0
   -1.1769   52.3779   26.6766 C   0  0  0  0  0  0
   -1.1468   51.5149   25.3907 C   0  0  2  0  0  0
   -1.9863   50.8238   25.4056 H   0  0  0  0  0  0
    0.2089   50.7422   25.4657 C   0  0  0  0  0  0
    1.1043   51.7238   26.2455 C   0  0  0  0  0  0
    0.9437   50.2266   24.1858 C   0  0  0  0  0  0
    0.1534   49.1450   23.4277 C   0  0  0  0  0  0
   -0.1031   47.9753   24.3936 N   0  3  0  0  0  0
   -0.8186   48.4158   25.6812 C   0  0  0  0  0  0
    0.0737   49.4841   26.3328 C   0  0  0  0  0  0
   -1.2069   52.2835   24.0598 C   0  0  0  0  0  0
   -0.5373   53.2967   23.8974 O   0  0  0  0  0  0
   -1.9865   51.7514   23.1059 N   0  0  0  0  0  0
   -1.9352   52.0965   21.6904 C   0  0  0  0  0  0
   -1.5729   50.9006   20.8299 C   0  0  0  0  0  0
   -2.5672   50.0430   20.3512 C   0  0  0  0  0  0
   -2.2222   48.9492   19.5575 C   0  0  0  0  0  0
   -0.8864   48.7104   19.2356 C   0  0  0  0  0  0
    0.1163   49.5708   19.6968 C   0  0  0  0  0  0
   -0.2399   50.6768   20.4762 C   0  0  0  0  0  0
    1.5884   49.3213   19.3777 C   0  0  0  0  0  0
    2.3130   49.4586   20.4903 F   0  0  0  0  0  0
    1.8003   48.0953   18.8903 F   0  0  0  0  0  0
    1.9898   50.2213   18.4814 F   0  0  0  0  0  0
    2.7549   53.7288   26.9068 O   0  0  0  0  0  0
    4.0403   54.1004   26.5791 C   0  0  0  0  0  0
    5.0375   54.4989   27.4773 C   0  0  0  0  0  0
    6.2892   54.8893   26.9968 C   0  0  0  0  0  0
    6.5403   54.8809   25.6264 C   0  0  0  0  0  0
    5.5535   54.4932   24.7288 C   0  0  0  0  0  0
    4.3098   54.1011   25.2101 C   0  0  0  0  0  0
    2.4162   52.5456   30.1295 H   0  0  0  0  0  0
    2.8811   51.5869   28.7350 H   0  0  0  0  0  0
    3.9521   52.8175   29.3478 H   0  0  0  0  0  0
   -1.6673   51.8107   27.4690 H   0  0  0  0  0  0
   -1.7481   53.2969   26.5523 H   0  0  0  0  0  0
    1.5906   52.3444   25.4911 H   0  0  0  0  0  0
    1.8480   51.2461   26.8815 H   0  0  0  0  0  0
    1.1842   51.0474   23.5083 H   0  0  0  0  0  0
    1.9045   49.8012   24.4730 H   0  0  0  0  0  0
   -0.8275   49.4595   23.0790 H   0  0  0  0  0  0
    0.7199   48.7404   22.5885 H   0  0  0  0  0  0
   -0.6317   47.2460   23.9363 H   0  0  0  0  0  0
   -1.8290   48.7270   25.4226 H   0  0  0  0  0  0
   -0.8963   47.5297   26.3094 H   0  0  0  0  0  0
    1.0451   49.0533   26.5817 H   0  0  0  0  0  0
   -0.3617   49.7649   27.2831 H   0  0  0  0  0  0
   -2.6290   51.0175   23.3617 H   0  0  0  0  0  0
   -2.8956   52.4964   21.3870 H   0  0  0  0  0  0
   -1.2216   52.8960   21.4884 H   0  0  0  0  0  0
   -3.6055   50.2118   20.5975 H   0  0  0  0  0  0
   -2.9915   48.2855   19.1915 H   0  0  0  0  0  0
   -0.6371   47.8563   18.6228 H   0  0  0  0  0  0
    0.5300   51.3496   20.8311 H   0  0  0  0  0  0
    4.8519   54.5565   28.5373 H   0  0  0  0  0  0
    7.0605   55.2073   27.6814 H   0  0  0  0  0  0
    7.5038   55.1774   25.2411 H   0  0  0  0  0  0
    5.7507   54.4937   23.6666 H   0  0  0  0  0  0
    3.5381   53.8060   24.5138 H   0  0  0  0  0  0
    0.7947   47.5880   24.6647 H   0  0  0  0  0  0
  1  2  1  0  0  0
  1 38  1  0  0  0
  1 39  1  0  0  0
  1 40  1  0  0  0
  2  3  1  0  0  0
  2  4  1  0  0  0
  2 31  1  0  0  0
  4  5  2  0  0  0
  4  6  1  0  0  0
  6 11  1  0  0  0
  6  7  1  0  0  0
  7  8  1  0  0  0
  7 41  1  0  0  0
  7 42  1  0  0  0
  8  9  1  0  0  0
  8 10  1  0  0  0
  8 17  1  0  0  0
 10 16  1  0  0  0
 10 11  1  0  0  0
 10 12  1  0  0  0
 11 43  1  0  0  0
 11 44  1  0  0  0
 12 13  1  0  0  0
 12 45  1  0  0  0
 12 46  1  0  0  0
 13 14  1  0  0  0
 13 47  1  0  0  0
 13 48  1  0  0  0
 14 15  1  0  0  0
 14 49  1  0  0  0
 14 66  1  0  0  0
 15 16  1  0  0  0
 15 50  1  0  0  0
 15 51  1  0  0  0
 16 52  1  0  0  0
 16 53  1  0  0  0
 17 18  2  0  0  0
 17 19  1  0  0  0
 19 20  1  0  0  0
 19 54  1  0  0  0
 20 21  1  0  0  0
 20 55  1  0  0  0
 20 56  1  0  0  0
 21 26  2  0  0  0
 21 22  1  0  0  0
 22 23  2  0  0  0
 22 57  1  0  0  0
 23 24  1  0  0  0
 23 58  1  0  0  0
 24 25  2  0  0  0
 24 59  1  0  0  0
 25 26  1  0  0  0
 25 27  1  0  0  0
 26 60  1  0  0  0
 27 28  1  0  0  0
 27 29  1  0  0  0
 27 30  1  0  0  0
 31 32  1  0  0  0
 32 37  2  0  0  0
 32 33  1  0  0  0
 33 34  2  0  0  0
 33 61  1  0  0  0
 34 35  1  0  0  0
 34 62  1  0  0  0
 35 36  2  0  0  0
 35 63  1  0  0  0
 36 37  1  0  0  0
 36 64  1  0  0  0
 37 65  1  0  0  0
M  CHG  1  14   1
M  END
> <i_i_glide_confnum>
36

> <i_i_glide_lignum>
1277

> <i_i_glide_posenum>
52

> <i_i_glide_rotatable_bonds>
9

> <i_m_Source_File_Index>
300

> <b_m_subgroup_collapsed>
0

> <r_i_docking_score>
-4.08776

> <r_i_glide_ecoul>
-1.76537

> <r_i_glide_eff_state_penalty>
0

> <r_i_glide_einternal>
12.1373

> <r_i_glide_emodel>
-43.2469

> <r_i_glide_energy>
-34.5431

> <r_i_glide_erotb>
0.59203

> <r_i_glide_esite>
-0.221126

> <r_i_glide_evdw>
-32.7777

> <r_i_glide_gscore>
-4.08776

> <r_i_glide_hbond>
0

> <r_i_glide_ligand_efficiency>
-0.116793

> <r_i_glide_ligand_efficiency_ln>
-0.897354

> <r_i_glide_ligand_efficiency_sa>
-0.382038

> <r_i_glide_lipo>
-2.10027

> <r_i_glide_metal>
0

> <r_i_glide_rewards>
-0.454706

> <s_i_glide_gridfile>
wee1_glide-grid

> <s_m_Source_File>
wee1_decoys_glide_SP.sdf

> <s_m_Source_Path>
/Users/zhangxujun/Desktop

> <s_m_entry_id>
575

> <s_m_entry_name>
wee1_decoys_glide_SP.300

> <s_m_subgroup_title>
wee1_decoys_glide_SP

> <s_m_subgroupid>
wee1_decoys_glide_SP


$$$$
